
 OpenBabel09122220453D

 34 37  0  0  1  0  0  0  0  0999 V2000
    7.3960   -4.0850    7.8560 O   0  0  0  0  0  0  0  0  0  0  0  0
    7.2160   -2.8920    7.6410 C   0  0  0  0  0  0  0  0  0  0  0  0
    5.8010   -2.3650    7.6120 C   0  0  1  0  0  3  0  0  0  0  0  0
    5.7220   -1.0680    7.9860 C   0  0  1  0  0  3  0  0  0  0  0  0
    6.9760   -0.2820    8.1260 C   0  0  0  0  0  0  0  0  0  0  0  0
    7.0360    0.9680    8.7350 C   0  0  0  0  0  3  0  0  0  0  0  0
    8.2160    1.7030    8.6520 C   0  0  0  0  0  3  0  0  0  0  0  0
    9.2810    1.1770    7.9330 C   0  0  0  0  0  3  0  0  0  0  0  0
    9.2530   -0.0220    7.3070 N   0  0  0  0  0  0  0  0  0  0  0  0
    8.1200   -0.7390    7.4340 C   0  0  0  0  0  0  0  0  0  0  0  0
    7.9990   -2.0360    6.8540 N   0  0  0  0  0  0  0  0  0  0  0  0
    5.3230   -2.8800    6.2560 C   0  0  2  0  0  3  0  0  0  0  0  0
    4.2600   -2.2580    5.7540 N   0  0  0  0  0  0  0  0  0  0  0  0
    2.9140   -3.0210    5.2340 S   0  0  0  0  0  0  0  0  0  0  0  0
    1.7650   -2.1920    5.5340 O   0  0  0  0  0  0  0  0  0  0  0  0
    3.0900   -3.5620    3.9040 O   0  0  0  0  0  0  0  0  0  0  0  0
    2.8240   -4.3880    6.3520 C   0  0  0  0  0  0  0  0  0  0  0  0
    1.3830   -4.9020    7.2810 C   0  0  0  0  0  3  0  0  0  0  0  0
    1.6000   -6.1460    8.5660 C   0  0  0  0  0  3  0  0  0  0  0  0
    3.2570   -6.8280    8.9340 C   0  0  0  0  0  3  0  0  0  0  0  0
    4.6730   -6.3190    7.9430 C   0  0  0  0  0  3  0  0  0  0  0  0
    4.4490   -5.0570    6.6880 C   0  0  0  0  0  0  0  0  0  0  0  0
    5.5150   -4.2990    6.1190 N   0  0  0  0  0  0  0  0  0  0  0  0
    4.0500   -1.3300    6.0960 H   0  0  0  0  0  0  0  0  0  0  0  0
    6.4310   -4.6630    6.3850 H   0  0  0  0  0  0  0  0  0  0  0  0
    4.5850   -0.3050    7.8140 O   0  0  0  0  0  0  0  0  0  0  0  0
    3.7960   -0.8690    7.9100 H   0  0  0  0  0  0  0  0  0  0  0  0
    8.8220   -2.5550    5.5420 C   0  0  0  0  0  1  0  0  0  0  0  0
    9.1240   -1.8250    3.4780 C   0  0  0  0  0  2  0  0  0  0  0  0
    9.4880   -0.1790    2.8540 C   0  0  0  0  0  2  0  0  0  0  0  0
    9.0190    0.0690    1.4140 C   0  0  0  0  0  2  0  0  0  0  0  0
    9.7730   -0.7670    0.4100 C   0  0  0  0  0  2  0  0  0  0  0  0
    9.6120   -2.2310    0.7320 C   0  0  0  0  0  2  0  0  0  0  0  0
   10.0900   -2.5860    2.1460 C   0  0  0  0  0  2  0  0  0  0  0  0
  2  1  2  0  0  0  0
  3  2  1  6  0  0  0
  3  4  1  0  0  0  0
  4 26  1  6  0  0  0
  4  5  1  0  0  0  0
  5  6  1  0  0  0  0
  7  6  2  0  0  0  0
  8  7  1  0  0  0  0
  9 10  1  0  0  0  0
  9  8  2  0  0  0  0
 10  5  2  0  0  0  0
 11 10  1  0  0  0  0
 11  2  1  0  0  0  0
 12 13  1  1  0  0  0
 12  3  1  0  0  0  0
 13 24  1  0  0  0  0
 14 15  2  0  0  0  0
 14 13  1  0  0  0  0
 14 17  1  0  0  0  0
 16 14  2  0  0  0  0
 17 22  2  0  0  0  0
 17 18  1  0  0  0  0
 18 19  2  0  0  0  0
 19 20  1  0  0  0  0
 21 20  2  0  0  0  0
 22 21  1  0  0  0  0
 23 12  1  0  0  0  0
 23 25  1  0  0  0  0
 23 22  1  0  0  0  0
 26 27  1  0  0  0  0
 28 11  1  0  0  0  0
 30 29  1  0  0  0  0
 31 30  1  0  0  0  0
 32 33  1  0  0  0  0
 32 31  1  0  0  0  0
 33 34  1  0  0  0  0
 34 29  1  0  0  0  0
M  END
>  <minimizedAffinity>
-6.6493516

$$$$

 OpenBabel09122220453D

 34 37  0  0  1  0  0  0  0  0999 V2000
    7.3030   -4.3440    7.3780 O   0  0  0  0  0  0  0  0  0  0  0  0
    7.1630   -3.1380    7.2100 C   0  0  0  0  0  0  0  0  0  0  0  0
    5.7880   -2.5360    7.3750 C   0  0  1  0  0  3  0  0  0  0  0  0
    5.8300   -1.2470    7.7800 C   0  0  1  0  0  3  0  0  0  0  0  0
    7.1330   -0.5320    7.7690 C   0  0  0  0  0  0  0  0  0  0  0  0
    7.3410    0.6970    8.3880 C   0  0  0  0  0  3  0  0  0  0  0  0
    8.5400    1.3710    8.1650 C   0  0  0  0  0  3  0  0  0  0  0  0
    9.4710    0.8080    7.3040 C   0  0  0  0  0  3  0  0  0  0  0  0
    9.2960   -0.3710    6.6650 N   0  0  0  0  0  0  0  0  0  0  0  0
    8.1520   -1.0310    6.9260 C   0  0  0  0  0  0  0  0  0  0  0  0
    7.8840   -2.3040    6.3430 N   0  0  0  0  0  0  0  0  0  0  0  0
    5.1110   -2.9910    6.0840 C   0  0  2  0  0  3  0  0  0  0  0  0
    4.0240   -2.3050    5.7410 N   0  0  0  0  0  0  0  0  0  0  0  0
    2.5840   -2.9880    5.3870 S   0  0  0  0  0  0  0  0  0  0  0  0
    1.5290   -2.1140    5.8540 O   0  0  0  0  0  0  0  0  0  0  0  0
    2.5570   -3.5010    4.0350 O   0  0  0  0  0  0  0  0  0  0  0  0
    2.5720   -4.3790    6.4790 C   0  0  0  0  0  0  0  0  0  0  0  0
    1.2410   -4.8480    7.5800 C   0  0  0  0  0  3  0  0  0  0  0  0
    1.5600   -6.1360    8.7990 C   0  0  0  0  0  3  0  0  0  0  0  0
    3.2140   -6.9060    8.9310 C   0  0  0  0  0  3  0  0  0  0  0  0
    4.5120   -6.4390    7.7720 C   0  0  0  0  0  3  0  0  0  0  0  0
    4.1910   -5.1340    6.5830 C   0  0  0  0  0  0  0  0  0  0  0  0
    5.2100   -4.4130    5.8950 N   0  0  0  0  0  0  0  0  0  0  0  0
    3.9090   -1.3780    6.1250 H   0  0  0  0  0  0  0  0  0  0  0  0
    6.1330   -4.8280    6.0290 H   0  0  0  0  0  0  0  0  0  0  0  0
    4.7250   -0.4210    7.7720 O   0  0  0  0  0  0  0  0  0  0  0  0
    3.9250   -0.9440    7.9600 H   0  0  0  0  0  0  0  0  0  0  0  0
    8.5000   -2.8330    4.9260 C   0  0  0  0  0  1  0  0  0  0  0  0
    7.7290   -3.9730    3.1960 C   0  0  0  0  0  2  0  0  0  0  0  0
    6.0450   -4.3520    2.6950 C   0  0  0  0  0  2  0  0  0  0  0  0
    5.9080   -5.6310    1.8570 C   0  0  0  0  0  2  0  0  0  0  0  0
    6.5650   -5.5070    0.5050 C   0  0  0  0  0  2  0  0  0  0  0  0
    8.0280   -5.1830    0.6690 C   0  0  0  0  0  2  0  0  0  0  0  0
    8.2670   -3.8950    1.4680 C   0  0  0  0  0  2  0  0  0  0  0  0
  2  1  2  0  0  0  0
  3  2  1  6  0  0  0
  3  4  1  0  0  0  0
  4 26  1  6  0  0  0
  5  4  1  0  0  0  0
  5  6  1  0  0  0  0
  7  6  2  0  0  0  0
  8  7  1  0  0  0  0
  9 10  1  0  0  0  0
  9  8  2  0  0  0  0
 10  5  2  0  0  0  0
 11 10  1  0  0  0  0
 11  2  1  0  0  0  0
 12 13  1  1  0  0  0
 12  3  1  0  0  0  0
 13 24  1  0  0  0  0
 14 13  1  0  0  0  0
 14 15  2  0  0  0  0
 14 17  1  0  0  0  0
 16 14  2  0  0  0  0
 17 22  2  0  0  0  0
 17 18  1  0  0  0  0
 18 19  2  0  0  0  0
 19 20  1  0  0  0  0
 21 20  2  0  0  0  0
 22 21  1  0  0  0  0
 23 25  1  0  0  0  0
 23 12  1  0  0  0  0
 23 22  1  0  0  0  0
 26 27  1  0  0  0  0
 28 11  1  0  0  0  0
 30 29  1  0  0  0  0
 31 30  1  0  0  0  0
 32 33  1  0  0  0  0
 32 31  1  0  0  0  0
 33 34  1  0  0  0  0
 34 29  1  0  0  0  0
M  END
>  <minimizedAffinity>
-5.50846529

$$$$

 OpenBabel09122220453D

 34 37  0  0  1  0  0  0  0  0999 V2000
    7.7910   -4.3740    3.0330 O   0  0  0  0  0  0  0  0  0  0  0  0
    7.8970   -3.5620    3.9460 C   0  0  0  0  0  0  0  0  0  0  0  0
    6.8730   -3.5810    5.0560 C   0  0  1  0  0  3  0  0  0  0  0  0
    7.3760   -3.1460    6.2330 C   0  0  1  0  0  3  0  0  0  0  0  0
    8.7130   -2.4970    6.2490 C   0  0  0  0  0  0  0  0  0  0  0  0
    9.4290   -2.2390    7.4150 C   0  0  0  0  0  3  0  0  0  0  0  0
   10.5830   -1.4640    7.3400 C   0  0  0  0  0  3  0  0  0  0  0  0
   10.9610   -0.9460    6.1080 C   0  0  0  0  0  3  0  0  0  0  0  0
   10.2790   -1.1540    4.9580 N   0  0  0  0  0  0  0  0  0  0  0  0
    9.1900   -1.9410    5.0400 C   0  0  0  0  0  0  0  0  0  0  0  0
    8.4240   -2.2650    3.8830 N   0  0  0  0  0  0  0  0  0  0  0  0
    5.6760   -2.9350    4.3620 C   0  0  2  0  0  3  0  0  0  0  0  0
    4.7340   -2.4650    5.1750 N   0  0  0  0  0  0  0  0  0  0  0  0
    3.1490   -2.8380    5.0520 S   0  0  0  0  0  0  0  0  0  0  0  0
    2.5820   -2.9000    6.3830 O   0  0  0  0  0  0  0  0  0  0  0  0
    2.4980   -2.0580    4.0220 O   0  0  0  0  0  0  0  0  0  0  0  0
    3.2200   -4.5100    4.4820 C   0  0  0  0  0  0  0  0  0  0  0  0
    2.3270   -5.9010    5.1700 C   0  0  0  0  0  3  0  0  0  0  0  0
    2.7660   -7.5550    4.6070 C   0  0  0  0  0  3  0  0  0  0  0  0
    4.1190   -7.8010    3.4000 C   0  0  0  0  0  3  0  0  0  0  0  0
    4.9600   -6.3710    2.6960 C   0  0  0  0  0  3  0  0  0  0  0  0
    4.5330   -4.7320    3.2870 C   0  0  0  0  0  0  0  0  0  0  0  0
    5.3600   -3.5820    3.1180 N   0  0  0  0  0  0  0  0  0  0  0  0
    4.9930   -2.2610    6.1300 H   0  0  0  0  0  0  0  0  0  0  0  0
    6.1410   -3.7600    2.4850 H   0  0  0  0  0  0  0  0  0  0  0  0
    6.5830   -2.8490    7.3240 O   0  0  0  0  0  0  0  0  0  0  0  0
    5.8090   -3.4410    7.3350 H   0  0  0  0  0  0  0  0  0  0  0  0
    8.3200   -1.3390    2.5410 C   0  0  0  0  0  1  0  0  0  0  0  0
    9.4600   -1.1590    0.6560 C   0  0  0  0  0  2  0  0  0  0  0  0
   10.1770    0.2780   -0.1510 C   0  0  0  0  0  2  0  0  0  0  0  0
   10.3260    0.1400   -1.6720 C   0  0  0  0  0  2  0  0  0  0  0  0
   11.3350   -0.9120   -2.0600 C   0  0  0  0  0  2  0  0  0  0  0  0
   10.9370   -2.2470   -1.4840 C   0  0  0  0  0  2  0  0  0  0  0  0
   10.7970   -2.2180    0.0440 C   0  0  0  0  0  2  0  0  0  0  0  0
  1  2  2  0  0  0  0
  3  2  1  6  0  0  0
  3  4  1  0  0  0  0
  4  5  1  0  0  0  0
  4 26  1  6  0  0  0
  5  6  1  0  0  0  0
  7  6  2  0  0  0  0
  8  7  1  0  0  0  0
  9 10  1  0  0  0  0
  9  8  2  0  0  0  0
 10  5  2  0  0  0  0
 11  2  1  0  0  0  0
 11 10  1  0  0  0  0
 12 23  1  6  0  0  0
 12  3  1  0  0  0  0
 12 13  1  0  0  0  0
 13 24  1  0  0  0  0
 14 13  1  0  0  0  0
 14 15  2  0  0  0  0
 16 14  2  0  0  0  0
 17 14  1  0  0  0  0
 17 18  1  0  0  0  0
 19 18  2  0  0  0  0
 20 19  1  0  0  0  0
 21 22  1  0  0  0  0
 21 20  2  0  0  0  0
 22 17  2  0  0  0  0
 23 22  1  0  0  0  0
 25 23  1  0  0  0  0
 26 27  1  0  0  0  0
 28 11  1  0  0  0  0
 30 29  1  0  0  0  0
 31 30  1  0  0  0  0
 32 31  1  0  0  0  0
 32 33  1  0  0  0  0
 33 34  1  0  0  0  0
 34 29  1  0  0  0  0
M  END
>  <minimizedAffinity>
-5.50144577

$$$$

 OpenBabel09122220453D

 34 37  0  0  1  0  0  0  0  0999 V2000
    4.7190   -2.5810    3.2510 O   0  0  0  0  0  0  0  0  0  0  0  0
    4.8420   -3.7970    3.1480 C   0  0  0  0  0  0  0  0  0  0  0  0
    4.2560   -4.6800    4.2230 C   0  0  1  0  0  3  0  0  0  0  0  0
    3.8930   -5.8960    3.7560 C   0  0  1  0  0  3  0  0  0  0  0  0
    4.3180   -6.2980    2.3900 C   0  0  0  0  0  0  0  0  0  0  0  0
    3.8040   -7.4030    1.7190 C   0  0  0  0  0  3  0  0  0  0  0  0
    4.3970   -7.8040    0.5240 C   0  0  0  0  0  3  0  0  0  0  0  0
    5.5050   -7.1050    0.0620 C   0  0  0  0  0  3  0  0  0  0  0  0
    6.0480   -6.0420    0.6970 N   0  0  0  0  0  0  0  0  0  0  0  0
    5.4360   -5.6410    1.8280 C   0  0  0  0  0  0  0  0  0  0  0  0
    5.8970   -4.5030    2.5530 N   0  0  0  0  0  0  0  0  0  0  0  0
    5.2650   -4.4790    5.3510 C   0  0  2  0  0  3  0  0  0  0  0  0
    5.2860   -5.4370    6.2730 N   0  0  0  0  0  0  0  0  0  0  0  0
    5.1630   -5.1670    7.8780 S   0  0  0  0  0  0  0  0  0  0  0  0
    4.4280   -6.2600    8.4790 O   0  0  0  0  0  0  0  0  0  0  0  0
    6.4260   -4.7450    8.4440 O   0  0  0  0  0  0  0  0  0  0  0  0
    4.0740   -3.7750    7.9230 C   0  0  0  0  0  0  0  0  0  0  0  0
    2.6060   -3.6120    8.9350 C   0  0  0  0  0  3  0  0  0  0  0  0
    1.5000   -2.2280    8.6110 C   0  0  0  0  0  3  0  0  0  0  0  0
    1.8500   -1.0520    7.2540 C   0  0  0  0  0  3  0  0  0  0  0  0
    3.3630   -1.2240    6.2900 C   0  0  0  0  0  3  0  0  0  0  0  0
    4.4400   -2.6230    6.6040 C   0  0  0  0  0  0  0  0  0  0  0  0
    5.4290   -3.0900    5.6870 N   0  0  0  0  0  0  0  0  0  0  0  0
    4.9150   -6.3430    6.0210 H   0  0  0  0  0  0  0  0  0  0  0  0
    5.5670   -2.4450    4.9080 H   0  0  0  0  0  0  0  0  0  0  0  0
    3.5580   -6.9480    4.5840 O   0  0  0  0  0  0  0  0  0  0  0  0
    3.1250   -6.6070    5.3870 H   0  0  0  0  0  0  0  0  0  0  0  0
    7.4330   -3.9480    2.5450 C   0  0  0  0  0  1  0  0  0  0  0  0
    8.6410   -2.6280    3.8420 C   0  0  0  0  0  2  0  0  0  0  0  0
    9.8810   -3.0160    5.0850 C   0  0  0  0  0  2  0  0  0  0  0  0
   10.0350   -1.9500    6.1770 C   0  0  0  0  0  2  0  0  0  0  0  0
   10.5930   -0.6540    5.6440 C   0  0  0  0  0  2  0  0  0  0  0  0
    9.6980   -0.1150    4.5570 C   0  0  0  0  0  2  0  0  0  0  0  0
    9.5100   -1.1010    3.3970 C   0  0  0  0  0  2  0  0  0  0  0  0
  2  1  2  0  0  0  0
  3  2  1  6  0  0  0
  3 12  1  0  0  0  0
  4  3  1  0  0  0  0
  4 26  1  1  0  0  0
  5  4  1  0  0  0  0
  6  5  2  0  0  0  0
  7  6  1  0  0  0  0
  8  7  2  0  0  0  0
  8  9  1  0  0  0  0
  9 10  2  0  0  0  0
 10  5  1  0  0  0  0
 10 11  1  0  0  0  0
 11  2  1  0  0  0  0
 12 23  1  1  0  0  0
 12 13  1  0  0  0  0
 13 14  1  0  0  0  0
 14 17  1  0  0  0  0
 14 16  2  0  0  0  0
 14 15  2  0  0  0  0
 17 18  1  0  0  0  0
 19 18  2  0  0  0  0
 20 19  1  0  0  0  0
 21 22  1  0  0  0  0
 21 20  2  0  0  0  0
 22 17  2  0  0  0  0
 23 22  1  0  0  0  0
 24 13  1  0  0  0  0
 25 23  1  0  0  0  0
 26 27  1  0  0  0  0
 28 11  1  0  0  0  0
 29 30  1  0  0  0  0
 30 31  1  0  0  0  0
 32 31  1  0  0  0  0
 33 32  1  0  0  0  0
 34 29  1  0  0  0  0
 34 33  1  0  0  0  0
M  END
>  <minimizedAffinity>
-4.8048377

$$$$

 OpenBabel09122220453D

 34 37  0  0  1  0  0  0  0  0999 V2000
    6.5490   -4.4670    6.6210 O   0  0  0  0  0  0  0  0  0  0  0  0
    7.0250   -3.3450    6.7530 C   0  0  0  0  0  0  0  0  0  0  0  0
    6.3010   -2.3470    7.6240 C   0  0  1  0  0  3  0  0  0  0  0  0
    7.1390   -1.4480    8.1900 C   0  0  1  0  0  3  0  0  0  0  0  0
    8.5480   -1.3840    7.7220 C   0  0  0  0  0  0  0  0  0  0  0  0
    9.5490   -0.6850    8.3900 C   0  0  0  0  0  3  0  0  0  0  0  0
   10.7900   -0.5310    7.7760 C   0  0  0  0  0  3  0  0  0  0  0  0
   10.9730   -1.0520    6.5030 C   0  0  0  0  0  3  0  0  0  0  0  0
   10.0180   -1.7160    5.8110 N   0  0  0  0  0  0  0  0  0  0  0  0
    8.8390   -1.8940    6.4360 C   0  0  0  0  0  0  0  0  0  0  0  0
    7.7780   -2.6190    5.8190 N   0  0  0  0  0  0  0  0  0  0  0  0
    5.1360   -1.9560    6.7180 C   0  0  2  0  0  3  0  0  0  0  0  0
    4.2680   -1.0970    7.2460 N   0  0  0  0  0  0  0  0  0  0  0  0
    2.6550   -1.3390    7.2950 S   0  0  0  0  0  0  0  0  0  0  0  0
    2.1370   -0.7700    8.5210 O   0  0  0  0  0  0  0  0  0  0  0  0
    2.0320   -1.0230    6.0280 O   0  0  0  0  0  0  0  0  0  0  0  0
    2.5640   -3.0930    7.5050 C   0  0  0  0  0  0  0  0  0  0  0  0
    1.5860   -3.9630    8.7260 C   0  0  0  0  0  3  0  0  0  0  0  0
    1.8630   -5.7300    8.9350 C   0  0  0  0  0  3  0  0  0  0  0  0
    3.1430   -6.5960    7.9550 C   0  0  0  0  0  3  0  0  0  0  0  0
    4.0720   -5.6930    6.7020 C   0  0  0  0  0  3  0  0  0  0  0  0
    3.8070   -3.9270    6.5250 C   0  0  0  0  0  0  0  0  0  0  0  0
    4.7190   -3.0440    5.8750 N   0  0  0  0  0  0  0  0  0  0  0  0
    4.5800   -0.5260    8.0190 H   0  0  0  0  0  0  0  0  0  0  0  0
    5.4570   -3.5490    5.3820 H   0  0  0  0  0  0  0  0  0  0  0  0
    6.6950   -0.3080    8.8280 O   0  0  0  0  0  0  0  0  0  0  0  0
    5.8400   -0.4860    9.2590 H   0  0  0  0  0  0  0  0  0  0  0  0
    7.5630   -2.7710    4.2070 C   0  0  0  0  0  1  0  0  0  0  0  0
    8.5940   -2.0260    2.4000 C   0  0  0  0  0  2  0  0  0  0  0  0
    9.4270   -0.4650    2.0810 C   0  0  0  0  0  2  0  0  0  0  0  0
    9.4620   -0.0580    0.6020 C   0  0  0  0  0  2  0  0  0  0  0  0
   10.3100   -0.9850   -0.2310 C   0  0  0  0  0  2  0  0  0  0  0  0
    9.7920   -2.3960   -0.1250 C   0  0  0  0  0  2  0  0  0  0  0  0
    9.7520   -2.9080    1.3220 C   0  0  0  0  0  2  0  0  0  0  0  0
  1  2  2  0  0  0  0
  3  2  1  6  0  0  0
  3  4  1  0  0  0  0
  4 26  1  6  0  0  0
  5  4  1  0  0  0  0
  5  6  1  0  0  0  0
  7  6  2  0  0  0  0
  8  7  1  0  0  0  0
  9 10  1  0  0  0  0
  9  8  2  0  0  0  0
 10  5  2  0  0  0  0
 11 10  1  0  0  0  0
 11  2  1  0  0  0  0
 12 23  1  1  0  0  0
 12 13  1  0  0  0  0
 12  3  1  0  0  0  0
 13 14  1  0  0  0  0
 13 24  1  0  0  0  0
 14 17  1  0  0  0  0
 14 15  2  0  0  0  0
 16 14  2  0  0  0  0
 17 18  1  0  0  0  0
 18 19  2  0  0  0  0
 20 19  1  0  0  0  0
 21 20  2  0  0  0  0
 22 21  1  0  0  0  0
 22 17  2  0  0  0  0
 23 22  1  0  0  0  0
 25 23  1  0  0  0  0
 26 27  1  0  0  0  0
 28 11  1  0  0  0  0
 30 29  1  0  0  0  0
 31 30  1  0  0  0  0
 32 33  1  0  0  0  0
 32 31  1  0  0  0  0
 33 34  1  0  0  0  0
 34 29  1  0  0  0  0
M  END
>  <minimizedAffinity>
-4.74982023

$$$$

 OpenBabel09122220453D

 34 37  0  0  1  0  0  0  0  0999 V2000
    3.6620   -3.3180    2.6110 O   0  0  0  0  0  0  0  0  0  0  0  0
    4.3770   -4.2890    2.8340 C   0  0  0  0  0  0  0  0  0  0  0  0
    3.8140   -5.4360    3.6380 C   0  0  1  0  0  3  0  0  0  0  0  0
    4.3770   -6.6230    3.3140 C   0  0  1  0  0  3  0  0  0  0  0  0
    5.5840   -6.6340    2.4480 C   0  0  0  0  0  0  0  0  0  0  0  0
    6.0940   -7.7840    1.8540 C   0  0  0  0  0  3  0  0  0  0  0  0
    7.3310   -7.7230    1.2150 C   0  0  0  0  0  3  0  0  0  0  0  0
    8.0270   -6.5220    1.2240 C   0  0  0  0  0  3  0  0  0  0  0  0
    7.5770   -5.3900    1.8110 N   0  0  0  0  0  0  0  0  0  0  0  0
    6.3610   -5.4540    2.3860 C   0  0  0  0  0  0  0  0  0  0  0  0
    5.7700   -4.3080    2.9930 N   0  0  0  0  0  0  0  0  0  0  0  0
    3.8420   -4.8490    5.0480 C   0  0  2  0  0  3  0  0  0  0  0  0
    4.4860   -5.5790    5.9540 N   0  0  0  0  0  0  0  0  0  0  0  0
    3.8500   -6.0270    7.3890 S   0  0  0  0  0  0  0  0  0  0  0  0
    4.3460   -7.3450    7.7260 O   0  0  0  0  0  0  0  0  0  0  0  0
    3.9190   -4.9560    8.3590 O   0  0  0  0  0  0  0  0  0  0  0  0
    2.1460   -6.2490    6.9690 C   0  0  0  0  0  0  0  0  0  0  0  0
    1.1360   -7.6730    7.3650 C   0  0  0  0  0  3  0  0  0  0  0  0
   -0.4880   -7.8020    6.5970 C   0  0  0  0  0  3  0  0  0  0  0  0
   -1.0630   -6.5320    5.4120 C   0  0  0  0  0  3  0  0  0  0  0  0
   -0.0350   -5.0900    5.0780 C   0  0  0  0  0  3  0  0  0  0  0  0
    1.5920   -4.9890    5.8270 C   0  0  0  0  0  0  0  0  0  0  0  0
    2.6340   -4.1350    5.3580 N   0  0  0  0  0  0  0  0  0  0  0  0
    5.1650   -6.2510    5.6250 H   0  0  0  0  0  0  0  0  0  0  0  0
    2.3020   -3.4720    4.6560 H   0  0  0  0  0  0  0  0  0  0  0  0
    4.2020   -7.7660    4.0660 O   0  0  0  0  0  0  0  0  0  0  0  0
    3.3120   -7.7630    4.4640 H   0  0  0  0  0  0  0  0  0  0  0  0
    6.6000   -3.0520    3.6250 C   0  0  0  0  0  1  0  0  0  0  0  0
    8.0550   -2.7880    5.2680 C   0  0  0  0  0  2  0  0  0  0  0  0
    9.7020   -2.0670    5.2740 C   0  0  0  0  0  2  0  0  0  0  0  0
   10.6220   -2.6040    6.3790 C   0  0  0  0  0  2  0  0  0  0  0  0
   10.1560   -2.2110    7.7580 C   0  0  0  0  0  2  0  0  0  0  0  0
    8.7580   -2.7200    7.9960 C   0  0  0  0  0  2  0  0  0  0  0  0
    7.7520   -2.2070    6.9570 C   0  0  0  0  0  2  0  0  0  0  0  0
  1  2  2  0  0  0  0
  2 11  1  0  0  0  0
  3  2  1  6  0  0  0
  3 12  1  0  0  0  0
  4  3  1  0  0  0  0
  4 26  1  1  0  0  0
  5  4  1  0  0  0  0
  6  5  2  0  0  0  0
  7  8  2  0  0  0  0
  7  6  1  0  0  0  0
  8  9  1  0  0  0  0
  9 10  2  0  0  0  0
 10  5  1  0  0  0  0
 10 11  1  0  0  0  0
 11 28  1  0  0  0  0
 12 23  1  1  0  0  0
 12 13  1  0  0  0  0
 13 14  1  0  0  0  0
 14 15  2  0  0  0  0
 14 16  2  0  0  0  0
 17 18  1  0  0  0  0
 17 14  1  0  0  0  0
 19 18  2  0  0  0  0
 20 19  1  0  0  0  0
 21 20  2  0  0  0  0
 21 22  1  0  0  0  0
 22 17  2  0  0  0  0
 23 22  1  0  0  0  0
 24 13  1  0  0  0  0
 25 23  1  0  0  0  0
 26 27  1  0  0  0  0
 29 30  1  0  0  0  0
 29 34  1  0  0  0  0
 30 31  1  0  0  0  0
 31 32  1  0  0  0  0
 32 33  1  0  0  0  0
 34 33  1  0  0  0  0
M  END
>  <minimizedAffinity>
-3.98437548

$$$$
