
 OpenBabel09122222393D

 34 37  0  0  1  0  0  0  0  0999 V2000
    7.7910   -4.3740    3.0330 O   0  0  0  0  0  0  0  0  0  0  0  0
    7.8970   -3.5620    3.9460 C   0  0  0  0  0  0  0  0  0  0  0  0
    6.8730   -3.5810    5.0560 C   0  0  1  0  0  3  0  0  0  0  0  0
    7.3760   -3.1460    6.2330 C   0  0  1  0  0  3  0  0  0  0  0  0
    8.7130   -2.4970    6.2490 C   0  0  0  0  0  0  0  0  0  0  0  0
    9.4290   -2.2390    7.4150 C   0  0  0  0  0  3  0  0  0  0  0  0
   10.5830   -1.4640    7.3400 C   0  0  0  0  0  3  0  0  0  0  0  0
   10.9610   -0.9460    6.1080 C   0  0  0  0  0  3  0  0  0  0  0  0
   10.2790   -1.1540    4.9580 N   0  0  0  0  0  0  0  0  0  0  0  0
    9.1900   -1.9410    5.0400 C   0  0  0  0  0  0  0  0  0  0  0  0
    8.4240   -2.2650    3.8830 N   0  0  0  0  0  0  0  0  0  0  0  0
    5.6760   -2.9350    4.3620 C   0  0  2  0  0  3  0  0  0  0  0  0
    4.7340   -2.4650    5.1750 N   0  0  0  0  0  0  0  0  0  0  0  0
    3.1490   -2.8380    5.0520 S   0  0  0  0  0  0  0  0  0  0  0  0
    2.5820   -2.9000    6.3830 O   0  0  0  0  0  0  0  0  0  0  0  0
    2.4980   -2.0580    4.0220 O   0  0  0  0  0  0  0  0  0  0  0  0
    3.2200   -4.5100    4.4820 C   0  0  0  0  0  0  0  0  0  0  0  0
    2.3270   -5.9010    5.1700 C   0  0  0  0  0  3  0  0  0  0  0  0
    2.7660   -7.5550    4.6070 C   0  0  0  0  0  3  0  0  0  0  0  0
    4.1190   -7.8010    3.4000 C   0  0  0  0  0  3  0  0  0  0  0  0
    4.9600   -6.3710    2.6960 C   0  0  0  0  0  3  0  0  0  0  0  0
    4.5330   -4.7320    3.2870 C   0  0  0  0  0  0  0  0  0  0  0  0
    5.3600   -3.5820    3.1180 N   0  0  0  0  0  0  0  0  0  0  0  0
    4.9930   -2.2610    6.1300 H   0  0  0  0  0  0  0  0  0  0  0  0
    6.1410   -3.7600    2.4850 H   0  0  0  0  0  0  0  0  0  0  0  0
    6.5830   -2.8490    7.3240 O   0  0  0  0  0  0  0  0  0  0  0  0
    5.8090   -3.4410    7.3350 H   0  0  0  0  0  0  0  0  0  0  0  0
    8.3200   -1.3390    2.5410 C   0  0  0  0  0  1  0  0  0  0  0  0
    9.4600   -1.1590    0.6560 C   0  0  0  0  0  2  0  0  0  0  0  0
   10.1770    0.2780   -0.1510 C   0  0  0  0  0  2  0  0  0  0  0  0
   10.3260    0.1400   -1.6720 C   0  0  0  0  0  2  0  0  0  0  0  0
   11.3350   -0.9120   -2.0600 C   0  0  0  0  0  2  0  0  0  0  0  0
   10.9370   -2.2470   -1.4840 C   0  0  0  0  0  2  0  0  0  0  0  0
   10.7970   -2.2180    0.0440 C   0  0  0  0  0  2  0  0  0  0  0  0
  1  2  2  0  0  0  0
  3  2  1  6  0  0  0
  3  4  1  0  0  0  0
  4  5  1  0  0  0  0
  4 26  1  6  0  0  0
  5  6  1  0  0  0  0
  7  6  2  0  0  0  0
  8  7  1  0  0  0  0
  9 10  1  0  0  0  0
  9  8  2  0  0  0  0
 10  5  2  0  0  0  0
 11  2  1  0  0  0  0
 11 10  1  0  0  0  0
 12 23  1  6  0  0  0
 12  3  1  0  0  0  0
 12 13  1  0  0  0  0
 13 24  1  0  0  0  0
 14 13  1  0  0  0  0
 14 15  2  0  0  0  0
 16 14  2  0  0  0  0
 17 14  1  0  0  0  0
 17 18  1  0  0  0  0
 19 18  2  0  0  0  0
 20 19  1  0  0  0  0
 21 22  1  0  0  0  0
 21 20  2  0  0  0  0
 22 17  2  0  0  0  0
 23 22  1  0  0  0  0
 25 23  1  0  0  0  0
 26 27  1  0  0  0  0
 28 11  1  0  0  0  0
 30 29  1  0  0  0  0
 31 30  1  0  0  0  0
 32 31  1  0  0  0  0
 32 33  1  0  0  0  0
 33 34  1  0  0  0  0
 34 29  1  0  0  0  0
M  END
>  <minimizedAffinity>
-5.50144577

$$$$
