REMARK  Name = 
REMARK  3 active torsions:
REMARK  status: ('A' for Active; 'I' for Inactive)
REMARK    1  A    between atoms: C_2  and  C_4
REMARK    2  A    between atoms: C_11  and  C_12
REMARK    3  A    between atoms: N_18  and  C_19
REMARK                            x       y       z     vdW  Elec       q    Type
REMARK                         _______ _______ _______ _____ _____    ______ ____
ROOT
ATOM      1  C   UNL     1       3.123   1.154   0.057  0.00  0.00    -0.001 A 
ATOM      2  C   UNL     1       2.686   2.051   1.045  0.00  0.00    +0.012 A 
ATOM      3  C   UNL     1       3.295   3.296   1.247  0.00  0.00    +0.028 A 
ATOM      4  C   UNL     1       4.376   3.629   0.421  0.00  0.00    +0.069 A 
ATOM      5  C   UNL     1       4.841   2.763  -0.566  0.00  0.00    +0.090 A 
ATOM      6  C   UNL     1       4.215   1.521  -0.754  0.00  0.00    +0.039 A 
ATOM      7  N   UNL     1       5.907   3.311  -1.234  0.00  0.00    -0.228 NA
ATOM      8  C   UNL     1       6.136   4.480  -0.668  0.00  0.00    +0.142 A 
ATOM      9  N   UNL     1       5.191   4.739   0.314  0.00  0.00    -0.320 N 
ENDROOT
BRANCH   8  10
ATOM     10  C   UNL     1       7.219   5.378  -1.070  0.00  0.00    +0.017 A 
ATOM     11  C   UNL     1       8.242   5.725  -0.177  0.00  0.00    +0.011 A 
ATOM     12  C   UNL     1       9.267   6.584  -0.578  0.00  0.00    +0.001 A 
ATOM     13  C   UNL     1       9.283   7.092  -1.877  0.00  0.00    +0.000 A 
ATOM     14  C   UNL     1       8.281   6.734  -2.779  0.00  0.00    +0.001 A 
ATOM     15  C   UNL     1       7.256   5.875  -2.378  0.00  0.00    +0.011 A 
ENDBRANCH   8  10
BRANCH   9  16
ATOM     16  C   UNL     1       5.057   5.990   1.056  0.00  0.00    +0.089 C 
ATOM     17  C   UNL     1       3.713   6.697   0.808  0.00  0.00    +0.025 C 
ATOM     18  C   UNL     1       3.639   8.025   1.561  0.00  0.00    +0.002 C 
ATOM     19  C   UNL     1       3.921   7.844   3.050  0.00  0.00    +0.000 C 
ATOM     20  C   UNL     1       5.262   7.158   3.292  0.00  0.00    +0.002 C 
ATOM     21  C   UNL     1       5.355   5.823   2.554  0.00  0.00    +0.025 C 
ENDBRANCH   9  16
BRANCH   1  23
ATOM     22  O   UNL     1       1.457  -0.442   0.644  0.00  0.00    -0.545 OA
ATOM     23  C   UNL     1       2.433  -0.183  -0.130  0.00  0.00    +0.072 C 
ATOM     24  O   UNL     1       2.877  -0.946  -1.044  0.00  0.00    -0.545 OA
ENDBRANCH   1  23
TORSDOF 3
