
 OpenBabel09122222393D

 24 27  0  0  0  0  0  0  0  0999 V2000
    9.5200    8.0310    1.1790 C   0  0  0  0  0  0  0  0  0  0  0  0
   10.0900    7.7410    2.4290 C   0  0  0  0  0  3  0  0  0  0  0  0
   10.5000    6.4500    2.7830 C   0  0  0  0  0  3  0  0  0  0  0  0
   10.3210    5.4320    1.8370 C   0  0  0  0  0  0  0  0  0  0  0  0
    9.7540    5.6800    0.5890 C   0  0  0  0  0  0  0  0  0  0  0  0
    9.3520    6.9820    0.2530 C   0  0  0  0  0  3  0  0  0  0  0  0
    9.6810    4.5270   -0.1510 N   0  0  0  0  0  0  0  0  0  0  0  0
   10.1580    3.5650    0.6140 C   0  0  0  0  0  0  0  0  0  0  0  0
   10.6100    4.0820    1.8200 N   0  0  0  0  0  0  0  0  0  0  0  0
   10.2280    2.1620    0.2060 C   0  0  0  0  0  0  0  0  0  0  0  0
    9.5710    1.1610    0.9350 C   0  0  0  0  0  3  0  0  0  0  0  0
    9.6500   -0.1730    0.5300 C   0  0  0  0  0  3  0  0  0  0  0  0
   10.3750   -0.5140   -0.6120 C   0  0  0  0  0  3  0  0  0  0  0  0
   11.0130    0.4790   -1.3550 C   0  0  0  0  0  3  0  0  0  0  0  0
   10.9350    1.8130   -0.9510 C   0  0  0  0  0  3  0  0  0  0  0  0
   11.3160    3.3310    2.8550 C   0  0  0  0  0  3  0  0  0  0  0  0
   12.7080    3.9040    3.1720 C   0  0  0  0  0  2  0  0  0  0  0  0
   13.4300    3.0570    4.2200 C   0  0  0  0  0  2  0  0  0  0  0  0
   12.5870    2.8810    5.4800 C   0  0  0  0  0  2  0  0  0  0  0  0
   11.2130    2.2970    5.1630 C   0  0  0  0  0  2  0  0  0  0  0  0
   10.4700    3.1330    4.1220 C   0  0  0  0  0  2  0  0  0  0  0  0
    7.8630    9.6240    0.5580 O   0  0  0  0  0  0  0  0  0  0  0  0
    9.0920    9.4440    0.8350 C   0  0  0  0  0  0  0  0  0  0  0  0
    9.9880   10.3450    0.8490 O   0  0  0  0  0  1  0  0  0  0  0  0
  1  2  1  0  0  0  0
  2  3  2  0  0  0  0
  4  3  1  0  0  0  0
  5  4  2  0  0  0  0
  6  5  1  0  0  0  0
  6  1  2  0  0  0  0
  7  5  1  0  0  0  0
  7  8  2  0  0  0  0
  8  9  1  0  0  0  0
  9  4  1  0  0  0  0
  9 16  1  0  0  0  0
 10  8  1  0  0  0  0
 10 11  1  0  0  0  0
 12 11  2  0  0  0  0
 13 12  1  0  0  0  0
 14 15  1  0  0  0  0
 14 13  2  0  0  0  0
 15 10  2  0  0  0  0
 16 17  1  0  0  0  0
 16 21  1  0  0  0  0
 17 18  1  0  0  0  0
 18 19  1  0  0  0  0
 20 19  1  0  0  0  0
 21 20  1  0  0  0  0
 22 23  2  0  0  0  0
 23 24  1  0  0  0  0
 23  1  1  0  0  0  0
M  END
>  <minimizedAffinity>
-6.39441633

$$$$
