
 OpenBabel09122222393D

 24 27  0  0  0  0  0  0  0  0999 V2000
   10.5120    3.4790    0.4490 C   0  0  0  0  0  0  0  0  0  0  0  0
   11.4460    3.0270   -0.4960 C   0  0  0  0  0  3  0  0  0  0  0  0
   11.5610    1.6760   -0.8480 C   0  0  0  0  0  3  0  0  0  0  0  0
   10.7010    0.7680   -0.2170 C   0  0  0  0  0  0  0  0  0  0  0  0
    9.7650    1.1780    0.7290 C   0  0  0  0  0  0  0  0  0  0  0  0
    9.6640    2.5370    1.0660 C   0  0  0  0  0  3  0  0  0  0  0  0
    9.0490    0.1080    1.2040 N   0  0  0  0  0  0  0  0  0  0  0  0
    9.5360   -0.9590    0.6020 C   0  0  0  0  0  0  0  0  0  0  0  0
   10.5130   -0.5970   -0.3150 N   0  0  0  0  0  0  0  0  0  0  0  0
    9.0640   -2.3200    0.8540 C   0  0  0  0  0  0  0  0  0  0  0  0
    8.5060   -2.6760    2.0900 C   0  0  0  0  0  3  0  0  0  0  0  0
    8.0610   -3.9810    2.3130 C   0  0  0  0  0  3  0  0  0  0  0  0
    8.1590   -4.9340    1.2990 C   0  0  0  0  0  3  0  0  0  0  0  0
    8.6920   -4.5820    0.0590 C   0  0  0  0  0  3  0  0  0  0  0  0
    9.1370   -3.2780   -0.1640 C   0  0  0  0  0  3  0  0  0  0  0  0
   11.1750   -1.5000   -1.2520 C   0  0  0  0  0  3  0  0  0  0  0  0
   11.7570   -0.7760   -2.4790 C   0  0  0  0  0  2  0  0  0  0  0  0
   12.3920   -1.7650   -3.4560 C   0  0  0  0  0  2  0  0  0  0  0  0
   13.4320   -2.6450   -2.7690 C   0  0  0  0  0  2  0  0  0  0  0  0
   12.8480   -3.3740   -1.5630 C   0  0  0  0  0  2  0  0  0  0  0  0
   12.2130   -2.4030   -0.5680 C   0  0  0  0  0  2  0  0  0  0  0  0
    9.4670    5.6110    0.2710 O   0  0  0  0  0  0  0  0  0  0  0  0
   10.4190    4.9510    0.7980 C   0  0  0  0  0  0  0  0  0  0  0  0
   11.2950    5.4190    1.5910 O   0  0  0  0  0  1  0  0  0  0  0  0
  1 23  1  0  0  0  0
  1  6  1  0  0  0  0
  2  1  2  0  0  0  0
  3  2  1  0  0  0  0
  3  4  2  0  0  0  0
  4  5  1  0  0  0  0
  5  6  2  0  0  0  0
  5  7  1  0  0  0  0
  8 10  1  0  0  0  0
  8  7  2  0  0  0  0
  9  4  1  0  0  0  0
  9  8  1  0  0  0  0
 10 11  1  0  0  0  0
 11 12  2  0  0  0  0
 13 12  1  0  0  0  0
 14 13  2  0  0  0  0
 15 14  1  0  0  0  0
 15 10  2  0  0  0  0
 16 21  1  0  0  0  0
 16  9  1  0  0  0  0
 17 16  1  0  0  0  0
 18 19  1  0  0  0  0
 18 17  1  0  0  0  0
 19 20  1  0  0  0  0
 20 21  1  0  0  0  0
 22 23  2  0  0  0  0
 23 24  1  0  0  0  0
M  END
>  <minimizedAffinity>
-5.19976473

$$$$
