
 OpenBabel09122222393D

 24 27  0  0  0  0  0  0  0  0999 V2000
    9.4090    8.9710    0.8680 C   0  0  0  0  0  0  0  0  0  0  0  0
   10.0250    8.8250    2.1220 C   0  0  0  0  0  3  0  0  0  0  0  0
   10.4440    7.5800    2.6090 C   0  0  0  0  0  3  0  0  0  0  0  0
   10.2260    6.4610    1.7960 C   0  0  0  0  0  0  0  0  0  0  0  0
    9.6130    6.5660    0.5490 C   0  0  0  0  0  0  0  0  0  0  0  0
    9.2040    7.8230    0.0780 C   0  0  0  0  0  3  0  0  0  0  0  0
    9.5090    5.3350   -0.0490 N   0  0  0  0  0  0  0  0  0  0  0  0
   10.0110    4.4650    0.8060 C   0  0  0  0  0  0  0  0  0  0  0  0
   10.5090    5.1150    1.9250 N   0  0  0  0  0  0  0  0  0  0  0  0
   10.0610    3.0240    0.5610 C   0  0  0  0  0  0  0  0  0  0  0  0
    9.4120    2.1210    1.4150 C   0  0  0  0  0  3  0  0  0  0  0  0
    9.4710    0.7480    1.1660 C   0  0  0  0  0  3  0  0  0  0  0  0
   10.1690    0.2700    0.0570 C   0  0  0  0  0  3  0  0  0  0  0  0
   10.7980    1.1630   -0.8100 C   0  0  0  0  0  3  0  0  0  0  0  0
   10.7390    2.5350   -0.5620 C   0  0  0  0  0  3  0  0  0  0  0  0
   11.2510    4.4850    3.0140 C   0  0  0  0  0  3  0  0  0  0  0  0
   12.6760    5.0430    3.1760 C   0  0  0  0  0  2  0  0  0  0  0  0
   13.4310    4.3180    4.2890 C   0  0  0  0  0  2  0  0  0  0  0  0
   12.6570    4.3450    5.6040 C   0  0  0  0  0  2  0  0  0  0  0  0
   11.2510    3.7750    5.4440 C   0  0  0  0  0  2  0  0  0  0  0  0
   10.4740    4.4910    4.3400 C   0  0  0  0  0  2  0  0  0  0  0  0
    9.8940   11.1750    0.1100 O   0  0  0  0  0  0  0  0  0  0  0  0
    8.9740   10.3380    0.3780 C   0  0  0  0  0  0  0  0  0  0  0  0
    7.7250   10.5480    0.2690 O   0  0  0  0  0  1  0  0  0  0  0  0
  1  2  1  0  0  0  0
  2  3  2  0  0  0  0
  4  9  1  0  0  0  0
  4  3  1  0  0  0  0
  5  4  2  0  0  0  0
  6  5  1  0  0  0  0
  6  1  2  0  0  0  0
  7  5  1  0  0  0  0
  7  8  2  0  0  0  0
  8  9  1  0  0  0  0
  9 16  1  0  0  0  0
 10  8  1  0  0  0  0
 10 11  1  0  0  0  0
 12 11  2  0  0  0  0
 13 12  1  0  0  0  0
 14 15  1  0  0  0  0
 14 13  2  0  0  0  0
 15 10  2  0  0  0  0
 16 17  1  0  0  0  0
 16 21  1  0  0  0  0
 17 18  1  0  0  0  0
 18 19  1  0  0  0  0
 20 19  1  0  0  0  0
 21 20  1  0  0  0  0
 22 23  2  0  0  0  0
 23  1  1  0  0  0  0
 24 23  1  0  0  0  0
M  END
>  <minimizedAffinity>
-5.88546801

$$$$
