
 OpenBabel09122222393D

 24 27  0  0  0  0  0  0  0  0999 V2000
    8.9900   -1.9310    2.1020 C   0  0  0  0  0  0  0  0  0  0  0  0
    9.0890   -1.0420    1.0190 C   0  0  0  0  0  3  0  0  0  0  0  0
    9.4830    0.2920    1.1810 C   0  0  0  0  0  3  0  0  0  0  0  0
    9.7800    0.7270    2.4790 C   0  0  0  0  0  0  0  0  0  0  0  0
    9.6880   -0.1250    3.5780 C   0  0  0  0  0  0  0  0  0  0  0  0
    9.2940   -1.4590    3.3940 C   0  0  0  0  0  3  0  0  0  0  0  0
   10.0230    0.5330    4.7350 N   0  0  0  0  0  0  0  0  0  0  0  0
   10.2900    1.7770    4.3880 C   0  0  0  0  0  0  0  0  0  0  0  0
   10.2050    1.9280    3.0110 N   0  0  0  0  0  0  0  0  0  0  0  0
   10.6630    2.8230    5.3410 C   0  0  0  0  0  0  0  0  0  0  0  0
    9.7060    3.7050    5.8600 C   0  0  0  0  0  3  0  0  0  0  0  0
   10.0800    4.6980    6.7680 C   0  0  0  0  0  3  0  0  0  0  0  0
   11.4110    4.8070    7.1720 C   0  0  0  0  0  3  0  0  0  0  0  0
   12.3660    3.9190    6.6770 C   0  0  0  0  0  3  0  0  0  0  0  0
   11.9910    2.9270    5.7690 C   0  0  0  0  0  3  0  0  0  0  0  0
   10.5600    3.1320    2.2650 C   0  0  0  0  0  3  0  0  0  0  0  0
   12.0760    3.2850    2.0530 C   0  0  0  0  0  2  0  0  0  0  0  0
   12.4040    4.5830    1.3150 C   0  0  0  0  0  2  0  0  0  0  0  0
   11.6320    4.6950    0.0040 C   0  0  0  0  0  2  0  0  0  0  0  0
   10.1280    4.5600    0.2200 C   0  0  0  0  0  2  0  0  0  0  0  0
    9.7760    3.2640    0.9500 C   0  0  0  0  0  2  0  0  0  0  0  0
    7.9040   -3.9250    2.8180 O   0  0  0  0  0  1  0  0  0  0  0  0
    8.5630   -3.3690    1.8820 C   0  0  0  0  0  0  0  0  0  0  0  0
    8.8920   -3.9140    0.7820 O   0  0  0  0  0  0  0  0  0  0  0  0
  1  6  1  0  0  0  0
  2  3  1  0  0  0  0
  2  1  2  0  0  0  0
  3  4  2  0  0  0  0
  4  9  1  0  0  0  0
  4  5  1  0  0  0  0
  5  7  1  0  0  0  0
  6  5  2  0  0  0  0
  8  7  2  0  0  0  0
  8 10  1  0  0  0  0
  9  8  1  0  0  0  0
 10 15  2  0  0  0  0
 10 11  1  0  0  0  0
 11 12  2  0  0  0  0
 12 13  1  0  0  0  0
 14 13  2  0  0  0  0
 15 14  1  0  0  0  0
 16  9  1  0  0  0  0
 17 16  1  0  0  0  0
 18 17  1  0  0  0  0
 19 20  1  0  0  0  0
 19 18  1  0  0  0  0
 20 21  1  0  0  0  0
 21 16  1  0  0  0  0
 23  1  1  0  0  0  0
 23 22  1  0  0  0  0
 24 23  2  0  0  0  0
M  END
>  <minimizedAffinity>
-5.66106892

$$$$
