
 OpenBabel09122222393D

 24 27  0  0  0  0  0  0  0  0999 V2000
    8.9810   -2.1040    3.0690 C   0  0  0  0  0  0  0  0  0  0  0  0
    9.2540   -2.4950    1.7480 C   0  0  0  0  0  3  0  0  0  0  0  0
    9.6290   -1.5770    0.7590 C   0  0  0  0  0  3  0  0  0  0  0  0
    9.7240   -0.2290    1.1290 C   0  0  0  0  0  0  0  0  0  0  0  0
    9.4550    0.1970    2.4280 C   0  0  0  0  0  0  0  0  0  0  0  0
    9.0840   -0.7400    3.4050 C   0  0  0  0  0  3  0  0  0  0  0  0
    9.6120    1.5550    2.5380 N   0  0  0  0  0  0  0  0  0  0  0  0
    9.9400    1.9880    1.3360 C   0  0  0  0  0  0  0  0  0  0  0  0
   10.0710    0.9250    0.4550 N   0  0  0  0  0  0  0  0  0  0  0  0
   10.1690    3.3970    1.0160 C   0  0  0  0  0  0  0  0  0  0  0  0
   11.2440    4.1020    1.5740 C   0  0  0  0  0  3  0  0  0  0  0  0
   11.4460    5.4470    1.2570 C   0  0  0  0  0  3  0  0  0  0  0  0
   10.5830    6.0920    0.3720 C   0  0  0  0  0  3  0  0  0  0  0  0
    9.5240    5.3920   -0.2050 C   0  0  0  0  0  3  0  0  0  0  0  0
    9.3210    4.0480    0.1110 C   0  0  0  0  0  3  0  0  0  0  0  0
   10.5480    1.0170   -0.9230 C   0  0  0  0  0  3  0  0  0  0  0  0
   11.9460    1.6510   -1.0360 C   0  0  0  0  0  2  0  0  0  0  0  0
   12.3800    1.7750   -2.4960 C   0  0  0  0  0  2  0  0  0  0  0  0
   12.3020    0.4350   -3.2220 C   0  0  0  0  0  2  0  0  0  0  0  0
   10.9100   -0.1820   -3.1220 C   0  0  0  0  0  2  0  0  0  0  0  0
   10.4580   -0.3230   -1.6690 C   0  0  0  0  0  2  0  0  0  0  0  0
    9.4660   -3.4670    4.9590 O   0  0  0  0  0  1  0  0  0  0  0  0
    8.5810   -3.1310    4.1090 C   0  0  0  0  0  0  0  0  0  0  0  0
    7.3930   -3.5810    4.0590 O   0  0  0  0  0  0  0  0  0  0  0  0
  1  6  1  0  0  0  0
  1 23  1  0  0  0  0
  2  1  2  0  0  0  0
  3  4  2  0  0  0  0
  3  2  1  0  0  0  0
  4  5  1  0  0  0  0
  5  7  1  0  0  0  0
  5  6  2  0  0  0  0
  8  7  2  0  0  0  0
  9  4  1  0  0  0  0
  9  8  1  0  0  0  0
 10  8  1  0  0  0  0
 10 11  1  0  0  0  0
 12 11  2  0  0  0  0
 13 12  1  0  0  0  0
 14 15  1  0  0  0  0
 14 13  2  0  0  0  0
 15 10  2  0  0  0  0
 16  9  1  0  0  0  0
 17 16  1  0  0  0  0
 18 17  1  0  0  0  0
 19 20  1  0  0  0  0
 19 18  1  0  0  0  0
 20 21  1  0  0  0  0
 21 16  1  0  0  0  0
 23 22  1  0  0  0  0
 24 23  2  0  0  0  0
M  END
>  <minimizedAffinity>
-5.41747141

$$$$
