REMARK  Name = 
REMARK  13 active torsions:
REMARK  status: ('A' for Active; 'I' for Inactive)
REMARK    1  A    between atoms: C_1  and  C_2
REMARK    2  A    between atoms: C_2  and  C_3
REMARK    3  A    between atoms: C_2  and  N_4
REMARK    4  A    between atoms: N_4  and  C_5
REMARK    5  A    between atoms: N_4  and  C_6
REMARK    6  A    between atoms: C_6  and  C_7
REMARK    7  A    between atoms: C_11  and  C_12
REMARK    8  A    between atoms: C_13  and  C_14
REMARK    9  A    between atoms: C_23  and  C_24
REMARK   10  A    between atoms: N_29  and  C_30
REMARK   11  A    between atoms: C_30  and  C_31
REMARK   12  A    between atoms: N_33  and  C_34
REMARK   13  A    between atoms: N_33  and  C_35
REMARK                            x       y       z     vdW  Elec       q    Type
REMARK                         _______ _______ _______ _____ _____    ______ ____
ROOT
ATOM      1  C   UNL     1      -0.849   3.028   4.338  0.00  0.00    +0.054 A 
ATOM      2  C   UNL     1      -1.341   3.748   3.249  0.00  0.00    -0.011 A 
ATOM      3  C   UNL     1      -1.937   4.944   3.781  0.00  0.00    +0.004 A 
ATOM      4  C   UNL     1      -2.554   6.074   3.199  0.00  0.00    +0.011 A 
ATOM      5  C   UNL     1      -3.034   7.108   4.015  0.00  0.00    +0.010 A 
ATOM      6  C   UNL     1      -2.901   7.056   5.405  0.00  0.00    -0.001 A 
ATOM      7  C   UNL     1      -2.266   5.946   5.983  0.00  0.00    +0.036 A 
ATOM      8  C   UNL     1      -1.831   4.891   5.168  0.00  0.00    +0.051 A 
ATOM      9  N   UNL     1      -1.304   3.658   5.486  0.00  0.00    -0.331 N 
ENDROOT
BRANCH   1  14
ATOM     10  C   UNL     1       0.118  -0.606   4.134  0.00  0.00    -0.002 A 
ATOM     11  C   UNL     1       1.482  -0.532   4.447  0.00  0.00    +0.009 A 
ATOM     12  C   UNL     1       2.076   0.702   4.715  0.00  0.00    +0.001 A 
ATOM     13  C   UNL     1       1.314   1.869   4.672  0.00  0.00    +0.010 A 
ATOM     14  C   UNL     1      -0.051   1.808   4.381  0.00  0.00    -0.001 A 
ATOM     15  C   UNL     1      -0.643   0.572   4.125  0.00  0.00    +0.018 A 
BRANCH  10  16
ATOM     16  C   UNL     1      -0.540  -1.905   3.768  0.00  0.00    +0.167 C 
BRANCH  16  17
ATOM     17  N   UNL     1      -0.970  -1.908   2.297  0.00  0.00    +0.238 N 
ATOM     18  C   UNL     1      -2.464  -2.083   2.196  0.00  0.00    +0.191 C 
ATOM     19  H   UNL     1      -0.781  -0.954   1.959  0.00  0.00    +0.204 HD
BRANCH  17  21
ATOM     20  C   UNL     1      -0.664  -2.806  -0.030  0.00  0.00    +0.063 C 
ATOM     21  C   UNL     1      -0.157  -2.848   1.413  0.00  0.00    +0.058 C 
ATOM     22  C   UNL     1       1.318  -2.441   1.429  0.00  0.00    +0.063 C 
ENDBRANCH  17  21
ENDBRANCH  16  17
ENDBRANCH  10  16
ENDBRANCH   1  14
BRANCH   2  23
ATOM     23  C   UNL     1      -1.306   3.422   1.769  0.00  0.00    +0.022 C 
ATOM     24  C   UNL     1       0.024   2.853   1.253  0.00  0.00    +0.008 C 
ATOM     25  C   UNL     1      -0.027   2.597  -0.253  0.00  0.00    +0.001 C 
ATOM     26  C   UNL     1      -1.192   1.683  -0.625  0.00  0.00    +0.000 C 
ATOM     27  C   UNL     1      -2.521   2.236  -0.121  0.00  0.00    +0.001 C 
ATOM     28  C   UNL     1      -2.484   2.509   1.381  0.00  0.00    +0.008 C 
ENDBRANCH   2  23
BRANCH   6  29
ATOM     29  C   UNL     1      -3.457   8.152   6.292  0.00  0.00    +0.072 C 
ATOM     30  O   UNL     1      -3.903   9.193   5.720  0.00  0.00    -0.545 OA
ATOM     31  O   UNL     1      -3.450   7.926   7.545  0.00  0.00    -0.545 OA
ENDBRANCH   6  29
BRANCH   9  32
ATOM     32  C   UNL     1      -1.282   3.100   6.838  0.00  0.00    +0.218 C 
BRANCH  32  33
ATOM     33  C   UNL     1      -2.401   2.080   7.048  0.00  0.00    +0.235 C 
ATOM     34  O   UNL     1      -2.225   0.902   6.702  0.00  0.00    -0.274 OA
ATOM     35  N   UNL     1      -3.608   2.476   7.615  0.00  0.00    -0.306 N 
ATOM     36  C   UNL     1      -3.939   3.835   8.032  0.00  0.00    +0.131 C 
ATOM     37  C   UNL     1      -4.710   1.529   7.673  0.00  0.00    +0.131 C 
ENDBRANCH  32  33
ENDBRANCH   9  32
TORSDOF 8
