
 OpenBabel09122222393D

 37 40  0  0  0  0  0  0  0  0999 V2000
    4.1550   -3.6560    6.5540 C   0  0  0  0  0  0  0  0  0  0  0  0
    4.1560   -5.0490    6.6250 C   0  0  0  0  0  0  0  0  0  0  0  0
    4.3010   -5.5300    5.2770 C   0  0  0  0  0  0  0  0  0  0  0  0
    4.4120   -6.8160    4.7020 C   0  0  0  0  0  3  0  0  0  0  0  0
    4.5600   -6.9520    3.3150 C   0  0  0  0  0  3  0  0  0  0  0  0
    4.6180   -5.8350    2.4780 C   0  0  0  0  0  0  0  0  0  0  0  0
    4.5330   -4.5560    3.0500 C   0  0  0  0  0  3  0  0  0  0  0  0
    4.3360   -4.4240    4.4330 C   0  0  0  0  0  0  0  0  0  0  0  0
    4.0980   -3.3130    5.2120 N   0  0  0  0  0  0  0  0  0  0  0  0
    2.9970   -1.4840    9.4040 C   0  0  0  0  0  0  0  0  0  0  0  0
    4.1620   -0.7500    9.6650 C   0  0  0  0  0  3  0  0  0  0  0  0
    5.3170   -0.9750    8.9140 C   0  0  0  0  0  3  0  0  0  0  0  0
    5.3170   -1.9320    7.9000 C   0  0  0  0  0  3  0  0  0  0  0  0
    4.1570   -2.6560    7.6160 C   0  0  0  0  0  0  0  0  0  0  0  0
    3.0020   -2.4210    8.3610 C   0  0  0  0  0  3  0  0  0  0  0  0
    1.7580   -1.3230   10.2370 C   0  0  0  0  0  2  0  0  0  0  0  0
    2.0590   -1.5600   11.7210 N   0  0  0  0  0  4  0  0  0  0  0  0
    3.2580   -0.7470   12.1410 C   0  0  0  0  0  1  0  0  0  0  0  0
    1.2600   -1.1530   12.2270 H   0  0  0  0  0  0  0  0  0  0  0  0
    1.1540   -3.8590   11.2630 C   0  0  0  0  0  1  0  0  0  0  0  0
    2.1160   -3.0310   12.1170 C   0  0  0  0  0  3  0  0  0  0  0  0
    3.5350   -3.5730   11.9260 C   0  0  0  0  0  1  0  0  0  0  0  0
    4.0340   -5.9640    7.8270 C   0  0  0  0  0  3  0  0  0  0  0  0
    5.0430   -5.7040    8.9560 C   0  0  0  0  0  2  0  0  0  0  0  0
    4.8660   -6.7010   10.1010 C   0  0  0  0  0  2  0  0  0  0  0  0
    3.4360   -6.6910   10.6350 C   0  0  0  0  0  2  0  0  0  0  0  0
    2.4220   -6.9510    9.5250 C   0  0  0  0  0  2  0  0  0  0  0  0
    2.5920   -5.9700    8.3670 C   0  0  0  0  0  2  0  0  0  0  0  0
    4.7350   -5.9800    0.9740 C   0  0  0  0  0  0  0  0  0  0  0  0
    5.5700   -6.8280    0.5350 O   0  0  0  0  0  1  0  0  0  0  0  0
    3.9640   -5.2490    0.2720 O   0  0  0  0  0  0  0  0  0  0  0  0
    3.7870   -1.9880    4.6770 C   0  0  0  0  0  2  0  0  0  0  0  0
    2.3100   -1.8590    4.3060 C   0  0  0  0  0  0  0  0  0  0  0  0
    1.8610   -2.5150    3.3540 O   0  0  0  0  0  0  0  0  0  0  0  0
    1.4820   -1.0040    5.0270 N   0  0  0  0  0  0  0  0  0  0  0  0
    1.9030   -0.1630    6.1420 C   0  0  0  0  0  1  0  0  0  0  0  0
    0.1190   -0.7840    4.5700 C   0  0  0  0  0  1  0  0  0  0  0  0
  1  2  2  0  0  0  0
  1 14  1  0  0  0  0
  2 23  1  0  0  0  0
  3  2  1  0  0  0  0
  4  3  1  0  0  0  0
  5  4  2  0  0  0  0
  6  7  2  0  0  0  0
  6  5  1  0  0  0  0
  7  8  1  0  0  0  0
  8  9  1  0  0  0  0
  8  3  2  0  0  0  0
  9  1  1  0  0  0  0
 10 11  1  0  0  0  0
 10 16  1  0  0  0  0
 12 11  2  0  0  0  0
 13 12  1  0  0  0  0
 14 13  2  0  0  0  0
 14 15  1  0  0  0  0
 15 10  2  0  0  0  0
 16 17  1  0  0  0  0
 17 21  1  0  0  0  0
 17 18  1  0  0  0  0
 17 19  1  0  0  0  0
 20 21  1  0  0  0  0
 22 21  1  0  0  0  0
 23 28  1  0  0  0  0
 23 24  1  0  0  0  0
 24 25  1  0  0  0  0
 25 26  1  0  0  0  0
 27 26  1  0  0  0  0
 28 27  1  0  0  0  0
 29  6  1  0  0  0  0
 30 29  1  0  0  0  0
 31 29  2  0  0  0  0
 32  9  1  0  0  0  0
 33 32  1  0  0  0  0
 33 35  1  0  0  0  0
 34 33  2  0  0  0  0
 35 36  1  0  0  0  0
 37 35  1  0  0  0  0
M  END
>  <minimizedAffinity>
-2.47323632

$$$$
