REMARK  Name = 
REMARK  8 active torsions:
REMARK  status: ('A' for Active; 'I' for Inactive)
REMARK    1  A    between atoms: C_1  and  C_2
REMARK    2  A    between atoms: C_2  and  C_3
REMARK    3  A    between atoms: C_2  and  C_4
REMARK    4  A    between atoms: C_7  and  C_8
REMARK    5  A    between atoms: C_10  and  S_11
REMARK    6  A    between atoms: S_11  and  C_12
REMARK    7  A    between atoms: C_12  and  C_13
REMARK    8  A    between atoms: C_23  and  C_24
REMARK                            x       y       z     vdW  Elec       q    Type
REMARK                         _______ _______ _______ _____ _____    ______ ____
ROOT
ATOM      1  C   UNL     1      -5.370  -0.095  -1.232  0.00  0.00    +0.096 A 
ATOM      2  N   UNL     1      -6.063   0.627  -2.189  0.00  0.00    -0.222 NA
ATOM      3  C   UNL     1      -7.325   0.790  -1.996  0.00  0.00    +0.170 A 
ATOM      4  N   UNL     1      -8.008   0.310  -0.929  0.00  0.00    -0.301 N 
ATOM      5  C   UNL     1      -7.403  -0.449   0.023  0.00  0.00    +0.270 A 
ATOM      6  O   UNL     1      -8.036  -0.928   0.957  0.00  0.00    -0.266 OA
ATOM      7  C   UNL     1      -5.948  -0.642  -0.146  0.00  0.00    +0.142 A 
ATOM      8  H   UNL     1      -9.000   0.472  -0.851  0.00  0.00    +0.171 HD
ENDROOT
BRANCH   1  12
ATOM      9  C   UNL     1      -1.096  -0.277  -1.747  0.00  0.00    -0.045 A 
ATOM     10  C   UNL     1      -1.766   0.952  -1.665  0.00  0.00    +0.004 A 
ATOM     11  C   UNL     1      -3.154   1.001  -1.514  0.00  0.00    +0.010 A 
ATOM     12  C   UNL     1      -3.905  -0.178  -1.431  0.00  0.00    +0.002 A 
ATOM     13  C   UNL     1      -3.244  -1.407  -1.542  0.00  0.00    +0.010 A 
ATOM     14  C   UNL     1      -1.854  -1.455  -1.686  0.00  0.00    +0.004 A 
BRANCH   9  16
ATOM     15  C   UNL     1       1.051  -0.706  -0.528  0.00  0.00    +0.012 C 
ATOM     16  C   UNL     1       0.418  -0.300  -1.861  0.00  0.00    +0.013 C 
ATOM     17  C   UNL     1       0.914  -1.200  -2.996  0.00  0.00    +0.012 C 
ENDBRANCH   9  16
ENDBRANCH   1  12
BRANCH   7  18
ATOM     18  C   UNL     1      -5.215  -1.332   0.993  0.00  0.00    +0.107 C 
ATOM     19  N   UNL     1      -4.607  -1.905   1.938  0.00  0.00    -0.191 NA
ENDBRANCH   7  18
BRANCH   3  20
ATOM     20  S   UNL     1      -8.343   1.649  -3.101  0.00  0.00    -0.083 S 
BRANCH  20  21
ATOM     21  C   UNL     1      -8.438   0.409  -4.434  0.00  0.00    +0.113 C 
BRANCH  21  22
ATOM     22  C   UNL     1      -8.768  -0.983  -3.938  0.00  0.00    -0.023 A 
ATOM     23  C   UNL     1     -10.029  -1.208  -3.349  0.00  0.00    +0.005 A 
ATOM     24  C   UNL     1     -10.358  -2.447  -2.796  0.00  0.00    +0.000 A 
ATOM     25  C   UNL     1      -9.441  -3.491  -2.838  0.00  0.00    +0.001 A 
ATOM     26  C   UNL     1      -8.200  -3.301  -3.443  0.00  0.00    +0.015 A 
ATOM     27  C   UNL     1      -7.863  -2.059  -3.993  0.00  0.00    +0.022 A 
ATOM     28 BR   UNL     1      -6.142  -1.927  -4.788  0.00  0.00    -0.050 Br
ENDBRANCH  21  22
ENDBRANCH  20  21
ENDBRANCH   3  20
TORSDOF 6
