
 OpenBabel09122222393D

 28 30  0  0  0  0  0  0  0  0999 V2000
    1.2090   -4.8150    5.2000 C   0  0  0  0  0  0  0  0  0  0  0  0
    2.4340   -5.4470    5.0760 N   0  0  0  0  0  0  0  0  0  0  0  0
    2.4180   -6.7230    4.9080 C   0  0  0  0  0  0  0  0  0  0  0  0
    1.2930   -7.4750    4.8410 N   0  0  0  0  0  0  0  0  0  0  0  0
    0.0590   -6.9290    5.0050 C   0  0  0  0  0  0  0  0  0  0  0  0
   -0.9530   -7.6220    5.0000 O   0  0  0  0  0  0  0  0  0  0  0  0
    0.0290   -5.4620    5.1770 C   0  0  0  0  0  0  0  0  0  0  0  0
    1.3610   -8.4730    4.7160 H   0  0  0  0  0  0  0  0  0  0  0  0
    1.2680   -0.5160    5.4850 C   0  0  0  0  0  0  0  0  0  0  0  0
    0.2550   -1.1830    4.7820 C   0  0  0  0  0  3  0  0  0  0  0  0
    0.2530   -2.5770    4.6820 C   0  0  0  0  0  3  0  0  0  0  0  0
    1.2580   -3.3370    5.2910 C   0  0  0  0  0  0  0  0  0  0  0  0
    2.2880   -2.6740    5.9690 C   0  0  0  0  0  3  0  0  0  0  0  0
    2.2850   -1.2800    6.0750 C   0  0  0  0  0  3  0  0  0  0  0  0
    1.7040    1.6660    4.3340 C   0  0  0  0  0  1  0  0  0  0  0  0
    1.2170    0.9960    5.6200 C   0  0  0  0  0  3  0  0  0  0  0  0
   -0.1710    1.5100    6.0100 C   0  0  0  0  0  1  0  0  0  0  0  0
   -1.3420   -4.8040    5.1820 C   0  0  0  0  0  2  0  0  0  0  0  0
   -2.4790   -4.2590    5.1870 N   0  0  0  0  0  1  0  0  0  0  0  0
    3.8580   -7.6710    4.7540 S   0  0  0  0  0  0  0  0  0  0  0  0
    4.4470   -7.0470    3.1460 C   0  0  0  0  0  2  0  0  0  0  0  0
    4.6980   -5.5530    3.1360 C   0  0  0  0  0  0  0  0  0  0  0  0
    4.8700   -4.8900    4.3680 C   0  0  0  0  0  3  0  0  0  0  0  0
    5.0180   -3.5030    4.4270 C   0  0  0  0  0  3  0  0  0  0  0  0
    5.0160   -2.7540    3.2560 C   0  0  0  0  0  3  0  0  0  0  0  0
    4.8780   -3.3910    2.0250 C   0  0  0  0  0  3  0  0  0  0  0  0
    4.7230   -4.7810    1.9600 C   0  0  0  0  0  0  0  0  0  0  0  0
    4.5450   -5.5300    0.2230 Br  0  0  0  0  0  0  0  0  0  0  0  0
  1 12  1  0  0  0  0
  2  1  1  0  0  0  0
  3  2  2  0  0  0  0
  4  3  1  0  0  0  0
  4  5  1  0  0  0  0
  5  7  1  0  0  0  0
  6  5  2  0  0  0  0
  7 18  1  0  0  0  0
  7  1  2  0  0  0  0
  8  4  1  0  0  0  0
  9 16  1  0  0  0  0
  9 14  1  0  0  0  0
 10  9  2  0  0  0  0
 11 10  1  0  0  0  0
 11 12  2  0  0  0  0
 12 13  1  0  0  0  0
 13 14  2  0  0  0  0
 15 16  1  0  0  0  0
 16 17  1  0  0  0  0
 18 19  1  0  0  0  0
 20  3  1  0  0  0  0
 21 20  1  0  0  0  0
 22 21  1  0  0  0  0
 22 23  1  0  0  0  0
 23 24  2  0  0  0  0
 25 24  1  0  0  0  0
 26 25  2  0  0  0  0
 27 26  1  0  0  0  0
 27 22  2  0  0  0  0
 28 27  1  0  0  0  0
M  END
>  <minimizedAffinity>
21.2789783

$$$$
