REMARK  Name = 
REMARK  10 active torsions:
REMARK  status: ('A' for Active; 'I' for Inactive)
REMARK    1  A    between atoms: C_1  and  N_2
REMARK    2  A    between atoms: C_3  and  C_5
REMARK    3  A    between atoms: C_6  and  C_7
REMARK    4  A    between atoms: C_17  and  N_18
REMARK    5  A    between atoms: N_18  and  C_19
REMARK    6  A    between atoms: N_18  and  S_22
REMARK    7  A    between atoms: C_19  and  C_20
REMARK    8  A    between atoms: C_20  and  O_21
REMARK    9  A    between atoms: S_22  and  C_23
REMARK   10  A    between atoms: C_26  and  C_27
REMARK                            x       y       z     vdW  Elec       q    Type
REMARK                         _______ _______ _______ _____ _____    ______ ____
ROOT
ATOM      1  C   UNL     1      -0.605  -1.812  -0.952  0.00  0.00    +0.090 A 
ATOM      2  C   UNL     1      -0.102  -3.055  -1.319  0.00  0.00    +0.148 A 
ATOM      3  O   UNL     1      -0.258  -3.933  -0.278  0.00  0.00    -0.454 OA
ATOM      4  C   UNL     1      -0.878  -3.275   0.731  0.00  0.00    +0.138 A 
ATOM      5  C   UNL     1      -1.225  -3.825   1.956  0.00  0.00    +0.072 A 
ATOM      6  C   UNL     1      -1.874  -2.983   2.877  0.00  0.00    +0.058 A 
ATOM      7  C   UNL     1      -2.207  -1.634   2.573  0.00  0.00    -0.021 A 
ATOM      8  C   UNL     1      -1.814  -1.152   1.296  0.00  0.00    +0.018 A 
ATOM      9  C   UNL     1      -1.131  -1.966   0.370  0.00  0.00    +0.033 A 
ENDROOT
BRANCH   2  10
ATOM     10  C   UNL     1       0.558  -3.618  -2.498  0.00  0.00    +0.018 A 
ATOM     11  C   UNL     1       0.492  -4.999  -2.758  0.00  0.00    +0.014 A 
ATOM     12  C   UNL     1       1.121  -5.554  -3.875  0.00  0.00    +0.039 A 
ATOM     13  C   UNL     1       1.824  -4.730  -4.742  0.00  0.00    +0.123 A 
ATOM     14  F   UNL     1       2.429  -5.259  -5.814  0.00  0.00    -0.205 F 
ATOM     15  C   UNL     1       1.909  -3.364  -4.511  0.00  0.00    +0.039 A 
ATOM     16  C   UNL     1       1.280  -2.810  -3.392  0.00  0.00    +0.014 A 
ENDBRANCH   2  10
BRANCH   1  19
ATOM     17  C   UNL     1       0.811   0.676  -0.187  0.00  0.00    +0.128 C 
ATOM     18  N   UNL     1      -0.030   0.505  -1.348  0.00  0.00    -0.314 N 
ATOM     19  C   UNL     1      -0.645  -0.638  -1.794  0.00  0.00    +0.248 C 
ATOM     20  O   UNL     1      -1.194  -0.634  -2.892  0.00  0.00    -0.270 OA
ATOM     21  H   UNL     1      -0.147   1.290  -1.977  0.00  0.00    +0.149 HD
ENDBRANCH   1  19
BRANCH   7  22
ATOM     22  C   UNL     1      -2.962  -0.725   3.544  0.00  0.00    +0.021 C 
ATOM     23  C   UNL     1      -2.587   0.732   3.688  0.00  0.00    +0.009 C 
ATOM     24  C   UNL     1      -3.900   0.357   3.063  0.00  0.00    +0.009 C 
ENDBRANCH   7  22
BRANCH   6  25
ATOM     25  N   UNL     1      -2.191  -3.621   4.134  0.00  0.00    -0.205 N 
BRANCH  25  26
ATOM     26  S   UNL     1      -1.199  -3.274   5.469  0.00  0.00    +0.043 S 
ATOM     27  C   UNL     1       0.388  -3.890   4.942  0.00  0.00    +0.218 C 
ATOM     28  O   UNL     1      -1.096  -1.844   5.655  0.00  0.00    -0.155 OA
ATOM     29  O   UNL     1      -1.642  -4.129   6.555  0.00  0.00    -0.155 OA
ENDBRANCH  25  26
BRANCH  25  30
ATOM     30  C   UNL     1      -3.640  -3.871   4.407  0.00  0.00    +0.159 C 
BRANCH  30  31
ATOM     31  C   UNL     1      -3.887  -5.365   4.648  0.00  0.00    +0.176 C 
BRANCH  31  32
ATOM     32  O   UNL     1      -3.723  -5.733   6.014  0.00  0.00    -0.393 OA
ATOM     33  H   UNL     1      -2.922  -5.283   6.362  0.00  0.00    +0.209 HD
ENDBRANCH  31  32
ENDBRANCH  30  31
ENDBRANCH  25  30
ENDBRANCH   6  25
TORSDOF 8
