
 OpenBabel08152212323D

 33 36  0  0  0  0  0  0  0  0999 V2000
  -16.4370  -14.3540    9.9650 C   0  0  0  0  0  0  0  0  0  0  0  0
  -17.6180  -14.5780    9.2670 C   0  0  0  0  0  0  0  0  0  0  0  0
  -18.1870  -13.3750    8.9380 O   0  0  0  0  0  0  0  0  0  0  0  0
  -17.3710  -12.3930    9.3910 C   0  0  0  0  0  0  0  0  0  0  0  0
  -17.5920  -11.0320    9.2430 C   0  0  0  0  0  3  0  0  0  0  0  0
  -16.6230  -10.1620    9.7740 C   0  0  0  0  0  0  0  0  0  0  0  0
  -15.4380  -10.6350   10.4040 C   0  0  0  0  0  0  0  0  0  0  0  0
  -15.2920  -12.0430   10.5130 C   0  0  0  0  0  3  0  0  0  0  0  0
  -16.2670  -12.9340   10.0200 C   0  0  0  0  0  0  0  0  0  0  0  0
  -18.3850  -15.7510    8.8430 C   0  0  0  0  0  0  0  0  0  0  0  0
  -19.5010  -15.6040    7.9990 C   0  0  0  0  0  3  0  0  0  0  0  0
  -20.2470  -16.7110    7.5900 C   0  0  0  0  0  3  0  0  0  0  0  0
  -19.8840  -17.9780    8.0240 C   0  0  0  0  0  0  0  0  0  0  0  0
  -20.5980  -19.0420    7.6340 F   0  0  0  0  0  0  0  0  0  0  0  0
  -18.7890  -18.1550    8.8590 C   0  0  0  0  0  3  0  0  0  0  0  0
  -18.0430  -17.0450    9.2690 C   0  0  0  0  0  3  0  0  0  0  0  0
  -16.3720  -15.0960   12.8330 C   0  0  0  0  0  1  0  0  0  0  0  0
  -15.5070  -15.6220   11.8030 N   0  0  0  0  0  0  0  0  0  0  0  0
  -15.5410  -15.3770   10.4540 C   0  0  0  0  0  0  0  0  0  0  0  0
  -14.8260  -16.0380    9.7060 O   0  0  0  0  0  0  0  0  0  0  0  0
  -14.8190  -16.3190   12.0630 H   0  0  0  0  0  0  0  0  0  0  0  0
  -14.3500   -9.7010   10.9350 C   0  0  0  0  0  3  0  0  0  0  0  0
  -14.1160   -9.5540   12.4210 C   0  0  0  0  0  2  0  0  0  0  0  0
  -13.0810  -10.2260   11.5650 C   0  0  0  0  0  2  0  0  0  0  0  0
  -16.9290   -8.7610    9.5950 N   0  0  0  0  0  0  0  0  0  0  0  0
  -17.2800   -7.8450   10.9820 S   0  0  0  0  0  0  0  0  0  0  0  0
  -18.5660   -6.7530   10.4080 C   0  0  0  0  0  1  0  0  0  0  0  0
  -17.8290   -8.6950   12.0140 O   0  0  0  0  0  0  0  0  0  0  0  0
  -16.1150   -7.0210   11.2460 O   0  0  0  0  0  0  0  0  0  0  0  0
  -16.2230   -8.0640    8.4760 C   0  0  0  0  0  2  0  0  0  0  0  0
  -17.1010   -8.0460    7.2200 C   0  0  0  0  0  2  0  0  0  0  0  0
  -16.3370   -8.0650    6.0180 O   0  0  0  0  0  0  0  0  0  0  0  0
  -15.5790   -7.4490    6.1230 H   0  0  0  0  0  0  0  0  0  0  0  0
  1  9  1  0  0  0  0
  1 19  1  0  0  0  0
  2  1  2  0  0  0  0
  3  2  1  0  0  0  0
  3  4  1  0  0  0  0
  4  9  1  0  0  0  0
  5  4  2  0  0  0  0
  5  6  1  0  0  0  0
  6  7  2  0  0  0  0
  7  8  1  0  0  0  0
  7 22  1  0  0  0  0
  9  8  2  0  0  0  0
 10  2  1  0  0  0  0
 10 16  1  0  0  0  0
 11 10  2  0  0  0  0
 12 11  1  0  0  0  0
 12 13  2  0  0  0  0
 13 15  1  0  0  0  0
 14 13  1  0  0  0  0
 15 16  2  0  0  0  0
 18 21  1  0  0  0  0
 18 17  1  0  0  0  0
 19 18  1  0  0  0  0
 20 19  2  0  0  0  0
 22 24  1  0  0  0  0
 22 23  1  0  0  0  0
 24 23  1  0  0  0  0
 25  6  1  0  0  0  0
 25 26  1  0  0  0  0
 26 29  2  0  0  0  0
 26 28  2  0  0  0  0
 27 26  1  0  0  0  0
 30 25  1  0  0  0  0
 31 30  1  0  0  0  0
 32 33  1  0  0  0  0
 32 31  1  0  0  0  0
M  END
>  <minimizedAffinity>
-9.21856689

$$$$
