
 OpenBabel08152212323D

 33 36  0  0  0  0  0  0  0  0999 V2000
  -16.9860  -14.5030   10.1920 C   0  0  0  0  0  0  0  0  0  0  0  0
  -17.7500  -14.8290    9.0770 C   0  0  0  0  0  0  0  0  0  0  0  0
  -17.8940  -13.7200    8.2860 O   0  0  0  0  0  0  0  0  0  0  0  0
  -17.2090  -12.7040    8.8650 C   0  0  0  0  0  0  0  0  0  0  0  0
  -17.1020  -11.4170    8.3620 C   0  0  0  0  0  3  0  0  0  0  0  0
  -16.3380  -10.4990    9.1040 C   0  0  0  0  0  0  0  0  0  0  0  0
  -15.6620  -10.8620   10.3020 C   0  0  0  0  0  0  0  0  0  0  0  0
  -15.8260  -12.2020   10.7460 C   0  0  0  0  0  3  0  0  0  0  0  0
  -16.6160  -13.1300   10.0380 C   0  0  0  0  0  0  0  0  0  0  0  0
  -18.4370  -16.0240    8.5840 C   0  0  0  0  0  0  0  0  0  0  0  0
  -19.2910  -15.9430    7.4690 C   0  0  0  0  0  3  0  0  0  0  0  0
  -19.9590  -17.0720    6.9880 C   0  0  0  0  0  3  0  0  0  0  0  0
  -19.7790  -18.2930    7.6210 C   0  0  0  0  0  0  0  0  0  0  0  0
  -20.4180  -19.3780    7.1630 F   0  0  0  0  0  0  0  0  0  0  0  0
  -18.9440  -18.4040    8.7250 C   0  0  0  0  0  3  0  0  0  0  0  0
  -18.2770  -17.2730    9.2060 C   0  0  0  0  0  3  0  0  0  0  0  0
  -14.4810  -16.0750   10.0060 C   0  0  0  0  0  1  0  0  0  0  0  0
  -15.4620  -16.1700   11.0610 N   0  0  0  0  0  0  0  0  0  0  0  0
  -16.5960  -15.4170   11.2420 C   0  0  0  0  0  0  0  0  0  0  0  0
  -17.2310  -15.5310   12.2860 O   0  0  0  0  0  0  0  0  0  0  0  0
  -15.2890  -16.8150   11.8220 H   0  0  0  0  0  0  0  0  0  0  0  0
  -14.7820   -9.8890   11.0880 C   0  0  0  0  0  3  0  0  0  0  0  0
  -14.0740  -10.3340   12.3470 C   0  0  0  0  0  2  0  0  0  0  0  0
  -13.2770  -10.0130   11.1150 C   0  0  0  0  0  2  0  0  0  0  0  0
  -16.2830   -9.1760    8.5260 N   0  0  0  0  0  0  0  0  0  0  0  0
  -15.9050   -9.0500    6.8740 S   0  0  0  0  0  0  0  0  0  0  0  0
  -17.4180   -9.5730    6.0900 C   0  0  0  0  0  1  0  0  0  0  0  0
  -15.6610   -7.6690    6.5220 O   0  0  0  0  0  0  0  0  0  0  0  0
  -14.9110  -10.0700    6.5920 O   0  0  0  0  0  0  0  0  0  0  0  0
  -17.2300   -8.1640    9.0880 C   0  0  0  0  0  2  0  0  0  0  0  0
  -18.0500   -8.7770   10.2290 C   0  0  0  0  0  2  0  0  0  0  0  0
  -19.2550   -8.0620   10.4820 O   0  0  0  0  0  0  0  0  0  0  0  0
  -19.0570   -7.1000   10.4530 H   0  0  0  0  0  0  0  0  0  0  0  0
  1 19  1  0  0  0  0
  2  1  2  0  0  0  0
  3  4  1  0  0  0  0
  3  2  1  0  0  0  0
  4  9  1  0  0  0  0
  5  4  2  0  0  0  0
  5  6  1  0  0  0  0
  6  7  2  0  0  0  0
  7  8  1  0  0  0  0
  7 22  1  0  0  0  0
  9  1  1  0  0  0  0
  9  8  2  0  0  0  0
 10  2  1  0  0  0  0
 10 16  1  0  0  0  0
 11 10  2  0  0  0  0
 12 11  1  0  0  0  0
 12 13  2  0  0  0  0
 13 15  1  0  0  0  0
 14 13  1  0  0  0  0
 15 16  2  0  0  0  0
 17 18  1  0  0  0  0
 18 19  1  0  0  0  0
 18 21  1  0  0  0  0
 19 20  2  0  0  0  0
 22 24  1  0  0  0  0
 22 23  1  0  0  0  0
 24 23  1  0  0  0  0
 25 30  1  0  0  0  0
 25  6  1  0  0  0  0
 26 25  1  0  0  0  0
 27 26  1  0  0  0  0
 28 26  2  0  0  0  0
 29 26  2  0  0  0  0
 30 31  1  0  0  0  0
 31 32  1  0  0  0  0
 33 32  1  0  0  0  0
M  END
>  <minimizedAffinity>
-6.48476696

$$$$
