
 OpenBabel08152212313D

 33 36  0  0  0  0  0  0  0  0999 V2000
  -16.3420  -14.5320   10.0330 C   0  0  0  0  0  0  0  0  0  0  0  0
  -17.5140  -14.8350    9.3490 C   0  0  0  0  0  0  0  0  0  0  0  0
  -18.1560  -13.6720    9.0110 O   0  0  0  0  0  0  0  0  0  0  0  0
  -17.3950  -12.6380    9.4420 C   0  0  0  0  0  0  0  0  0  0  0  0
  -17.6990  -11.2940    9.2790 C   0  0  0  0  0  3  0  0  0  0  0  0
  -16.7780  -10.3610    9.7890 C   0  0  0  0  0  0  0  0  0  0  0  0
  -15.5620  -10.7540   10.4130 C   0  0  0  0  0  0  0  0  0  0  0  0
  -15.3310  -12.1500   10.5400 C   0  0  0  0  0  3  0  0  0  0  0  0
  -16.2560  -13.1040   10.0680 C   0  0  0  0  0  0  0  0  0  0  0  0
  -18.2140  -16.0570    8.9480 C   0  0  0  0  0  0  0  0  0  0  0  0
  -19.3710  -15.9850    8.1530 C   0  0  0  0  0  3  0  0  0  0  0  0
  -20.0550  -17.1400    7.7660 C   0  0  0  0  0  3  0  0  0  0  0  0
  -19.5850  -18.3800    8.1750 C   0  0  0  0  0  0  0  0  0  0  0  0
  -20.2390  -19.4900    7.8060 F   0  0  0  0  0  0  0  0  0  0  0  0
  -18.4470  -18.4830    8.9620 C   0  0  0  0  0  3  0  0  0  0  0  0
  -17.7650  -17.3260    9.3500 C   0  0  0  0  0  3  0  0  0  0  0  0
  -16.2870  -15.3210   12.8880 C   0  0  0  0  0  1  0  0  0  0  0  0
  -15.3610  -15.7610   11.8720 N   0  0  0  0  0  0  0  0  0  0  0  0
  -15.3820  -15.4930   10.5260 C   0  0  0  0  0  0  0  0  0  0  0  0
  -14.6020  -16.0840    9.7850 O   0  0  0  0  0  0  0  0  0  0  0  0
  -14.6290  -16.4080   12.1370 H   0  0  0  0  0  0  0  0  0  0  0  0
  -14.5260   -9.7510   10.9220 C   0  0  0  0  0  3  0  0  0  0  0  0
  -14.3190   -9.5390   12.4040 C   0  0  0  0  0  2  0  0  0  0  0  0
  -13.2420  -10.1910   11.5860 C   0  0  0  0  0  2  0  0  0  0  0  0
  -17.1680   -8.9840    9.5940 N   0  0  0  0  0  0  0  0  0  0  0  0
  -17.3080   -8.4200    7.9980 S   0  0  0  0  0  0  0  0  0  0  0  0
  -15.6210   -8.4620    7.4230 C   0  0  0  0  0  1  0  0  0  0  0  0
  -18.0840   -9.3490    7.2070 O   0  0  0  0  0  0  0  0  0  0  0  0
  -17.6900   -7.0220    8.0780 O   0  0  0  0  0  0  0  0  0  0  0  0
  -18.1060   -8.4080   10.6060 C   0  0  0  0  0  2  0  0  0  0  0  0
  -17.3630   -7.4380   11.5320 C   0  0  0  0  0  2  0  0  0  0  0  0
  -17.3970   -7.8480   12.8950 O   0  0  0  0  0  0  0  0  0  0  0  0
  -18.3060   -8.1590   13.1020 H   0  0  0  0  0  0  0  0  0  0  0  0
  1  9  1  0  0  0  0
  1 19  1  0  0  0  0
  2  1  2  0  0  0  0
  3  2  1  0  0  0  0
  3  4  1  0  0  0  0
  4  9  1  0  0  0  0
  5  4  2  0  0  0  0
  5  6  1  0  0  0  0
  6  7  2  0  0  0  0
  7  8  1  0  0  0  0
  7 22  1  0  0  0  0
  9  8  2  0  0  0  0
 10  2  1  0  0  0  0
 10 16  1  0  0  0  0
 11 10  2  0  0  0  0
 12 11  1  0  0  0  0
 12 13  2  0  0  0  0
 13 15  1  0  0  0  0
 14 13  1  0  0  0  0
 15 16  2  0  0  0  0
 18 21  1  0  0  0  0
 18 17  1  0  0  0  0
 19 18  1  0  0  0  0
 20 19  2  0  0  0  0
 22 24  1  0  0  0  0
 22 23  1  0  0  0  0
 24 23  1  0  0  0  0
 25  6  1  0  0  0  0
 25 30  1  0  0  0  0
 26 29  2  0  0  0  0
 26 25  1  0  0  0  0
 27 26  1  0  0  0  0
 28 26  2  0  0  0  0
 30 31  1  0  0  0  0
 31 32  1  0  0  0  0
 32 33  1  0  0  0  0
M  END
>  <minimizedAffinity>
-9.24324894

$$$$

 OpenBabel08152212313D

 33 36  0  0  0  0  0  0  0  0999 V2000
  -16.4370  -14.3540    9.9650 C   0  0  0  0  0  0  0  0  0  0  0  0
  -17.6180  -14.5780    9.2670 C   0  0  0  0  0  0  0  0  0  0  0  0
  -18.1870  -13.3750    8.9380 O   0  0  0  0  0  0  0  0  0  0  0  0
  -17.3710  -12.3930    9.3910 C   0  0  0  0  0  0  0  0  0  0  0  0
  -17.5920  -11.0320    9.2430 C   0  0  0  0  0  3  0  0  0  0  0  0
  -16.6230  -10.1620    9.7740 C   0  0  0  0  0  0  0  0  0  0  0  0
  -15.4380  -10.6350   10.4040 C   0  0  0  0  0  0  0  0  0  0  0  0
  -15.2920  -12.0430   10.5130 C   0  0  0  0  0  3  0  0  0  0  0  0
  -16.2670  -12.9340   10.0200 C   0  0  0  0  0  0  0  0  0  0  0  0
  -18.3850  -15.7510    8.8430 C   0  0  0  0  0  0  0  0  0  0  0  0
  -19.5010  -15.6040    7.9990 C   0  0  0  0  0  3  0  0  0  0  0  0
  -20.2470  -16.7110    7.5900 C   0  0  0  0  0  3  0  0  0  0  0  0
  -19.8840  -17.9780    8.0240 C   0  0  0  0  0  0  0  0  0  0  0  0
  -20.5980  -19.0420    7.6340 F   0  0  0  0  0  0  0  0  0  0  0  0
  -18.7890  -18.1550    8.8590 C   0  0  0  0  0  3  0  0  0  0  0  0
  -18.0430  -17.0450    9.2690 C   0  0  0  0  0  3  0  0  0  0  0  0
  -16.3720  -15.0960   12.8330 C   0  0  0  0  0  1  0  0  0  0  0  0
  -15.5070  -15.6220   11.8030 N   0  0  0  0  0  0  0  0  0  0  0  0
  -15.5410  -15.3770   10.4540 C   0  0  0  0  0  0  0  0  0  0  0  0
  -14.8260  -16.0380    9.7060 O   0  0  0  0  0  0  0  0  0  0  0  0
  -14.8190  -16.3190   12.0630 H   0  0  0  0  0  0  0  0  0  0  0  0
  -14.3500   -9.7010   10.9350 C   0  0  0  0  0  3  0  0  0  0  0  0
  -14.1160   -9.5540   12.4210 C   0  0  0  0  0  2  0  0  0  0  0  0
  -13.0810  -10.2260   11.5650 C   0  0  0  0  0  2  0  0  0  0  0  0
  -16.9290   -8.7610    9.5950 N   0  0  0  0  0  0  0  0  0  0  0  0
  -17.2800   -7.8450   10.9820 S   0  0  0  0  0  0  0  0  0  0  0  0
  -18.5660   -6.7530   10.4080 C   0  0  0  0  0  1  0  0  0  0  0  0
  -17.8290   -8.6950   12.0140 O   0  0  0  0  0  0  0  0  0  0  0  0
  -16.1150   -7.0210   11.2460 O   0  0  0  0  0  0  0  0  0  0  0  0
  -16.2230   -8.0640    8.4760 C   0  0  0  0  0  2  0  0  0  0  0  0
  -17.1010   -8.0460    7.2200 C   0  0  0  0  0  2  0  0  0  0  0  0
  -16.3370   -8.0650    6.0180 O   0  0  0  0  0  0  0  0  0  0  0  0
  -15.5790   -7.4490    6.1230 H   0  0  0  0  0  0  0  0  0  0  0  0
  1  9  1  0  0  0  0
  1 19  1  0  0  0  0
  2  1  2  0  0  0  0
  3  2  1  0  0  0  0
  3  4  1  0  0  0  0
  4  9  1  0  0  0  0
  5  4  2  0  0  0  0
  5  6  1  0  0  0  0
  6  7  2  0  0  0  0
  7  8  1  0  0  0  0
  7 22  1  0  0  0  0
  9  8  2  0  0  0  0
 10  2  1  0  0  0  0
 10 16  1  0  0  0  0
 11 10  2  0  0  0  0
 12 11  1  0  0  0  0
 12 13  2  0  0  0  0
 13 15  1  0  0  0  0
 14 13  1  0  0  0  0
 15 16  2  0  0  0  0
 18 21  1  0  0  0  0
 18 17  1  0  0  0  0
 19 18  1  0  0  0  0
 20 19  2  0  0  0  0
 22 24  1  0  0  0  0
 22 23  1  0  0  0  0
 24 23  1  0  0  0  0
 25  6  1  0  0  0  0
 25 26  1  0  0  0  0
 26 29  2  0  0  0  0
 26 28  2  0  0  0  0
 27 26  1  0  0  0  0
 30 25  1  0  0  0  0
 31 30  1  0  0  0  0
 32 33  1  0  0  0  0
 32 31  1  0  0  0  0
M  END
>  <minimizedAffinity>
-9.21856689

$$$$

 OpenBabel08152212313D

 33 36  0  0  0  0  0  0  0  0999 V2000
  -16.1360  -14.6570   10.3590 C   0  0  0  0  0  0  0  0  0  0  0  0
  -17.2420  -15.0320    9.6050 C   0  0  0  0  0  0  0  0  0  0  0  0
  -17.8210  -13.9140    9.0610 O   0  0  0  0  0  0  0  0  0  0  0  0
  -17.0830  -12.8410    9.4340 C   0  0  0  0  0  0  0  0  0  0  0  0
  -17.3370  -11.5260    9.0740 C   0  0  0  0  0  3  0  0  0  0  0  0
  -16.4500  -10.5460    9.5540 C   0  0  0  0  0  0  0  0  0  0  0  0
  -15.3100  -10.8700   10.3410 C   0  0  0  0  0  0  0  0  0  0  0  0
  -15.1260  -12.2410   10.6630 C   0  0  0  0  0  3  0  0  0  0  0  0
  -16.0210  -13.2370   10.2240 C   0  0  0  0  0  0  0  0  0  0  0  0
  -17.9270  -16.2870    9.2920 C   0  0  0  0  0  0  0  0  0  0  0  0
  -19.2810  -16.2820    8.9100 C   0  0  0  0  0  3  0  0  0  0  0  0
  -19.9520  -17.4710    8.6140 C   0  0  0  0  0  3  0  0  0  0  0  0
  -19.2720  -18.6770    8.6980 C   0  0  0  0  0  0  0  0  0  0  0  0
  -19.9130  -19.8200    8.4150 F   0  0  0  0  0  0  0  0  0  0  0  0
  -17.9370  -18.7150    9.0740 C   0  0  0  0  0  3  0  0  0  0  0  0
  -17.2670  -17.5240    9.3710 C   0  0  0  0  0  3  0  0  0  0  0  0
  -16.6100  -15.3710   13.1960 C   0  0  0  0  0  1  0  0  0  0  0  0
  -15.4840  -15.7900   12.3950 N   0  0  0  0  0  0  0  0  0  0  0  0
  -15.2520  -15.5580   11.0630 C   0  0  0  0  0  0  0  0  0  0  0  0
  -14.3170  -16.1280   10.5080 O   0  0  0  0  0  0  0  0  0  0  0  0
  -14.7920  -16.3950   12.8190 H   0  0  0  0  0  0  0  0  0  0  0  0
  -14.3070   -9.8200   10.8220 C   0  0  0  0  0  3  0  0  0  0  0  0
  -14.2740   -9.3890   12.2700 C   0  0  0  0  0  2  0  0  0  0  0  0
  -13.1310  -10.1800   11.7000 C   0  0  0  0  0  2  0  0  0  0  0  0
  -16.7870   -9.2000    9.1500 N   0  0  0  0  0  0  0  0  0  0  0  0
  -16.1300   -8.6240    7.6930 S   0  0  0  0  0  0  0  0  0  0  0  0
  -17.5150   -7.7870    6.9490 C   0  0  0  0  0  1  0  0  0  0  0  0
  -15.0970   -7.6480    7.9640 O   0  0  0  0  0  0  0  0  0  0  0  0
  -15.8490   -9.7860    6.8700 O   0  0  0  0  0  0  0  0  0  0  0  0
  -18.1520   -8.7160    9.5220 C   0  0  0  0  0  2  0  0  0  0  0  0
  -18.0630   -7.6930   10.6610 C   0  0  0  0  0  2  0  0  0  0  0  0
  -16.7640   -7.1210   10.7810 O   0  0  0  0  0  0  0  0  0  0  0  0
  -16.0990   -7.8380   10.6830 H   0  0  0  0  0  0  0  0  0  0  0  0
  1 19  1  0  0  0  0
  2  1  2  0  0  0  0
  3  4  1  0  0  0  0
  3  2  1  0  0  0  0
  4  9  1  0  0  0  0
  5  4  2  0  0  0  0
  5  6  1  0  0  0  0
  6  7  2  0  0  0  0
  7  8  1  0  0  0  0
  7 22  1  0  0  0  0
  9  1  1  0  0  0  0
  9  8  2  0  0  0  0
 10 16  1  0  0  0  0
 10  2  1  0  0  0  0
 11 10  2  0  0  0  0
 12 13  2  0  0  0  0
 12 11  1  0  0  0  0
 13 15  1  0  0  0  0
 14 13  1  0  0  0  0
 15 16  2  0  0  0  0
 18 21  1  0  0  0  0
 18 17  1  0  0  0  0
 19 18  1  0  0  0  0
 20 19  2  0  0  0  0
 22 24  1  0  0  0  0
 22 23  1  0  0  0  0
 24 23  1  0  0  0  0
 25 30  1  0  0  0  0
 25  6  1  0  0  0  0
 26 28  2  0  0  0  0
 26 25  1  0  0  0  0
 27 26  1  0  0  0  0
 29 26  2  0  0  0  0
 30 31  1  0  0  0  0
 31 32  1  0  0  0  0
 33 32  1  0  0  0  0
M  END
>  <minimizedAffinity>
-7.9587698

$$$$

 OpenBabel08152212313D

 33 36  0  0  0  0  0  0  0  0999 V2000
  -16.9860  -14.5030   10.1920 C   0  0  0  0  0  0  0  0  0  0  0  0
  -17.7500  -14.8290    9.0770 C   0  0  0  0  0  0  0  0  0  0  0  0
  -17.8940  -13.7200    8.2860 O   0  0  0  0  0  0  0  0  0  0  0  0
  -17.2090  -12.7040    8.8650 C   0  0  0  0  0  0  0  0  0  0  0  0
  -17.1020  -11.4170    8.3620 C   0  0  0  0  0  3  0  0  0  0  0  0
  -16.3380  -10.4990    9.1040 C   0  0  0  0  0  0  0  0  0  0  0  0
  -15.6620  -10.8620   10.3020 C   0  0  0  0  0  0  0  0  0  0  0  0
  -15.8260  -12.2020   10.7460 C   0  0  0  0  0  3  0  0  0  0  0  0
  -16.6160  -13.1300   10.0380 C   0  0  0  0  0  0  0  0  0  0  0  0
  -18.4370  -16.0240    8.5840 C   0  0  0  0  0  0  0  0  0  0  0  0
  -19.2910  -15.9430    7.4690 C   0  0  0  0  0  3  0  0  0  0  0  0
  -19.9590  -17.0720    6.9880 C   0  0  0  0  0  3  0  0  0  0  0  0
  -19.7790  -18.2930    7.6210 C   0  0  0  0  0  0  0  0  0  0  0  0
  -20.4180  -19.3780    7.1630 F   0  0  0  0  0  0  0  0  0  0  0  0
  -18.9440  -18.4040    8.7250 C   0  0  0  0  0  3  0  0  0  0  0  0
  -18.2770  -17.2730    9.2060 C   0  0  0  0  0  3  0  0  0  0  0  0
  -14.4810  -16.0750   10.0060 C   0  0  0  0  0  1  0  0  0  0  0  0
  -15.4620  -16.1700   11.0610 N   0  0  0  0  0  0  0  0  0  0  0  0
  -16.5960  -15.4170   11.2420 C   0  0  0  0  0  0  0  0  0  0  0  0
  -17.2310  -15.5310   12.2860 O   0  0  0  0  0  0  0  0  0  0  0  0
  -15.2890  -16.8150   11.8220 H   0  0  0  0  0  0  0  0  0  0  0  0
  -14.7820   -9.8890   11.0880 C   0  0  0  0  0  3  0  0  0  0  0  0
  -14.0740  -10.3340   12.3470 C   0  0  0  0  0  2  0  0  0  0  0  0
  -13.2770  -10.0130   11.1150 C   0  0  0  0  0  2  0  0  0  0  0  0
  -16.2830   -9.1760    8.5260 N   0  0  0  0  0  0  0  0  0  0  0  0
  -15.9050   -9.0500    6.8740 S   0  0  0  0  0  0  0  0  0  0  0  0
  -17.4180   -9.5730    6.0900 C   0  0  0  0  0  1  0  0  0  0  0  0
  -15.6610   -7.6690    6.5220 O   0  0  0  0  0  0  0  0  0  0  0  0
  -14.9110  -10.0700    6.5920 O   0  0  0  0  0  0  0  0  0  0  0  0
  -17.2300   -8.1640    9.0880 C   0  0  0  0  0  2  0  0  0  0  0  0
  -18.0500   -8.7770   10.2290 C   0  0  0  0  0  2  0  0  0  0  0  0
  -19.2550   -8.0620   10.4820 O   0  0  0  0  0  0  0  0  0  0  0  0
  -19.0570   -7.1000   10.4530 H   0  0  0  0  0  0  0  0  0  0  0  0
  1 19  1  0  0  0  0
  2  1  2  0  0  0  0
  3  4  1  0  0  0  0
  3  2  1  0  0  0  0
  4  9  1  0  0  0  0
  5  4  2  0  0  0  0
  5  6  1  0  0  0  0
  6  7  2  0  0  0  0
  7  8  1  0  0  0  0
  7 22  1  0  0  0  0
  9  1  1  0  0  0  0
  9  8  2  0  0  0  0
 10  2  1  0  0  0  0
 10 16  1  0  0  0  0
 11 10  2  0  0  0  0
 12 11  1  0  0  0  0
 12 13  2  0  0  0  0
 13 15  1  0  0  0  0
 14 13  1  0  0  0  0
 15 16  2  0  0  0  0
 17 18  1  0  0  0  0
 18 19  1  0  0  0  0
 18 21  1  0  0  0  0
 19 20  2  0  0  0  0
 22 24  1  0  0  0  0
 22 23  1  0  0  0  0
 24 23  1  0  0  0  0
 25 30  1  0  0  0  0
 25  6  1  0  0  0  0
 26 25  1  0  0  0  0
 27 26  1  0  0  0  0
 28 26  2  0  0  0  0
 29 26  2  0  0  0  0
 30 31  1  0  0  0  0
 31 32  1  0  0  0  0
 33 32  1  0  0  0  0
M  END
>  <minimizedAffinity>
-6.48476696

$$$$
