REMARK  Name = 
REMARK  4 active torsions:
REMARK  status: ('A' for Active; 'I' for Inactive)
REMARK    1  A    between atoms: C_2  and  C_4
REMARK    2  A    between atoms: N_8  and  S_9
REMARK    3  A    between atoms: S_9  and  C_12
REMARK    4  A    between atoms: C_19  and  O_20
REMARK                            x       y       z     vdW  Elec       q    Type
REMARK                         _______ _______ _______ _____ _____    ______ ____
ROOT
ATOM      1  S   UNL     1       0.688  -3.410  -0.057  0.00  0.00    +0.066 S 
ATOM      2  O   UNL     1       0.192  -4.486   0.789  0.00  0.00    -0.153 OA
ATOM      3  O   UNL     1      -0.088  -2.196  -0.156  0.00  0.00    -0.153 OA
ENDROOT
BRANCH   1   4
ATOM      4  C   UNL     1       0.983  -4.183  -1.627  0.00  0.00    +0.150 A 
ATOM      5  C   UNL     1       1.701  -5.391  -1.598  0.00  0.00    +0.052 A 
ATOM      6  C   UNL     1       1.865  -6.129  -2.766  0.00  0.00    +0.044 A 
ATOM      7 CL   UNL     1       2.741  -7.610  -2.724  0.00  0.00    -0.083 Cl
ATOM      8  C   UNL     1       1.311  -5.689  -3.963  0.00  0.00    +0.043 A 
ATOM      9  C   UNL     1       0.597  -4.490  -3.992  0.00  0.00    +0.086 A 
ATOM     10 CL   UNL     1      -0.066  -3.982  -5.507  0.00  0.00    -0.080 Cl
ATOM     11  C   UNL     1       0.438  -3.726  -2.828  0.00  0.00    +0.162 A 
BRANCH  11  12
ATOM     12  O   UNL     1      -0.195  -2.520  -2.923  0.00  0.00    -0.503 OA
ATOM     13  H   UNL     1       0.467  -1.860  -2.558  0.00  0.00    +0.292 HD
ENDBRANCH  11  12
ENDBRANCH   1   4
BRANCH   1  18
ATOM     14  C   UNL     1       3.071  -1.929  -0.093  0.00  0.00    +0.136 C 
ATOM     15  C   UNL     1       3.788  -1.173   1.033  0.00  0.00    +0.097 C 
ATOM     16  S   UNL     1       3.940  -2.362   2.380  0.00  0.00    -0.142 S 
ATOM     17  C   UNL     1       2.324  -3.042   1.984  0.00  0.00    +0.179 C 
ATOM     18  N   UNL     1       2.231  -3.037   0.523  0.00  0.00    -0.157 NA
BRANCH  14  20
ATOM     19  O   UNL     1       2.651   0.330  -0.798  0.00  0.00    -0.548 OA
ATOM     20  C   UNL     1       2.453  -0.888  -1.055  0.00  0.00    +0.061 C 
ATOM     21  O   UNL     1       1.866  -1.379  -2.067  0.00  0.00    -0.548 OA
ENDBRANCH  14  20
ENDBRANCH   1  18
TORSDOF 4
