
 OpenBabel09132204463D

 21 22  0  0  1  0  0  0  0  0999 V2000
    3.2590   -8.5370    4.4540 S   0  0  0  0  0  0  0  0  0  0  0  0
    1.9290   -8.2490    4.9710 O   0  0  0  0  0  0  0  0  0  0  0  0
    4.2180   -9.1700    5.3290 O   0  0  0  0  0  0  0  0  0  0  0  0
    3.8240   -6.9860    3.8010 C   0  0  0  0  0  0  0  0  0  0  0  0
    4.2870   -7.0040    2.4740 C   0  0  0  0  0  3  0  0  0  0  0  0
    4.6260   -5.8120    1.8410 C   0  0  0  0  0  0  0  0  0  0  0  0
    5.1880   -5.8400    0.2150 Cl  0  0  0  0  0  0  0  0  0  0  0  0
    4.4970   -4.5980    2.5060 C   0  0  0  0  0  3  0  0  0  0  0  0
    4.0360   -4.5790    3.8230 C   0  0  0  0  0  0  0  0  0  0  0  0
    3.8990   -3.0440    4.6090 Cl  0  0  0  0  0  0  0  0  0  0  0  0
    3.7070   -5.7730    4.4810 C   0  0  0  0  0  0  0  0  0  0  0  0
    3.3410   -5.7110    5.7950 O   0  0  0  0  0  0  0  0  0  0  0  0
    3.9860   -6.3220    6.2630 H   0  0  0  0  0  0  0  0  0  0  0  0
    4.1650  -10.3040    2.4720 C   0  0  1  0  0  3  0  0  0  0  0  0
    3.6270  -11.6750    2.0420 C   0  0  0  0  0  2  0  0  0  0  0  0
    1.8670  -11.4190    1.7400 S   0  0  0  0  0  0  0  0  0  0  0  0
    1.7800  -10.2730    3.1210 C   0  0  0  0  0  2  0  0  0  0  0  0
    3.0270   -9.5060    3.0900 N   0  0  0  0  0  0  0  0  0  0  0  0
    5.6230  -11.5940    3.8820 O   0  0  0  0  0  1  0  0  0  0  0  0
    5.4970  -10.5250    3.2260 C   0  0  0  0  0  0  0  0  0  0  0  0
    6.3720   -9.6260    3.0380 O   0  0  0  0  0  0  0  0  0  0  0  0
  1  2  2  0  0  0  0
  1  3  2  0  0  0  0
  4  1  1  0  0  0  0
  4 11  1  0  0  0  0
  5  4  2  0  0  0  0
  6  5  1  0  0  0  0
  6  8  2  0  0  0  0
  7  6  1  0  0  0  0
  8  9  1  0  0  0  0
  9 11  2  0  0  0  0
  9 10  1  0  0  0  0
 11 12  1  0  0  0  0
 12 13  1  0  0  0  0
 14 18  1  0  0  0  0
 14 20  1  1  0  0  0
 15 14  1  0  0  0  0
 16 15  1  0  0  0  0
 16 17  1  0  0  0  0
 18 17  1  0  0  0  0
 18  1  1  0  0  0  0
 20 19  1  0  0  0  0
 21 20  2  0  0  0  0
M  END
>  <minimizedAffinity>
-4.91055822

$$$$
