
 OpenBabel09132200313D

 21 22  0  0  1  0  0  0  0  0999 V2000
    4.9130   -9.7370    3.5070 S   0  0  0  0  0  0  0  0  0  0  0  0
    5.6880   -9.6500    4.7360 O   0  0  0  0  0  0  0  0  0  0  0  0
    5.2670  -10.7470    2.5380 O   0  0  0  0  0  0  0  0  0  0  0  0
    4.9460   -8.0900    2.8470 C   0  0  0  0  0  0  0  0  0  0  0  0
    5.4210   -7.9590    1.5300 C   0  0  0  0  0  3  0  0  0  0  0  0
    5.3600   -6.7260    0.8900 C   0  0  0  0  0  0  0  0  0  0  0  0
    5.9390   -6.5720   -0.7240 Cl  0  0  0  0  0  0  0  0  0  0  0  0
    4.8190   -5.6200    1.5360 C   0  0  0  0  0  3  0  0  0  0  0  0
    4.3470   -5.7500    2.8430 C   0  0  0  0  0  0  0  0  0  0  0  0
    3.6900   -4.3430    3.6070 Cl  0  0  0  0  0  0  0  0  0  0  0  0
    4.4170   -6.9810    3.5090 C   0  0  0  0  0  0  0  0  0  0  0  0
    4.0200   -7.0380    4.8140 O   0  0  0  0  0  0  0  0  0  0  0  0
    4.8200   -7.3980    5.3030 H   0  0  0  0  0  0  0  0  0  0  0  0
    2.1720  -10.0120    2.9760 C   0  0  1  0  0  3  0  0  0  0  0  0
    1.1820  -11.1030    3.4030 C   0  0  0  0  0  2  0  0  0  0  0  0
    1.3780  -11.2490    5.1890 S   0  0  0  0  0  0  0  0  0  0  0  0
    3.1470  -10.9730    5.0340 C   0  0  0  0  0  2  0  0  0  0  0  0
    3.3080   -9.9640    3.9850 N   0  0  0  0  0  0  0  0  0  0  0  0
    2.6360  -11.3410    1.0270 O   0  0  0  0  0  1  0  0  0  0  0  0
    2.4430  -10.1730    1.4620 C   0  0  0  0  0  0  0  0  0  0  0  0
    2.3640   -9.1010    0.7890 O   0  0  0  0  0  0  0  0  0  0  0  0
  1 18  1  0  0  0  0
  1  2  2  0  0  0  0
  3  1  2  0  0  0  0
  4  1  1  0  0  0  0
  4 11  1  0  0  0  0
  5  4  2  0  0  0  0
  6  5  1  0  0  0  0
  6  8  2  0  0  0  0
  7  6  1  0  0  0  0
  8  9  1  0  0  0  0
  9 11  2  0  0  0  0
  9 10  1  0  0  0  0
 11 12  1  0  0  0  0
 12 13  1  0  0  0  0
 14 20  1  6  0  0  0
 14 15  1  0  0  0  0
 14 18  1  0  0  0  0
 15 16  1  0  0  0  0
 17 16  1  0  0  0  0
 18 17  1  0  0  0  0
 19 20  1  0  0  0  0
 21 20  2  0  0  0  0
M  END
>  <minimizedAffinity>
-5.56702137

$$$$

 OpenBabel09132200313D

 21 22  0  0  1  0  0  0  0  0999 V2000
    4.8510   -9.6980    3.7860 S   0  0  0  0  0  0  0  0  0  0  0  0
    5.2410   -9.5550    5.1810 O   0  0  0  0  0  0  0  0  0  0  0  0
    5.5670  -10.6450    2.9630 O   0  0  0  0  0  0  0  0  0  0  0  0
    4.8880   -8.0440    3.1450 C   0  0  0  0  0  0  0  0  0  0  0  0
    4.0200   -7.1230    3.7560 C   0  0  0  0  0  3  0  0  0  0  0  0
    4.0760   -5.7780    3.4040 C   0  0  0  0  0  0  0  0  0  0  0  0
    3.0140   -4.6530    4.1590 Cl  0  0  0  0  0  0  0  0  0  0  0  0
    4.9960   -5.3320    2.4620 C   0  0  0  0  0  3  0  0  0  0  0  0
    5.8590   -6.2460    1.8560 C   0  0  0  0  0  0  0  0  0  0  0  0
    6.9800   -5.6430    0.6840 Cl  0  0  0  0  0  0  0  0  0  0  0  0
    5.8030   -7.6070    2.1850 C   0  0  0  0  0  0  0  0  0  0  0  0
    6.6080   -8.4750    1.5050 O   0  0  0  0  0  0  0  0  0  0  0  0
    5.9760   -9.1490    1.1140 H   0  0  0  0  0  0  0  0  0  0  0  0
    2.3570  -10.0330    2.5450 C   0  0  1  0  0  3  0  0  0  0  0  0
    1.4120  -11.2410    2.5230 C   0  0  0  0  0  2  0  0  0  0  0  0
    1.1930  -11.7020    4.2530 S   0  0  0  0  0  0  0  0  0  0  0  0
    2.9110  -11.2990    4.5940 C   0  0  0  0  0  2  0  0  0  0  0  0
    3.2110  -10.1050    3.8010 N   0  0  0  0  0  0  0  0  0  0  0  0
    3.4700  -10.9360    0.6160 O   0  0  0  0  0  0  0  0  0  0  0  0
    2.9940   -9.8940    1.1430 C   0  0  0  0  0  0  0  0  0  0  0  0
    2.8990   -8.7400    0.6250 O   0  0  0  0  0  1  0  0  0  0  0  0
  1 18  1  0  0  0  0
  1  2  2  0  0  0  0
  3  1  2  0  0  0  0
  4  5  1  0  0  0  0
  4  1  1  0  0  0  0
  6  5  2  0  0  0  0
  6  7  1  0  0  0  0
  8  6  1  0  0  0  0
  9 11  1  0  0  0  0
  9  8  2  0  0  0  0
 10  9  1  0  0  0  0
 11  4  2  0  0  0  0
 12 11  1  0  0  0  0
 13 12  1  0  0  0  0
 14 20  1  6  0  0  0
 14 18  1  0  0  0  0
 15 14  1  0  0  0  0
 15 16  1  0  0  0  0
 16 17  1  0  0  0  0
 18 17  1  0  0  0  0
 19 20  2  0  0  0  0
 21 20  1  0  0  0  0
M  END
>  <minimizedAffinity>
-5.5298357

$$$$

 OpenBabel09132200313D

 21 22  0  0  1  0  0  0  0  0999 V2000
    5.2080   -6.9940    2.3600 S   0  0  0  0  0  0  0  0  0  0  0  0
    4.2520   -6.4320    1.4170 O   0  0  0  0  0  0  0  0  0  0  0  0
    6.6100   -6.6930    2.1830 O   0  0  0  0  0  0  0  0  0  0  0  0
    4.8600   -8.7340    2.3580 C   0  0  0  0  0  0  0  0  0  0  0  0
    5.3570   -9.4670    3.4500 C   0  0  0  0  0  3  0  0  0  0  0  0
    5.0210  -10.8090    3.5950 C   0  0  0  0  0  0  0  0  0  0  0  0
    5.6280  -11.7010    4.9360 Cl  0  0  0  0  0  0  0  0  0  0  0  0
    4.1840  -11.4310    2.6750 C   0  0  0  0  0  3  0  0  0  0  0  0
    3.6900  -10.7040    1.5910 C   0  0  0  0  0  0  0  0  0  0  0  0
    2.6590  -11.5250    0.4710 Cl  0  0  0  0  0  0  0  0  0  0  0  0
    4.0330   -9.3560    1.4210 C   0  0  0  0  0  0  0  0  0  0  0  0
    3.5940   -8.7090    0.3010 O   0  0  0  0  0  0  0  0  0  0  0  0
    4.4310   -8.3660   -0.1340 H   0  0  0  0  0  0  0  0  0  0  0  0
    4.9820   -5.0530    4.3730 C   0  0  1  0  0  3  0  0  0  0  0  0
    3.7500   -4.5570    5.1410 C   0  0  0  0  0  2  0  0  0  0  0  0
    2.9520   -6.0470    5.7690 S   0  0  0  0  0  0  0  0  0  0  0  0
    3.3770   -6.9290    4.2620 C   0  0  0  0  0  2  0  0  0  0  0  0
    4.7160   -6.4700    3.8890 N   0  0  0  0  0  0  0  0  0  0  0  0
    6.6620   -3.7450    3.2570 O   0  0  0  0  0  1  0  0  0  0  0  0
    5.4240   -3.9370    3.3980 C   0  0  0  0  0  0  0  0  0  0  0  0
    4.4780   -3.3720    2.7690 O   0  0  0  0  0  0  0  0  0  0  0  0
  1 18  1  0  0  0  0
  2  1  2  0  0  0  0
  3  1  2  0  0  0  0
  4  1  1  0  0  0  0
  4  5  1  0  0  0  0
  5  6  2  0  0  0  0
  6  7  1  0  0  0  0
  8  6  1  0  0  0  0
  9  8  2  0  0  0  0
 10  9  1  0  0  0  0
 11  9  1  0  0  0  0
 11  4  2  0  0  0  0
 12 11  1  0  0  0  0
 13 12  1  0  0  0  0
 14 20  1  6  0  0  0
 14 15  1  0  0  0  0
 15 16  1  0  0  0  0
 17 16  1  0  0  0  0
 18 17  1  0  0  0  0
 18 14  1  0  0  0  0
 19 20  1  0  0  0  0
 21 20  2  0  0  0  0
M  END
>  <minimizedAffinity>
-5.08225155

$$$$

 OpenBabel09132200313D

 21 22  0  0  1  0  0  0  0  0999 V2000
    3.2590   -8.5370    4.4540 S   0  0  0  0  0  0  0  0  0  0  0  0
    1.9290   -8.2490    4.9710 O   0  0  0  0  0  0  0  0  0  0  0  0
    4.2180   -9.1700    5.3290 O   0  0  0  0  0  0  0  0  0  0  0  0
    3.8240   -6.9860    3.8010 C   0  0  0  0  0  0  0  0  0  0  0  0
    4.2870   -7.0040    2.4740 C   0  0  0  0  0  3  0  0  0  0  0  0
    4.6260   -5.8120    1.8410 C   0  0  0  0  0  0  0  0  0  0  0  0
    5.1880   -5.8400    0.2150 Cl  0  0  0  0  0  0  0  0  0  0  0  0
    4.4970   -4.5980    2.5060 C   0  0  0  0  0  3  0  0  0  0  0  0
    4.0360   -4.5790    3.8230 C   0  0  0  0  0  0  0  0  0  0  0  0
    3.8990   -3.0440    4.6090 Cl  0  0  0  0  0  0  0  0  0  0  0  0
    3.7070   -5.7730    4.4810 C   0  0  0  0  0  0  0  0  0  0  0  0
    3.3410   -5.7110    5.7950 O   0  0  0  0  0  0  0  0  0  0  0  0
    3.9860   -6.3220    6.2630 H   0  0  0  0  0  0  0  0  0  0  0  0
    4.1650  -10.3040    2.4720 C   0  0  1  0  0  3  0  0  0  0  0  0
    3.6270  -11.6750    2.0420 C   0  0  0  0  0  2  0  0  0  0  0  0
    1.8670  -11.4190    1.7400 S   0  0  0  0  0  0  0  0  0  0  0  0
    1.7800  -10.2730    3.1210 C   0  0  0  0  0  2  0  0  0  0  0  0
    3.0270   -9.5060    3.0900 N   0  0  0  0  0  0  0  0  0  0  0  0
    5.6230  -11.5940    3.8820 O   0  0  0  0  0  1  0  0  0  0  0  0
    5.4970  -10.5250    3.2260 C   0  0  0  0  0  0  0  0  0  0  0  0
    6.3720   -9.6260    3.0380 O   0  0  0  0  0  0  0  0  0  0  0  0
  1  2  2  0  0  0  0
  1  3  2  0  0  0  0
  4  1  1  0  0  0  0
  4 11  1  0  0  0  0
  5  4  2  0  0  0  0
  6  5  1  0  0  0  0
  6  8  2  0  0  0  0
  7  6  1  0  0  0  0
  8  9  1  0  0  0  0
  9 11  2  0  0  0  0
  9 10  1  0  0  0  0
 11 12  1  0  0  0  0
 12 13  1  0  0  0  0
 14 18  1  0  0  0  0
 14 20  1  1  0  0  0
 15 14  1  0  0  0  0
 16 15  1  0  0  0  0
 16 17  1  0  0  0  0
 18 17  1  0  0  0  0
 18  1  1  0  0  0  0
 20 19  1  0  0  0  0
 21 20  2  0  0  0  0
M  END
>  <minimizedAffinity>
-4.91055822

$$$$

 OpenBabel09132200313D

 21 22  0  0  1  0  0  0  0  0999 V2000
    5.1270   -8.7390    3.5720 S   0  0  0  0  0  0  0  0  0  0  0  0
    4.3730   -8.4230    4.7760 O   0  0  0  0  0  0  0  0  0  0  0  0
    6.4880   -9.2030    3.7120 O   0  0  0  0  0  0  0  0  0  0  0  0
    4.9840   -7.2840    2.5660 C   0  0  0  0  0  0  0  0  0  0  0  0
    4.4150   -6.1570    3.1840 C   0  0  0  0  0  3  0  0  0  0  0  0
    4.3820   -4.9390    2.5120 C   0  0  0  0  0  0  0  0  0  0  0  0
    3.6880   -3.5610    3.2750 Cl  0  0  0  0  0  0  0  0  0  0  0  0
    4.9220   -4.8220    1.2360 C   0  0  0  0  0  3  0  0  0  0  0  0
    5.4880   -5.9410    0.6220 C   0  0  0  0  0  0  0  0  0  0  0  0
    6.1400   -5.7450   -0.9680 Cl  0  0  0  0  0  0  0  0  0  0  0  0
    5.5130   -7.1790    1.2790 C   0  0  0  0  0  0  0  0  0  0  0  0
    6.0000   -8.2620    0.6060 O   0  0  0  0  0  0  0  0  0  0  0  0
    5.2520   -8.9300    0.6300 H   0  0  0  0  0  0  0  0  0  0  0  0
    3.9460  -11.2750    3.3550 C   0  0  1  0  0  3  0  0  0  0  0  0
    2.5010  -11.6730    3.0250 C   0  0  0  0  0  2  0  0  0  0  0  0
    2.1000  -10.7850    1.5080 S   0  0  0  0  0  0  0  0  0  0  0  0
    3.0470   -9.3640    2.0690 C   0  0  0  0  0  2  0  0  0  0  0  0
    4.2240   -9.9070    2.7500 N   0  0  0  0  0  0  0  0  0  0  0  0
    3.1830  -11.7010    5.5940 O   0  0  0  0  0  1  0  0  0  0  0  0
    4.1940  -11.5600    4.8540 C   0  0  0  0  0  0  0  0  0  0  0  0
    5.4130  -11.7020    5.1760 O   0  0  0  0  0  0  0  0  0  0  0  0
  1  3  2  0  0  0  0
  1  2  2  0  0  0  0
  4  5  1  0  0  0  0
  4  1  1  0  0  0  0
  6  5  2  0  0  0  0
  6  7  1  0  0  0  0
  8  6  1  0  0  0  0
  9  8  2  0  0  0  0
  9 11  1  0  0  0  0
 10  9  1  0  0  0  0
 11  4  2  0  0  0  0
 12 13  1  0  0  0  0
 12 11  1  0  0  0  0
 14 20  1  1  0  0  0
 15 14  1  0  0  0  0
 16 17  1  0  0  0  0
 16 15  1  0  0  0  0
 17 18  1  0  0  0  0
 18 14  1  0  0  0  0
 18  1  1  0  0  0  0
 20 21  2  0  0  0  0
 20 19  1  0  0  0  0
M  END
>  <minimizedAffinity>
-4.88117504

$$$$

 OpenBabel09132200313D

 21 22  0  0  1  0  0  0  0  0999 V2000
    3.4880   -9.4100    1.4560 S   0  0  0  0  0  0  0  0  0  0  0  0
    4.2310  -10.2780    0.5530 O   0  0  0  0  0  0  0  0  0  0  0  0
    2.0590   -9.2960    1.2830 O   0  0  0  0  0  0  0  0  0  0  0  0
    4.3320   -7.8520    1.3640 C   0  0  0  0  0  0  0  0  0  0  0  0
    4.2800   -7.0500    2.5180 C   0  0  0  0  0  3  0  0  0  0  0  0
    5.0190   -5.8730    2.5790 C   0  0  0  0  0  0  0  0  0  0  0  0
    4.9560   -4.8980    3.9950 Cl  0  0  0  0  0  0  0  0  0  0  0  0
    5.8240   -5.4890    1.5120 C   0  0  0  0  0  3  0  0  0  0  0  0
    5.8770   -6.2850    0.3670 C   0  0  0  0  0  0  0  0  0  0  0  0
    6.8870   -5.7600   -0.9360 Cl  0  0  0  0  0  0  0  0  0  0  0  0
    5.1240   -7.4640    0.2820 C   0  0  0  0  0  0  0  0  0  0  0  0
    5.1420   -8.1650   -0.8890 O   0  0  0  0  0  0  0  0  0  0  0  0
    4.1780   -8.2290   -1.1580 H   0  0  0  0  0  0  0  0  0  0  0  0
    2.7040  -10.3950    3.9630 C   0  0  1  0  0  3  0  0  0  0  0  0
    3.1580  -11.6470    4.7250 C   0  0  0  0  0  2  0  0  0  0  0  0
    4.9590  -11.5630    4.7440 S   0  0  0  0  0  0  0  0  0  0  0  0
    4.9610  -10.8820    3.0810 C   0  0  0  0  0  2  0  0  0  0  0  0
    3.8160   -9.9730    3.0150 N   0  0  0  0  0  0  0  0  0  0  0  0
    1.0380  -11.6980    2.8220 O   0  0  0  0  0  0  0  0  0  0  0  0
    1.2620  -10.6340    3.4600 C   0  0  0  0  0  0  0  0  0  0  0  0
    0.4190   -9.7550    3.8170 O   0  0  0  0  0  1  0  0  0  0  0  0
  1 18  1  0  0  0  0
  2  1  2  0  0  0  0
  3  1  2  0  0  0  0
  4  1  1  0  0  0  0
  4  5  1  0  0  0  0
  5  6  2  0  0  0  0
  6  7  1  0  0  0  0
  8  6  1  0  0  0  0
  9  8  2  0  0  0  0
 10  9  1  0  0  0  0
 11  9  1  0  0  0  0
 11  4  2  0  0  0  0
 12 11  1  0  0  0  0
 13 12  1  0  0  0  0
 14 20  1  6  0  0  0
 14 15  1  0  0  0  0
 15 16  1  0  0  0  0
 17 16  1  0  0  0  0
 18 17  1  0  0  0  0
 18 14  1  0  0  0  0
 19 20  2  0  0  0  0
 20 21  1  0  0  0  0
M  END
>  <minimizedAffinity>
-4.84643936

$$$$

 OpenBabel09132200313D

 21 22  0  0  1  0  0  0  0  0999 V2000
    5.4130   -8.5740    2.3820 S   0  0  0  0  0  0  0  0  0  0  0  0
    4.9470   -8.3960    1.0140 O   0  0  0  0  0  0  0  0  0  0  0  0
    6.7720   -9.0160    2.5960 O   0  0  0  0  0  0  0  0  0  0  0  0
    4.2050   -9.6400    3.1250 C   0  0  0  0  0  0  0  0  0  0  0  0
    3.1930  -10.1180    2.2750 C   0  0  0  0  0  3  0  0  0  0  0  0
    2.2810  -11.0590    2.7420 C   0  0  0  0  0  0  0  0  0  0  0  0
    1.0470  -11.6450    1.6950 Cl  0  0  0  0  0  0  0  0  0  0  0  0
    2.3700  -11.5440    4.0420 C   0  0  0  0  0  3  0  0  0  0  0  0
    3.3760  -11.0710    4.8860 C   0  0  0  0  0  0  0  0  0  0  0  0
    3.4400  -11.7000    6.4970 Cl  0  0  0  0  0  0  0  0  0  0  0  0
    4.2910  -10.1090    4.4370 C   0  0  0  0  0  0  0  0  0  0  0  0
    5.2030   -9.6150    5.3240 O   0  0  0  0  0  0  0  0  0  0  0  0
    5.0540   -8.6230    5.3100 H   0  0  0  0  0  0  0  0  0  0  0  0
    5.8400   -5.8120    2.6320 C   0  0  1  0  0  3  0  0  0  0  0  0
    4.8360   -4.6590    2.7570 C   0  0  0  0  0  2  0  0  0  0  0  0
    3.7340   -5.1340    4.1020 S   0  0  0  0  0  0  0  0  0  0  0  0
    3.8060   -6.8520    3.5770 C   0  0  0  0  0  2  0  0  0  0  0  0
    5.1860   -7.0850    3.1470 N   0  0  0  0  0  0  0  0  0  0  0  0
    7.7010   -6.0310    1.1270 O   0  0  0  0  0  1  0  0  0  0  0  0
    6.4780   -5.7460    1.2240 C   0  0  0  0  0  0  0  0  0  0  0  0
    5.6680   -5.4830    0.2840 O   0  0  0  0  0  0  0  0  0  0  0  0
  1  3  2  0  0  0  0
  1  4  1  0  0  0  0
  1 18  1  0  0  0  0
  2  1  2  0  0  0  0
  4 11  1  0  0  0  0
  5  6  1  0  0  0  0
  5  4  2  0  0  0  0
  6  8  2  0  0  0  0
  7  6  1  0  0  0  0
  8  9  1  0  0  0  0
  9 10  1  0  0  0  0
 11  9  2  0  0  0  0
 11 12  1  0  0  0  0
 13 12  1  0  0  0  0
 14 20  1  6  0  0  0
 14 15  1  0  0  0  0
 14 18  1  0  0  0  0
 15 16  1  0  0  0  0
 17 16  1  0  0  0  0
 18 17  1  0  0  0  0
 19 20  1  0  0  0  0
 21 20  2  0  0  0  0
M  END
>  <minimizedAffinity>
-4.73112106

$$$$

 OpenBabel09132200313D

 21 22  0  0  1  0  0  0  0  0999 V2000
    3.2300   -7.9970    5.0630 S   0  0  0  0  0  0  0  0  0  0  0  0
    1.7980   -7.8540    5.2830 O   0  0  0  0  0  0  0  0  0  0  0  0
    4.0790   -8.2780    6.1970 O   0  0  0  0  0  0  0  0  0  0  0  0
    3.6920   -6.5230    4.1910 C   0  0  0  0  0  0  0  0  0  0  0  0
    2.8940   -5.3890    4.4230 C   0  0  0  0  0  3  0  0  0  0  0  0
    3.2600   -4.1600    3.8830 C   0  0  0  0  0  0  0  0  0  0  0  0
    2.2810   -2.7750    4.1740 Cl  0  0  0  0  0  0  0  0  0  0  0  0
    4.4190   -4.0390    3.1250 C   0  0  0  0  0  3  0  0  0  0  0  0
    5.2130   -5.1640    2.8950 C   0  0  0  0  0  0  0  0  0  0  0  0
    6.6410   -4.9630    1.9400 Cl  0  0  0  0  0  0  0  0  0  0  0  0
    4.8490   -6.4130    3.4170 C   0  0  0  0  0  0  0  0  0  0  0  0
    5.6110   -7.4990    3.0960 O   0  0  0  0  0  0  0  0  0  0  0  0
    4.9640   -8.1440    2.6800 H   0  0  0  0  0  0  0  0  0  0  0  0
    3.5720  -10.6850    4.3340 C   0  0  1  0  0  3  0  0  0  0  0  0
    2.7610  -11.5650    3.3740 C   0  0  0  0  0  2  0  0  0  0  0  0
    2.6590  -10.6230    1.8400 S   0  0  0  0  0  0  0  0  0  0  0  0
    2.5090   -9.0930    2.7700 C   0  0  0  0  0  2  0  0  0  0  0  0
    3.4030   -9.2310    3.9210 N   0  0  0  0  0  0  0  0  0  0  0  0
    2.0780  -11.1730    6.1520 O   0  0  0  0  0  0  0  0  0  0  0  0
    3.2820  -11.1530    5.7790 C   0  0  0  0  0  0  0  0  0  0  0  0
    4.2980  -11.5510    6.4250 O   0  0  0  0  0  1  0  0  0  0  0  0
  1  2  2  0  0  0  0
  1  3  2  0  0  0  0
  4  5  1  0  0  0  0
  4  1  1  0  0  0  0
  6  7  1  0  0  0  0
  6  5  2  0  0  0  0
  8  6  1  0  0  0  0
  9  8  2  0  0  0  0
  9 11  1  0  0  0  0
 10  9  1  0  0  0  0
 11  4  2  0  0  0  0
 12 11  1  0  0  0  0
 13 12  1  0  0  0  0
 14 20  1  1  0  0  0
 15 14  1  0  0  0  0
 16 17  1  0  0  0  0
 16 15  1  0  0  0  0
 17 18  1  0  0  0  0
 18 14  1  0  0  0  0
 18  1  1  0  0  0  0
 20 19  2  0  0  0  0
 20 21  1  0  0  0  0
M  END
>  <minimizedAffinity>
-4.71390963

$$$$

 OpenBabel09132200313D

 21 22  0  0  1  0  0  0  0  0999 V2000
    5.2130   -8.4560    3.1960 S   0  0  0  0  0  0  0  0  0  0  0  0
    5.6950   -9.2580    4.3110 O   0  0  0  0  0  0  0  0  0  0  0  0
    6.1780   -7.8910    2.2830 O   0  0  0  0  0  0  0  0  0  0  0  0
    4.1660   -7.2370    3.9510 C   0  0  0  0  0  0  0  0  0  0  0  0
    4.4220   -5.8990    3.6040 C   0  0  0  0  0  3  0  0  0  0  0  0
    3.5700   -4.8920    4.0460 C   0  0  0  0  0  0  0  0  0  0  0  0
    3.8860   -3.2560    3.6140 Cl  0  0  0  0  0  0  0  0  0  0  0  0
    2.4550   -5.1990    4.8180 C   0  0  0  0  0  3  0  0  0  0  0  0
    2.2000   -6.5270    5.1620 C   0  0  0  0  0  0  0  0  0  0  0  0
    0.8050   -6.8560    6.1310 Cl  0  0  0  0  0  0  0  0  0  0  0  0
    3.0580   -7.5520    4.7400 C   0  0  0  0  0  0  0  0  0  0  0  0
    2.8150   -8.8240    5.1710 O   0  0  0  0  0  0  0  0  0  0  0  0
    3.6660   -9.1020    5.6240 H   0  0  0  0  0  0  0  0  0  0  0  0
    3.6510   -9.0740    0.9490 C   0  0  1  0  0  3  0  0  0  0  0  0
    3.6120  -10.3400    0.0830 C   0  0  0  0  0  2  0  0  0  0  0  0
    3.4050  -11.7020    1.2460 S   0  0  0  0  0  0  0  0  0  0  0  0
    4.4690  -10.8730    2.4340 C   0  0  0  0  0  2  0  0  0  0  0  0
    4.1480   -9.4480    2.3360 N   0  0  0  0  0  0  0  0  0  0  0  0
    5.2310   -8.2820   -0.6800 O   0  0  0  0  0  0  0  0  0  0  0  0
    4.3220   -7.9490    0.1270 C   0  0  0  0  0  0  0  0  0  0  0  0
    3.8230   -6.7950    0.2960 O   0  0  0  0  0  1  0  0  0  0  0  0
  1  4  1  0  0  0  0
  1  2  2  0  0  0  0
  3  1  2  0  0  0  0
  4 11  1  0  0  0  0
  5  4  2  0  0  0  0
  5  6  1  0  0  0  0
  6  8  2  0  0  0  0
  7  6  1  0  0  0  0
  8  9  1  0  0  0  0
  9 10  1  0  0  0  0
 11  9  2  0  0  0  0
 11 12  1  0  0  0  0
 12 13  1  0  0  0  0
 14 20  1  6  0  0  0
 14 18  1  0  0  0  0
 15 14  1  0  0  0  0
 15 16  1  0  0  0  0
 16 17  1  0  0  0  0
 18 17  1  0  0  0  0
 18  1  1  0  0  0  0
 19 20  2  0  0  0  0
 20 21  1  0  0  0  0
M  END
>  <minimizedAffinity>
-4.71364594

$$$$

 OpenBabel09132200313D

 21 22  0  0  1  0  0  0  0  0999 V2000
    5.8780   -8.3910    2.2670 S   0  0  0  0  0  0  0  0  0  0  0  0
    5.2920   -8.3330    0.9360 O   0  0  0  0  0  0  0  0  0  0  0  0
    7.3110   -8.5200    2.3860 O   0  0  0  0  0  0  0  0  0  0  0  0
    4.9870   -9.6890    3.0860 C   0  0  0  0  0  0  0  0  0  0  0  0
    5.5580  -10.1810    4.2720 C   0  0  0  0  0  3  0  0  0  0  0  0
    4.8640  -11.1070    5.0450 C   0  0  0  0  0  0  0  0  0  0  0  0
    5.5670  -11.7020    6.4990 Cl  0  0  0  0  0  0  0  0  0  0  0  0
    3.6000  -11.5400    4.6620 C   0  0  0  0  0  3  0  0  0  0  0  0
    3.0310  -11.0510    3.4850 C   0  0  0  0  0  0  0  0  0  0  0  0
    1.4590  -11.6260    3.0480 Cl  0  0  0  0  0  0  0  0  0  0  0  0
    3.7250  -10.1320    2.6860 C   0  0  0  0  0  0  0  0  0  0  0  0
    3.1650   -9.7470    1.5020 O   0  0  0  0  0  0  0  0  0  0  0  0
    3.8570   -9.9730    0.8110 H   0  0  0  0  0  0  0  0  0  0  0  0
    5.7960   -5.6020    2.5650 C   0  0  1  0  0  3  0  0  0  0  0  0
    4.5990   -4.6520    2.7010 C   0  0  0  0  0  2  0  0  0  0  0  0
    3.5940   -5.3430    4.0300 S   0  0  0  0  0  0  0  0  0  0  0  0
    3.9790   -7.0090    3.4770 C   0  0  0  0  0  2  0  0  0  0  0  0
    5.3810   -6.9810    3.0550 N   0  0  0  0  0  0  0  0  0  0  0  0
    7.6660   -5.2340    1.1010 O   0  0  0  0  0  1  0  0  0  0  0  0
    6.4170   -5.3970    1.1640 C   0  0  0  0  0  0  0  0  0  0  0  0
    5.6000   -5.4940    0.1990 O   0  0  0  0  0  0  0  0  0  0  0  0
  1  3  2  0  0  0  0
  1 18  1  0  0  0  0
  1  4  1  0  0  0  0
  2  1  2  0  0  0  0
  4  5  1  0  0  0  0
  5  6  2  0  0  0  0
  6  7  1  0  0  0  0
  8  6  1  0  0  0  0
  9  8  2  0  0  0  0
 10  9  1  0  0  0  0
 11  4  2  0  0  0  0
 11  9  1  0  0  0  0
 12 11  1  0  0  0  0
 13 12  1  0  0  0  0
 14 20  1  6  0  0  0
 14 15  1  0  0  0  0
 14 18  1  0  0  0  0
 15 16  1  0  0  0  0
 17 16  1  0  0  0  0
 18 17  1  0  0  0  0
 19 20  1  0  0  0  0
 21 20  2  0  0  0  0
M  END
>  <minimizedAffinity>
-4.62769604

$$$$
