
 OpenBabel09132204463D

 21 22  0  0  1  0  0  0  0  0999 V2000
    5.4130   -8.5740    2.3820 S   0  0  0  0  0  0  0  0  0  0  0  0
    4.9470   -8.3960    1.0140 O   0  0  0  0  0  0  0  0  0  0  0  0
    6.7720   -9.0160    2.5960 O   0  0  0  0  0  0  0  0  0  0  0  0
    4.2050   -9.6400    3.1250 C   0  0  0  0  0  0  0  0  0  0  0  0
    3.1930  -10.1180    2.2750 C   0  0  0  0  0  3  0  0  0  0  0  0
    2.2810  -11.0590    2.7420 C   0  0  0  0  0  0  0  0  0  0  0  0
    1.0470  -11.6450    1.6950 Cl  0  0  0  0  0  0  0  0  0  0  0  0
    2.3700  -11.5440    4.0420 C   0  0  0  0  0  3  0  0  0  0  0  0
    3.3760  -11.0710    4.8860 C   0  0  0  0  0  0  0  0  0  0  0  0
    3.4400  -11.7000    6.4970 Cl  0  0  0  0  0  0  0  0  0  0  0  0
    4.2910  -10.1090    4.4370 C   0  0  0  0  0  0  0  0  0  0  0  0
    5.2030   -9.6150    5.3240 O   0  0  0  0  0  0  0  0  0  0  0  0
    5.0540   -8.6230    5.3100 H   0  0  0  0  0  0  0  0  0  0  0  0
    5.8400   -5.8120    2.6320 C   0  0  1  0  0  3  0  0  0  0  0  0
    4.8360   -4.6590    2.7570 C   0  0  0  0  0  2  0  0  0  0  0  0
    3.7340   -5.1340    4.1020 S   0  0  0  0  0  0  0  0  0  0  0  0
    3.8060   -6.8520    3.5770 C   0  0  0  0  0  2  0  0  0  0  0  0
    5.1860   -7.0850    3.1470 N   0  0  0  0  0  0  0  0  0  0  0  0
    7.7010   -6.0310    1.1270 O   0  0  0  0  0  1  0  0  0  0  0  0
    6.4780   -5.7460    1.2240 C   0  0  0  0  0  0  0  0  0  0  0  0
    5.6680   -5.4830    0.2840 O   0  0  0  0  0  0  0  0  0  0  0  0
  1  3  2  0  0  0  0
  1  4  1  0  0  0  0
  1 18  1  0  0  0  0
  2  1  2  0  0  0  0
  4 11  1  0  0  0  0
  5  6  1  0  0  0  0
  5  4  2  0  0  0  0
  6  8  2  0  0  0  0
  7  6  1  0  0  0  0
  8  9  1  0  0  0  0
  9 10  1  0  0  0  0
 11  9  2  0  0  0  0
 11 12  1  0  0  0  0
 13 12  1  0  0  0  0
 14 20  1  6  0  0  0
 14 15  1  0  0  0  0
 14 18  1  0  0  0  0
 15 16  1  0  0  0  0
 17 16  1  0  0  0  0
 18 17  1  0  0  0  0
 19 20  1  0  0  0  0
 21 20  2  0  0  0  0
M  END
>  <minimizedAffinity>
-4.73112106

$$$$
