
 OpenBabel09132204463D

 21 22  0  0  1  0  0  0  0  0999 V2000
    5.1270   -8.7390    3.5720 S   0  0  0  0  0  0  0  0  0  0  0  0
    4.3730   -8.4230    4.7760 O   0  0  0  0  0  0  0  0  0  0  0  0
    6.4880   -9.2030    3.7120 O   0  0  0  0  0  0  0  0  0  0  0  0
    4.9840   -7.2840    2.5660 C   0  0  0  0  0  0  0  0  0  0  0  0
    4.4150   -6.1570    3.1840 C   0  0  0  0  0  3  0  0  0  0  0  0
    4.3820   -4.9390    2.5120 C   0  0  0  0  0  0  0  0  0  0  0  0
    3.6880   -3.5610    3.2750 Cl  0  0  0  0  0  0  0  0  0  0  0  0
    4.9220   -4.8220    1.2360 C   0  0  0  0  0  3  0  0  0  0  0  0
    5.4880   -5.9410    0.6220 C   0  0  0  0  0  0  0  0  0  0  0  0
    6.1400   -5.7450   -0.9680 Cl  0  0  0  0  0  0  0  0  0  0  0  0
    5.5130   -7.1790    1.2790 C   0  0  0  0  0  0  0  0  0  0  0  0
    6.0000   -8.2620    0.6060 O   0  0  0  0  0  0  0  0  0  0  0  0
    5.2520   -8.9300    0.6300 H   0  0  0  0  0  0  0  0  0  0  0  0
    3.9460  -11.2750    3.3550 C   0  0  1  0  0  3  0  0  0  0  0  0
    2.5010  -11.6730    3.0250 C   0  0  0  0  0  2  0  0  0  0  0  0
    2.1000  -10.7850    1.5080 S   0  0  0  0  0  0  0  0  0  0  0  0
    3.0470   -9.3640    2.0690 C   0  0  0  0  0  2  0  0  0  0  0  0
    4.2240   -9.9070    2.7500 N   0  0  0  0  0  0  0  0  0  0  0  0
    3.1830  -11.7010    5.5940 O   0  0  0  0  0  1  0  0  0  0  0  0
    4.1940  -11.5600    4.8540 C   0  0  0  0  0  0  0  0  0  0  0  0
    5.4130  -11.7020    5.1760 O   0  0  0  0  0  0  0  0  0  0  0  0
  1  3  2  0  0  0  0
  1  2  2  0  0  0  0
  4  5  1  0  0  0  0
  4  1  1  0  0  0  0
  6  5  2  0  0  0  0
  6  7  1  0  0  0  0
  8  6  1  0  0  0  0
  9  8  2  0  0  0  0
  9 11  1  0  0  0  0
 10  9  1  0  0  0  0
 11  4  2  0  0  0  0
 12 13  1  0  0  0  0
 12 11  1  0  0  0  0
 14 20  1  1  0  0  0
 15 14  1  0  0  0  0
 16 17  1  0  0  0  0
 16 15  1  0  0  0  0
 17 18  1  0  0  0  0
 18 14  1  0  0  0  0
 18  1  1  0  0  0  0
 20 21  2  0  0  0  0
 20 19  1  0  0  0  0
M  END
>  <minimizedAffinity>
-4.88117504

$$$$
