
 OpenBabel09132204463D

 21 22  0  0  1  0  0  0  0  0999 V2000
    3.2300   -7.9970    5.0630 S   0  0  0  0  0  0  0  0  0  0  0  0
    1.7980   -7.8540    5.2830 O   0  0  0  0  0  0  0  0  0  0  0  0
    4.0790   -8.2780    6.1970 O   0  0  0  0  0  0  0  0  0  0  0  0
    3.6920   -6.5230    4.1910 C   0  0  0  0  0  0  0  0  0  0  0  0
    2.8940   -5.3890    4.4230 C   0  0  0  0  0  3  0  0  0  0  0  0
    3.2600   -4.1600    3.8830 C   0  0  0  0  0  0  0  0  0  0  0  0
    2.2810   -2.7750    4.1740 Cl  0  0  0  0  0  0  0  0  0  0  0  0
    4.4190   -4.0390    3.1250 C   0  0  0  0  0  3  0  0  0  0  0  0
    5.2130   -5.1640    2.8950 C   0  0  0  0  0  0  0  0  0  0  0  0
    6.6410   -4.9630    1.9400 Cl  0  0  0  0  0  0  0  0  0  0  0  0
    4.8490   -6.4130    3.4170 C   0  0  0  0  0  0  0  0  0  0  0  0
    5.6110   -7.4990    3.0960 O   0  0  0  0  0  0  0  0  0  0  0  0
    4.9640   -8.1440    2.6800 H   0  0  0  0  0  0  0  0  0  0  0  0
    3.5720  -10.6850    4.3340 C   0  0  1  0  0  3  0  0  0  0  0  0
    2.7610  -11.5650    3.3740 C   0  0  0  0  0  2  0  0  0  0  0  0
    2.6590  -10.6230    1.8400 S   0  0  0  0  0  0  0  0  0  0  0  0
    2.5090   -9.0930    2.7700 C   0  0  0  0  0  2  0  0  0  0  0  0
    3.4030   -9.2310    3.9210 N   0  0  0  0  0  0  0  0  0  0  0  0
    2.0780  -11.1730    6.1520 O   0  0  0  0  0  0  0  0  0  0  0  0
    3.2820  -11.1530    5.7790 C   0  0  0  0  0  0  0  0  0  0  0  0
    4.2980  -11.5510    6.4250 O   0  0  0  0  0  1  0  0  0  0  0  0
  1  2  2  0  0  0  0
  1  3  2  0  0  0  0
  4  5  1  0  0  0  0
  4  1  1  0  0  0  0
  6  7  1  0  0  0  0
  6  5  2  0  0  0  0
  8  6  1  0  0  0  0
  9  8  2  0  0  0  0
  9 11  1  0  0  0  0
 10  9  1  0  0  0  0
 11  4  2  0  0  0  0
 12 11  1  0  0  0  0
 13 12  1  0  0  0  0
 14 20  1  1  0  0  0
 15 14  1  0  0  0  0
 16 17  1  0  0  0  0
 16 15  1  0  0  0  0
 17 18  1  0  0  0  0
 18 14  1  0  0  0  0
 18  1  1  0  0  0  0
 20 19  2  0  0  0  0
 20 21  1  0  0  0  0
M  END
>  <minimizedAffinity>
-4.71390963

$$$$
