REMARK  Name = 
REMARK  6 active torsions:
REMARK  status: ('A' for Active; 'I' for Inactive)
REMARK    1  A    between atoms: C_2  and  C_4
REMARK    2  A    between atoms: C_11  and  C_12
REMARK    3  A    between atoms: C_15  and  O_16
REMARK    4  A    between atoms: O_16  and  C_17
REMARK    5  A    between atoms: C_17  and  C_18
REMARK    6  A    between atoms: N_28  and  C_29
REMARK                            x       y       z     vdW  Elec       q    Type
REMARK                         _______ _______ _______ _____ _____    ______ ____
ROOT
ATOM      1  C   UNL     1       2.656   1.285  -0.503  0.00  0.00    -0.001 A 
ATOM      2  C   UNL     1       2.353   2.511   0.111  0.00  0.00    +0.012 A 
ATOM      3  C   UNL     1       3.004   3.701  -0.236  0.00  0.00    +0.028 A 
ATOM      4  C   UNL     1       3.987   3.632  -1.232  0.00  0.00    +0.069 A 
ATOM      5  C   UNL     1       4.322   2.434  -1.855  0.00  0.00    +0.090 A 
ATOM      6  C   UNL     1       3.655   1.253  -1.497  0.00  0.00    +0.039 A 
ATOM      7  N   UNL     1       5.320   2.628  -2.778  0.00  0.00    -0.228 NA
ATOM      8  C   UNL     1       5.641   3.905  -2.713  0.00  0.00    +0.142 A 
ATOM      9  N   UNL     1       4.800   4.572  -1.835  0.00  0.00    -0.320 N 
ENDROOT
BRANCH   8  10
ATOM     10  C   UNL     1       6.717   4.510  -3.499  0.00  0.00    +0.018 A 
ATOM     11  C   UNL     1       7.778   5.183  -2.885  0.00  0.00    +0.015 A 
ATOM     12  C   UNL     1       8.798   5.745  -3.659  0.00  0.00    +0.046 A 
ATOM     13  C   UNL     1       8.778   5.636  -5.052  0.00  0.00    +0.121 A 
ATOM     14  C   UNL     1       7.744   4.931  -5.666  0.00  0.00    +0.046 A 
ATOM     15  C   UNL     1       6.722   4.370  -4.892  0.00  0.00    +0.015 A 
BRANCH  13  16
ATOM     16  O   UNL     1       9.839   6.224  -5.683  0.00  0.00    -0.487 OA
BRANCH  16  17
ATOM     17  C   UNL     1       9.762   6.419  -7.096  0.00  0.00    +0.264 C 
BRANCH  17  18
ATOM     18  C   UNL     1      10.310   5.260  -7.901  0.00  0.00    -0.009 A 
ATOM     19  C   UNL     1       9.968   5.139  -9.256  0.00  0.00    +0.008 A 
ATOM     20  C   UNL     1      10.491   4.102 -10.032  0.00  0.00    +0.022 A 
ATOM     21  C   UNL     1      11.371   3.175  -9.469  0.00  0.00    +0.059 A 
ATOM     22 CL   UNL     1      11.987   1.928 -10.493  0.00  0.00    -0.082 Cl
ATOM     23  C   UNL     1      11.730   3.289  -8.123  0.00  0.00    +0.060 A 
ATOM     24 CL   UNL     1      12.826   2.191  -7.361  0.00  0.00    -0.082 Cl
ATOM     25  C   UNL     1      11.205   4.330  -7.347  0.00  0.00    +0.028 A 
ENDBRANCH  17  18
ENDBRANCH  16  17
ENDBRANCH  13  16
ENDBRANCH   8  10
BRANCH   9  26
ATOM     26  C   UNL     1       4.749   6.007  -1.629  0.00  0.00    +0.089 C 
ATOM     27  C   UNL     1       3.404   6.665  -1.968  0.00  0.00    +0.025 C 
ATOM     28  C   UNL     1       3.407   7.929  -1.123  0.00  0.00    +0.002 C 
ATOM     29  C   UNL     1       4.016   7.469   0.192  0.00  0.00    +0.002 C 
ATOM     30  C   UNL     1       5.101   6.469  -0.203  0.00  0.00    +0.025 C 
ENDBRANCH   9  26
BRANCH   1  32
ATOM     31  O   UNL     1       1.041   0.130   0.810  0.00  0.00    -0.545 OA
ATOM     32  C   UNL     1       1.923   0.021  -0.101  0.00  0.00    +0.072 C 
ATOM     33  O   UNL     1       2.238  -1.054  -0.702  0.00  0.00    -0.545 OA
ENDBRANCH   1  32
TORSDOF 6
