
 OpenBabel09122222393D

 33 37  0  0  0  0  0  0  0  0999 V2000
    8.9500   -2.1260    2.2270 C   0  0  0  0  0  0  0  0  0  0  0  0
    9.3410   -2.3970    0.9060 C   0  0  0  0  0  3  0  0  0  0  0  0
    9.7750   -1.3910    0.0340 C   0  0  0  0  0  3  0  0  0  0  0  0
    9.8060   -0.0790    0.5270 C   0  0  0  0  0  0  0  0  0  0  0  0
    9.4160    0.2290    1.8260 C   0  0  0  0  0  0  0  0  0  0  0  0
    8.9890   -0.7940    2.6860 C   0  0  0  0  0  3  0  0  0  0  0  0
    9.5220    1.5780    2.0590 N   0  0  0  0  0  0  0  0  0  0  0  0
    9.9260    2.1180    0.9260 C   0  0  0  0  0  0  0  0  0  0  0  0
   10.1850    1.1330   -0.0150 N   0  0  0  0  0  0  0  0  0  0  0  0
   10.1030    3.5580    0.7340 C   0  0  0  0  0  0  0  0  0  0  0  0
    9.1860    4.3120   -0.0050 C   0  0  0  0  0  3  0  0  0  0  0  0
    9.3740    5.6890   -0.1670 C   0  0  0  0  0  3  0  0  0  0  0  0
   10.4720    6.3310    0.4120 C   0  0  0  0  0  0  0  0  0  0  0  0
   11.3660    5.5910    1.1840 C   0  0  0  0  0  3  0  0  0  0  0  0
   11.1790    4.2130    1.3440 C   0  0  0  0  0  3  0  0  0  0  0  0
   10.5290    7.6770    0.1810 O   0  0  0  0  0  0  0  0  0  0  0  0
   11.2780    8.1390   -0.9440 C   0  0  0  0  0  2  0  0  0  0  0  0
   10.4760    9.0010   -1.8960 C   0  0  0  0  0  0  0  0  0  0  0  0
   10.4920   10.3950   -1.7420 C   0  0  0  0  0  3  0  0  0  0  0  0
    9.7940   11.2170   -2.6310 C   0  0  0  0  0  3  0  0  0  0  0  0
    9.0770   10.6590   -3.6920 C   0  0  0  0  0  0  0  0  0  0  0  0
    8.2490   11.7380   -4.7560 Cl  0  0  0  0  0  0  0  0  0  0  0  0
    9.0610    9.2720   -3.8650 C   0  0  0  0  0  0  0  0  0  0  0  0
    8.2120    8.5110   -5.1630 Cl  0  0  0  0  0  0  0  0  0  0  0  0
    9.7630    8.4510   -2.9730 C   0  0  0  0  0  3  0  0  0  0  0  0
   10.7950    1.3370   -1.3150 C   0  0  0  0  0  3  0  0  0  0  0  0
   12.3180    1.5320   -1.2960 C   0  0  0  0  0  2  0  0  0  0  0  0
   12.7450    1.1040   -2.6910 C   0  0  0  0  0  2  0  0  0  0  0  0
   11.8750   -0.1110   -2.9660 C   0  0  0  0  0  2  0  0  0  0  0  0
   10.5220    0.2210   -2.3400 C   0  0  0  0  0  2  0  0  0  0  0  0
    7.8050   -4.1770    2.6110 O   0  0  0  0  0  0  0  0  0  0  0  0
    8.4930   -3.2460    3.1400 C   0  0  0  0  0  0  0  0  0  0  0  0
    8.8290   -3.1780    4.3640 O   0  0  0  0  0  1  0  0  0  0  0  0
  1  6  1  0  0  0  0
  1 32  1  0  0  0  0
  2  1  2  0  0  0  0
  3  4  2  0  0  0  0
  3  2  1  0  0  0  0
  4  5  1  0  0  0  0
  5  7  1  0  0  0  0
  5  6  2  0  0  0  0
  8  7  2  0  0  0  0
  9  4  1  0  0  0  0
  9  8  1  0  0  0  0
 10  8  1  0  0  0  0
 10 15  1  0  0  0  0
 11 10  2  0  0  0  0
 12 11  1  0  0  0  0
 12 13  2  0  0  0  0
 13 14  1  0  0  0  0
 14 15  2  0  0  0  0
 16 13  1  0  0  0  0
 17 16  1  0  0  0  0
 18 19  1  0  0  0  0
 18 17  1  0  0  0  0
 20 19  2  0  0  0  0
 21 20  1  0  0  0  0
 22 21  1  0  0  0  0
 23 21  2  0  0  0  0
 23 25  1  0  0  0  0
 24 23  1  0  0  0  0
 25 18  2  0  0  0  0
 26 27  1  0  0  0  0
 26  9  1  0  0  0  0
 28 27  1  0  0  0  0
 29 28  1  0  0  0  0
 29 30  1  0  0  0  0
 30 26  1  0  0  0  0
 31 32  2  0  0  0  0
 32 33  1  0  0  0  0
M  END
>  <minimizedAffinity>
-7.95364571

$$$$
