
 OpenBabel09122222393D

 33 37  0  0  0  0  0  0  0  0999 V2000
    9.5540    7.7410    1.1360 C   0  0  0  0  0  0  0  0  0  0  0  0
   10.2330    7.4210    2.3230 C   0  0  0  0  0  3  0  0  0  0  0  0
   10.7370    6.1390    2.5730 C   0  0  0  0  0  3  0  0  0  0  0  0
   10.5400    5.1640    1.5860 C   0  0  0  0  0  0  0  0  0  0  0  0
    9.8620    5.4400    0.4020 C   0  0  0  0  0  0  0  0  0  0  0  0
    9.3690    6.7320    0.1680 C   0  0  0  0  0  3  0  0  0  0  0  0
    9.7880    4.3200   -0.3880 N   0  0  0  0  0  0  0  0  0  0  0  0
   10.3630    3.3480    0.2920 C   0  0  0  0  0  0  0  0  0  0  0  0
   10.9030    3.8370    1.4720 N   0  0  0  0  0  0  0  0  0  0  0  0
   10.4350    1.9640   -0.1780 C   0  0  0  0  0  0  0  0  0  0  0  0
   11.2680    1.5990   -1.2410 C   0  0  0  0  0  3  0  0  0  0  0  0
   11.3250    0.2680   -1.6650 C   0  0  0  0  0  3  0  0  0  0  0  0
   10.5610   -0.7160   -1.0310 C   0  0  0  0  0  0  0  0  0  0  0  0
    9.7610   -0.3630    0.0550 C   0  0  0  0  0  3  0  0  0  0  0  0
    9.7020    0.9690    0.4790 C   0  0  0  0  0  3  0  0  0  0  0  0
   10.7180   -1.9740   -1.5420 O   0  0  0  0  0  0  0  0  0  0  0  0
   10.9910   -3.0430   -0.6340 C   0  0  0  0  0  2  0  0  0  0  0  0
    9.7720   -3.5250    0.1230 C   0  0  0  0  0  0  0  0  0  0  0  0
    8.9210   -4.4690   -0.4710 C   0  0  0  0  0  3  0  0  0  0  0  0
    7.8110   -4.9610    0.2210 C   0  0  0  0  0  3  0  0  0  0  0  0
    7.5400   -4.5240    1.5200 C   0  0  0  0  0  0  0  0  0  0  0  0
    6.1580   -5.1860    2.3170 Cl  0  0  0  0  0  0  0  0  0  0  0  0
    8.3860   -3.5930    2.1280 C   0  0  0  0  0  0  0  0  0  0  0  0
    8.1250   -3.0190    3.7380 Cl  0  0  0  0  0  0  0  0  0  0  0  0
    9.4980   -3.1020    1.4330 C   0  0  0  0  0  3  0  0  0  0  0  0
   11.7450    3.0970    2.3940 C   0  0  0  0  0  3  0  0  0  0  0  0
   13.1030    3.7460    2.6980 C   0  0  0  0  0  2  0  0  0  0  0  0
   13.4720    3.1710    4.0560 C   0  0  0  0  0  2  0  0  0  0  0  0
   12.1500    3.1700    4.8060 C   0  0  0  0  0  2  0  0  0  0  0  0
   11.1010    2.7970    3.7600 C   0  0  0  0  0  2  0  0  0  0  0  0
    8.8890    9.5140   -0.3070 O   0  0  0  0  0  0  0  0  0  0  0  0
    9.0290    9.1430    0.9030 C   0  0  0  0  0  0  0  0  0  0  0  0
    8.7630    9.8460    1.9280 O   0  0  0  0  0  1  0  0  0  0  0  0
  1  2  1  0  0  0  0
  2  3  2  0  0  0  0
  4  3  1  0  0  0  0
  5  4  2  0  0  0  0
  6  5  1  0  0  0  0
  6  1  2  0  0  0  0
  7  8  2  0  0  0  0
  7  5  1  0  0  0  0
  8  9  1  0  0  0  0
  9  4  1  0  0  0  0
  9 26  1  0  0  0  0
 10  8  1  0  0  0  0
 10 15  1  0  0  0  0
 11 10  2  0  0  0  0
 12 11  1  0  0  0  0
 12 13  2  0  0  0  0
 13 14  1  0  0  0  0
 14 15  2  0  0  0  0
 16 13  1  0  0  0  0
 16 17  1  0  0  0  0
 17 18  1  0  0  0  0
 18 25  1  0  0  0  0
 19 18  2  0  0  0  0
 19 20  1  0  0  0  0
 20 21  2  0  0  0  0
 21 23  1  0  0  0  0
 21 22  1  0  0  0  0
 23 24  1  0  0  0  0
 25 23  2  0  0  0  0
 26 27  1  0  0  0  0
 26 30  1  0  0  0  0
 27 28  1  0  0  0  0
 28 29  1  0  0  0  0
 30 29  1  0  0  0  0
 31 32  2  0  0  0  0
 32  1  1  0  0  0  0
 32 33  1  0  0  0  0
M  END
>  <minimizedAffinity>
-7.8387742

$$$$
