
 OpenBabel09122222393D

 33 37  0  0  0  0  0  0  0  0999 V2000
    9.5290    8.6490    1.2210 C   0  0  0  0  0  0  0  0  0  0  0  0
   10.1710    8.4220    2.4490 C   0  0  0  0  0  3  0  0  0  0  0  0
   10.6040    7.1490    2.8410 C   0  0  0  0  0  3  0  0  0  0  0  0
   10.3720    6.0880    1.9560 C   0  0  0  0  0  0  0  0  0  0  0  0
    9.7290    6.2730    0.7360 C   0  0  0  0  0  0  0  0  0  0  0  0
    9.3070    7.5560    0.3590 C   0  0  0  0  0  3  0  0  0  0  0  0
    9.6090    5.0810    0.0640 N   0  0  0  0  0  0  0  0  0  0  0  0
   10.1220    4.1580    0.8530 C   0  0  0  0  0  0  0  0  0  0  0  0
   10.6680    4.7390    1.9880 N   0  0  0  0  0  0  0  0  0  0  0  0
   10.1300    2.7310    0.5300 C   0  0  0  0  0  0  0  0  0  0  0  0
    9.4710    1.7980    1.3370 C   0  0  0  0  0  3  0  0  0  0  0  0
    9.4870    0.4400    1.0010 C   0  0  0  0  0  3  0  0  0  0  0  0
   10.1520   -0.0020   -0.1460 C   0  0  0  0  0  0  0  0  0  0  0  0
   10.7760    0.9290   -0.9750 C   0  0  0  0  0  3  0  0  0  0  0  0
   10.7620    2.2880   -0.6380 C   0  0  0  0  0  3  0  0  0  0  0  0
   10.0820   -1.3510   -0.3590 O   0  0  0  0  0  0  0  0  0  0  0  0
   10.6190   -1.8730   -1.5750 C   0  0  0  0  0  2  0  0  0  0  0  0
   12.0310   -2.4020   -1.4400 C   0  0  0  0  0  0  0  0  0  0  0  0
   12.8890   -2.3690   -2.5490 C   0  0  0  0  0  3  0  0  0  0  0  0
   14.2080   -2.8140   -2.4420 C   0  0  0  0  0  3  0  0  0  0  0  0
   14.6940   -3.2910   -1.2220 C   0  0  0  0  0  0  0  0  0  0  0  0
   16.3390   -3.8130   -1.1620 Cl  0  0  0  0  0  0  0  0  0  0  0  0
   13.8540   -3.3200   -0.1050 C   0  0  0  0  0  0  0  0  0  0  0  0
   14.3890   -3.8800    1.4400 Cl  0  0  0  0  0  0  0  0  0  0  0  0
   12.5320   -2.8720   -0.2150 C   0  0  0  0  0  3  0  0  0  0  0  0
   11.4550    4.0580    2.9980 C   0  0  0  0  0  3  0  0  0  0  0  0
   12.8880    3.7040    2.5760 C   0  0  0  0  0  2  0  0  0  0  0  0
   13.6320    3.6070    3.8990 C   0  0  0  0  0  2  0  0  0  0  0  0
   13.0610    4.7630    4.7060 C   0  0  0  0  0  2  0  0  0  0  0  0
   11.5800    4.8100    4.3370 C   0  0  0  0  0  2  0  0  0  0  0  0
    9.9460   10.9740    0.9250 O   0  0  0  0  0  1  0  0  0  0  0  0
    9.0810   10.0440    0.8340 C   0  0  0  0  0  0  0  0  0  0  0  0
    7.8800   10.1860    0.4440 O   0  0  0  0  0  0  0  0  0  0  0  0
  1  2  1  0  0  0  0
  2  3  2  0  0  0  0
  4  9  1  0  0  0  0
  4  3  1  0  0  0  0
  5  4  2  0  0  0  0
  6  5  1  0  0  0  0
  6  1  2  0  0  0  0
  7  5  1  0  0  0  0
  7  8  2  0  0  0  0
  8  9  1  0  0  0  0
  9 26  1  0  0  0  0
 10  8  1  0  0  0  0
 10 11  1  0  0  0  0
 12 11  2  0  0  0  0
 13 12  1  0  0  0  0
 14 15  1  0  0  0  0
 14 13  2  0  0  0  0
 15 10  2  0  0  0  0
 16 13  1  0  0  0  0
 17 18  1  0  0  0  0
 17 16  1  0  0  0  0
 18 25  1  0  0  0  0
 19 20  1  0  0  0  0
 19 18  2  0  0  0  0
 20 21  2  0  0  0  0
 21 22  1  0  0  0  0
 21 23  1  0  0  0  0
 23 24  1  0  0  0  0
 25 23  2  0  0  0  0
 26 30  1  0  0  0  0
 27 26  1  0  0  0  0
 27 28  1  0  0  0  0
 28 29  1  0  0  0  0
 30 29  1  0  0  0  0
 32 31  1  0  0  0  0
 32  1  1  0  0  0  0
 33 32  2  0  0  0  0
M  END
>  <minimizedAffinity>
-7.70586395

$$$$
