REMARK  Name = 
REMARK  4 active torsions:
REMARK  status: ('A' for Active; 'I' for Inactive)
REMARK    1  A    between atoms: C_2  and  C_4
REMARK    2  A    between atoms: C_4  and  C_5
REMARK    3  A    between atoms: C_67  and  C_68
REMARK    4  A    between atoms: C_67  and  C_71
REMARK                            x       y       z     vdW  Elec       q    Type
REMARK                         _______ _______ _______ _____ _____    ______ ____
ROOT
ATOM      1  C   UNL     1       6.199   1.958   2.605  0.00  0.00    +0.075 C 
ATOM      2  C   UNL     1       6.742   2.201   4.029  0.00  0.00    +0.047 C 
ATOM      3  C   UNL     1       5.773   2.544   5.201  0.00  0.00    -0.040 C 
ATOM      4  C   UNL     1       5.022   1.552   5.753  0.00  0.00    -0.008 A 
ATOM      5  C   UNL     1       4.750   1.478   7.125  0.00  0.00    -0.005 A 
ATOM      6  C   UNL     1       5.328   2.375   8.079  0.00  0.00    -0.022 A 
ATOM      7  C   UNL     1       5.954   1.796   9.184  0.00  0.00    -0.005 A 
ATOM      8  C   UNL     1       7.270   2.310   9.056  0.00  0.00    -0.008 A 
ATOM      9  C   UNL     1       8.076   1.389   8.417  0.00  0.00    -0.018 A 
ATOM     10  C   UNL     1       8.096   0.174   9.058  0.00  0.00    -0.004 A 
ATOM     11  C   UNL     1       9.194  -0.510   8.767  0.00  0.00    -0.004 A 
ATOM     12  C   UNL     1      10.008   0.206   7.924  0.00  0.00    -0.022 A 
ATOM     13  C   UNL     1      11.322  -0.263   7.930  0.00  0.00    -0.026 A 
ATOM     14  C   UNL     1      11.346  -1.658   7.596  0.00  0.00    -0.005 A 
ATOM     15  C   UNL     1      11.637  -1.635   6.227  0.00  0.00    -0.004 A 
ATOM     16  C   UNL     1      12.069  -0.278   5.908  0.00  0.00    -0.023 A 
ATOM     17  C   UNL     1      11.373   0.284   4.847  0.00  0.00    -0.009 A 
ATOM     18  C   UNL     1      10.502  -0.421   3.943  0.00  0.00    -0.023 A 
ATOM     19  C   UNL     1      10.183  -1.760   4.213  0.00  0.00    -0.004 A 
ATOM     20  C   UNL     1       8.802  -2.237   4.063  0.00  0.00    -0.005 A 
ATOM     21  C   UNL     1       7.772  -1.404   3.614  0.00  0.00    -0.026 A 
ATOM     22  C   UNL     1       6.480  -1.449   4.185  0.00  0.00    -0.008 A 
ATOM     23  C   UNL     1       5.866  -0.192   4.190  0.00  0.00    -0.022 A 
ATOM     24  C   UNL     1       5.014   0.239   5.219  0.00  0.00    -0.005 A 
ATOM     25  C   UNL     1       4.780  -0.647   6.248  0.00  0.00    -0.000 A 
ATOM     26  C   UNL     1       4.644   0.086   7.401  0.00  0.00    -0.000 A 
ATOM     27  C   UNL     1       5.142  -0.501   8.573  0.00  0.00    -0.000 A 
ATOM     28  C   UNL     1       5.850   0.341   9.365  0.00  0.00    -0.000 A 
ATOM     29  C   UNL     1       6.964  -0.394   9.582  0.00  0.00    -0.000 A 
ATOM     30  C   UNL     1       6.878  -1.717   9.289  0.00  0.00    -0.000 A 
ATOM     31  C   UNL     1       8.084  -2.479   8.938  0.00  0.00    -0.000 A 
ATOM     32  C   UNL     1       9.299  -1.872   8.915  0.00  0.00    -0.000 A 
ATOM     33  C   UNL     1      10.219  -2.439   8.101  0.00  0.00    -0.000 A 
ATOM     34  C   UNL     1       9.436  -3.219   7.311  0.00  0.00    -0.000 A 
ATOM     35  C   UNL     1       9.647  -3.104   5.918  0.00  0.00    -0.000 A 
ATOM     36  C   UNL     1      10.687  -2.314   5.386  0.00  0.00    -0.001 A 
ATOM     37  C   UNL     1       8.517  -3.066   5.130  0.00  0.00    -0.000 A 
ATOM     38  C   UNL     1       7.196  -3.139   5.689  0.00  0.00    -0.000 A 
ATOM     39  C   UNL     1       6.206  -2.335   5.217  0.00  0.00    -0.001 A 
ATOM     40  C   UNL     1       5.370  -1.958   6.228  0.00  0.00    -0.000 A 
ATOM     41  C   UNL     1       5.849  -2.530   7.358  0.00  0.00    -0.000 A 
ATOM     42  C   UNL     1       5.751  -1.766   8.545  0.00  0.00    -0.000 A 
ATOM     43  C   UNL     1       6.990  -3.256   7.023  0.00  0.00    -0.000 A 
ATOM     44  C   UNL     1       8.140  -3.275   7.844  0.00  0.00    -0.000 A 
ATOM     45  C   UNL     1       6.737   0.773   3.374  0.00  0.00    +0.036 C 
ATOM     46  C   UNL     1       8.031  -0.052   2.963  0.00  0.00    +0.045 C 
ATOM     47  C   UNL     1       9.414   0.530   3.367  0.00  0.00    +0.059 C 
ATOM     48  C   UNL     1       9.316   1.505   4.492  0.00  0.00    -0.027 A 
ATOM     49  C   UNL     1      10.630   1.412   5.283  0.00  0.00    -0.009 A 
ATOM     50  C   UNL     1      10.834   2.339   6.735  0.00  0.00    -0.027 A 
ATOM     51  C   UNL     1       9.193   3.385   7.252  0.00  0.00    -0.013 A 
ATOM     52  C   UNL     1       7.875   3.138   6.063  0.00  0.00    -0.027 A 
ATOM     53  C   UNL     1       8.093   2.293   4.754  0.00  0.00    -0.026 A 
ATOM     54  C   UNL     1       6.483   3.598   6.169  0.00  0.00    +0.059 C 
ATOM     55  C   UNL     1       6.208   3.661   7.674  0.00  0.00    +0.063 C 
ATOM     56  C   UNL     1       7.654   3.738   8.743  0.00  0.00    -0.027 C 
ATOM     57  C   UNL     1       9.108   3.753   8.604  0.00  0.00    -0.026 C 
ATOM     58  C   UNL     1      10.267   2.916   7.608  0.00  0.00    +0.036 C 
ATOM     59  C   UNL     1      11.753   2.196   7.798  0.00  0.00    +0.045 C 
ATOM     60  C   UNL     1      12.287   0.602   7.263  0.00  0.00    +0.059 C 
ATOM     61  C   UNL     1       9.896   3.356   5.644  0.00  0.00    +0.075 C 
ATOM     62  C   UNL     1       9.172   1.599   6.878  0.00  0.00    +0.051 C 
ENDROOT
BRANCH   1  64
ATOM     63  O   UNL     1       7.651   1.634   0.743  0.00  0.00    -0.549 OA
ATOM     64  C   UNL     1       6.942   2.457   1.432  0.00  0.00    +0.055 C 
ATOM     65  O   UNL     1       6.810   3.675   1.064  0.00  0.00    -0.549 OA
ENDBRANCH   1  64
BRANCH   1  66
ATOM     66  C   UNL     1       4.730   1.902   2.354  0.00  0.00    +0.055 C 
ATOM     67  O   UNL     1       3.942   2.811   2.809  0.00  0.00    -0.549 OA
ATOM     68  O   UNL     1       4.242   0.877   1.740  0.00  0.00    -0.549 OA
ENDBRANCH   1  66
BRANCH  61  69
ATOM     69  C   UNL     1      11.406   3.625   4.827  0.00  0.00    +0.055 C 
ATOM     70  O   UNL     1      11.454   3.478   3.551  0.00  0.00    -0.549 OA
ATOM     71  O   UNL     1      12.495   3.882   5.482  0.00  0.00    -0.549 OA
ENDBRANCH  61  69
BRANCH  61  72
ATOM     72  C   UNL     1       9.540   5.052   5.711  0.00  0.00    +0.055 C 
ATOM     73  O   UNL     1       8.632   5.556   4.959  0.00  0.00    -0.549 OA
ATOM     74  O   UNL     1      10.154   5.796   6.575  0.00  0.00    -0.549 OA
ENDBRANCH  61  72
TORSDOF 4
