
 OpenBabel09182209113D

 74104  0  0  1  0  0  0  0  0999 V2000
   14.4860    1.7120   10.5650 C   0  0  0  0  0  0  0  0  0  0  0  0
   13.4840    2.4470    9.6490 C   0  0  1  0  0  0  0  0  0  0  0  0
   12.3240    1.6690    8.9570 C   0  0  0  0  0  0  0  0  0  0  0  0
   11.2410    1.2990    9.6940 C   0  0  0  0  0  0  0  0  0  0  0  0
    9.9340    1.3240    9.1900 C   0  0  0  0  0  0  0  0  0  0  0  0
    9.6120    1.8440    7.8960 C   0  0  0  0  0  0  0  0  0  0  0  0
    8.5890    2.7920    7.8390 C   0  0  0  0  0  0  0  0  0  0  0  0
    9.2690    3.8960    7.2630 C   0  0  1  0  0  3  0  0  0  0  0  0
    9.6890    4.7600    8.2550 C   0  0  2  0  0  3  0  0  0  0  0  0
    8.6550    5.1940    9.0480 C   0  0  2  0  0  3  0  0  0  0  0  0
    8.9450    6.3460    9.6370 C   0  0  2  0  0  3  0  0  0  0  0  0
   10.1910    6.7860    9.2650 C   0  0  1  0  0  3  0  0  0  0  0  0
   10.3660    8.1490    9.5030 C   0  0  1  0  0  3  0  0  0  0  0  0
   10.1160    8.4410   10.8850 C   0  0  0  0  0  0  0  0  0  0  0  0
   11.4050    8.4480   11.4300 C   0  0  0  0  0  0  0  0  0  0  0  0
   12.3390    8.4720   10.3080 C   0  0  0  0  0  0  0  0  0  0  0  0
   13.2970    7.4700   10.3710 C   0  0  0  0  0  0  0  0  0  0  0  0
   13.5700    6.6350   11.5110 C   0  0  0  0  0  0  0  0  0  0  0  0
   12.7170    6.7040   12.6230 C   0  0  0  0  0  0  0  0  0  0  0  0
   12.2780    5.4750   13.2970 C   0  0  0  0  0  0  0  0  0  0  0  0
   12.7140    4.2090   12.8930 C   0  0  0  0  0  0  0  0  0  0  0  0
   11.8370    3.1010   12.8540 C   0  0  0  0  0  0  0  0  0  0  0  0
   12.1580    2.2170   11.8180 C   0  0  0  0  0  0  0  0  0  0  0  0
   11.1890    1.5030   11.0950 C   0  0  0  0  0  0  0  0  0  0  0  0
    9.8740    1.6910   11.4590 C   0  0  0  0  0  0  0  0  0  0  0  0
    9.1140    1.6100   10.3180 C   0  0  0  0  0  0  0  0  0  0  0  0
    7.9940    2.4510   10.2550 C   0  0  0  0  0  0  0  0  0  0  0  0
    7.8280    3.0760    9.0640 C   0  0  0  0  0  0  0  0  0  0  0  0
    7.6580    4.3540    9.4720 C   0  0  1  0  0  3  0  0  0  0  0  0
    7.3690    4.5320   10.7870 C   0  0  0  0  0  0  0  0  0  0  0  0
    7.7110    5.7940   11.4570 C   0  0  0  0  0  0  0  0  0  0  0  0
    8.3080    6.8000   10.7660 C   0  0  1  0  0  3  0  0  0  0  0  0
    9.0530    7.6540   11.5060 C   0  0  0  0  0  0  0  0  0  0  0  0
    9.2210    6.9430   12.6510 C   0  0  0  0  0  0  0  0  0  0  0  0
   10.5450    6.8460   13.1350 C   0  0  0  0  0  0  0  0  0  0  0  0
   11.6110    7.5440   12.5300 C   0  0  0  0  0  0  0  0  0  0  0  0
   10.9370    5.6090   13.6000 C   0  0  0  0  0  0  0  0  0  0  0  0
   10.0520    4.4780   13.5940 C   0  0  0  0  0  0  0  0  0  0  0  0
   10.5080    3.2520   13.2210 C   0  0  0  0  0  0  0  0  0  0  0  0
    9.5380    2.5630   12.5520 C   0  0  0  0  0  0  0  0  0  0  0  0
    8.4560    3.3740   12.4970 C   0  0  0  0  0  0  0  0  0  0  0  0
    7.6890    3.3280   11.3090 C   0  0  0  0  0  0  0  0  0  0  0  0
    8.7800    4.5690   13.1370 C   0  0  0  0  0  0  0  0  0  0  0  0
    8.3720    5.8260   12.6380 C   0  0  0  0  0  0  0  0  0  0  0  0
   13.4940    2.6570   11.2060 C   0  0  1  0  0  0  0  0  0  0  0  0
   13.8880    4.0060   11.9460 C   0  0  0  0  0  0  0  0  0  0  0  0
   14.1470    5.2610   11.0670 C   0  0  0  0  0  0  0  0  0  0  0  0
   13.5190    5.1520    9.7180 C   0  0  0  0  0  0  0  0  0  0  0  0
   13.1530    6.5770    9.2770 C   0  0  0  0  0  0  0  0  0  0  0  0
   12.3030    6.8310    7.7860 C   0  0  1  0  0  0  0  0  0  0  0  0
   11.8060    5.1190    6.8490 C   0  0  1  0  0  0  0  0  0  0  0  0
   12.3850    3.6940    7.7680 C   0  0  0  0  0  0  0  0  0  0  0  0
   13.2600    3.8500    9.0670 C   0  0  0  0  0  0  0  0  0  0  0  0
   12.0880    2.2800    7.4990 C   0  0  0  0  0  0  0  0  0  0  0  0
   10.7170    2.2950    6.8160 C   0  0  0  0  0  0  0  0  0  0  0  0
   10.2120    3.8590    6.0830 C   0  0  2  0  0  3  0  0  0  0  0  0
   10.7430    5.2120    5.9370 C   0  0  0  0  0  2  0  0  0  0  0  0
   11.6080    6.3220    6.9640 C   0  0  1  0  0  3  0  0  0  0  0  0
   11.5700    7.9450    7.3210 C   0  0  0  0  0  1  0  0  0  0  0  0
   11.5590    8.7310    8.9010 C   0  0  0  0  0  2  0  0  0  0  0  0
   13.3990    5.4840    7.4900 C   0  0  0  0  0  0  0  0  0  0  0  0
   11.4250    5.4540    8.6010 C   0  0  2  0  0  3  0  0  0  0  0  0
   16.5060    2.2200    9.4070 O   0  0  0  0  0  0  0  0  0  0  0  0
   15.9160    2.0730   10.5410 C   0  0  0  0  0  0  0  0  0  0  0  0
   16.5320    2.3160   11.6350 O   0  0  0  0  0  1  0  0  0  0  0  0
   14.2760    0.2800   10.9220 C   0  0  0  0  0  0  0  0  0  0  0  0
   14.0810   -0.0810   12.1410 O   0  0  0  0  0  1  0  0  0  0  0  0
   14.3760   -0.6130    9.9950 O   0  0  0  0  0  0  0  0  0  0  0  0
   14.6400    6.6980    7.4100 C   0  0  0  0  0  0  0  0  0  0  0  0
   14.4780    7.6970    6.6180 O   0  0  0  0  0  0  0  0  0  0  0  0
   15.7540    6.5720    8.0610 O   0  0  0  0  0  1  0  0  0  0  0  0
   13.9100    4.7520    6.0030 C   0  0  0  0  0  0  0  0  0  0  0  0
   13.5540    5.2510    4.8770 O   0  0  0  0  0  0  0  0  0  0  0  0
   14.7090    3.7330    6.0380 O   0  0  0  0  0  1  0  0  0  0  0  0
  1 66  1  0  0  0  0
  1 45  1  0  0  0  0
  2  3  1  6  0  0  0
  2  1  1  0  0  0  0
  2 45  1  0  0  0  0
  3  4  1  0  0  0  0
  4 24  2  0  0  0  0
  5  4  1  0  0  0  0
  5 26  2  0  0  0  0
  6  5  1  0  0  0  0
  7  6  1  0  0  0  0
  7 28  2  0  0  0  0
  8  7  1  1  0  0  0
  8  9  1  0  0  0  0
  9 62  1  0  0  0  0
  9 10  1  0  0  0  0
 10 29  1  0  0  0  0
 10 11  1  0  0  0  0
 11 32  1  0  0  0  0
 12 13  1  0  0  0  0
 12 11  1  0  0  0  0
 13 14  1  0  0  0  0
 14 15  1  0  0  0  0
 14 33  2  0  0  0  0
 15 36  2  0  0  0  0
 16 17  2  0  0  0  0
 16 15  1  0  0  0  0
 17 18  1  0  0  0  0
 18 19  1  0  0  0  0
 19 20  2  0  0  0  0
 20 37  1  0  0  0  0
 21 20  1  0  0  0  0
 22 21  1  0  0  0  0
 22 39  1  0  0  0  0
 23 22  2  0  0  0  0
 24 25  1  0  0  0  0
 24 23  1  0  0  0  0
 25 40  2  0  0  0  0
 26 25  1  0  0  0  0
 27 26  1  0  0  0  0
 27 42  2  0  0  0  0
 28 29  1  0  0  0  0
 28 27  1  0  0  0  0
 29 30  1  0  0  0  0
 30 42  1  0  0  0  0
 30 31  2  0  0  0  0
 31 44  1  0  0  0  0
 32 31  1  0  0  0  0
 32 33  1  0  0  0  0
 33 34  1  0  0  0  0
 34 35  1  0  0  0  0
 35 37  2  0  0  0  0
 36 19  1  0  0  0  0
 36 35  1  0  0  0  0
 38 37  1  0  0  0  0
 39 38  2  0  0  0  0
 40 39  1  0  0  0  0
 41 40  1  0  0  0  0
 41 43  2  0  0  0  0
 42 41  1  0  0  0  0
 43 38  1  0  0  0  0
 44 34  2  0  0  0  0
 44 43  1  0  0  0  0
 45 23  1  0  0  0  0
 45 46  1  0  0  0  0
 46 21  2  0  0  0  0
 47 18  2  0  0  0  0
 47 46  1  0  0  0  0
 48 47  1  0  0  0  0
 49 48  2  0  0  0  0
 49 17  1  0  0  0  0
 50 49  1  0  0  0  0
 51 58  1  0  0  0  0
 51 61  1  0  0  0  0
 51 52  1  0  0  0  0
 52 53  2  0  0  0  0
 53  2  1  0  0  0  0
 53 48  1  0  0  0  0
 54 52  1  0  0  0  0
 54  3  2  0  0  0  0
 55 54  1  0  0  0  0
 55  6  2  0  0  0  0
 56 55  1  0  0  0  0
 56  8  1  0  0  0  0
 57 56  1  0  0  0  0
 57 51  1  0  0  0  0
 58 50  1  0  0  0  0
 58 62  1  0  0  0  0
 59 50  1  0  0  0  0
 60 13  1  0  0  0  0
 60 16  1  0  0  0  0
 61 50  1  0  0  0  0
 62 12  1  0  0  0  0
 63 64  2  0  0  0  0
 64  1  1  0  0  0  0
 64 65  1  0  0  0  0
 66 67  1  0  0  0  0
 68 66  2  0  0  0  0
 69 61  1  0  0  0  0
 69 71  1  0  0  0  0
 70 69  2  0  0  0  0
 72 74  1  0  0  0  0
 72 61  1  0  0  0  0
 73 72  2  0  0  0  0
M  END
>  <minimizedAffinity>
-10.8019743

$$$$
