
 OpenBabel09182209113D

 74104  0  0  1  0  0  0  0  0999 V2000
   12.7320    7.9850    9.0630 C   0  0  0  0  0  0  0  0  0  0  0  0
   13.2430    6.7630    8.2720 C   0  0  1  0  0  0  0  0  0  0  0  0
   14.7480    6.3600    8.3160 C   0  0  0  0  0  0  0  0  0  0  0  0
   15.2350    5.7340    9.4230 C   0  0  0  0  0  0  0  0  0  0  0  0
   16.1890    4.7110    9.3600 C   0  0  0  0  0  0  0  0  0  0  0  0
   16.6530    4.1590    8.1230 C   0  0  0  0  0  0  0  0  0  0  0  0
   16.6090    2.7690    8.0020 C   0  0  0  0  0  0  0  0  0  0  0  0
   15.7730    2.6170    6.8670 C   0  0  1  0  0  3  0  0  0  0  0  0
   14.4720    2.3840    7.2670 C   0  0  2  0  0  3  0  0  0  0  0  0
   14.3640    1.2910    8.0920 C   0  0  2  0  0  3  0  0  0  0  0  0
   13.1400    0.7830    8.0670 C   0  0  2  0  0  3  0  0  0  0  0  0
   12.3360    1.4850    7.2030 C   0  0  1  0  0  3  0  0  0  0  0  0
   11.2050    0.7620    6.8230 C   0  0  1  0  0  3  0  0  0  0  0  0
   10.4690    0.3570    7.9860 C   0  0  0  0  0  0  0  0  0  0  0  0
    9.4830    1.3460    8.0780 C   0  0  0  0  0  0  0  0  0  0  0  0
    9.5000    2.0800    6.8170 C   0  0  0  0  0  0  0  0  0  0  0  0
    9.6130    3.4530    6.9820 C   0  0  0  0  0  0  0  0  0  0  0  0
    9.4640    4.1670    8.2240 C   0  0  0  0  0  0  0  0  0  0  0  0
    9.3440    3.4380    9.4160 C   0  0  0  0  0  0  0  0  0  0  0  0
   10.0830    3.8540   10.6150 C   0  0  0  0  0  0  0  0  0  0  0  0
   10.8910    4.9950   10.6330 C   0  0  0  0  0  0  0  0  0  0  0  0
   12.1420    5.0080   11.2920 C   0  0  0  0  0  0  0  0  0  0  0  0
   13.0670    5.8320   10.6430 C   0  0  0  0  0  0  0  0  0  0  0  0
   14.4390    5.5400   10.5790 C   0  0  0  0  0  0  0  0  0  0  0  0
   14.8620    4.3900   11.2090 C   0  0  0  0  0  0  0  0  0  0  0  0
   15.8970    3.8720   10.4710 C   0  0  0  0  0  0  0  0  0  0  0  0
   15.9820    2.4730   10.4160 C   0  0  0  0  0  0  0  0  0  0  0  0
   16.2380    1.9750    9.1820 C   0  0  0  0  0  0  0  0  0  0  0  0
   15.2730    1.0330    9.0850 C   0  0  1  0  0  3  0  0  0  0  0  0
   14.6680    0.6710   10.2460 C   0  0  0  0  0  0  0  0  0  0  0  0
   13.3010    0.1330   10.2330 C   0  0  0  0  0  0  0  0  0  0  0  0
   12.6320   -0.0200    9.0600 C   0  0  1  0  0  3  0  0  0  0  0  0
   11.2830    0.0110    9.1490 C   0  0  0  0  0  0  0  0  0  0  0  0
   11.1060    0.5650   10.3770 C   0  0  0  0  0  0  0  0  0  0  0  0
   10.2000    1.6480   10.4470 C   0  0  0  0  0  0  0  0  0  0  0  0
    9.4370    2.0520    9.3310 C   0  0  0  0  0  0  0  0  0  0  0  0
   10.5870    2.7200   11.2220 C   0  0  0  0  0  0  0  0  0  0  0  0
   11.8400    2.7400   11.9220 C   0  0  0  0  0  0  0  0  0  0  0  0
   12.5960    3.8710   11.9440 C   0  0  0  0  0  0  0  0  0  0  0  0
   13.9250    3.5610   11.9180 C   0  0  0  0  0  0  0  0  0  0  0  0
   14.0060    2.2100   11.8710 C   0  0  0  0  0  0  0  0  0  0  0  0
   15.0440    1.6660   11.0790 C   0  0  0  0  0  0  0  0  0  0  0  0
   12.7090    1.7010   11.8630 C   0  0  0  0  0  0  0  0  0  0  0  0
   12.3330    0.6050   11.0550 C   0  0  0  0  0  0  0  0  0  0  0  0
   12.3320    6.6090    9.5420 C   0  0  1  0  0  0  0  0  0  0  0  0
   10.8420    6.0560    9.5410 C   0  0  0  0  0  0  0  0  0  0  0  0
   10.2860    5.4870    8.2060 C   0  0  0  0  0  0  0  0  0  0  0  0
   11.3700    5.0920    7.2590 C   0  0  0  0  0  0  0  0  0  0  0  0
   10.8300    3.9220    6.4220 C   0  0  0  0  0  0  0  0  0  0  0  0
   11.8620    3.1300    5.2750 C   0  0  1  0  0  0  0  0  0  0  0  0
   13.7480    3.8350    5.2770 C   0  0  1  0  0  0  0  0  0  0  0  0
   13.9350    5.1610    6.4670 C   0  0  0  0  0  0  0  0  0  0  0  0
   12.7080    5.7190    7.2790 C   0  0  0  0  0  0  0  0  0  0  0  0
   15.1830    5.8210    6.8760 C   0  0  0  0  0  0  0  0  0  0  0  0
   16.2670    4.7580    6.6790 C   0  0  0  0  0  0  0  0  0  0  0  0
   15.8540    3.3980    5.5750 C   0  0  2  0  0  3  0  0  0  0  0  0
   14.7220    2.9660    4.7600 C   0  0  0  0  0  2  0  0  0  0  0  0
   12.9920    2.9230    4.9640 C   0  0  1  0  0  3  0  0  0  0  0  0
   11.7460    1.8690    4.6480 C   0  0  0  0  0  1  0  0  0  0  0  0
   10.4480    1.3370    5.7180 C   0  0  0  0  0  2  0  0  0  0  0  0
   12.3060    4.8340    5.2230 C   0  0  0  0  0  0  0  0  0  0  0  0
   12.8740    3.2930    6.7850 C   0  0  2  0  0  3  0  0  0  0  0  0
   11.4520    8.7910    7.2210 O   0  0  0  0  0  0  0  0  0  0  0  0
   11.7090    8.8740    8.4790 C   0  0  0  0  0  0  0  0  0  0  0  0
   11.0350    9.6540    9.2350 O   0  0  0  0  0  1  0  0  0  0  0  0
   13.6370    8.7140    9.9980 C   0  0  0  0  0  0  0  0  0  0  0  0
   13.4260    8.7100   11.2670 O   0  0  0  0  0  1  0  0  0  0  0  0
   14.5970    9.4250    9.5090 O   0  0  0  0  0  0  0  0  0  0  0  0
   10.8410    5.0410    4.3110 C   0  0  0  0  0  0  0  0  0  0  0  0
   10.5600    4.1890    3.3900 O   0  0  0  0  0  0  0  0  0  0  0  0
   10.0780    6.0750    4.4790 O   0  0  0  0  0  1  0  0  0  0  0  0
   13.2450    5.7190    4.0650 C   0  0  0  0  0  0  0  0  0  0  0  0
   13.6140    5.1670    2.9680 O   0  0  0  0  0  0  0  0  0  0  0  0
   13.5170    6.9660    4.2870 O   0  0  0  0  0  1  0  0  0  0  0  0
  1 45  1  0  0  0  0
  1 66  1  0  0  0  0
  2 53  1  6  0  0  0
  2  3  1  0  0  0  0
  2  1  1  0  0  0  0
  2 45  1  0  0  0  0
  3  4  1  0  0  0  0
  4 24  1  0  0  0  0
  5  4  2  0  0  0  0
  5 26  1  0  0  0  0
  6  5  1  0  0  0  0
  7  6  1  0  0  0  0
  7 28  2  0  0  0  0
  8  9  1  0  0  0  0
  8  7  1  1  0  0  0
  9 10  1  0  0  0  0
 10 29  1  0  0  0  0
 11 10  1  0  0  0  0
 11 32  1  0  0  0  0
 12 11  1  0  0  0  0
 13 12  1  0  0  0  0
 13 14  1  0  0  0  0
 14 15  1  0  0  0  0
 14 33  2  0  0  0  0
 15 36  2  0  0  0  0
 16 17  2  0  0  0  0
 16 15  1  0  0  0  0
 17 18  1  0  0  0  0
 18 19  1  0  0  0  0
 19 20  2  0  0  0  0
 20 21  1  0  0  0  0
 20 37  1  0  0  0  0
 21 22  1  0  0  0  0
 22 39  2  0  0  0  0
 23 22  1  0  0  0  0
 24 23  2  0  0  0  0
 24 25  1  0  0  0  0
 25 40  1  0  0  0  0
 26 25  2  0  0  0  0
 27 26  1  0  0  0  0
 27 42  2  0  0  0  0
 28 27  1  0  0  0  0
 29 28  1  0  0  0  0
 29 30  1  0  0  0  0
 30 42  1  0  0  0  0
 31 30  2  0  0  0  0
 31 44  1  0  0  0  0
 32 33  1  0  0  0  0
 32 31  1  0  0  0  0
 33 34  1  0  0  0  0
 34 35  2  0  0  0  0
 34 44  1  0  0  0  0
 35 37  1  0  0  0  0
 36 19  1  0  0  0  0
 36 35  1  0  0  0  0
 37 38  2  0  0  0  0
 38 39  1  0  0  0  0
 40 39  1  0  0  0  0
 41 40  2  0  0  0  0
 42 41  1  0  0  0  0
 43 41  1  0  0  0  0
 43 38  1  0  0  0  0
 44 43  2  0  0  0  0
 45 23  1  0  0  0  0
 46 45  1  0  0  0  0
 46 21  2  0  0  0  0
 47 18  2  0  0  0  0
 47 46  1  0  0  0  0
 48 53  1  0  0  0  0
 48 47  1  0  0  0  0
 49 17  1  0  0  0  0
 49 48  2  0  0  0  0
 50 49  1  0  0  0  0
 51 52  1  0  0  0  0
 52 54  1  0  0  0  0
 52 53  2  0  0  0  0
 54  3  2  0  0  0  0
 55 54  1  0  0  0  0
 55  6  2  0  0  0  0
 56 55  1  0  0  0  0
 56  8  1  0  0  0  0
 57 51  1  0  0  0  0
 57 56  1  0  0  0  0
 58 50  1  0  0  0  0
 58 51  1  0  0  0  0
 58 62  1  0  0  0  0
 59 50  1  0  0  0  0
 60 16  1  0  0  0  0
 60 13  1  0  0  0  0
 61 50  1  0  0  0  0
 61 51  1  0  0  0  0
 62 12  1  0  0  0  0
 62  9  1  0  0  0  0
 63 64  2  0  0  0  0
 64  1  1  0  0  0  0
 64 65  1  0  0  0  0
 66 67  1  0  0  0  0
 68 66  2  0  0  0  0
 69 71  1  0  0  0  0
 69 61  1  0  0  0  0
 70 69  2  0  0  0  0
 72 74  1  0  0  0  0
 72 61  1  0  0  0  0
 73 72  2  0  0  0  0
M  END
>  <minimizedAffinity>
-11.2583103

$$$$
