
 OpenBabel09182209113D

 74104  0  0  1  0  0  0  0  0999 V2000
    8.6830    3.0730    8.7150 C   0  0  0  0  0  0  0  0  0  0  0  0
    9.7670    3.7740    9.5600 C   0  0  1  0  0  0  0  0  0  0  0  0
   10.1050    3.2700   10.9960 C   0  0  0  0  0  0  0  0  0  0  0  0
   10.8490    2.1390   11.1440 C   0  0  0  0  0  0  0  0  0  0  0  0
   11.8110    1.9880   12.1500 C   0  0  0  0  0  0  0  0  0  0  0  0
   12.1750    3.0480   13.0400 C   0  0  0  0  0  0  0  0  0  0  0  0
   13.5370    3.3280   13.1580 C   0  0  0  0  0  0  0  0  0  0  0  0
   13.5750    4.6880   12.7570 C   0  0  1  0  0  3  0  0  0  0  0  0
   13.9170    4.7770   11.4220 C   0  0  2  0  0  3  0  0  0  0  0  0
   15.1130    4.1610   11.1440 C   0  0  2  0  0  3  0  0  0  0  0  0
   15.6670    4.6530   10.0440 C   0  0  2  0  0  3  0  0  0  0  0  0
   14.8930    5.6550    9.5120 C   0  0  1  0  0  3  0  0  0  0  0  0
   15.6100    6.4700    8.6350 C   0  0  1  0  0  3  0  0  0  0  0  0
   16.1960    5.6750    7.5950 C   0  0  0  0  0  0  0  0  0  0  0  0
   15.2720    5.8130    6.5530 C   0  0  0  0  0  0  0  0  0  0  0  0
   14.3790    6.9070    6.9210 C   0  0  0  0  0  0  0  0  0  0  0  0
   13.0360    6.5640    6.8550 C   0  0  0  0  0  0  0  0  0  0  0  0
   12.4990    5.3760    6.2450 C   0  0  0  0  0  0  0  0  0  0  0  0
   13.3830    4.3810    5.8020 C   0  0  0  0  0  0  0  0  0  0  0  0
   13.0970    2.9650    6.0680 C   0  0  0  0  0  0  0  0  0  0  0  0
   11.9330    2.5510    6.7240 C   0  0  0  0  0  0  0  0  0  0  0  0
   11.9510    1.5120    7.6820 C   0  0  0  0  0  0  0  0  0  0  0  0
   11.0090    1.7180    8.6950 C   0  0  0  0  0  0  0  0  0  0  0  0
   11.2290    1.3470   10.0310 C   0  0  0  0  0  0  0  0  0  0  0  0
   12.4320    0.7400   10.3210 C   0  0  0  0  0  0  0  0  0  0  0  0
   12.8020    1.1380   11.5820 C   0  0  0  0  0  0  0  0  0  0  0  0
   14.1760    1.3140   11.8000 C   0  0  0  0  0  0  0  0  0  0  0  0
   14.4950    2.4360   12.4890 C   0  0  0  0  0  0  0  0  0  0  0  0
   15.4590    2.9550   11.6940 C   0  0  1  0  0  3  0  0  0  0  0  0
   15.9960    2.1130   10.7740 C   0  0  0  0  0  0  0  0  0  0  0  0
   16.5880    2.6440    9.5390 C   0  0  0  0  0  0  0  0  0  0  0  0
   16.6150    3.9830    9.3090 C   0  0  1  0  0  3  0  0  0  0  0  0
   16.6560    4.3510    8.0080 C   0  0  0  0  0  0  0  0  0  0  0  0
   16.2760    3.2020    7.3900 C   0  0  0  0  0  0  0  0  0  0  0  0
   15.2530    3.3240    6.4220 C   0  0  0  0  0  0  0  0  0  0  0  0
   14.7400    4.5800    6.0370 C   0  0  0  0  0  0  0  0  0  0  0  0
   14.2770    2.3520    6.4390 C   0  0  0  0  0  0  0  0  0  0  0  0
   14.2930    1.2720    7.3860 C   0  0  0  0  0  0  0  0  0  0  0  0
   13.1430    0.8730    7.9920 C   0  0  0  0  0  0  0  0  0  0  0  0
   13.3870    0.4840    9.2770 C   0  0  0  0  0  0  0  0  0  0  0  0
   14.7150    0.6480    9.4850 C   0  0  0  0  0  0  0  0  0  0  0  0
   15.1040    1.0980   10.7690 C   0  0  0  0  0  0  0  0  0  0  0  0
   15.2760    1.1480    8.3110 C   0  0  0  0  0  0  0  0  0  0  0  0
   16.2720    2.1500    8.3180 C   0  0  0  0  0  0  0  0  0  0  0  0
   10.1270    2.9100    8.2990 C   0  0  1  0  0  0  0  0  0  0  0  0
   10.7410    3.4730    6.9460 C   0  0  0  0  0  0  0  0  0  0  0  0
   11.1530    4.9710    6.9110 C   0  0  0  0  0  0  0  0  0  0  0  0
   11.3720    5.5340    8.2750 C   0  0  0  0  0  0  0  0  0  0  0  0
   12.4440    6.6270    8.1430 C   0  0  0  0  0  0  0  0  0  0  0  0
   13.0320    7.4380    9.5590 C   0  0  1  0  0  0  0  0  0  0  0  0
   12.2510    6.7240   11.2720 C   0  0  1  0  0  0  0  0  0  0  0  0
   11.0850    5.4030   10.9420 C   0  0  0  0  0  0  0  0  0  0  0  0
   10.6940    4.9960    9.4730 C   0  0  0  0  0  0  0  0  0  0  0  0
   10.4300    4.5280   11.9250 C   0  0  0  0  0  0  0  0  0  0  0  0
   11.4090    4.4630   13.1000 C   0  0  0  0  0  0  0  0  0  0  0  0
   12.6290    5.7830   13.1920 C   0  0  2  0  0  3  0  0  0  0  0  0
   13.0000    6.9740   12.4320 C   0  0  0  0  0  2  0  0  0  0  0  0
   13.1450    7.3710   10.7420 C   0  0  1  0  0  3  0  0  0  0  0  0
   14.2030    8.2010    9.7640 C   0  0  0  0  0  1  0  0  0  0  0  0
   14.9280    7.6960    8.2380 C   0  0  0  0  0  2  0  0  0  0  0  0
   11.3180    7.1510    9.8470 C   0  0  0  0  0  0  0  0  0  0  0  0
   13.0240    5.6680   10.0000 C   0  0  2  0  0  3  0  0  0  0  0  0
    7.6250    3.5460    6.6320 O   0  0  0  0  0  0  0  0  0  0  0  0
    7.7720    3.8670    7.8690 C   0  0  0  0  0  0  0  0  0  0  0  0
    7.0770    4.8080    8.3880 O   0  0  0  0  0  1  0  0  0  0  0  0
    8.0450    1.8140    9.1960 C   0  0  0  0  0  0  0  0  0  0  0  0
    8.0700    0.7410    8.4860 O   0  0  0  0  0  0  0  0  0  0  0  0
    7.3870    1.8340   10.3070 O   0  0  0  0  0  1  0  0  0  0  0  0
   11.0580    8.4750    8.7520 C   0  0  0  0  0  0  0  0  0  0  0  0
   11.5710    9.6200    9.0320 O   0  0  0  0  0  1  0  0  0  0  0  0
   10.2910    8.3560    7.7140 O   0  0  0  0  0  0  0  0  0  0  0  0
   10.2470    7.8210   11.0360 C   0  0  0  0  0  0  0  0  0  0  0  0
   10.6590    8.7260   11.8450 O   0  0  0  0  0  1  0  0  0  0  0  0
    9.0070    7.4470   11.0560 O   0  0  0  0  0  0  0  0  0  0  0  0
  1 66  1  0  0  0  0
  1  2  1  0  0  0  0
  2 53  1  6  0  0  0
  2  3  1  0  0  0  0
  3  4  2  0  0  0  0
  3 54  1  0  0  0  0
  4  5  1  0  0  0  0
  5  6  1  0  0  0  0
  6 55  1  0  0  0  0
  6  7  2  0  0  0  0
  8  7  1  6  0  0  0
  8 56  1  0  0  0  0
  9  8  1  0  0  0  0
 10  9  1  0  0  0  0
 10 29  1  0  0  0  0
 11 10  1  0  0  0  0
 12 62  1  0  0  0  0
 12 11  1  0  0  0  0
 13 12  1  0  0  0  0
 14 33  1  0  0  0  0
 14 13  1  0  0  0  0
 15 16  1  0  0  0  0
 15 14  2  0  0  0  0
 16 60  1  0  0  0  0
 17 16  2  0  0  0  0
 17 49  1  0  0  0  0
 18 17  1  0  0  0  0
 18 47  1  0  0  0  0
 19 36  1  0  0  0  0
 19 20  1  0  0  0  0
 19 18  2  0  0  0  0
 20 37  2  0  0  0  0
 20 21  1  0  0  0  0
 21 46  1  0  0  0  0
 21 22  2  0  0  0  0
 22 39  1  0  0  0  0
 22 23  1  0  0  0  0
 23 24  2  0  0  0  0
 24 25  1  0  0  0  0
 24  4  1  0  0  0  0
 25 26  1  0  0  0  0
 26 27  1  0  0  0  0
 26  5  2  0  0  0  0
 27 28  2  0  0  0  0
 28  7  1  0  0  0  0
 29 28  1  0  0  0  0
 30 29  1  0  0  0  0
 31 30  2  0  0  0  0
 32 31  1  0  0  0  0
 32 11  1  0  0  0  0
 33 32  1  0  0  0  0
 34 33  2  0  0  0  0
 34 44  1  0  0  0  0
 35 37  1  0  0  0  0
 35 34  1  0  0  0  0
 36 35  2  0  0  0  0
 36 15  1  0  0  0  0
 37 38  1  0  0  0  0
 38 39  2  0  0  0  0
 38 43  1  0  0  0  0
 39 40  1  0  0  0  0
 40 41  1  0  0  0  0
 40 25  2  0  0  0  0
 41 42  2  0  0  0  0
 42 30  1  0  0  0  0
 42 27  1  0  0  0  0
 43 44  2  0  0  0  0
 43 41  1  0  0  0  0
 44 31  1  0  0  0  0
 45 23  1  0  0  0  0
 45  1  1  0  0  0  0
 45  2  1  0  0  0  0
 46 45  1  0  0  0  0
 47 46  2  0  0  0  0
 47 48  1  0  0  0  0
 48 53  1  0  0  0  0
 49 48  2  0  0  0  0
 49 50  1  0  0  0  0
 50 59  1  0  0  0  0
 50 61  1  0  0  0  0
 50 58  1  0  0  0  0
 51 57  1  0  0  0  0
 52 51  1  0  0  0  0
 52 54  1  0  0  0  0
 53 52  2  0  0  0  0
 54 55  2  0  0  0  0
 55 56  1  0  0  0  0
 57 56  1  0  0  0  0
 58 51  1  0  0  0  0
 60 13  1  0  0  0  0
 61 72  1  0  0  0  0
 61 51  1  0  0  0  0
 62 58  1  0  0  0  0
 62  9  1  0  0  0  0
 63 64  2  0  0  0  0
 64 65  1  0  0  0  0
 64  1  1  0  0  0  0
 66 68  1  0  0  0  0
 67 66  2  0  0  0  0
 69 70  1  0  0  0  0
 69 61  1  0  0  0  0
 71 69  2  0  0  0  0
 72 74  2  0  0  0  0
 72 73  1  0  0  0  0
M  END
>  <minimizedAffinity>
-10.5340328

$$$$
