
 OpenBabel09182209113D

 74104  0  0  1  0  0  0  0  0999 V2000
    9.8150    5.9870   11.2480 C   0  0  0  0  0  0  0  0  0  0  0  0
   10.7130    5.1020   10.3570 C   0  0  1  0  0  0  0  0  0  0  0  0
   12.2640    5.1460   10.4990 C   0  0  0  0  0  0  0  0  0  0  0  0
   12.8520    4.5220   11.5570 C   0  0  0  0  0  0  0  0  0  0  0  0
   14.0700    3.8390   11.4550 C   0  0  0  0  0  0  0  0  0  0  0  0
   14.7480    3.6440   10.2100 C   0  0  0  0  0  0  0  0  0  0  0  0
   15.1290    2.3370    9.9020 C   0  0  0  0  0  0  0  0  0  0  0  0
   14.4420    2.1300    8.6780 C   0  0  1  0  0  3  0  0  0  0  0  0
   13.2500    1.4740    8.9110 C   0  0  2  0  0  3  0  0  0  0  0  0
   13.4270    0.2810    9.5690 C   0  0  2  0  0  3  0  0  0  0  0  0
   12.4140   -0.5470    9.3530 C   0  0  2  0  0  3  0  0  0  0  0  0
   11.4880    0.0210    8.5130 C   0  0  1  0  0  3  0  0  0  0  0  0
   10.6490   -0.9280    7.9280 C   0  0  1  0  0  3  0  0  0  0  0  0
   10.0020   -1.7040    8.9470 C   0  0  0  0  0  0  0  0  0  0  0  0
    8.7620   -1.0660    9.0700 C   0  0  0  0  0  0  0  0  0  0  0  0
    8.6310   -0.1710    7.9240 C   0  0  0  0  0  0  0  0  0  0  0  0
    8.3180    1.1330    8.2810 C   0  0  0  0  0  0  0  0  0  0  0  0
    7.8920    1.5710    9.5840 C   0  0  0  0  0  0  0  0  0  0  0  0
    7.9270    0.6620   10.6520 C   0  0  0  0  0  0  0  0  0  0  0  0
    8.4380    1.0790   11.9640 C   0  0  0  0  0  0  0  0  0  0  0  0
    8.8660    2.3870   12.2140 C   0  0  0  0  0  0  0  0  0  0  0  0
   10.0150    2.6550   12.9910 C   0  0  0  0  0  0  0  0  0  0  0  0
   10.6880    3.8010   12.5540 C   0  0  0  0  0  0  0  0  0  0  0  0
   12.0850    3.9290   12.5910 C   0  0  0  0  0  0  0  0  0  0  0  0
   12.7960    2.8650   13.1030 C   0  0  0  0  0  0  0  0  0  0  0  0
   13.9790    2.7880   12.4110 C   0  0  0  0  0  0  0  0  0  0  0  0
   14.4820    1.5000   12.1800 C   0  0  0  0  0  0  0  0  0  0  0  0
   14.9450    1.2950   10.9230 C   0  0  0  0  0  0  0  0  0  0  0  0
   14.3130    0.1430   10.6050 C   0  0  1  0  0  3  0  0  0  0  0  0
   13.7780   -0.5540   11.6410 C   0  0  0  0  0  0  0  0  0  0  0  0
   12.6370   -1.4530   11.4190 C   0  0  0  0  0  0  0  0  0  0  0  0
   12.1140   -1.6070   10.1750 C   0  0  1  0  0  3  0  0  0  0  0  0
   10.8140   -1.9790   10.1310 C   0  0  0  0  0  0  0  0  0  0  0  0
   10.4100   -1.6980   11.3970 C   0  0  0  0  0  0  0  0  0  0  0  0
    9.2190   -0.9460   11.5170 C   0  0  0  0  0  0  0  0  0  0  0  0
    8.4350   -0.6080   10.3940 C   0  0  0  0  0  0  0  0  0  0  0  0
    9.2220    0.0570   12.4620 C   0  0  0  0  0  0  0  0  0  0  0  0
   10.3700    0.3270   13.2820 C   0  0  0  0  0  0  0  0  0  0  0  0
   10.7500    1.6090   13.5300 C   0  0  0  0  0  0  0  0  0  0  0  0
   12.1110    1.7020   13.5980 C   0  0  0  0  0  0  0  0  0  0  0  0
   12.5940    0.4560   13.3800 C   0  0  0  0  0  0  0  0  0  0  0  0
   13.7920    0.3630   12.6320 C   0  0  0  0  0  0  0  0  0  0  0  0
   11.5110   -0.3960   13.1740 C   0  0  0  0  0  0  0  0  0  0  0  0
   11.5280   -1.4140   12.1940 C   0  0  0  0  0  0  0  0  0  0  0  0
    9.8180    4.4960   11.4970 C   0  0  1  0  0  0  0  0  0  0  0  0
    8.5650    3.5460   11.2730 C   0  0  0  0  0  0  0  0  0  0  0  0
    8.2820    3.0580    9.8250 C   0  0  0  0  0  0  0  0  0  0  0  0
    9.4860    3.1430    8.9490 C   0  0  0  0  0  0  0  0  0  0  0  0
    9.3700    2.0130    7.9140 C   0  0  0  0  0  0  0  0  0  0  0  0
   10.6550    1.7400    6.7820 C   0  0  1  0  0  0  0  0  0  0  0  0
   12.2410    2.9480    7.0670 C   0  0  1  0  0  0  0  0  0  0  0  0
   11.9540    4.0690    8.4360 C   0  0  0  0  0  0  0  0  0  0  0  0
   10.5720    4.1170    9.1860 C   0  0  0  0  0  0  0  0  0  0  0  0
   12.9220    4.9870    9.0520 C   0  0  0  0  0  0  0  0  0  0  0  0
   14.2840    4.3250    8.8260 C   0  0  0  0  0  0  0  0  0  0  0  0
   14.3610    3.0930    7.5160 C   0  0  2  0  0  3  0  0  0  0  0  0
   13.4580    2.4870    6.5410 C   0  0  0  0  0  2  0  0  0  0  0  0
   11.8110    1.9180    6.5620 C   0  0  1  0  0  3  0  0  0  0  0  0
   10.9580    0.6140    5.9850 C   0  0  0  0  0  1  0  0  0  0  0  0
    9.8200   -0.4290    6.8390 C   0  0  0  0  0  2  0  0  0  0  0  0
   10.5720    3.4860    7.0010 C   0  0  0  0  0  0  0  0  0  0  0  0
   11.4840    1.9500    8.3940 C   0  0  2  0  0  3  0  0  0  0  0  0
    8.5000    6.7430    9.4090 O   0  0  0  0  0  0  0  0  0  0  0  0
    8.6090    6.6240   10.6860 C   0  0  0  0  0  0  0  0  0  0  0  0
    7.6530    6.9750   11.4600 O   0  0  0  0  0  1  0  0  0  0  0  0
   10.4060    6.7890   12.3580 C   0  0  0  0  0  0  0  0  0  0  0  0
   11.3170    7.6680   12.1320 O   0  0  0  0  0  0  0  0  0  0  0  0
   10.0490    6.5310   13.5710 O   0  0  0  0  0  1  0  0  0  0  0  0
    9.1670    3.4030    5.9810 C   0  0  0  0  0  0  0  0  0  0  0  0
    9.3000    2.9690    4.7790 O   0  0  0  0  0  0  0  0  0  0  0  0
    8.0160    3.8500    6.3760 O   0  0  0  0  0  1  0  0  0  0  0  0
   11.2680    4.7740    6.0710 C   0  0  0  0  0  0  0  0  0  0  0  0
   11.9010    4.5220    4.9840 O   0  0  0  0  0  0  0  0  0  0  0  0
   11.0880    5.9990    6.4480 O   0  0  0  0  0  1  0  0  0  0  0  0
  1 45  1  0  0  0  0
  1 66  1  0  0  0  0
  2 53  1  6  0  0  0
  2  3  1  0  0  0  0
  2  1  1  0  0  0  0
  2 45  1  0  0  0  0
  3  4  1  0  0  0  0
  4 24  1  0  0  0  0
  5  4  2  0  0  0  0
  5 26  1  0  0  0  0
  6  5  1  0  0  0  0
  7  6  1  0  0  0  0
  7 28  2  0  0  0  0
  8  9  1  0  0  0  0
  8  7  1  1  0  0  0
  9 10  1  0  0  0  0
 10 29  1  0  0  0  0
 11 10  1  0  0  0  0
 11 32  1  0  0  0  0
 12 11  1  0  0  0  0
 13 12  1  0  0  0  0
 13 14  1  0  0  0  0
 14 15  1  0  0  0  0
 14 33  2  0  0  0  0
 15 36  2  0  0  0  0
 16 17  2  0  0  0  0
 16 15  1  0  0  0  0
 17 18  1  0  0  0  0
 18 47  2  0  0  0  0
 18 19  1  0  0  0  0
 19 20  2  0  0  0  0
 20 21  1  0  0  0  0
 20 37  1  0  0  0  0
 21 22  1  0  0  0  0
 22 39  2  0  0  0  0
 23 24  2  0  0  0  0
 23 22  1  0  0  0  0
 24 25  1  0  0  0  0
 25 40  1  0  0  0  0
 26 25  2  0  0  0  0
 27 26  1  0  0  0  0
 27 42  2  0  0  0  0
 28 27  1  0  0  0  0
 29 28  1  0  0  0  0
 29 30  1  0  0  0  0
 30 42  1  0  0  0  0
 31 30  2  0  0  0  0
 31 44  1  0  0  0  0
 32 31  1  0  0  0  0
 33 32  1  0  0  0  0
 33 34  1  0  0  0  0
 34 35  2  0  0  0  0
 34 44  1  0  0  0  0
 35 37  1  0  0  0  0
 36 19  1  0  0  0  0
 36 35  1  0  0  0  0
 37 38  2  0  0  0  0
 38 39  1  0  0  0  0
 39 40  1  0  0  0  0
 41 40  2  0  0  0  0
 42 41  1  0  0  0  0
 43 38  1  0  0  0  0
 43 41  1  0  0  0  0
 44 43  2  0  0  0  0
 45 23  1  0  0  0  0
 46 45  1  0  0  0  0
 46 21  2  0  0  0  0
 47 46  1  0  0  0  0
 48 53  1  0  0  0  0
 48 47  1  0  0  0  0
 49 17  1  0  0  0  0
 49 48  2  0  0  0  0
 50 61  1  0  0  0  0
 50 49  1  0  0  0  0
 51 52  1  0  0  0  0
 52 54  1  0  0  0  0
 52 53  2  0  0  0  0
 54  3  2  0  0  0  0
 55 54  1  0  0  0  0
 55  6  2  0  0  0  0
 56  8  1  0  0  0  0
 56 55  1  0  0  0  0
 57 51  1  0  0  0  0
 57 56  1  0  0  0  0
 58 50  1  0  0  0  0
 58 51  1  0  0  0  0
 58 62  1  0  0  0  0
 59 50  1  0  0  0  0
 60 16  1  0  0  0  0
 60 13  1  0  0  0  0
 61 51  1  0  0  0  0
 62 12  1  0  0  0  0
 62  9  1  0  0  0  0
 63 64  2  0  0  0  0
 64  1  1  0  0  0  0
 64 65  1  0  0  0  0
 66 68  1  0  0  0  0
 67 66  2  0  0  0  0
 69 71  1  0  0  0  0
 69 61  1  0  0  0  0
 70 69  2  0  0  0  0
 72 74  1  0  0  0  0
 72 61  1  0  0  0  0
 73 72  2  0  0  0  0
M  END
>  <minimizedAffinity>
-10.710988

$$$$
