
 OpenBabel09132217423D

 74104  0  0  1  0  0  0  0  0999 V2000
   10.6830    7.1530   10.8700 C   0  0  0  0  0  0  0  0  0  0  0  0
   10.7630    6.0820    9.7620 C   0  0  1  0  0  0  0  0  0  0  0  0
   11.3820    6.4220    8.3720 C   0  0  0  0  0  0  0  0  0  0  0  0
   12.7350    6.5180    8.2540 C   0  0  0  0  0  0  0  0  0  0  0  0
   13.4330    6.0680    7.1260 C   0  0  0  0  0  0  0  0  0  0  0  0
   12.7990    5.3690    6.0500 C   0  0  0  0  0  0  0  0  0  0  0  0
   13.3790    4.1610    5.6600 C   0  0  0  0  0  0  0  0  0  0  0  0
   12.3010    3.2600    5.8590 C   0  0  1  0  0  3  0  0  0  0  0  0
   12.4200    2.6460    7.0890 C   0  0  2  0  0  3  0  0  0  0  0  0
   13.6210    1.9960    7.2380 C   0  0  2  0  0  3  0  0  0  0  0  0
   13.5420    1.0340    8.1480 C   0  0  2  0  0  3  0  0  0  0  0  0
   12.2720    0.9500    8.6630 C   0  0  1  0  0  3  0  0  0  0  0  0
   12.0310   -0.2770    9.2830 C   0  0  1  0  0  3  0  0  0  0  0  0
   13.0100   -0.5110   10.3040 C   0  0  0  0  0  0  0  0  0  0  0  0
   12.3450   -0.0920   11.4620 C   0  0  0  0  0  0  0  0  0  0  0  0
   10.9370    0.0640   11.1090 C   0  0  0  0  0  0  0  0  0  0  0  0
   10.4200    1.3060   11.4530 C   0  0  0  0  0  0  0  0  0  0  0  0
   11.0570    2.2770   12.3030 C   0  0  0  0  0  0  0  0  0  0  0  0
   12.3790    2.0550   12.7170 C   0  0  0  0  0  0  0  0  0  0  0  0
   13.3550    3.1520   12.7020 C   0  0  0  0  0  0  0  0  0  0  0  0
   13.0060    4.4520   12.3200 C   0  0  0  0  0  0  0  0  0  0  0  0
   13.8630    5.2450   11.5240 C   0  0  0  0  0  0  0  0  0  0  0  0
   13.1490    6.0940   10.6710 C   0  0  0  0  0  0  0  0  0  0  0  0
   13.5890    6.4280    9.3810 C   0  0  0  0  0  0  0  0  0  0  0  0
   14.7910    5.8920    8.9730 C   0  0  0  0  0  0  0  0  0  0  0  0
   14.6990    5.6500    7.6250 C   0  0  0  0  0  0  0  0  0  0  0  0
   15.3710    4.5150    7.1500 C   0  0  0  0  0  0  0  0  0  0  0  0
   14.6590    3.7700    6.2680 C   0  0  0  0  0  0  0  0  0  0  0  0
   14.8030    2.5380    6.8060 C   0  0  1  0  0  3  0  0  0  0  0  0
   15.7930    2.3950    7.7250 C   0  0  0  0  0  0  0  0  0  0  0  0
   15.7030    1.3500    8.7550 C   0  0  0  0  0  0  0  0  0  0  0  0
   14.6370    0.5090    8.7910 C   0  0  1  0  0  3  0  0  0  0  0  0
   14.3540   -0.0210   10.0030 C   0  0  0  0  0  0  0  0  0  0  0  0
   15.0520    0.8020   10.8280 C   0  0  0  0  0  0  0  0  0  0  0  0
   14.3410    1.3240   11.9330 C   0  0  0  0  0  0  0  0  0  0  0  0
   13.0220    0.9220   12.2260 C   0  0  0  0  0  0  0  0  0  0  0  0
   14.5490    2.6560   12.2190 C   0  0  0  0  0  0  0  0  0  0  0  0
   15.4380    3.4720   11.4400 C   0  0  0  0  0  0  0  0  0  0  0  0
   15.0850    4.7420   11.1020 C   0  0  0  0  0  0  0  0  0  0  0  0
   15.5540    5.0570    9.8600 C   0  0  0  0  0  0  0  0  0  0  0  0
   16.2070    3.9610    9.4050 C   0  0  0  0  0  0  0  0  0  0  0  0
   16.0850    3.6800    8.0240 C   0  0  0  0  0  0  0  0  0  0  0  0
   16.1260    2.9740   10.3840 C   0  0  0  0  0  0  0  0  0  0  0  0
   15.9050    1.6140   10.0680 C   0  0  0  0  0  0  0  0  0  0  0  0
   11.6630    6.0160   11.0480 C   0  0  1  0  0  0  0  0  0  0  0  0
   11.5610    4.9110   12.1840 C   0  0  0  0  0  0  0  0  0  0  0  0
   10.5950    3.7180   11.9420 C   0  0  0  0  0  0  0  0  0  0  0  0
   10.2800    3.5220   10.4970 C   0  0  0  0  0  0  0  0  0  0  0  0
   10.0310    2.0200   10.2900 C   0  0  0  0  0  0  0  0  0  0  0  0
    9.7350    1.4030    8.6960 C   0  0  1  0  0  0  0  0  0  0  0  0
    9.8640    2.8070    7.2590 C   0  0  1  0  0  0  0  0  0  0  0  0
   10.2390    4.4120    7.9630 C   0  0  0  0  0  0  0  0  0  0  0  0
   10.3240    4.6300    9.5190 C   0  0  0  0  0  0  0  0  0  0  0  0
   10.5660    5.6480    7.2380 C   0  0  0  0  0  0  0  0  0  0  0  0
   11.2060    5.1730    5.9300 C   0  0  0  0  0  0  0  0  0  0  0  0
   10.8620    3.4730    5.4490 C   0  0  2  0  0  3  0  0  0  0  0  0
   10.1130    2.3290    5.9630 C   0  0  0  0  0  2  0  0  0  0  0  0
    9.8660    1.6130    7.5320 C   0  0  1  0  0  3  0  0  0  0  0  0
    9.8120    0.0870    8.1890 C   0  0  0  0  0  1  0  0  0  0  0  0
   10.6360   -0.5310    9.6210 C   0  0  0  0  0  2  0  0  0  0  0  0
    8.9570    2.9830    8.7510 C   0  0  0  0  0  0  0  0  0  0  0  0
   11.1620    2.5240    8.5100 C   0  0  2  0  0  3  0  0  0  0  0  0
    9.6260    7.6940   12.9370 O   0  0  0  0  0  1  0  0  0  0  0  0
    9.4970    7.2280   11.7450 C   0  0  0  0  0  0  0  0  0  0  0  0
    8.3450    6.9110   11.2870 O   0  0  0  0  0  0  0  0  0  0  0  0
   11.3260    8.4850   10.6840 C   0  0  0  0  0  0  0  0  0  0  0  0
   12.2540    8.8930   11.4750 O   0  0  0  0  0  1  0  0  0  0  0  0
   10.8780    9.2690    9.7610 O   0  0  0  0  0  0  0  0  0  0  0  0
    7.7260    2.1850    9.6840 C   0  0  0  0  0  0  0  0  0  0  0  0
    7.1750    1.1270    9.2040 O   0  0  0  0  0  0  0  0  0  0  0  0
    7.2940    2.6800   10.8020 O   0  0  0  0  0  1  0  0  0  0  0  0
    7.7930    3.7040    7.6860 C   0  0  0  0  0  0  0  0  0  0  0  0
    7.5040    3.1480    6.5670 O   0  0  0  0  0  0  0  0  0  0  0  0
    7.1680    4.7750    8.0600 O   0  0  0  0  0  1  0  0  0  0  0  0
  1 45  1  0  0  0  0
  1 64  1  0  0  0  0
  2  3  1  6  0  0  0
  2  1  1  0  0  0  0
  2 45  1  0  0  0  0
  4  3  1  0  0  0  0
  4 24  1  0  0  0  0
  5 26  1  0  0  0  0
  5  4  2  0  0  0  0
  6  5  1  0  0  0  0
  7  6  1  0  0  0  0
  7 28  2  0  0  0  0
  8  7  1  1  0  0  0
  8  9  1  0  0  0  0
  9 10  1  0  0  0  0
  9 62  1  0  0  0  0
 10 11  1  0  0  0  0
 11 12  1  0  0  0  0
 11 32  1  0  0  0  0
 12 13  1  0  0  0  0
 13 60  1  0  0  0  0
 13 14  1  0  0  0  0
 14 15  1  0  0  0  0
 15 36  1  0  0  0  0
 16 17  1  0  0  0  0
 16 15  2  0  0  0  0
 17 18  1  0  0  0  0
 18 19  2  0  0  0  0
 20 19  1  0  0  0  0
 21 20  1  0  0  0  0
 22 21  1  0  0  0  0
 23 45  1  0  0  0  0
 23 22  2  0  0  0  0
 24 23  1  0  0  0  0
 25 24  2  0  0  0  0
 25 40  1  0  0  0  0
 26 25  1  0  0  0  0
 27 26  2  0  0  0  0
 27 42  1  0  0  0  0
 28 29  1  0  0  0  0
 28 27  1  0  0  0  0
 29 10  1  0  0  0  0
 29 30  1  0  0  0  0
 30 42  1  0  0  0  0
 30 31  2  0  0  0  0
 31 32  1  0  0  0  0
 31 44  1  0  0  0  0
 32 33  1  0  0  0  0
 33 14  2  0  0  0  0
 33 34  1  0  0  0  0
 34 35  1  0  0  0  0
 35 37  1  0  0  0  0
 35 36  2  0  0  0  0
 36 19  1  0  0  0  0
 37 20  2  0  0  0  0
 38 37  1  0  0  0  0
 39 38  1  0  0  0  0
 39 22  1  0  0  0  0
 40 39  2  0  0  0  0
 41 40  1  0  0  0  0
 41 43  1  0  0  0  0
 42 41  2  0  0  0  0
 43 38  2  0  0  0  0
 44 43  1  0  0  0  0
 44 34  2  0  0  0  0
 45 46  1  0  0  0  0
 46 21  2  0  0  0  0
 47 46  1  0  0  0  0
 47 18  1  0  0  0  0
 48 47  2  0  0  0  0
 49 48  1  0  0  0  0
 49 17  2  0  0  0  0
 50 61  1  0  0  0  0
 50 49  1  0  0  0  0
 51 58  1  0  0  0  0
 51 52  1  0  0  0  0
 51 61  1  0  0  0  0
 52 53  2  0  0  0  0
 53  2  1  0  0  0  0
 53 48  1  0  0  0  0
 54 52  1  0  0  0  0
 54  3  2  0  0  0  0
 55  6  2  0  0  0  0
 55 54  1  0  0  0  0
 56  8  1  0  0  0  0
 56 55  1  0  0  0  0
 56 57  1  0  0  0  0
 57 51  1  0  0  0  0
 58 62  1  0  0  0  0
 58 50  1  0  0  0  0
 59 50  1  0  0  0  0
 60 16  1  0  0  0  0
 61 69  1  0  0  0  0
 62 12  1  0  0  0  0
 64 63  1  0  0  0  0
 65 64  2  0  0  0  0
 66  1  1  0  0  0  0
 66 67  1  0  0  0  0
 68 66  2  0  0  0  0
 69 71  1  0  0  0  0
 70 69  2  0  0  0  0
 72 74  1  0  0  0  0
 72 61  1  0  0  0  0
 73 72  2  0  0  0  0
M  END
>  <minimizedAffinity>
-11.3102388

$$$$

 OpenBabel09132217423D

 74104  0  0  1  0  0  0  0  0999 V2000
    9.8740   -0.0940    8.7120 C   0  0  0  0  0  0  0  0  0  0  0  0
   10.3490    1.0200    9.6690 C   0  0  1  0  0  0  0  0  0  0  0  0
   11.0900    0.6670   10.9940 C   0  0  0  0  0  0  0  0  0  0  0  0
   12.3930    0.2790   10.9430 C   0  0  0  0  0  0  0  0  0  0  0  0
   13.3370    0.6530   11.9080 C   0  0  0  0  0  0  0  0  0  0  0  0
   13.0390    1.5650   12.9710 C   0  0  0  0  0  0  0  0  0  0  0  0
   13.9130    2.6400   13.1380 C   0  0  0  0  0  0  0  0  0  0  0  0
   13.0310    3.7400   12.9820 C   0  0  1  0  0  3  0  0  0  0  0  0
   13.0850    4.2060   11.6830 C   0  0  2  0  0  3  0  0  0  0  0  0
   14.3580    4.5550   11.3030 C   0  0  2  0  0  3  0  0  0  0  0  0
   14.3440    5.4300   10.3060 C   0  0  2  0  0  3  0  0  0  0  0  0
   13.0560    5.7540    9.9570 C   0  0  1  0  0  3  0  0  0  0  0  0
   12.9860    6.9470    9.2380 C   0  0  1  0  0  3  0  0  0  0  0  0
   13.8230    6.8690    8.0750 C   0  0  0  0  0  0  0  0  0  0  0  0
   12.9130    6.5150    7.0720 C   0  0  0  0  0  0  0  0  0  0  0  0
   11.5760    6.7100    7.6240 C   0  0  0  0  0  0  0  0  0  0  0  0
   10.7630    5.5930    7.4970 C   0  0  0  0  0  0  0  0  0  0  0  0
   11.0410    4.4350    6.6880 C   0  0  0  0  0  0  0  0  0  0  0  0
   12.3000    4.3190    6.0800 C   0  0  0  0  0  0  0  0  0  0  0  0
   13.0130    3.0350    6.0930 C   0  0  0  0  0  0  0  0  0  0  0  0
   12.4620    1.8840    6.6650 C   0  0  0  0  0  0  0  0  0  0  0  0
   13.2450    0.9870    7.4270 C   0  0  0  0  0  0  0  0  0  0  0  0
   12.5090    0.3950    8.4590 C   0  0  0  0  0  0  0  0  0  0  0  0
   13.0630    0.0800    9.7100 C   0  0  0  0  0  0  0  0  0  0  0  0
   14.3990    0.3630    9.8900 C   0  0  0  0  0  0  0  0  0  0  0  0
   14.5700    0.7320   11.2020 C   0  0  0  0  0  0  0  0  0  0  0  0
   15.5300    1.7230   11.4490 C   0  0  0  0  0  0  0  0  0  0  0  0
   15.1370    2.6800   12.3250 C   0  0  0  0  0  0  0  0  0  0  0  0
   15.4520    3.7980   11.6340 C   0  0  1  0  0  3  0  0  0  0  0  0
   16.2950    3.6380   10.5810 C   0  0  0  0  0  0  0  0  0  0  0  0
   16.2690    4.5850    9.4590 C   0  0  0  0  0  0  0  0  0  0  0  0
   15.4120    5.6390    9.4670 C   0  0  1  0  0  3  0  0  0  0  0  0
   15.0630    6.1160    8.2500 C   0  0  0  0  0  0  0  0  0  0  0  0
   15.4360    5.0910    7.4410 C   0  0  0  0  0  0  0  0  0  0  0  0
   14.4690    4.6510    6.5080 C   0  0  0  0  0  0  0  0  0  0  0  0
   13.2350    5.3140    6.3480 C   0  0  0  0  0  0  0  0  0  0  0  0
   14.3450    3.2880    6.3530 C   0  0  0  0  0  0  0  0  0  0  0  0
   15.1520    2.3600    7.0960 C   0  0  0  0  0  0  0  0  0  0  0  0
   14.5960    1.2360    7.6220 C   0  0  0  0  0  0  0  0  0  0  0  0
   15.1750    0.9280    8.8190 C   0  0  0  0  0  0  0  0  0  0  0  0
   16.1060    1.8830    9.0540 C   0  0  0  0  0  0  0  0  0  0  0  0
   16.2610    2.2990   10.3970 C   0  0  0  0  0  0  0  0  0  0  0  0
   16.0840    2.7780    7.9870 C   0  0  0  0  0  0  0  0  0  0  0  0
   16.2060    4.1740    8.1700 C   0  0  0  0  0  0  0  0  0  0  0  0
   11.0330    0.7740    8.2760 C   0  0  1  0  0  0  0  0  0  0  0  0
   10.9910    1.7750    7.0430 C   0  0  0  0  0  0  0  0  0  0  0  0
   10.3470    3.1710    7.2720 C   0  0  0  0  0  0  0  0  0  0  0  0
   10.3080    3.5520    8.7130 C   0  0  0  0  0  0  0  0  0  0  0  0
   10.4160    5.0840    8.7760 C   0  0  0  0  0  0  0  0  0  0  0  0
   10.5060    5.8830   10.3130 C   0  0  1  0  0  0  0  0  0  0  0  0
   10.5570    4.6110   11.8730 C   0  0  1  0  0  0  0  0  0  0  0  0
   10.4720    2.9100   11.3160 C   0  0  0  0  0  0  0  0  0  0  0  0
   10.2680    2.5490    9.7980 C   0  0  0  0  0  0  0  0  0  0  0  0
   10.6400    1.6970   12.1290 C   0  0  0  0  0  0  0  0  0  0  0  0
   11.5600    2.1240   13.2770 C   0  0  0  0  0  0  0  0  0  0  0  0
   11.6600    3.8910   13.6000 C   0  0  2  0  0  3  0  0  0  0  0  0
   11.0990    5.1280   13.0610 C   0  0  0  0  0  2  0  0  0  0  0  0
   10.7680    5.7470   11.4660 C   0  0  1  0  0  3  0  0  0  0  0  0
   10.9370    7.1850   10.6500 C   0  0  0  0  0  1  0  0  0  0  0  0
   11.6410    7.4800    9.0600 C   0  0  0  0  0  2  0  0  0  0  0  0
    9.4140    4.5200   10.5450 C   0  0  0  0  0  0  0  0  0  0  0  0
   11.6770    4.4890   10.4380 C   0  0  2  0  0  3  0  0  0  0  0  0
    7.6360    0.7120    8.5630 O   0  0  0  0  0  1  0  0  0  0  0  0
    8.5780    0.0270    8.0170 C   0  0  0  0  0  0  0  0  0  0  0  0
    8.4310   -0.4750    6.8500 O   0  0  0  0  0  0  0  0  0  0  0  0
   10.2430   -1.5170    8.9650 C   0  0  0  0  0  0  0  0  0  0  0  0
   10.8510   -2.2150    8.0720 O   0  0  0  0  0  0  0  0  0  0  0  0
    9.8680   -2.0700   10.0680 O   0  0  0  0  0  1  0  0  0  0  0  0
    8.2500    5.4940    9.6980 C   0  0  0  0  0  0  0  0  0  0  0  0
    8.0310    6.6920   10.1070 O   0  0  0  0  0  1  0  0  0  0  0  0
    7.5410    5.0110    8.7260 O   0  0  0  0  0  0  0  0  0  0  0  0
    8.3040    4.1710   11.8300 C   0  0  0  0  0  0  0  0  0  0  0  0
    8.1080    5.0220   12.7690 O   0  0  0  0  0  1  0  0  0  0  0  0
    7.6230    3.0700   11.8000 O   0  0  0  0  0  0  0  0  0  0  0  0
  1 66  1  0  0  0  0
  1  2  1  0  0  0  0
  2 53  1  1  0  0  0
  2  3  1  0  0  0  0
  3 54  1  0  0  0  0
  4  3  2  0  0  0  0
  4  5  1  0  0  0  0
  5  6  1  0  0  0  0
  6  7  2  0  0  0  0
  6 55  1  0  0  0  0
  8  7  1  6  0  0  0
  8 56  1  0  0  0  0
  9  8  1  0  0  0  0
 10 29  1  0  0  0  0
 10  9  1  0  0  0  0
 11 10  1  0  0  0  0
 12 11  1  0  0  0  0
 12 62  1  0  0  0  0
 13 12  1  0  0  0  0
 14 33  1  0  0  0  0
 14 13  1  0  0  0  0
 15 16  1  0  0  0  0
 15 14  2  0  0  0  0
 16 60  1  0  0  0  0
 17 16  2  0  0  0  0
 17 49  1  0  0  0  0
 18 47  1  0  0  0  0
 18 17  1  0  0  0  0
 19 20  1  0  0  0  0
 19 36  1  0  0  0  0
 19 18  2  0  0  0  0
 20 37  2  0  0  0  0
 20 21  1  0  0  0  0
 21 46  1  0  0  0  0
 21 22  2  0  0  0  0
 22 39  1  0  0  0  0
 22 23  1  0  0  0  0
 23 24  2  0  0  0  0
 24 25  1  0  0  0  0
 24  4  1  0  0  0  0
 25 26  1  0  0  0  0
 26 27  1  0  0  0  0
 26  5  2  0  0  0  0
 27 28  2  0  0  0  0
 28  7  1  0  0  0  0
 29 28  1  0  0  0  0
 30 29  1  0  0  0  0
 31 32  1  0  0  0  0
 31 30  2  0  0  0  0
 32 11  1  0  0  0  0
 33 32  1  0  0  0  0
 34 44  1  0  0  0  0
 34 33  2  0  0  0  0
 35 34  1  0  0  0  0
 36 35  2  0  0  0  0
 36 15  1  0  0  0  0
 37 35  1  0  0  0  0
 37 38  1  0  0  0  0
 38 39  2  0  0  0  0
 38 43  1  0  0  0  0
 39 40  1  0  0  0  0
 40 41  1  0  0  0  0
 40 25  2  0  0  0  0
 41 42  2  0  0  0  0
 42 30  1  0  0  0  0
 42 27  1  0  0  0  0
 43 44  2  0  0  0  0
 43 41  1  0  0  0  0
 44 31  1  0  0  0  0
 45 23  1  0  0  0  0
 45  1  1  0  0  0  0
 45  2  1  0  0  0  0
 46 47  2  0  0  0  0
 46 45  1  0  0  0  0
 47 48  1  0  0  0  0
 48 49  2  0  0  0  0
 48 53  1  0  0  0  0
 49 50  1  0  0  0  0
 50 61  1  0  0  0  0
 50 59  1  0  0  0  0
 50 58  1  0  0  0  0
 51 57  1  0  0  0  0
 52 51  1  0  0  0  0
 52 54  1  0  0  0  0
 53 52  2  0  0  0  0
 54 55  2  0  0  0  0
 55 56  1  0  0  0  0
 57 56  1  0  0  0  0
 58 51  1  0  0  0  0
 60 13  1  0  0  0  0
 61 72  1  0  0  0  0
 61 51  1  0  0  0  0
 62 58  1  0  0  0  0
 62  9  1  0  0  0  0
 64 63  1  0  0  0  0
 64  1  1  0  0  0  0
 65 64  2  0  0  0  0
 66 68  1  0  0  0  0
 67 66  2  0  0  0  0
 69 70  1  0  0  0  0
 69 61  1  0  0  0  0
 71 69  2  0  0  0  0
 72 73  1  0  0  0  0
 74 72  2  0  0  0  0
M  END
>  <minimizedAffinity>
-11.270771

$$$$

 OpenBabel09132217423D

 74104  0  0  1  0  0  0  0  0999 V2000
   12.7320    7.9850    9.0630 C   0  0  0  0  0  0  0  0  0  0  0  0
   13.2430    6.7630    8.2720 C   0  0  1  0  0  0  0  0  0  0  0  0
   14.7480    6.3600    8.3160 C   0  0  0  0  0  0  0  0  0  0  0  0
   15.2350    5.7340    9.4230 C   0  0  0  0  0  0  0  0  0  0  0  0
   16.1890    4.7110    9.3600 C   0  0  0  0  0  0  0  0  0  0  0  0
   16.6530    4.1590    8.1230 C   0  0  0  0  0  0  0  0  0  0  0  0
   16.6090    2.7690    8.0020 C   0  0  0  0  0  0  0  0  0  0  0  0
   15.7730    2.6170    6.8670 C   0  0  1  0  0  3  0  0  0  0  0  0
   14.4720    2.3840    7.2670 C   0  0  2  0  0  3  0  0  0  0  0  0
   14.3640    1.2910    8.0920 C   0  0  2  0  0  3  0  0  0  0  0  0
   13.1400    0.7830    8.0670 C   0  0  2  0  0  3  0  0  0  0  0  0
   12.3360    1.4850    7.2030 C   0  0  1  0  0  3  0  0  0  0  0  0
   11.2050    0.7620    6.8230 C   0  0  1  0  0  3  0  0  0  0  0  0
   10.4690    0.3570    7.9860 C   0  0  0  0  0  0  0  0  0  0  0  0
    9.4830    1.3460    8.0780 C   0  0  0  0  0  0  0  0  0  0  0  0
    9.5000    2.0800    6.8170 C   0  0  0  0  0  0  0  0  0  0  0  0
    9.6130    3.4530    6.9820 C   0  0  0  0  0  0  0  0  0  0  0  0
    9.4640    4.1670    8.2240 C   0  0  0  0  0  0  0  0  0  0  0  0
    9.3440    3.4380    9.4160 C   0  0  0  0  0  0  0  0  0  0  0  0
   10.0830    3.8540   10.6150 C   0  0  0  0  0  0  0  0  0  0  0  0
   10.8910    4.9950   10.6330 C   0  0  0  0  0  0  0  0  0  0  0  0
   12.1420    5.0080   11.2920 C   0  0  0  0  0  0  0  0  0  0  0  0
   13.0670    5.8320   10.6430 C   0  0  0  0  0  0  0  0  0  0  0  0
   14.4390    5.5400   10.5790 C   0  0  0  0  0  0  0  0  0  0  0  0
   14.8620    4.3900   11.2090 C   0  0  0  0  0  0  0  0  0  0  0  0
   15.8970    3.8720   10.4710 C   0  0  0  0  0  0  0  0  0  0  0  0
   15.9820    2.4730   10.4160 C   0  0  0  0  0  0  0  0  0  0  0  0
   16.2380    1.9750    9.1820 C   0  0  0  0  0  0  0  0  0  0  0  0
   15.2730    1.0330    9.0850 C   0  0  1  0  0  3  0  0  0  0  0  0
   14.6680    0.6710   10.2460 C   0  0  0  0  0  0  0  0  0  0  0  0
   13.3010    0.1330   10.2330 C   0  0  0  0  0  0  0  0  0  0  0  0
   12.6320   -0.0200    9.0600 C   0  0  1  0  0  3  0  0  0  0  0  0
   11.2830    0.0110    9.1490 C   0  0  0  0  0  0  0  0  0  0  0  0
   11.1060    0.5650   10.3770 C   0  0  0  0  0  0  0  0  0  0  0  0
   10.2000    1.6480   10.4470 C   0  0  0  0  0  0  0  0  0  0  0  0
    9.4370    2.0520    9.3310 C   0  0  0  0  0  0  0  0  0  0  0  0
   10.5870    2.7200   11.2220 C   0  0  0  0  0  0  0  0  0  0  0  0
   11.8400    2.7400   11.9220 C   0  0  0  0  0  0  0  0  0  0  0  0
   12.5960    3.8710   11.9440 C   0  0  0  0  0  0  0  0  0  0  0  0
   13.9250    3.5610   11.9180 C   0  0  0  0  0  0  0  0  0  0  0  0
   14.0060    2.2100   11.8710 C   0  0  0  0  0  0  0  0  0  0  0  0
   15.0440    1.6660   11.0790 C   0  0  0  0  0  0  0  0  0  0  0  0
   12.7090    1.7010   11.8630 C   0  0  0  0  0  0  0  0  0  0  0  0
   12.3330    0.6050   11.0550 C   0  0  0  0  0  0  0  0  0  0  0  0
   12.3320    6.6090    9.5420 C   0  0  1  0  0  0  0  0  0  0  0  0
   10.8420    6.0560    9.5410 C   0  0  0  0  0  0  0  0  0  0  0  0
   10.2860    5.4870    8.2060 C   0  0  0  0  0  0  0  0  0  0  0  0
   11.3700    5.0920    7.2590 C   0  0  0  0  0  0  0  0  0  0  0  0
   10.8300    3.9220    6.4220 C   0  0  0  0  0  0  0  0  0  0  0  0
   11.8620    3.1300    5.2750 C   0  0  1  0  0  0  0  0  0  0  0  0
   13.7480    3.8350    5.2770 C   0  0  1  0  0  0  0  0  0  0  0  0
   13.9350    5.1610    6.4670 C   0  0  0  0  0  0  0  0  0  0  0  0
   12.7080    5.7190    7.2790 C   0  0  0  0  0  0  0  0  0  0  0  0
   15.1830    5.8210    6.8760 C   0  0  0  0  0  0  0  0  0  0  0  0
   16.2670    4.7580    6.6790 C   0  0  0  0  0  0  0  0  0  0  0  0
   15.8540    3.3980    5.5750 C   0  0  2  0  0  3  0  0  0  0  0  0
   14.7220    2.9660    4.7600 C   0  0  0  0  0  2  0  0  0  0  0  0
   12.9920    2.9230    4.9640 C   0  0  1  0  0  3  0  0  0  0  0  0
   11.7460    1.8690    4.6480 C   0  0  0  0  0  1  0  0  0  0  0  0
   10.4480    1.3370    5.7180 C   0  0  0  0  0  2  0  0  0  0  0  0
   12.3060    4.8340    5.2230 C   0  0  0  0  0  0  0  0  0  0  0  0
   12.8740    3.2930    6.7850 C   0  0  2  0  0  3  0  0  0  0  0  0
   11.4520    8.7910    7.2210 O   0  0  0  0  0  0  0  0  0  0  0  0
   11.7090    8.8740    8.4790 C   0  0  0  0  0  0  0  0  0  0  0  0
   11.0350    9.6540    9.2350 O   0  0  0  0  0  1  0  0  0  0  0  0
   13.6370    8.7140    9.9980 C   0  0  0  0  0  0  0  0  0  0  0  0
   13.4260    8.7100   11.2670 O   0  0  0  0  0  1  0  0  0  0  0  0
   14.5970    9.4250    9.5090 O   0  0  0  0  0  0  0  0  0  0  0  0
   10.8410    5.0410    4.3110 C   0  0  0  0  0  0  0  0  0  0  0  0
   10.5600    4.1890    3.3900 O   0  0  0  0  0  0  0  0  0  0  0  0
   10.0780    6.0750    4.4790 O   0  0  0  0  0  1  0  0  0  0  0  0
   13.2450    5.7190    4.0650 C   0  0  0  0  0  0  0  0  0  0  0  0
   13.6140    5.1670    2.9680 O   0  0  0  0  0  0  0  0  0  0  0  0
   13.5170    6.9660    4.2870 O   0  0  0  0  0  1  0  0  0  0  0  0
  1 45  1  0  0  0  0
  1 66  1  0  0  0  0
  2 53  1  6  0  0  0
  2  3  1  0  0  0  0
  2  1  1  0  0  0  0
  2 45  1  0  0  0  0
  3  4  1  0  0  0  0
  4 24  1  0  0  0  0
  5  4  2  0  0  0  0
  5 26  1  0  0  0  0
  6  5  1  0  0  0  0
  7  6  1  0  0  0  0
  7 28  2  0  0  0  0
  8  9  1  0  0  0  0
  8  7  1  1  0  0  0
  9 10  1  0  0  0  0
 10 29  1  0  0  0  0
 11 10  1  0  0  0  0
 11 32  1  0  0  0  0
 12 11  1  0  0  0  0
 13 12  1  0  0  0  0
 13 14  1  0  0  0  0
 14 15  1  0  0  0  0
 14 33  2  0  0  0  0
 15 36  2  0  0  0  0
 16 17  2  0  0  0  0
 16 15  1  0  0  0  0
 17 18  1  0  0  0  0
 18 19  1  0  0  0  0
 19 20  2  0  0  0  0
 20 21  1  0  0  0  0
 20 37  1  0  0  0  0
 21 22  1  0  0  0  0
 22 39  2  0  0  0  0
 23 22  1  0  0  0  0
 24 23  2  0  0  0  0
 24 25  1  0  0  0  0
 25 40  1  0  0  0  0
 26 25  2  0  0  0  0
 27 26  1  0  0  0  0
 27 42  2  0  0  0  0
 28 27  1  0  0  0  0
 29 28  1  0  0  0  0
 29 30  1  0  0  0  0
 30 42  1  0  0  0  0
 31 30  2  0  0  0  0
 31 44  1  0  0  0  0
 32 33  1  0  0  0  0
 32 31  1  0  0  0  0
 33 34  1  0  0  0  0
 34 35  2  0  0  0  0
 34 44  1  0  0  0  0
 35 37  1  0  0  0  0
 36 19  1  0  0  0  0
 36 35  1  0  0  0  0
 37 38  2  0  0  0  0
 38 39  1  0  0  0  0
 40 39  1  0  0  0  0
 41 40  2  0  0  0  0
 42 41  1  0  0  0  0
 43 41  1  0  0  0  0
 43 38  1  0  0  0  0
 44 43  2  0  0  0  0
 45 23  1  0  0  0  0
 46 45  1  0  0  0  0
 46 21  2  0  0  0  0
 47 18  2  0  0  0  0
 47 46  1  0  0  0  0
 48 53  1  0  0  0  0
 48 47  1  0  0  0  0
 49 17  1  0  0  0  0
 49 48  2  0  0  0  0
 50 49  1  0  0  0  0
 51 52  1  0  0  0  0
 52 54  1  0  0  0  0
 52 53  2  0  0  0  0
 54  3  2  0  0  0  0
 55 54  1  0  0  0  0
 55  6  2  0  0  0  0
 56 55  1  0  0  0  0
 56  8  1  0  0  0  0
 57 51  1  0  0  0  0
 57 56  1  0  0  0  0
 58 50  1  0  0  0  0
 58 51  1  0  0  0  0
 58 62  1  0  0  0  0
 59 50  1  0  0  0  0
 60 16  1  0  0  0  0
 60 13  1  0  0  0  0
 61 50  1  0  0  0  0
 61 51  1  0  0  0  0
 62 12  1  0  0  0  0
 62  9  1  0  0  0  0
 63 64  2  0  0  0  0
 64  1  1  0  0  0  0
 64 65  1  0  0  0  0
 66 67  1  0  0  0  0
 68 66  2  0  0  0  0
 69 71  1  0  0  0  0
 69 61  1  0  0  0  0
 70 69  2  0  0  0  0
 72 74  1  0  0  0  0
 72 61  1  0  0  0  0
 73 72  2  0  0  0  0
M  END
>  <minimizedAffinity>
-11.2583103

$$$$

 OpenBabel09132217423D

 74104  0  0  1  0  0  0  0  0999 V2000
    9.5430    0.3670    7.3910 C   0  0  0  0  0  0  0  0  0  0  0  0
    9.9430    1.7940    7.8210 C   0  0  1  0  0  0  0  0  0  0  0  0
    8.9890    2.6540    8.7050 C   0  0  0  0  0  0  0  0  0  0  0  0
    8.8870    2.3780   10.0340 C   0  0  0  0  0  0  0  0  0  0  0  0
    8.7540    3.3750   11.0090 C   0  0  0  0  0  0  0  0  0  0  0  0
    8.8230    4.7720   10.7040 C   0  0  0  0  0  0  0  0  0  0  0  0
    9.7060    5.5370   11.4680 C   0  0  0  0  0  0  0  0  0  0  0  0
   10.5560    6.0620   10.4610 C   0  0  1  0  0  3  0  0  0  0  0  0
   11.6950    5.2880   10.3540 C   0  0  2  0  0  3  0  0  0  0  0  0
   12.3710    5.1810   11.5450 C   0  0  2  0  0  3  0  0  0  0  0  0
   13.6510    4.8920   11.3520 C   0  0  2  0  0  3  0  0  0  0  0  0
   13.9360    4.8060   10.0120 C   0  0  1  0  0  3  0  0  0  0  0  0
   15.3020    4.9280    9.7510 C   0  0  1  0  0  3  0  0  0  0  0  0
   16.0320    3.9400   10.4910 C   0  0  0  0  0  0  0  0  0  0  0  0
   16.2090    2.9240    9.5430 C   0  0  0  0  0  0  0  0  0  0  0  0
   15.8580    3.4910    8.2450 C   0  0  0  0  0  0  0  0  0  0  0  0
   14.9260    2.7330    7.5500 C   0  0  0  0  0  0  0  0  0  0  0  0
   14.5100    1.3960    7.8830 C   0  0  0  0  0  0  0  0  0  0  0  0
   14.9450    0.8310    9.0910 C   0  0  0  0  0  0  0  0  0  0  0  0
   14.0080    0.0820    9.9380 C   0  0  0  0  0  0  0  0  0  0  0  0
   12.6760   -0.1320    9.5660 C   0  0  0  0  0  0  0  0  0  0  0  0
   11.6220   -0.0490   10.5040 C   0  0  0  0  0  0  0  0  0  0  0  0
   10.4450    0.4400    9.9260 C   0  0  0  0  0  0  0  0  0  0  0  0
    9.5390    1.2620   10.6150 C   0  0  0  0  0  0  0  0  0  0  0  0
    9.8450    1.5690   11.9230 C   0  0  0  0  0  0  0  0  0  0  0  0
    9.3980    2.8450   12.1620 C   0  0  0  0  0  0  0  0  0  0  0  0
   10.1800    3.6250   13.0270 C   0  0  0  0  0  0  0  0  0  0  0  0
   10.3810    4.8980   12.6070 C   0  0  0  0  0  0  0  0  0  0  0  0
   11.7230    4.9980   12.7390 C   0  0  1  0  0  3  0  0  0  0  0  0
   12.3240    4.0500   13.5030 C   0  0  0  0  0  0  0  0  0  0  0  0
   13.7340    3.7010   13.2790 C   0  0  0  0  0  0  0  0  0  0  0  0
   14.4540    4.3320   12.3160 C   0  0  1  0  0  3  0  0  0  0  0  0
   15.4980    3.6320   11.8160 C   0  0  0  0  0  0  0  0  0  0  0  0
   15.2010    2.3720   12.2280 C   0  0  0  0  0  0  0  0  0  0  0  0
   15.2600    1.3640   11.2400 C   0  0  0  0  0  0  0  0  0  0  0  0
   15.7140    1.6300    9.9320 C   0  0  0  0  0  0  0  0  0  0  0  0
   14.2420    0.4350   11.2520 C   0  0  0  0  0  0  0  0  0  0  0  0
   13.1770    0.4860   12.2150 C   0  0  0  0  0  0  0  0  0  0  0  0
   11.8940    0.2500   11.8310 C   0  0  0  0  0  0  0  0  0  0  0  0
   11.0290    1.0340   12.5390 C   0  0  0  0  0  0  0  0  0  0  0  0
   11.7840    1.7820   13.3770 C   0  0  0  0  0  0  0  0  0  0  0  0
   11.3550    3.1120   13.5990 C   0  0  0  0  0  0  0  0  0  0  0  0
   13.1200    1.4480   13.1680 C   0  0  0  0  0  0  0  0  0  0  0  0
   14.1470    2.4180   13.1530 C   0  0  0  0  0  0  0  0  0  0  0  0
   10.6520    0.5210    8.4070 C   0  0  1  0  0  0  0  0  0  0  0  0
   12.1660    0.1160    8.1530 C   0  0  0  0  0  0  0  0  0  0  0  0
   13.0620    1.1250    7.3830 C   0  0  0  0  0  0  0  0  0  0  0  0
   12.5210    2.5150    7.4240 C   0  0  0  0  0  0  0  0  0  0  0  0
   13.7250    3.4680    7.3690 C   0  0  0  0  0  0  0  0  0  0  0  0
   13.4810    5.1800    7.5020 C   0  0  1  0  0  0  0  0  0  0  0  0
   11.5600    5.6910    7.8230 C   0  0  1  0  0  0  0  0  0  0  0  0
   10.5120    4.2380    7.8770 C   0  0  0  0  0  0  0  0  0  0  0  0
   11.0790    2.8000    7.5850 C   0  0  0  0  0  0  0  0  0  0  0  0
    9.0890    4.1800    8.2430 C   0  0  0  0  0  0  0  0  0  0  0  0
    8.8880    5.3550    9.2050 C   0  0  0  0  0  0  0  0  0  0  0  0
   10.1280    6.6570    9.1390 C   0  0  2  0  0  3  0  0  0  0  0  0
   11.3550    6.9520    8.4040 C   0  0  0  0  0  2  0  0  0  0  0  0
   12.7360    6.0300    7.8740 C   0  0  1  0  0  3  0  0  0  0  0  0
   14.3860    6.2180    7.8150 C   0  0  0  0  0  1  0  0  0  0  0  0
   15.6470    5.1040    8.3460 C   0  0  0  0  0  2  0  0  0  0  0  0
   12.1050    4.5680    6.5880 C   0  0  0  0  0  0  0  0  0  0  0  0
   12.4540    4.4540    8.8240 C   0  0  2  0  0  3  0  0  0  0  0  0
   10.0570   -1.3770    5.8500 O   0  0  0  0  0  1  0  0  0  0  0  0
    9.8670   -0.1180    6.0360 C   0  0  0  0  0  0  0  0  0  0  0  0
    9.8730    0.6980    5.0510 O   0  0  0  0  0  0  0  0  0  0  0  0
    8.3080   -0.2690    7.9330 C   0  0  0  0  0  0  0  0  0  0  0  0
    8.3630   -1.3660    8.6020 O   0  0  0  0  0  1  0  0  0  0  0  0
    7.1630    0.2540    7.6480 O   0  0  0  0  0  0  0  0  0  0  0  0
   13.2180    4.4630    5.2580 C   0  0  0  0  0  0  0  0  0  0  0  0
   13.9030    5.5030    4.9400 O   0  0  0  0  0  1  0  0  0  0  0  0
   13.3060    3.3930    4.5300 O   0  0  0  0  0  0  0  0  0  0  0  0
   10.9230    5.4060    5.6350 C   0  0  0  0  0  0  0  0  0  0  0  0
   11.0520    6.6590    5.3920 O   0  0  0  0  0  1  0  0  0  0  0  0
    9.9410    4.7420    5.1130 O   0  0  0  0  0  0  0  0  0  0  0  0
  1  2  1  0  0  0  0
  1 66  1  0  0  0  0
  1 45  1  0  0  0  0
  2 53  1  6  0  0  0
  2 45  1  0  0  0  0
  2  3  1  0  0  0  0
  3  4  1  0  0  0  0
  4 24  2  0  0  0  0
  4  5  1  0  0  0  0
  5 26  2  0  0  0  0
  6  5  1  0  0  0  0
  6  7  1  0  0  0  0
  7 28  2  0  0  0  0
  8  7  1  6  0  0  0
  9  8  1  0  0  0  0
  9 10  1  0  0  0  0
 10 29  1  0  0  0  0
 11 10  1  0  0  0  0
 11 32  1  0  0  0  0
 12 11  1  0  0  0  0
 13 12  1  0  0  0  0
 13 14  1  0  0  0  0
 14 33  2  0  0  0  0
 15 36  1  0  0  0  0
 15 14  1  0  0  0  0
 16 60  1  0  0  0  0
 16 15  2  0  0  0  0
 17 18  1  0  0  0  0
 17 16  1  0  0  0  0
 18 19  2  0  0  0  0
 19 36  1  0  0  0  0
 19 20  1  0  0  0  0
 20 37  2  0  0  0  0
 21 20  1  0  0  0  0
 21 22  1  0  0  0  0
 22 39  1  0  0  0  0
 23 22  2  0  0  0  0
 23 24  1  0  0  0  0
 24 25  1  0  0  0  0
 25 26  1  0  0  0  0
 25 40  2  0  0  0  0
 26 27  1  0  0  0  0
 27 42  2  0  0  0  0
 28 29  1  0  0  0  0
 28 27  1  0  0  0  0
 29 30  1  0  0  0  0
 30 42  1  0  0  0  0
 31 30  2  0  0  0  0
 32 31  1  0  0  0  0
 33 34  1  0  0  0  0
 33 32  1  0  0  0  0
 34 44  2  0  0  0  0
 35 37  1  0  0  0  0
 35 34  1  0  0  0  0
 36 35  2  0  0  0  0
 37 38  1  0  0  0  0
 38 43  1  0  0  0  0
 39 38  2  0  0  0  0
 39 40  1  0  0  0  0
 40 41  1  0  0  0  0
 41 42  1  0  0  0  0
 43 41  2  0  0  0  0
 44 43  1  0  0  0  0
 44 31  1  0  0  0  0
 45 23  1  0  0  0  0
 46 45  1  0  0  0  0
 46 21  2  0  0  0  0
 47 48  2  0  0  0  0
 47 18  1  0  0  0  0
 47 46  1  0  0  0  0
 48 53  1  0  0  0  0
 49 48  1  0  0  0  0
 49 50  1  0  0  0  0
 49 17  2  0  0  0  0
 50 59  1  0  0  0  0
 50 58  1  0  0  0  0
 51 58  1  0  0  0  0
 51 52  1  0  0  0  0
 51 57  1  0  0  0  0
 52 54  1  0  0  0  0
 53 52  2  0  0  0  0
 54  3  2  0  0  0  0
 54 55  1  0  0  0  0
 55  6  2  0  0  0  0
 56 55  1  0  0  0  0
 56  8  1  0  0  0  0
 57 56  1  0  0  0  0
 58 62  1  0  0  0  0
 60 13  1  0  0  0  0
 61 50  1  0  0  0  0
 61 51  1  0  0  0  0
 62 12  1  0  0  0  0
 62  9  1  0  0  0  0
 63 64  1  0  0  0  0
 64  1  1  0  0  0  0
 65 64  2  0  0  0  0
 66 67  1  0  0  0  0
 68 66  2  0  0  0  0
 69 61  1  0  0  0  0
 70 69  1  0  0  0  0
 71 69  2  0  0  0  0
 72 61  1  0  0  0  0
 73 72  1  0  0  0  0
 74 72  2  0  0  0  0
M  END
>  <minimizedAffinity>
-11.142293

$$$$

 OpenBabel09132217423D

 74104  0  0  1  0  0  0  0  0999 V2000
   14.4860    1.7120   10.5650 C   0  0  0  0  0  0  0  0  0  0  0  0
   13.4840    2.4470    9.6490 C   0  0  1  0  0  0  0  0  0  0  0  0
   12.3240    1.6690    8.9570 C   0  0  0  0  0  0  0  0  0  0  0  0
   11.2410    1.2990    9.6940 C   0  0  0  0  0  0  0  0  0  0  0  0
    9.9340    1.3240    9.1900 C   0  0  0  0  0  0  0  0  0  0  0  0
    9.6120    1.8440    7.8960 C   0  0  0  0  0  0  0  0  0  0  0  0
    8.5890    2.7920    7.8390 C   0  0  0  0  0  0  0  0  0  0  0  0
    9.2690    3.8960    7.2630 C   0  0  1  0  0  3  0  0  0  0  0  0
    9.6890    4.7600    8.2550 C   0  0  2  0  0  3  0  0  0  0  0  0
    8.6550    5.1940    9.0480 C   0  0  2  0  0  3  0  0  0  0  0  0
    8.9450    6.3460    9.6370 C   0  0  2  0  0  3  0  0  0  0  0  0
   10.1910    6.7860    9.2650 C   0  0  1  0  0  3  0  0  0  0  0  0
   10.3660    8.1490    9.5030 C   0  0  1  0  0  3  0  0  0  0  0  0
   10.1160    8.4410   10.8850 C   0  0  0  0  0  0  0  0  0  0  0  0
   11.4050    8.4480   11.4300 C   0  0  0  0  0  0  0  0  0  0  0  0
   12.3390    8.4720   10.3080 C   0  0  0  0  0  0  0  0  0  0  0  0
   13.2970    7.4700   10.3710 C   0  0  0  0  0  0  0  0  0  0  0  0
   13.5700    6.6350   11.5110 C   0  0  0  0  0  0  0  0  0  0  0  0
   12.7170    6.7040   12.6230 C   0  0  0  0  0  0  0  0  0  0  0  0
   12.2780    5.4750   13.2970 C   0  0  0  0  0  0  0  0  0  0  0  0
   12.7140    4.2090   12.8930 C   0  0  0  0  0  0  0  0  0  0  0  0
   11.8370    3.1010   12.8540 C   0  0  0  0  0  0  0  0  0  0  0  0
   12.1580    2.2170   11.8180 C   0  0  0  0  0  0  0  0  0  0  0  0
   11.1890    1.5030   11.0950 C   0  0  0  0  0  0  0  0  0  0  0  0
    9.8740    1.6910   11.4590 C   0  0  0  0  0  0  0  0  0  0  0  0
    9.1140    1.6100   10.3180 C   0  0  0  0  0  0  0  0  0  0  0  0
    7.9940    2.4510   10.2550 C   0  0  0  0  0  0  0  0  0  0  0  0
    7.8280    3.0760    9.0640 C   0  0  0  0  0  0  0  0  0  0  0  0
    7.6580    4.3540    9.4720 C   0  0  1  0  0  3  0  0  0  0  0  0
    7.3690    4.5320   10.7870 C   0  0  0  0  0  0  0  0  0  0  0  0
    7.7110    5.7940   11.4570 C   0  0  0  0  0  0  0  0  0  0  0  0
    8.3080    6.8000   10.7660 C   0  0  1  0  0  3  0  0  0  0  0  0
    9.0530    7.6540   11.5060 C   0  0  0  0  0  0  0  0  0  0  0  0
    9.2210    6.9430   12.6510 C   0  0  0  0  0  0  0  0  0  0  0  0
   10.5450    6.8460   13.1350 C   0  0  0  0  0  0  0  0  0  0  0  0
   11.6110    7.5440   12.5300 C   0  0  0  0  0  0  0  0  0  0  0  0
   10.9370    5.6090   13.6000 C   0  0  0  0  0  0  0  0  0  0  0  0
   10.0520    4.4780   13.5940 C   0  0  0  0  0  0  0  0  0  0  0  0
   10.5080    3.2520   13.2210 C   0  0  0  0  0  0  0  0  0  0  0  0
    9.5380    2.5630   12.5520 C   0  0  0  0  0  0  0  0  0  0  0  0
    8.4560    3.3740   12.4970 C   0  0  0  0  0  0  0  0  0  0  0  0
    7.6890    3.3280   11.3090 C   0  0  0  0  0  0  0  0  0  0  0  0
    8.7800    4.5690   13.1370 C   0  0  0  0  0  0  0  0  0  0  0  0
    8.3720    5.8260   12.6380 C   0  0  0  0  0  0  0  0  0  0  0  0
   13.4940    2.6570   11.2060 C   0  0  1  0  0  0  0  0  0  0  0  0
   13.8880    4.0060   11.9460 C   0  0  0  0  0  0  0  0  0  0  0  0
   14.1470    5.2610   11.0670 C   0  0  0  0  0  0  0  0  0  0  0  0
   13.5190    5.1520    9.7180 C   0  0  0  0  0  0  0  0  0  0  0  0
   13.1530    6.5770    9.2770 C   0  0  0  0  0  0  0  0  0  0  0  0
   12.3030    6.8310    7.7860 C   0  0  1  0  0  0  0  0  0  0  0  0
   11.8060    5.1190    6.8490 C   0  0  1  0  0  0  0  0  0  0  0  0
   12.3850    3.6940    7.7680 C   0  0  0  0  0  0  0  0  0  0  0  0
   13.2600    3.8500    9.0670 C   0  0  0  0  0  0  0  0  0  0  0  0
   12.0880    2.2800    7.4990 C   0  0  0  0  0  0  0  0  0  0  0  0
   10.7170    2.2950    6.8160 C   0  0  0  0  0  0  0  0  0  0  0  0
   10.2120    3.8590    6.0830 C   0  0  2  0  0  3  0  0  0  0  0  0
   10.7430    5.2120    5.9370 C   0  0  0  0  0  2  0  0  0  0  0  0
   11.6080    6.3220    6.9640 C   0  0  1  0  0  3  0  0  0  0  0  0
   11.5700    7.9450    7.3210 C   0  0  0  0  0  1  0  0  0  0  0  0
   11.5590    8.7310    8.9010 C   0  0  0  0  0  2  0  0  0  0  0  0
   13.3990    5.4840    7.4900 C   0  0  0  0  0  0  0  0  0  0  0  0
   11.4250    5.4540    8.6010 C   0  0  2  0  0  3  0  0  0  0  0  0
   16.5060    2.2200    9.4070 O   0  0  0  0  0  0  0  0  0  0  0  0
   15.9160    2.0730   10.5410 C   0  0  0  0  0  0  0  0  0  0  0  0
   16.5320    2.3160   11.6350 O   0  0  0  0  0  1  0  0  0  0  0  0
   14.2760    0.2800   10.9220 C   0  0  0  0  0  0  0  0  0  0  0  0
   14.0810   -0.0810   12.1410 O   0  0  0  0  0  1  0  0  0  0  0  0
   14.3760   -0.6130    9.9950 O   0  0  0  0  0  0  0  0  0  0  0  0
   14.6400    6.6980    7.4100 C   0  0  0  0  0  0  0  0  0  0  0  0
   14.4780    7.6970    6.6180 O   0  0  0  0  0  0  0  0  0  0  0  0
   15.7540    6.5720    8.0610 O   0  0  0  0  0  1  0  0  0  0  0  0
   13.9100    4.7520    6.0030 C   0  0  0  0  0  0  0  0  0  0  0  0
   13.5540    5.2510    4.8770 O   0  0  0  0  0  0  0  0  0  0  0  0
   14.7090    3.7330    6.0380 O   0  0  0  0  0  1  0  0  0  0  0  0
  1 66  1  0  0  0  0
  1 45  1  0  0  0  0
  2  3  1  6  0  0  0
  2  1  1  0  0  0  0
  2 45  1  0  0  0  0
  3  4  1  0  0  0  0
  4 24  2  0  0  0  0
  5  4  1  0  0  0  0
  5 26  2  0  0  0  0
  6  5  1  0  0  0  0
  7  6  1  0  0  0  0
  7 28  2  0  0  0  0
  8  7  1  1  0  0  0
  8  9  1  0  0  0  0
  9 62  1  0  0  0  0
  9 10  1  0  0  0  0
 10 29  1  0  0  0  0
 10 11  1  0  0  0  0
 11 32  1  0  0  0  0
 12 13  1  0  0  0  0
 12 11  1  0  0  0  0
 13 14  1  0  0  0  0
 14 15  1  0  0  0  0
 14 33  2  0  0  0  0
 15 36  2  0  0  0  0
 16 17  2  0  0  0  0
 16 15  1  0  0  0  0
 17 18  1  0  0  0  0
 18 19  1  0  0  0  0
 19 20  2  0  0  0  0
 20 37  1  0  0  0  0
 21 20  1  0  0  0  0
 22 21  1  0  0  0  0
 22 39  1  0  0  0  0
 23 22  2  0  0  0  0
 24 25  1  0  0  0  0
 24 23  1  0  0  0  0
 25 40  2  0  0  0  0
 26 25  1  0  0  0  0
 27 26  1  0  0  0  0
 27 42  2  0  0  0  0
 28 29  1  0  0  0  0
 28 27  1  0  0  0  0
 29 30  1  0  0  0  0
 30 42  1  0  0  0  0
 30 31  2  0  0  0  0
 31 44  1  0  0  0  0
 32 31  1  0  0  0  0
 32 33  1  0  0  0  0
 33 34  1  0  0  0  0
 34 35  1  0  0  0  0
 35 37  2  0  0  0  0
 36 19  1  0  0  0  0
 36 35  1  0  0  0  0
 38 37  1  0  0  0  0
 39 38  2  0  0  0  0
 40 39  1  0  0  0  0
 41 40  1  0  0  0  0
 41 43  2  0  0  0  0
 42 41  1  0  0  0  0
 43 38  1  0  0  0  0
 44 34  2  0  0  0  0
 44 43  1  0  0  0  0
 45 23  1  0  0  0  0
 45 46  1  0  0  0  0
 46 21  2  0  0  0  0
 47 18  2  0  0  0  0
 47 46  1  0  0  0  0
 48 47  1  0  0  0  0
 49 48  2  0  0  0  0
 49 17  1  0  0  0  0
 50 49  1  0  0  0  0
 51 58  1  0  0  0  0
 51 61  1  0  0  0  0
 51 52  1  0  0  0  0
 52 53  2  0  0  0  0
 53  2  1  0  0  0  0
 53 48  1  0  0  0  0
 54 52  1  0  0  0  0
 54  3  2  0  0  0  0
 55 54  1  0  0  0  0
 55  6  2  0  0  0  0
 56 55  1  0  0  0  0
 56  8  1  0  0  0  0
 57 56  1  0  0  0  0
 57 51  1  0  0  0  0
 58 50  1  0  0  0  0
 58 62  1  0  0  0  0
 59 50  1  0  0  0  0
 60 13  1  0  0  0  0
 60 16  1  0  0  0  0
 61 50  1  0  0  0  0
 62 12  1  0  0  0  0
 63 64  2  0  0  0  0
 64  1  1  0  0  0  0
 64 65  1  0  0  0  0
 66 67  1  0  0  0  0
 68 66  2  0  0  0  0
 69 61  1  0  0  0  0
 69 71  1  0  0  0  0
 70 69  2  0  0  0  0
 72 74  1  0  0  0  0
 72 61  1  0  0  0  0
 73 72  2  0  0  0  0
M  END
>  <minimizedAffinity>
-10.8019743

$$$$

 OpenBabel09132217423D

 74104  0  0  1  0  0  0  0  0999 V2000
    9.8150    5.9870   11.2480 C   0  0  0  0  0  0  0  0  0  0  0  0
   10.7130    5.1020   10.3570 C   0  0  1  0  0  0  0  0  0  0  0  0
   12.2640    5.1460   10.4990 C   0  0  0  0  0  0  0  0  0  0  0  0
   12.8520    4.5220   11.5570 C   0  0  0  0  0  0  0  0  0  0  0  0
   14.0700    3.8390   11.4550 C   0  0  0  0  0  0  0  0  0  0  0  0
   14.7480    3.6440   10.2100 C   0  0  0  0  0  0  0  0  0  0  0  0
   15.1290    2.3370    9.9020 C   0  0  0  0  0  0  0  0  0  0  0  0
   14.4420    2.1300    8.6780 C   0  0  1  0  0  3  0  0  0  0  0  0
   13.2500    1.4740    8.9110 C   0  0  2  0  0  3  0  0  0  0  0  0
   13.4270    0.2810    9.5690 C   0  0  2  0  0  3  0  0  0  0  0  0
   12.4140   -0.5470    9.3530 C   0  0  2  0  0  3  0  0  0  0  0  0
   11.4880    0.0210    8.5130 C   0  0  1  0  0  3  0  0  0  0  0  0
   10.6490   -0.9280    7.9280 C   0  0  1  0  0  3  0  0  0  0  0  0
   10.0020   -1.7040    8.9470 C   0  0  0  0  0  0  0  0  0  0  0  0
    8.7620   -1.0660    9.0700 C   0  0  0  0  0  0  0  0  0  0  0  0
    8.6310   -0.1710    7.9240 C   0  0  0  0  0  0  0  0  0  0  0  0
    8.3180    1.1330    8.2810 C   0  0  0  0  0  0  0  0  0  0  0  0
    7.8920    1.5710    9.5840 C   0  0  0  0  0  0  0  0  0  0  0  0
    7.9270    0.6620   10.6520 C   0  0  0  0  0  0  0  0  0  0  0  0
    8.4380    1.0790   11.9640 C   0  0  0  0  0  0  0  0  0  0  0  0
    8.8660    2.3870   12.2140 C   0  0  0  0  0  0  0  0  0  0  0  0
   10.0150    2.6550   12.9910 C   0  0  0  0  0  0  0  0  0  0  0  0
   10.6880    3.8010   12.5540 C   0  0  0  0  0  0  0  0  0  0  0  0
   12.0850    3.9290   12.5910 C   0  0  0  0  0  0  0  0  0  0  0  0
   12.7960    2.8650   13.1030 C   0  0  0  0  0  0  0  0  0  0  0  0
   13.9790    2.7880   12.4110 C   0  0  0  0  0  0  0  0  0  0  0  0
   14.4820    1.5000   12.1800 C   0  0  0  0  0  0  0  0  0  0  0  0
   14.9450    1.2950   10.9230 C   0  0  0  0  0  0  0  0  0  0  0  0
   14.3130    0.1430   10.6050 C   0  0  1  0  0  3  0  0  0  0  0  0
   13.7780   -0.5540   11.6410 C   0  0  0  0  0  0  0  0  0  0  0  0
   12.6370   -1.4530   11.4190 C   0  0  0  0  0  0  0  0  0  0  0  0
   12.1140   -1.6070   10.1750 C   0  0  1  0  0  3  0  0  0  0  0  0
   10.8140   -1.9790   10.1310 C   0  0  0  0  0  0  0  0  0  0  0  0
   10.4100   -1.6980   11.3970 C   0  0  0  0  0  0  0  0  0  0  0  0
    9.2190   -0.9460   11.5170 C   0  0  0  0  0  0  0  0  0  0  0  0
    8.4350   -0.6080   10.3940 C   0  0  0  0  0  0  0  0  0  0  0  0
    9.2220    0.0570   12.4620 C   0  0  0  0  0  0  0  0  0  0  0  0
   10.3700    0.3270   13.2820 C   0  0  0  0  0  0  0  0  0  0  0  0
   10.7500    1.6090   13.5300 C   0  0  0  0  0  0  0  0  0  0  0  0
   12.1110    1.7020   13.5980 C   0  0  0  0  0  0  0  0  0  0  0  0
   12.5940    0.4560   13.3800 C   0  0  0  0  0  0  0  0  0  0  0  0
   13.7920    0.3630   12.6320 C   0  0  0  0  0  0  0  0  0  0  0  0
   11.5110   -0.3960   13.1740 C   0  0  0  0  0  0  0  0  0  0  0  0
   11.5280   -1.4140   12.1940 C   0  0  0  0  0  0  0  0  0  0  0  0
    9.8180    4.4960   11.4970 C   0  0  1  0  0  0  0  0  0  0  0  0
    8.5650    3.5460   11.2730 C   0  0  0  0  0  0  0  0  0  0  0  0
    8.2820    3.0580    9.8250 C   0  0  0  0  0  0  0  0  0  0  0  0
    9.4860    3.1430    8.9490 C   0  0  0  0  0  0  0  0  0  0  0  0
    9.3700    2.0130    7.9140 C   0  0  0  0  0  0  0  0  0  0  0  0
   10.6550    1.7400    6.7820 C   0  0  1  0  0  0  0  0  0  0  0  0
   12.2410    2.9480    7.0670 C   0  0  1  0  0  0  0  0  0  0  0  0
   11.9540    4.0690    8.4360 C   0  0  0  0  0  0  0  0  0  0  0  0
   10.5720    4.1170    9.1860 C   0  0  0  0  0  0  0  0  0  0  0  0
   12.9220    4.9870    9.0520 C   0  0  0  0  0  0  0  0  0  0  0  0
   14.2840    4.3250    8.8260 C   0  0  0  0  0  0  0  0  0  0  0  0
   14.3610    3.0930    7.5160 C   0  0  2  0  0  3  0  0  0  0  0  0
   13.4580    2.4870    6.5410 C   0  0  0  0  0  2  0  0  0  0  0  0
   11.8110    1.9180    6.5620 C   0  0  1  0  0  3  0  0  0  0  0  0
   10.9580    0.6140    5.9850 C   0  0  0  0  0  1  0  0  0  0  0  0
    9.8200   -0.4290    6.8390 C   0  0  0  0  0  2  0  0  0  0  0  0
   10.5720    3.4860    7.0010 C   0  0  0  0  0  0  0  0  0  0  0  0
   11.4840    1.9500    8.3940 C   0  0  2  0  0  3  0  0  0  0  0  0
    8.5000    6.7430    9.4090 O   0  0  0  0  0  0  0  0  0  0  0  0
    8.6090    6.6240   10.6860 C   0  0  0  0  0  0  0  0  0  0  0  0
    7.6530    6.9750   11.4600 O   0  0  0  0  0  1  0  0  0  0  0  0
   10.4060    6.7890   12.3580 C   0  0  0  0  0  0  0  0  0  0  0  0
   11.3170    7.6680   12.1320 O   0  0  0  0  0  0  0  0  0  0  0  0
   10.0490    6.5310   13.5710 O   0  0  0  0  0  1  0  0  0  0  0  0
    9.1670    3.4030    5.9810 C   0  0  0  0  0  0  0  0  0  0  0  0
    9.3000    2.9690    4.7790 O   0  0  0  0  0  0  0  0  0  0  0  0
    8.0160    3.8500    6.3760 O   0  0  0  0  0  1  0  0  0  0  0  0
   11.2680    4.7740    6.0710 C   0  0  0  0  0  0  0  0  0  0  0  0
   11.9010    4.5220    4.9840 O   0  0  0  0  0  0  0  0  0  0  0  0
   11.0880    5.9990    6.4480 O   0  0  0  0  0  1  0  0  0  0  0  0
  1 45  1  0  0  0  0
  1 66  1  0  0  0  0
  2 53  1  6  0  0  0
  2  3  1  0  0  0  0
  2  1  1  0  0  0  0
  2 45  1  0  0  0  0
  3  4  1  0  0  0  0
  4 24  1  0  0  0  0
  5  4  2  0  0  0  0
  5 26  1  0  0  0  0
  6  5  1  0  0  0  0
  7  6  1  0  0  0  0
  7 28  2  0  0  0  0
  8  9  1  0  0  0  0
  8  7  1  1  0  0  0
  9 10  1  0  0  0  0
 10 29  1  0  0  0  0
 11 10  1  0  0  0  0
 11 32  1  0  0  0  0
 12 11  1  0  0  0  0
 13 12  1  0  0  0  0
 13 14  1  0  0  0  0
 14 15  1  0  0  0  0
 14 33  2  0  0  0  0
 15 36  2  0  0  0  0
 16 17  2  0  0  0  0
 16 15  1  0  0  0  0
 17 18  1  0  0  0  0
 18 47  2  0  0  0  0
 18 19  1  0  0  0  0
 19 20  2  0  0  0  0
 20 21  1  0  0  0  0
 20 37  1  0  0  0  0
 21 22  1  0  0  0  0
 22 39  2  0  0  0  0
 23 24  2  0  0  0  0
 23 22  1  0  0  0  0
 24 25  1  0  0  0  0
 25 40  1  0  0  0  0
 26 25  2  0  0  0  0
 27 26  1  0  0  0  0
 27 42  2  0  0  0  0
 28 27  1  0  0  0  0
 29 28  1  0  0  0  0
 29 30  1  0  0  0  0
 30 42  1  0  0  0  0
 31 30  2  0  0  0  0
 31 44  1  0  0  0  0
 32 31  1  0  0  0  0
 33 32  1  0  0  0  0
 33 34  1  0  0  0  0
 34 35  2  0  0  0  0
 34 44  1  0  0  0  0
 35 37  1  0  0  0  0
 36 19  1  0  0  0  0
 36 35  1  0  0  0  0
 37 38  2  0  0  0  0
 38 39  1  0  0  0  0
 39 40  1  0  0  0  0
 41 40  2  0  0  0  0
 42 41  1  0  0  0  0
 43 38  1  0  0  0  0
 43 41  1  0  0  0  0
 44 43  2  0  0  0  0
 45 23  1  0  0  0  0
 46 45  1  0  0  0  0
 46 21  2  0  0  0  0
 47 46  1  0  0  0  0
 48 53  1  0  0  0  0
 48 47  1  0  0  0  0
 49 17  1  0  0  0  0
 49 48  2  0  0  0  0
 50 61  1  0  0  0  0
 50 49  1  0  0  0  0
 51 52  1  0  0  0  0
 52 54  1  0  0  0  0
 52 53  2  0  0  0  0
 54  3  2  0  0  0  0
 55 54  1  0  0  0  0
 55  6  2  0  0  0  0
 56  8  1  0  0  0  0
 56 55  1  0  0  0  0
 57 51  1  0  0  0  0
 57 56  1  0  0  0  0
 58 50  1  0  0  0  0
 58 51  1  0  0  0  0
 58 62  1  0  0  0  0
 59 50  1  0  0  0  0
 60 16  1  0  0  0  0
 60 13  1  0  0  0  0
 61 51  1  0  0  0  0
 62 12  1  0  0  0  0
 62  9  1  0  0  0  0
 63 64  2  0  0  0  0
 64  1  1  0  0  0  0
 64 65  1  0  0  0  0
 66 68  1  0  0  0  0
 67 66  2  0  0  0  0
 69 71  1  0  0  0  0
 69 61  1  0  0  0  0
 70 69  2  0  0  0  0
 72 74  1  0  0  0  0
 72 61  1  0  0  0  0
 73 72  2  0  0  0  0
M  END
>  <minimizedAffinity>
-10.710988

$$$$

 OpenBabel09132217423D

 74104  0  0  1  0  0  0  0  0999 V2000
   11.6790    3.2990    5.6800 C   0  0  0  0  0  0  0  0  0  0  0  0
   11.7380    2.5000    6.9980 C   0  0  1  0  0  0  0  0  0  0  0  0
   13.1040    2.0260    7.5790 C   0  0  0  0  0  0  0  0  0  0  0  0
   13.9130    2.9310    8.1960 C   0  0  0  0  0  0  0  0  0  0  0  0
   14.6740    2.6210    9.3300 C   0  0  0  0  0  0  0  0  0  0  0  0
   14.5840    1.3610   10.0040 C   0  0  0  0  0  0  0  0  0  0  0  0
   14.3700    1.4020   11.3830 C   0  0  0  0  0  0  0  0  0  0  0  0
   13.1570    0.6760   11.4950 C   0  0  1  0  0  3  0  0  0  0  0  0
   12.0880    1.5480   11.5440 C   0  0  2  0  0  3  0  0  0  0  0  0
   12.1980    2.4580   12.5680 C   0  0  2  0  0  3  0  0  0  0  0  0
   11.0140    2.9350   12.9220 C   0  0  2  0  0  3  0  0  0  0  0  0
   10.0120    2.3640   12.1770 C   0  0  1  0  0  3  0  0  0  0  0  0
    8.7600    2.5000   12.7770 C   0  0  1  0  0  3  0  0  0  0  0  0
    8.4820    3.8860   13.0220 C   0  0  0  0  0  0  0  0  0  0  0  0
    7.7000    4.2370   11.9160 C   0  0  0  0  0  0  0  0  0  0  0  0
    7.3080    2.9930   11.2620 C   0  0  0  0  0  0  0  0  0  0  0  0
    7.6010    2.9700    9.9060 C   0  0  0  0  0  0  0  0  0  0  0  0
    7.9970    4.1020    9.1100 C   0  0  0  0  0  0  0  0  0  0  0  0
    8.2690    5.3200    9.7510 C   0  0  0  0  0  0  0  0  0  0  0  0
    9.4410    6.1160    9.3620 C   0  0  0  0  0  0  0  0  0  0  0  0
   10.2980    5.7220    8.3290 C   0  0  0  0  0  0  0  0  0  0  0  0
   11.7000    5.8700    8.4320 C   0  0  0  0  0  0  0  0  0  0  0  0
   12.3840    4.8480    7.7660 C   0  0  0  0  0  0  0  0  0  0  0  0
   13.5970    4.3120    8.2260 C   0  0  0  0  0  0  0  0  0  0  0  0
   14.1190    4.8520    9.3820 C   0  0  0  0  0  0  0  0  0  0  0  0
   14.7470    3.8390   10.0640 C   0  0  0  0  0  0  0  0  0  0  0  0
   14.6750    3.8940   11.4630 C   0  0  0  0  0  0  0  0  0  0  0  0
   14.3990    2.7070   12.0580 C   0  0  0  0  0  0  0  0  0  0  0  0
   13.3870    3.0660   12.8780 C   0  0  1  0  0  3  0  0  0  0  0  0
   13.2330    4.3970   13.0970 C   0  0  0  0  0  0  0  0  0  0  0  0
   11.9180    4.9420   13.4640 C   0  0  0  0  0  0  0  0  0  0  0  0
   10.8460    4.1190   13.6000 C   0  0  1  0  0  3  0  0  0  0  0  0
    9.6390    4.6960   13.3990 C   0  0  0  0  0  0  0  0  0  0  0  0
    9.9910    5.8410   12.7590 C   0  0  0  0  0  0  0  0  0  0  0  0
    9.2810    6.1330   11.5710 C   0  0  0  0  0  0  0  0  0  0  0  0
    8.1960    5.3430   11.1400 C   0  0  0  0  0  0  0  0  0  0  0  0
   10.0290    6.6020   10.5130 C   0  0  0  0  0  0  0  0  0  0  0  0
   11.4510    6.7860   10.6070 C   0  0  0  0  0  0  0  0  0  0  0  0
   12.2590    6.4170    9.5780 C   0  0  0  0  0  0  0  0  0  0  0  0
   13.4460    5.9340   10.0480 C   0  0  0  0  0  0  0  0  0  0  0  0
   13.3780    5.9930   11.3990 C   0  0  0  0  0  0  0  0  0  0  0  0
   13.9860    4.9320   12.1110 C   0  0  0  0  0  0  0  0  0  0  0  0
   12.1330    6.5130   11.7450 C   0  0  0  0  0  0  0  0  0  0  0  0
   11.3810    6.0120   12.8320 C   0  0  0  0  0  0  0  0  0  0  0  0
   11.3630    4.0250    6.9680 C   0  0  1  0  0  0  0  0  0  0  0  0
    9.9390    4.6270    7.3340 C   0  0  0  0  0  0  0  0  0  0  0  0
    8.8710    3.6530    7.9040 C   0  0  0  0  0  0  0  0  0  0  0  0
    9.4760    2.4180    8.4820 C   0  0  0  0  0  0  0  0  0  0  0  0
    8.5550    1.9580    9.6220 C   0  0  0  0  0  0  0  0  0  0  0  0
    9.0000    0.5950   10.5980 C   0  0  1  0  0  0  0  0  0  0  0  0
   10.8040   -0.1680   10.1300 C   0  0  1  0  0  0  0  0  0  0  0  0
   11.5470    0.7340    8.7720 C   0  0  0  0  0  0  0  0  0  0  0  0
   10.7750    1.8820    8.0230 C   0  0  0  0  0  0  0  0  0  0  0  0
   12.9130    0.5870    8.2470 C   0  0  0  0  0  0  0  0  0  0  0  0
   13.7400    0.1100    9.4450 C   0  0  0  0  0  0  0  0  0  0  0  0
   12.8170   -0.6250   10.8040 C   0  0  2  0  0  3  0  0  0  0  0  0
   11.4260   -0.9190   11.1400 C   0  0  0  0  0  2  0  0  0  0  0  0
    9.9050   -0.0890   10.9590 C   0  0  1  0  0  3  0  0  0  0  0  0
    8.5410    0.1810   11.8680 C   0  0  0  0  0  1  0  0  0  0  0  0
    7.6990    1.7010   12.1760 C   0  0  0  0  0  2  0  0  0  0  0  0
    9.5470    0.2160    8.9670 C   0  0  0  0  0  0  0  0  0  0  0  0
   10.5170    1.6010   10.4750 C   0  0  2  0  0  3  0  0  0  0  0  0
    9.9290    1.9520    4.7820 O   0  0  0  0  0  1  0  0  0  0  0  0
   10.5980    3.0490    4.7070 C   0  0  0  0  0  0  0  0  0  0  0  0
   10.2820    3.9510    3.8570 O   0  0  0  0  0  0  0  0  0  0  0  0
   12.9330    3.7590    5.0160 C   0  0  0  0  0  0  0  0  0  0  0  0
   13.1640    5.0100    4.8240 O   0  0  0  0  0  1  0  0  0  0  0  0
   13.7530    2.8760    4.5560 O   0  0  0  0  0  0  0  0  0  0  0  0
    7.8730   -0.1080    8.6340 C   0  0  0  0  0  0  0  0  0  0  0  0
    7.2370   -0.9260    9.3960 O   0  0  0  0  0  1  0  0  0  0  0  0
    7.2800    0.3850    7.5920 O   0  0  0  0  0  0  0  0  0  0  0  0
   10.0580   -1.2880    8.2700 C   0  0  0  0  0  0  0  0  0  0  0  0
    9.9820   -2.3760    8.9440 O   0  0  0  0  0  1  0  0  0  0  0  0
   10.4550   -1.3140    7.0380 O   0  0  0  0  0  0  0  0  0  0  0  0
  1 45  1  0  0  0  0
  1  2  1  0  0  0  0
  2  3  1  1  0  0  0
  2 53  1  0  0  0  0
  3  4  2  0  0  0  0
  3 54  1  0  0  0  0
  4 24  1  0  0  0  0
  4  5  1  0  0  0  0
  5  6  2  0  0  0  0
  5 26  1  0  0  0  0
  6  7  1  0  0  0  0
  7 28  2  0  0  0  0
  8  7  1  6  0  0  0
  8  9  1  0  0  0  0
  9 10  1  0  0  0  0
 10 29  1  0  0  0  0
 10 11  1  0  0  0  0
 11 32  1  0  0  0  0
 12 13  1  0  0  0  0
 12 11  1  0  0  0  0
 13 14  1  0  0  0  0
 14 33  1  0  0  0  0
 15 14  2  0  0  0  0
 16 15  1  0  0  0  0
 16 60  1  0  0  0  0
 17 16  2  0  0  0  0
 18 19  1  0  0  0  0
 18 17  1  0  0  0  0
 19 36  1  0  0  0  0
 20 19  2  0  0  0  0
 20 37  1  0  0  0  0
 21 22  1  0  0  0  0
 21 20  1  0  0  0  0
 22 39  1  0  0  0  0
 23 24  1  0  0  0  0
 23 22  2  0  0  0  0
 24 25  2  0  0  0  0
 25 40  1  0  0  0  0
 25 26  1  0  0  0  0
 26 27  2  0  0  0  0
 27 28  1  0  0  0  0
 27 42  1  0  0  0  0
 28 29  1  0  0  0  0
 29 30  1  0  0  0  0
 30 31  1  0  0  0  0
 31 32  1  0  0  0  0
 33 32  1  0  0  0  0
 34 44  1  0  0  0  0
 34 33  2  0  0  0  0
 35 34  1  0  0  0  0
 36 35  2  0  0  0  0
 36 15  1  0  0  0  0
 37 38  2  0  0  0  0
 37 35  1  0  0  0  0
 38 43  1  0  0  0  0
 39 40  2  0  0  0  0
 39 38  1  0  0  0  0
 40 41  1  0  0  0  0
 41 43  2  0  0  0  0
 41 42  1  0  0  0  0
 42 30  2  0  0  0  0
 43 44  1  0  0  0  0
 44 31  2  0  0  0  0
 45  2  1  0  0  0  0
 45 46  1  0  0  0  0
 45 23  1  0  0  0  0
 46 47  1  0  0  0  0
 46 21  2  0  0  0  0
 47 48  1  0  0  0  0
 47 18  2  0  0  0  0
 48 49  2  0  0  0  0
 49 17  1  0  0  0  0
 49 50  1  0  0  0  0
 50 58  1  0  0  0  0
 50 59  1  0  0  0  0
 51 58  1  0  0  0  0
 51 57  1  0  0  0  0
 52 51  1  0  0  0  0
 53 48  1  0  0  0  0
 53 52  2  0  0  0  0
 54 52  1  0  0  0  0
 54 55  2  0  0  0  0
 55  6  1  0  0  0  0
 55 56  1  0  0  0  0
 56 57  1  0  0  0  0
 56  8  1  0  0  0  0
 60 13  1  0  0  0  0
 61 51  1  0  0  0  0
 61 50  1  0  0  0  0
 62 58  1  0  0  0  0
 62  9  1  0  0  0  0
 62 12  1  0  0  0  0
 64 63  1  0  0  0  0
 64  1  1  0  0  0  0
 65 64  2  0  0  0  0
 66  1  1  0  0  0  0
 67 66  1  0  0  0  0
 68 66  2  0  0  0  0
 69 61  1  0  0  0  0
 69 70  1  0  0  0  0
 71 69  2  0  0  0  0
 72 73  1  0  0  0  0
 72 61  1  0  0  0  0
 74 72  2  0  0  0  0
M  END
>  <minimizedAffinity>
-10.5939407

$$$$

 OpenBabel09132217423D

 74104  0  0  1  0  0  0  0  0999 V2000
    8.6830    3.0730    8.7150 C   0  0  0  0  0  0  0  0  0  0  0  0
    9.7670    3.7740    9.5600 C   0  0  1  0  0  0  0  0  0  0  0  0
   10.1050    3.2700   10.9960 C   0  0  0  0  0  0  0  0  0  0  0  0
   10.8490    2.1390   11.1440 C   0  0  0  0  0  0  0  0  0  0  0  0
   11.8110    1.9880   12.1500 C   0  0  0  0  0  0  0  0  0  0  0  0
   12.1750    3.0480   13.0400 C   0  0  0  0  0  0  0  0  0  0  0  0
   13.5370    3.3280   13.1580 C   0  0  0  0  0  0  0  0  0  0  0  0
   13.5750    4.6880   12.7570 C   0  0  1  0  0  3  0  0  0  0  0  0
   13.9170    4.7770   11.4220 C   0  0  2  0  0  3  0  0  0  0  0  0
   15.1130    4.1610   11.1440 C   0  0  2  0  0  3  0  0  0  0  0  0
   15.6670    4.6530   10.0440 C   0  0  2  0  0  3  0  0  0  0  0  0
   14.8930    5.6550    9.5120 C   0  0  1  0  0  3  0  0  0  0  0  0
   15.6100    6.4700    8.6350 C   0  0  1  0  0  3  0  0  0  0  0  0
   16.1960    5.6750    7.5950 C   0  0  0  0  0  0  0  0  0  0  0  0
   15.2720    5.8130    6.5530 C   0  0  0  0  0  0  0  0  0  0  0  0
   14.3790    6.9070    6.9210 C   0  0  0  0  0  0  0  0  0  0  0  0
   13.0360    6.5640    6.8550 C   0  0  0  0  0  0  0  0  0  0  0  0
   12.4990    5.3760    6.2450 C   0  0  0  0  0  0  0  0  0  0  0  0
   13.3830    4.3810    5.8020 C   0  0  0  0  0  0  0  0  0  0  0  0
   13.0970    2.9650    6.0680 C   0  0  0  0  0  0  0  0  0  0  0  0
   11.9330    2.5510    6.7240 C   0  0  0  0  0  0  0  0  0  0  0  0
   11.9510    1.5120    7.6820 C   0  0  0  0  0  0  0  0  0  0  0  0
   11.0090    1.7180    8.6950 C   0  0  0  0  0  0  0  0  0  0  0  0
   11.2290    1.3470   10.0310 C   0  0  0  0  0  0  0  0  0  0  0  0
   12.4320    0.7400   10.3210 C   0  0  0  0  0  0  0  0  0  0  0  0
   12.8020    1.1380   11.5820 C   0  0  0  0  0  0  0  0  0  0  0  0
   14.1760    1.3140   11.8000 C   0  0  0  0  0  0  0  0  0  0  0  0
   14.4950    2.4360   12.4890 C   0  0  0  0  0  0  0  0  0  0  0  0
   15.4590    2.9550   11.6940 C   0  0  1  0  0  3  0  0  0  0  0  0
   15.9960    2.1130   10.7740 C   0  0  0  0  0  0  0  0  0  0  0  0
   16.5880    2.6440    9.5390 C   0  0  0  0  0  0  0  0  0  0  0  0
   16.6150    3.9830    9.3090 C   0  0  1  0  0  3  0  0  0  0  0  0
   16.6560    4.3510    8.0080 C   0  0  0  0  0  0  0  0  0  0  0  0
   16.2760    3.2020    7.3900 C   0  0  0  0  0  0  0  0  0  0  0  0
   15.2530    3.3240    6.4220 C   0  0  0  0  0  0  0  0  0  0  0  0
   14.7400    4.5800    6.0370 C   0  0  0  0  0  0  0  0  0  0  0  0
   14.2770    2.3520    6.4390 C   0  0  0  0  0  0  0  0  0  0  0  0
   14.2930    1.2720    7.3860 C   0  0  0  0  0  0  0  0  0  0  0  0
   13.1430    0.8730    7.9920 C   0  0  0  0  0  0  0  0  0  0  0  0
   13.3870    0.4840    9.2770 C   0  0  0  0  0  0  0  0  0  0  0  0
   14.7150    0.6480    9.4850 C   0  0  0  0  0  0  0  0  0  0  0  0
   15.1040    1.0980   10.7690 C   0  0  0  0  0  0  0  0  0  0  0  0
   15.2760    1.1480    8.3110 C   0  0  0  0  0  0  0  0  0  0  0  0
   16.2720    2.1500    8.3180 C   0  0  0  0  0  0  0  0  0  0  0  0
   10.1270    2.9100    8.2990 C   0  0  1  0  0  0  0  0  0  0  0  0
   10.7410    3.4730    6.9460 C   0  0  0  0  0  0  0  0  0  0  0  0
   11.1530    4.9710    6.9110 C   0  0  0  0  0  0  0  0  0  0  0  0
   11.3720    5.5340    8.2750 C   0  0  0  0  0  0  0  0  0  0  0  0
   12.4440    6.6270    8.1430 C   0  0  0  0  0  0  0  0  0  0  0  0
   13.0320    7.4380    9.5590 C   0  0  1  0  0  0  0  0  0  0  0  0
   12.2510    6.7240   11.2720 C   0  0  1  0  0  0  0  0  0  0  0  0
   11.0850    5.4030   10.9420 C   0  0  0  0  0  0  0  0  0  0  0  0
   10.6940    4.9960    9.4730 C   0  0  0  0  0  0  0  0  0  0  0  0
   10.4300    4.5280   11.9250 C   0  0  0  0  0  0  0  0  0  0  0  0
   11.4090    4.4630   13.1000 C   0  0  0  0  0  0  0  0  0  0  0  0
   12.6290    5.7830   13.1920 C   0  0  2  0  0  3  0  0  0  0  0  0
   13.0000    6.9740   12.4320 C   0  0  0  0  0  2  0  0  0  0  0  0
   13.1450    7.3710   10.7420 C   0  0  1  0  0  3  0  0  0  0  0  0
   14.2030    8.2010    9.7640 C   0  0  0  0  0  1  0  0  0  0  0  0
   14.9280    7.6960    8.2380 C   0  0  0  0  0  2  0  0  0  0  0  0
   11.3180    7.1510    9.8470 C   0  0  0  0  0  0  0  0  0  0  0  0
   13.0240    5.6680   10.0000 C   0  0  2  0  0  3  0  0  0  0  0  0
    7.6250    3.5460    6.6320 O   0  0  0  0  0  0  0  0  0  0  0  0
    7.7720    3.8670    7.8690 C   0  0  0  0  0  0  0  0  0  0  0  0
    7.0770    4.8080    8.3880 O   0  0  0  0  0  1  0  0  0  0  0  0
    8.0450    1.8140    9.1960 C   0  0  0  0  0  0  0  0  0  0  0  0
    8.0700    0.7410    8.4860 O   0  0  0  0  0  0  0  0  0  0  0  0
    7.3870    1.8340   10.3070 O   0  0  0  0  0  1  0  0  0  0  0  0
   11.0580    8.4750    8.7520 C   0  0  0  0  0  0  0  0  0  0  0  0
   11.5710    9.6200    9.0320 O   0  0  0  0  0  1  0  0  0  0  0  0
   10.2910    8.3560    7.7140 O   0  0  0  0  0  0  0  0  0  0  0  0
   10.2470    7.8210   11.0360 C   0  0  0  0  0  0  0  0  0  0  0  0
   10.6590    8.7260   11.8450 O   0  0  0  0  0  1  0  0  0  0  0  0
    9.0070    7.4470   11.0560 O   0  0  0  0  0  0  0  0  0  0  0  0
  1 66  1  0  0  0  0
  1  2  1  0  0  0  0
  2 53  1  6  0  0  0
  2  3  1  0  0  0  0
  3  4  2  0  0  0  0
  3 54  1  0  0  0  0
  4  5  1  0  0  0  0
  5  6  1  0  0  0  0
  6 55  1  0  0  0  0
  6  7  2  0  0  0  0
  8  7  1  6  0  0  0
  8 56  1  0  0  0  0
  9  8  1  0  0  0  0
 10  9  1  0  0  0  0
 10 29  1  0  0  0  0
 11 10  1  0  0  0  0
 12 62  1  0  0  0  0
 12 11  1  0  0  0  0
 13 12  1  0  0  0  0
 14 33  1  0  0  0  0
 14 13  1  0  0  0  0
 15 16  1  0  0  0  0
 15 14  2  0  0  0  0
 16 60  1  0  0  0  0
 17 16  2  0  0  0  0
 17 49  1  0  0  0  0
 18 17  1  0  0  0  0
 18 47  1  0  0  0  0
 19 36  1  0  0  0  0
 19 20  1  0  0  0  0
 19 18  2  0  0  0  0
 20 37  2  0  0  0  0
 20 21  1  0  0  0  0
 21 46  1  0  0  0  0
 21 22  2  0  0  0  0
 22 39  1  0  0  0  0
 22 23  1  0  0  0  0
 23 24  2  0  0  0  0
 24 25  1  0  0  0  0
 24  4  1  0  0  0  0
 25 26  1  0  0  0  0
 26 27  1  0  0  0  0
 26  5  2  0  0  0  0
 27 28  2  0  0  0  0
 28  7  1  0  0  0  0
 29 28  1  0  0  0  0
 30 29  1  0  0  0  0
 31 30  2  0  0  0  0
 32 31  1  0  0  0  0
 32 11  1  0  0  0  0
 33 32  1  0  0  0  0
 34 33  2  0  0  0  0
 34 44  1  0  0  0  0
 35 37  1  0  0  0  0
 35 34  1  0  0  0  0
 36 35  2  0  0  0  0
 36 15  1  0  0  0  0
 37 38  1  0  0  0  0
 38 39  2  0  0  0  0
 38 43  1  0  0  0  0
 39 40  1  0  0  0  0
 40 41  1  0  0  0  0
 40 25  2  0  0  0  0
 41 42  2  0  0  0  0
 42 30  1  0  0  0  0
 42 27  1  0  0  0  0
 43 44  2  0  0  0  0
 43 41  1  0  0  0  0
 44 31  1  0  0  0  0
 45 23  1  0  0  0  0
 45  1  1  0  0  0  0
 45  2  1  0  0  0  0
 46 45  1  0  0  0  0
 47 46  2  0  0  0  0
 47 48  1  0  0  0  0
 48 53  1  0  0  0  0
 49 48  2  0  0  0  0
 49 50  1  0  0  0  0
 50 59  1  0  0  0  0
 50 61  1  0  0  0  0
 50 58  1  0  0  0  0
 51 57  1  0  0  0  0
 52 51  1  0  0  0  0
 52 54  1  0  0  0  0
 53 52  2  0  0  0  0
 54 55  2  0  0  0  0
 55 56  1  0  0  0  0
 57 56  1  0  0  0  0
 58 51  1  0  0  0  0
 60 13  1  0  0  0  0
 61 72  1  0  0  0  0
 61 51  1  0  0  0  0
 62 58  1  0  0  0  0
 62  9  1  0  0  0  0
 63 64  2  0  0  0  0
 64 65  1  0  0  0  0
 64  1  1  0  0  0  0
 66 68  1  0  0  0  0
 67 66  2  0  0  0  0
 69 70  1  0  0  0  0
 69 61  1  0  0  0  0
 71 69  2  0  0  0  0
 72 74  2  0  0  0  0
 72 73  1  0  0  0  0
M  END
>  <minimizedAffinity>
-10.5340328

$$$$

 OpenBabel09132217423D

 74104  0  0  1  0  0  0  0  0999 V2000
    8.0310    1.2460    9.8670 C   0  0  0  0  0  0  0  0  0  0  0  0
    8.9530    2.3990    9.4170 C   0  0  1  0  0  0  0  0  0  0  0  0
    8.7370    3.8450    9.9560 C   0  0  0  0  0  0  0  0  0  0  0  0
    9.1300    4.1460   11.2240 C   0  0  0  0  0  0  0  0  0  0  0  0
    9.7000    5.3780   11.5720 C   0  0  0  0  0  0  0  0  0  0  0  0
   10.0190    6.3840   10.6050 C   0  0  0  0  0  0  0  0  0  0  0  0
   11.3150    6.9010   10.6440 C   0  0  0  0  0  0  0  0  0  0  0  0
   11.7750    6.5930    9.3380 C   0  0  1  0  0  3  0  0  0  0  0  0
   12.4990    5.4180    9.3580 C   0  0  2  0  0  3  0  0  0  0  0  0
   13.5530    5.4640   10.2380 C   0  0  2  0  0  3  0  0  0  0  0  0
   14.4980    4.5940    9.9100 C   0  0  2  0  0  3  0  0  0  0  0  0
   14.1600    3.9110    8.7680 C   0  0  1  0  0  3  0  0  0  0  0  0
   15.2650    3.3170    8.1580 C   0  0  1  0  0  3  0  0  0  0  0  0
   15.9320    2.4520    9.0890 C   0  0  0  0  0  0  0  0  0  0  0  0
   15.4050    1.1960    8.7630 C   0  0  0  0  0  0  0  0  0  0  0  0
   14.7160    1.3440    7.4860 C   0  0  0  0  0  0  0  0  0  0  0  0
   13.4080    0.8790    7.5110 C   0  0  0  0  0  0  0  0  0  0  0  0
   12.8170    0.0850    8.5560 C   0  0  0  0  0  0  0  0  0  0  0  0
   13.5420   -0.1320    9.7370 C   0  0  0  0  0  0  0  0  0  0  0  0
   12.8780   -0.0270   11.0440 C   0  0  0  0  0  0  0  0  0  0  0  0
   11.5120    0.2480   11.1640 C   0  0  0  0  0  0  0  0  0  0  0  0
   11.0170    1.1210   12.1590 C   0  0  0  0  0  0  0  0  0  0  0  0
    9.8930    1.8300   11.7210 C   0  0  0  0  0  0  0  0  0  0  0  0
    9.6270    3.1530   12.1050 C   0  0  0  0  0  0  0  0  0  0  0  0
   10.5240    3.7460   12.9660 C   0  0  0  0  0  0  0  0  0  0  0  0
   10.5930    5.0780   12.6380 C   0  0  0  0  0  0  0  0  0  0  0  0
   11.8470    5.6890   12.7790 C   0  0  0  0  0  0  0  0  0  0  0  0
   12.1990    6.4930   11.7460 C   0  0  0  0  0  0  0  0  0  0  0  0
   13.4420    6.0330   11.4800 C   0  0  1  0  0  3  0  0  0  0  0  0
   14.0180    5.2670   12.4420 C   0  0  0  0  0  0  0  0  0  0  0  0
   15.0460    4.2800   12.0870 C   0  0  0  0  0  0  0  0  0  0  0  0
   15.4410    4.1310   10.7960 C   0  0  1  0  0  3  0  0  0  0  0  0
   15.9400    2.9150   10.4740 C   0  0  0  0  0  0  0  0  0  0  0  0
   15.5050    2.1610   11.5180 C   0  0  0  0  0  0  0  0  0  0  0  0
   14.8630    0.9480   11.1830 C   0  0  0  0  0  0  0  0  0  0  0  0
   14.7810    0.4920    9.8510 C   0  0  0  0  0  0  0  0  0  0  0  0
   13.7300    0.6380   11.9040 C   0  0  0  0  0  0  0  0  0  0  0  0
   13.2260    1.4970   12.9390 C   0  0  0  0  0  0  0  0  0  0  0  0
   11.8910    1.7290   13.0490 C   0  0  0  0  0  0  0  0  0  0  0  0
   11.6570    3.0100   13.4580 C   0  0  0  0  0  0  0  0  0  0  0  0
   12.8690    3.5970   13.5990 C   0  0  0  0  0  0  0  0  0  0  0  0
   12.9600    4.9580   13.2250 C   0  0  0  0  0  0  0  0  0  0  0  0
   13.8430    2.6580   13.2660 C   0  0  0  0  0  0  0  0  0  0  0  0
   14.9950    2.9980   12.5210 C   0  0  0  0  0  0  0  0  0  0  0  0
    9.4580    1.2540   10.3670 C   0  0  1  0  0  0  0  0  0  0  0  0
   10.5480    0.1620    9.9890 C   0  0  0  0  0  0  0  0  0  0  0  0
   11.2800    0.3180    8.6270 C   0  0  0  0  0  0  0  0  0  0  0  0
   11.2160    1.7120    8.1010 C   0  0  0  0  0  0  0  0  0  0  0  0
   12.4990    1.9450    7.2870 C   0  0  0  0  0  0  0  0  0  0  0  0
   12.8190    3.5070    6.6040 C   0  0  1  0  0  0  0  0  0  0  0  0
   11.4340    4.8880    7.0830 C   0  0  1  0  0  0  0  0  0  0  0  0
   10.1470    4.1760    8.1070 C   0  0  0  0  0  0  0  0  0  0  0  0
   10.1160    2.6390    8.4430 C   0  0  0  0  0  0  0  0  0  0  0  0
    9.0550    4.8870    8.7870 C   0  0  0  0  0  0  0  0  0  0  0  0
    9.6100    6.2890    9.0510 C   0  0  0  0  0  0  0  0  0  0  0  0
   11.0160    6.7890    8.0460 C   0  0  2  0  0  3  0  0  0  0  0  0
   11.8510    6.2250    6.9880 C   0  0  0  0  0  2  0  0  0  0  0  0
   12.5660    4.6680    6.6710 C   0  0  1  0  0  3  0  0  0  0  0  0
   14.0210    4.0760    6.1270 C   0  0  0  0  0  1  0  0  0  0  0  0
   15.0230    2.7990    6.8170 C   0  0  0  0  0  2  0  0  0  0  0  0
   11.0760    3.2780    6.4820 C   0  0  0  0  0  0  0  0  0  0  0  0
   12.2820    3.8430    8.3150 C   0  0  2  0  0  3  0  0  0  0  0  0
    7.4040   -0.9870    9.3180 O   0  0  0  0  0  1  0  0  0  0  0  0
    7.6080    0.2130    8.9020 C   0  0  0  0  0  0  0  0  0  0  0  0
    7.3700    0.5340    7.6870 O   0  0  0  0  0  0  0  0  0  0  0  0
    7.0130    1.4630   10.9350 C   0  0  0  0  0  0  0  0  0  0  0  0
    6.0950    2.3550   10.8070 O   0  0  0  0  0  0  0  0  0  0  0  0
    7.1150    0.7980   12.0370 O   0  0  0  0  0  1  0  0  0  0  0  0
   11.4520    2.2180    5.1570 C   0  0  0  0  0  0  0  0  0  0  0  0
   12.2190    2.6480    4.2200 O   0  0  0  0  0  0  0  0  0  0  0  0
   10.9080    1.0460    5.0520 O   0  0  0  0  0  1  0  0  0  0  0  0
    9.8880    4.1400    5.5590 C   0  0  0  0  0  0  0  0  0  0  0  0
   10.2440    5.0450    4.7240 O   0  0  0  0  0  0  0  0  0  0  0  0
    8.6390    3.8160    5.6710 O   0  0  0  0  0  1  0  0  0  0  0  0
  1 45  1  0  0  0  0
  1 66  1  0  0  0  0
  2 53  1  6  0  0  0
  2  1  1  0  0  0  0
  2  3  1  0  0  0  0
  2 45  1  0  0  0  0
  3  4  1  0  0  0  0
  4  5  2  0  0  0  0
  4 24  1  0  0  0  0
  5 26  1  0  0  0  0
  6  7  1  0  0  0  0
  6  5  1  0  0  0  0
  7 28  2  0  0  0  0
  8  9  1  0  0  0  0
  8  7  1  1  0  0  0
  9 10  1  0  0  0  0
 10 29  1  0  0  0  0
 11 10  1  0  0  0  0
 11 32  1  0  0  0  0
 12 11  1  0  0  0  0
 13 12  1  0  0  0  0
 13 14  1  0  0  0  0
 14 33  2  0  0  0  0
 15 14  1  0  0  0  0
 15 36  2  0  0  0  0
 16 17  2  0  0  0  0
 16 15  1  0  0  0  0
 17 18  1  0  0  0  0
 18 47  2  0  0  0  0
 18 19  1  0  0  0  0
 19 36  1  0  0  0  0
 19 20  2  0  0  0  0
 20 21  1  0  0  0  0
 20 37  1  0  0  0  0
 21 22  1  0  0  0  0
 22 39  2  0  0  0  0
 23 24  2  0  0  0  0
 23 22  1  0  0  0  0
 24 25  1  0  0  0  0
 25 40  1  0  0  0  0
 26 27  1  0  0  0  0
 26 25  2  0  0  0  0
 27 42  2  0  0  0  0
 28 27  1  0  0  0  0
 29 28  1  0  0  0  0
 29 30  1  0  0  0  0
 30 42  1  0  0  0  0
 31 30  2  0  0  0  0
 31 44  1  0  0  0  0
 32 31  1  0  0  0  0
 33 32  1  0  0  0  0
 33 34  1  0  0  0  0
 34 44  1  0  0  0  0
 35 34  2  0  0  0  0
 35 37  1  0  0  0  0
 36 35  1  0  0  0  0
 37 38  2  0  0  0  0
 38 39  1  0  0  0  0
 38 43  1  0  0  0  0
 39 40  1  0  0  0  0
 40 41  2  0  0  0  0
 42 41  1  0  0  0  0
 43 41  1  0  0  0  0
 44 43  2  0  0  0  0
 45 23  1  0  0  0  0
 46 45  1  0  0  0  0
 46 21  2  0  0  0  0
 47 46  1  0  0  0  0
 48 53  1  0  0  0  0
 48 47  1  0  0  0  0
 49 17  1  0  0  0  0
 49 48  2  0  0  0  0
 50 58  1  0  0  0  0
 50 49  1  0  0  0  0
 51 52  1  0  0  0  0
 52 53  2  0  0  0  0
 52 54  1  0  0  0  0
 54 55  1  0  0  0  0
 54  3  2  0  0  0  0
 55  6  2  0  0  0  0
 56 55  1  0  0  0  0
 56  8  1  0  0  0  0
 57 51  1  0  0  0  0
 57 56  1  0  0  0  0
 58 51  1  0  0  0  0
 58 62  1  0  0  0  0
 59 50  1  0  0  0  0
 60 16  1  0  0  0  0
 60 13  1  0  0  0  0
 61 50  1  0  0  0  0
 61 51  1  0  0  0  0
 62 12  1  0  0  0  0
 62  9  1  0  0  0  0
 64 63  1  0  0  0  0
 64  1  1  0  0  0  0
 65 64  2  0  0  0  0
 66 68  1  0  0  0  0
 67 66  2  0  0  0  0
 69 61  1  0  0  0  0
 70 69  2  0  0  0  0
 71 69  1  0  0  0  0
 72 74  1  0  0  0  0
 72 61  1  0  0  0  0
 73 72  2  0  0  0  0
M  END
>  <minimizedAffinity>
-10.5166645

$$$$

 OpenBabel09132217423D

 74104  0  0  1  0  0  0  0  0999 V2000
    9.8150    1.9650    6.7910 C   0  0  0  0  0  0  0  0  0  0  0  0
    9.7560    1.9570    8.3330 C   0  0  1  0  0  0  0  0  0  0  0  0
    9.7040    0.6120    9.1200 C   0  0  0  0  0  0  0  0  0  0  0  0
   10.8400   -0.1260    9.2480 C   0  0  0  0  0  0  0  0  0  0  0  0
   11.1630   -0.8280   10.4170 C   0  0  0  0  0  0  0  0  0  0  0  0
   10.3820   -0.7420   11.6130 C   0  0  0  0  0  0  0  0  0  0  0  0
   11.0700   -0.4440   12.7900 C   0  0  0  0  0  0  0  0  0  0  0  0
   10.4170    0.7480   13.1980 C   0  0  1  0  0  3  0  0  0  0  0  0
   11.1400    1.8470   12.7790 C   0  0  2  0  0  3  0  0  0  0  0  0
   12.4350    1.8300   13.2360 C   0  0  2  0  0  3  0  0  0  0  0  0
   12.9540    3.0500   13.2720 C   0  0  2  0  0  3  0  0  0  0  0  0
   12.0350    3.9850   12.8630 C   0  0  1  0  0  3  0  0  0  0  0  0
   12.3690    5.2740   13.2760 C   0  0  1  0  0  3  0  0  0  0  0  0
   13.6820    5.6140   12.8080 C   0  0  0  0  0  0  0  0  0  0  0  0
   13.4090    6.3400   11.6430 C   0  0  0  0  0  0  0  0  0  0  0  0
   11.9820    6.6490   11.6620 C   0  0  0  0  0  0  0  0  0  0  0  0
   11.3250    6.2750   10.4990 C   0  0  0  0  0  0  0  0  0  0  0  0
   11.9540    5.8710    9.2680 C   0  0  0  0  0  0  0  0  0  0  0  0
   13.3430    5.6800    9.2460 C   0  0  0  0  0  0  0  0  0  0  0  0
   13.9210    4.5160    8.5630 C   0  0  0  0  0  0  0  0  0  0  0  0
   13.1290    3.5850    7.8820 C   0  0  0  0  0  0  0  0  0  0  0  0
   13.3910    2.1980    7.9500 C   0  0  0  0  0  0  0  0  0  0  0  0
   12.2170    1.4400    7.8880 C   0  0  0  0  0  0  0  0  0  0  0  0
   12.0430    0.2390    8.5930 C   0  0  0  0  0  0  0  0  0  0  0  0
   13.1040   -0.1940    9.3600 C   0  0  0  0  0  0  0  0  0  0  0  0
   12.5850   -0.8140   10.4690 C   0  0  0  0  0  0  0  0  0  0  0  0
   13.3040   -0.6570   11.6630 C   0  0  0  0  0  0  0  0  0  0  0  0
   12.5380   -0.3880   12.7480 C   0  0  0  0  0  0  0  0  0  0  0  0
   13.1880    0.6840   13.2550 C   0  0  1  0  0  3  0  0  0  0  0  0
   14.4470    0.8970   12.7950 C   0  0  0  0  0  0  0  0  0  0  0  0
   15.0220    2.2490   12.8040 C   0  0  0  0  0  0  0  0  0  0  0  0
   14.3050    3.2980   13.2840 C   0  0  1  0  0  3  0  0  0  0  0  0
   14.6400    4.5110   12.7860 C   0  0  0  0  0  0  0  0  0  0  0  0
   15.3530    4.1610   11.6830 C   0  0  0  0  0  0  0  0  0  0  0  0
   14.9930    4.8080   10.4790 C   0  0  0  0  0  0  0  0  0  0  0  0
   14.0300    5.8380   10.4460 C   0  0  0  0  0  0  0  0  0  0  0  0
   14.9360    4.0150    9.3530 C   0  0  0  0  0  0  0  0  0  0  0  0
   15.2260    2.6090    9.3970 C   0  0  0  0  0  0  0  0  0  0  0  0
   14.4550    1.7270    8.7050 C   0  0  0  0  0  0  0  0  0  0  0  0
   14.3310    0.5550    9.3930 C   0  0  0  0  0  0  0  0  0  0  0  0
   15.0300    0.7060   10.5430 C   0  0  0  0  0  0  0  0  0  0  0  0
   14.4830    0.1050   11.7010 C   0  0  0  0  0  0  0  0  0  0  0  0
   15.5780    1.9870   10.5480 C   0  0  0  0  0  0  0  0  0  0  0  0
   15.6200    2.7850   11.7140 C   0  0  0  0  0  0  0  0  0  0  0  0
   11.0520    2.3820    7.5530 C   0  0  1  0  0  0  0  0  0  0  0  0
   11.6700    3.8450    7.5300 C   0  0  0  0  0  0  0  0  0  0  0  0
   11.0310    4.9110    8.4630 C   0  0  0  0  0  0  0  0  0  0  0  0
   10.2670    4.3000    9.5890 C   0  0  0  0  0  0  0  0  0  0  0  0
   10.3600    5.2710   10.7750 C   0  0  0  0  0  0  0  0  0  0  0  0
    9.6670    4.8380   12.3050 C   0  0  1  0  0  0  0  0  0  0  0  0
    8.8820    2.9840   12.3310 C   0  0  1  0  0  0  0  0  0  0  0  0
    9.0580    2.1920   10.7330 C   0  0  0  0  0  0  0  0  0  0  0  0
    9.6540    2.9580    9.4940 C   0  0  0  0  0  0  0  0  0  0  0  0
    8.7580    0.7930   10.3940 C   0  0  0  0  0  0  0  0  0  0  0  0
    8.9680    0.0240   11.7010 C   0  0  0  0  0  0  0  0  0  0  0  0
    8.9270    1.0000   13.2130 C   0  0  2  0  0  3  0  0  0  0  0  0
    8.7500    2.3980   13.5990 C   0  0  0  0  0  2  0  0  0  0  0  0
    9.2970    3.9330   12.9840 C   0  0  1  0  0  3  0  0  0  0  0  0
    9.8920    5.3580   13.5990 C   0  0  0  0  0  1  0  0  0  0  0  0
   11.3180    6.2690   13.1010 C   0  0  0  0  0  2  0  0  0  0  0  0
    8.5810    4.1810   11.0830 C   0  0  0  0  0  0  0  0  0  0  0  0
   10.5770    3.3520   11.7630 C   0  0  2  0  0  3  0  0  0  0  0  0
    9.4300    3.2540    4.8240 O   0  0  0  0  0  0  0  0  0  0  0  0
    9.0620    2.9760    6.0250 C   0  0  0  0  0  0  0  0  0  0  0  0
    8.0090    3.5020    6.5250 O   0  0  0  0  0  1  0  0  0  0  0  0
    9.9710    0.6900    6.0330 C   0  0  0  0  0  0  0  0  0  0  0  0
   10.9840    0.4910    5.2660 O   0  0  0  0  0  0  0  0  0  0  0  0
    9.0260   -0.1880    6.0900 O   0  0  0  0  0  1  0  0  0  0  0  0
    8.0380    5.8210   10.8900 C   0  0  0  0  0  0  0  0  0  0  0  0
    7.9970    6.3240    9.7080 O   0  0  0  0  0  0  0  0  0  0  0  0
    7.7600    6.5680   11.9130 O   0  0  0  0  0  1  0  0  0  0  0  0
    6.9610    3.5780   11.2220 C   0  0  0  0  0  0  0  0  0  0  0  0
    6.3220    3.6790   12.3290 O   0  0  0  0  0  1  0  0  0  0  0  0
    6.3760    3.0820   10.1780 O   0  0  0  0  0  0  0  0  0  0  0  0
  1 45  1  0  0  0  0
  1  2  1  0  0  0  0
  2  3  1  1  0  0  0
  2 53  1  0  0  0  0
  3  4  2  0  0  0  0
  3 54  1  0  0  0  0
  4  5  1  0  0  0  0
  5 26  2  0  0  0  0
  5  6  1  0  0  0  0
  6 55  1  0  0  0  0
  6  7  2  0  0  0  0
  8  7  1  6  0  0  0
  8 56  1  0  0  0  0
  9  8  1  0  0  0  0
  9 10  1  0  0  0  0
 10 29  1  0  0  0  0
 10 11  1  0  0  0  0
 11 32  1  0  0  0  0
 12 11  1  0  0  0  0
 12 13  1  0  0  0  0
 14 13  1  0  0  0  0
 15 16  1  0  0  0  0
 15 14  2  0  0  0  0
 16 60  1  0  0  0  0
 17 49  1  0  0  0  0
 17 16  2  0  0  0  0
 18 17  1  0  0  0  0
 19 18  1  0  0  0  0
 19 36  1  0  0  0  0
 20 19  2  0  0  0  0
 20 37  1  0  0  0  0
 21 22  1  0  0  0  0
 21 20  1  0  0  0  0
 22 39  1  0  0  0  0
 23 22  2  0  0  0  0
 23 24  1  0  0  0  0
 24  4  1  0  0  0  0
 24 25  2  0  0  0  0
 25 40  1  0  0  0  0
 25 26  1  0  0  0  0
 26 27  1  0  0  0  0
 27 42  1  0  0  0  0
 27 28  2  0  0  0  0
 28  7  1  0  0  0  0
 28 29  1  0  0  0  0
 30 31  1  0  0  0  0
 30 29  1  0  0  0  0
 31 32  1  0  0  0  0
 33 14  1  0  0  0  0
 33 32  1  0  0  0  0
 34 44  1  0  0  0  0
 34 33  2  0  0  0  0
 35 34  1  0  0  0  0
 36 35  2  0  0  0  0
 36 15  1  0  0  0  0
 37 38  2  0  0  0  0
 37 35  1  0  0  0  0
 38 43  1  0  0  0  0
 39 40  2  0  0  0  0
 39 38  1  0  0  0  0
 40 41  1  0  0  0  0
 41 43  2  0  0  0  0
 41 42  1  0  0  0  0
 42 30  2  0  0  0  0
 43 44  1  0  0  0  0
 44 31  2  0  0  0  0
 45 23  1  0  0  0  0
 45  2  1  0  0  0  0
 46 45  1  0  0  0  0
 46 21  2  0  0  0  0
 46 47  1  0  0  0  0
 47 18  2  0  0  0  0
 47 48  1  0  0  0  0
 48 49  2  0  0  0  0
 49 50  1  0  0  0  0
 50 58  1  0  0  0  0
 50 59  1  0  0  0  0
 51 58  1  0  0  0  0
 51 57  1  0  0  0  0
 52 51  1  0  0  0  0
 53 48  1  0  0  0  0
 53 52  2  0  0  0  0
 54 52  1  0  0  0  0
 54 55  2  0  0  0  0
 55 56  1  0  0  0  0
 56 57  1  0  0  0  0
 60 13  1  0  0  0  0
 61 72  1  0  0  0  0
 61 50  1  0  0  0  0
 61 51  1  0  0  0  0
 62  9  1  0  0  0  0
 62 12  1  0  0  0  0
 62 58  1  0  0  0  0
 63 64  2  0  0  0  0
 64 65  1  0  0  0  0
 64  1  1  0  0  0  0
 66 68  1  0  0  0  0
 66  1  1  0  0  0  0
 67 66  2  0  0  0  0
 69 61  1  0  0  0  0
 69 71  1  0  0  0  0
 70 69  2  0  0  0  0
 72 73  1  0  0  0  0
 74 72  2  0  0  0  0
M  END
>  <minimizedAffinity>
-10.5018492

$$$$
