
 OpenBabel09182209113D

 74104  0  0  1  0  0  0  0  0999 V2000
    9.5430    0.3670    7.3910 C   0  0  0  0  0  0  0  0  0  0  0  0
    9.9430    1.7940    7.8210 C   0  0  1  0  0  0  0  0  0  0  0  0
    8.9890    2.6540    8.7050 C   0  0  0  0  0  0  0  0  0  0  0  0
    8.8870    2.3780   10.0340 C   0  0  0  0  0  0  0  0  0  0  0  0
    8.7540    3.3750   11.0090 C   0  0  0  0  0  0  0  0  0  0  0  0
    8.8230    4.7720   10.7040 C   0  0  0  0  0  0  0  0  0  0  0  0
    9.7060    5.5370   11.4680 C   0  0  0  0  0  0  0  0  0  0  0  0
   10.5560    6.0620   10.4610 C   0  0  1  0  0  3  0  0  0  0  0  0
   11.6950    5.2880   10.3540 C   0  0  2  0  0  3  0  0  0  0  0  0
   12.3710    5.1810   11.5450 C   0  0  2  0  0  3  0  0  0  0  0  0
   13.6510    4.8920   11.3520 C   0  0  2  0  0  3  0  0  0  0  0  0
   13.9360    4.8060   10.0120 C   0  0  1  0  0  3  0  0  0  0  0  0
   15.3020    4.9280    9.7510 C   0  0  1  0  0  3  0  0  0  0  0  0
   16.0320    3.9400   10.4910 C   0  0  0  0  0  0  0  0  0  0  0  0
   16.2090    2.9240    9.5430 C   0  0  0  0  0  0  0  0  0  0  0  0
   15.8580    3.4910    8.2450 C   0  0  0  0  0  0  0  0  0  0  0  0
   14.9260    2.7330    7.5500 C   0  0  0  0  0  0  0  0  0  0  0  0
   14.5100    1.3960    7.8830 C   0  0  0  0  0  0  0  0  0  0  0  0
   14.9450    0.8310    9.0910 C   0  0  0  0  0  0  0  0  0  0  0  0
   14.0080    0.0820    9.9380 C   0  0  0  0  0  0  0  0  0  0  0  0
   12.6760   -0.1320    9.5660 C   0  0  0  0  0  0  0  0  0  0  0  0
   11.6220   -0.0490   10.5040 C   0  0  0  0  0  0  0  0  0  0  0  0
   10.4450    0.4400    9.9260 C   0  0  0  0  0  0  0  0  0  0  0  0
    9.5390    1.2620   10.6150 C   0  0  0  0  0  0  0  0  0  0  0  0
    9.8450    1.5690   11.9230 C   0  0  0  0  0  0  0  0  0  0  0  0
    9.3980    2.8450   12.1620 C   0  0  0  0  0  0  0  0  0  0  0  0
   10.1800    3.6250   13.0270 C   0  0  0  0  0  0  0  0  0  0  0  0
   10.3810    4.8980   12.6070 C   0  0  0  0  0  0  0  0  0  0  0  0
   11.7230    4.9980   12.7390 C   0  0  1  0  0  3  0  0  0  0  0  0
   12.3240    4.0500   13.5030 C   0  0  0  0  0  0  0  0  0  0  0  0
   13.7340    3.7010   13.2790 C   0  0  0  0  0  0  0  0  0  0  0  0
   14.4540    4.3320   12.3160 C   0  0  1  0  0  3  0  0  0  0  0  0
   15.4980    3.6320   11.8160 C   0  0  0  0  0  0  0  0  0  0  0  0
   15.2010    2.3720   12.2280 C   0  0  0  0  0  0  0  0  0  0  0  0
   15.2600    1.3640   11.2400 C   0  0  0  0  0  0  0  0  0  0  0  0
   15.7140    1.6300    9.9320 C   0  0  0  0  0  0  0  0  0  0  0  0
   14.2420    0.4350   11.2520 C   0  0  0  0  0  0  0  0  0  0  0  0
   13.1770    0.4860   12.2150 C   0  0  0  0  0  0  0  0  0  0  0  0
   11.8940    0.2500   11.8310 C   0  0  0  0  0  0  0  0  0  0  0  0
   11.0290    1.0340   12.5390 C   0  0  0  0  0  0  0  0  0  0  0  0
   11.7840    1.7820   13.3770 C   0  0  0  0  0  0  0  0  0  0  0  0
   11.3550    3.1120   13.5990 C   0  0  0  0  0  0  0  0  0  0  0  0
   13.1200    1.4480   13.1680 C   0  0  0  0  0  0  0  0  0  0  0  0
   14.1470    2.4180   13.1530 C   0  0  0  0  0  0  0  0  0  0  0  0
   10.6520    0.5210    8.4070 C   0  0  1  0  0  0  0  0  0  0  0  0
   12.1660    0.1160    8.1530 C   0  0  0  0  0  0  0  0  0  0  0  0
   13.0620    1.1250    7.3830 C   0  0  0  0  0  0  0  0  0  0  0  0
   12.5210    2.5150    7.4240 C   0  0  0  0  0  0  0  0  0  0  0  0
   13.7250    3.4680    7.3690 C   0  0  0  0  0  0  0  0  0  0  0  0
   13.4810    5.1800    7.5020 C   0  0  1  0  0  0  0  0  0  0  0  0
   11.5600    5.6910    7.8230 C   0  0  1  0  0  0  0  0  0  0  0  0
   10.5120    4.2380    7.8770 C   0  0  0  0  0  0  0  0  0  0  0  0
   11.0790    2.8000    7.5850 C   0  0  0  0  0  0  0  0  0  0  0  0
    9.0890    4.1800    8.2430 C   0  0  0  0  0  0  0  0  0  0  0  0
    8.8880    5.3550    9.2050 C   0  0  0  0  0  0  0  0  0  0  0  0
   10.1280    6.6570    9.1390 C   0  0  2  0  0  3  0  0  0  0  0  0
   11.3550    6.9520    8.4040 C   0  0  0  0  0  2  0  0  0  0  0  0
   12.7360    6.0300    7.8740 C   0  0  1  0  0  3  0  0  0  0  0  0
   14.3860    6.2180    7.8150 C   0  0  0  0  0  1  0  0  0  0  0  0
   15.6470    5.1040    8.3460 C   0  0  0  0  0  2  0  0  0  0  0  0
   12.1050    4.5680    6.5880 C   0  0  0  0  0  0  0  0  0  0  0  0
   12.4540    4.4540    8.8240 C   0  0  2  0  0  3  0  0  0  0  0  0
   10.0570   -1.3770    5.8500 O   0  0  0  0  0  1  0  0  0  0  0  0
    9.8670   -0.1180    6.0360 C   0  0  0  0  0  0  0  0  0  0  0  0
    9.8730    0.6980    5.0510 O   0  0  0  0  0  0  0  0  0  0  0  0
    8.3080   -0.2690    7.9330 C   0  0  0  0  0  0  0  0  0  0  0  0
    8.3630   -1.3660    8.6020 O   0  0  0  0  0  1  0  0  0  0  0  0
    7.1630    0.2540    7.6480 O   0  0  0  0  0  0  0  0  0  0  0  0
   13.2180    4.4630    5.2580 C   0  0  0  0  0  0  0  0  0  0  0  0
   13.9030    5.5030    4.9400 O   0  0  0  0  0  1  0  0  0  0  0  0
   13.3060    3.3930    4.5300 O   0  0  0  0  0  0  0  0  0  0  0  0
   10.9230    5.4060    5.6350 C   0  0  0  0  0  0  0  0  0  0  0  0
   11.0520    6.6590    5.3920 O   0  0  0  0  0  1  0  0  0  0  0  0
    9.9410    4.7420    5.1130 O   0  0  0  0  0  0  0  0  0  0  0  0
  1  2  1  0  0  0  0
  1 66  1  0  0  0  0
  1 45  1  0  0  0  0
  2 53  1  6  0  0  0
  2 45  1  0  0  0  0
  2  3  1  0  0  0  0
  3  4  1  0  0  0  0
  4 24  2  0  0  0  0
  4  5  1  0  0  0  0
  5 26  2  0  0  0  0
  6  5  1  0  0  0  0
  6  7  1  0  0  0  0
  7 28  2  0  0  0  0
  8  7  1  6  0  0  0
  9  8  1  0  0  0  0
  9 10  1  0  0  0  0
 10 29  1  0  0  0  0
 11 10  1  0  0  0  0
 11 32  1  0  0  0  0
 12 11  1  0  0  0  0
 13 12  1  0  0  0  0
 13 14  1  0  0  0  0
 14 33  2  0  0  0  0
 15 36  1  0  0  0  0
 15 14  1  0  0  0  0
 16 60  1  0  0  0  0
 16 15  2  0  0  0  0
 17 18  1  0  0  0  0
 17 16  1  0  0  0  0
 18 19  2  0  0  0  0
 19 36  1  0  0  0  0
 19 20  1  0  0  0  0
 20 37  2  0  0  0  0
 21 20  1  0  0  0  0
 21 22  1  0  0  0  0
 22 39  1  0  0  0  0
 23 22  2  0  0  0  0
 23 24  1  0  0  0  0
 24 25  1  0  0  0  0
 25 26  1  0  0  0  0
 25 40  2  0  0  0  0
 26 27  1  0  0  0  0
 27 42  2  0  0  0  0
 28 29  1  0  0  0  0
 28 27  1  0  0  0  0
 29 30  1  0  0  0  0
 30 42  1  0  0  0  0
 31 30  2  0  0  0  0
 32 31  1  0  0  0  0
 33 34  1  0  0  0  0
 33 32  1  0  0  0  0
 34 44  2  0  0  0  0
 35 37  1  0  0  0  0
 35 34  1  0  0  0  0
 36 35  2  0  0  0  0
 37 38  1  0  0  0  0
 38 43  1  0  0  0  0
 39 38  2  0  0  0  0
 39 40  1  0  0  0  0
 40 41  1  0  0  0  0
 41 42  1  0  0  0  0
 43 41  2  0  0  0  0
 44 43  1  0  0  0  0
 44 31  1  0  0  0  0
 45 23  1  0  0  0  0
 46 45  1  0  0  0  0
 46 21  2  0  0  0  0
 47 48  2  0  0  0  0
 47 18  1  0  0  0  0
 47 46  1  0  0  0  0
 48 53  1  0  0  0  0
 49 48  1  0  0  0  0
 49 50  1  0  0  0  0
 49 17  2  0  0  0  0
 50 59  1  0  0  0  0
 50 58  1  0  0  0  0
 51 58  1  0  0  0  0
 51 52  1  0  0  0  0
 51 57  1  0  0  0  0
 52 54  1  0  0  0  0
 53 52  2  0  0  0  0
 54  3  2  0  0  0  0
 54 55  1  0  0  0  0
 55  6  2  0  0  0  0
 56 55  1  0  0  0  0
 56  8  1  0  0  0  0
 57 56  1  0  0  0  0
 58 62  1  0  0  0  0
 60 13  1  0  0  0  0
 61 50  1  0  0  0  0
 61 51  1  0  0  0  0
 62 12  1  0  0  0  0
 62  9  1  0  0  0  0
 63 64  1  0  0  0  0
 64  1  1  0  0  0  0
 65 64  2  0  0  0  0
 66 67  1  0  0  0  0
 68 66  2  0  0  0  0
 69 61  1  0  0  0  0
 70 69  1  0  0  0  0
 71 69  2  0  0  0  0
 72 61  1  0  0  0  0
 73 72  1  0  0  0  0
 74 72  2  0  0  0  0
M  END
>  <minimizedAffinity>
-11.142293

$$$$
