
 OpenBabel09182209113D

 74104  0  0  1  0  0  0  0  0999 V2000
    8.0310    1.2460    9.8670 C   0  0  0  0  0  0  0  0  0  0  0  0
    8.9530    2.3990    9.4170 C   0  0  1  0  0  0  0  0  0  0  0  0
    8.7370    3.8450    9.9560 C   0  0  0  0  0  0  0  0  0  0  0  0
    9.1300    4.1460   11.2240 C   0  0  0  0  0  0  0  0  0  0  0  0
    9.7000    5.3780   11.5720 C   0  0  0  0  0  0  0  0  0  0  0  0
   10.0190    6.3840   10.6050 C   0  0  0  0  0  0  0  0  0  0  0  0
   11.3150    6.9010   10.6440 C   0  0  0  0  0  0  0  0  0  0  0  0
   11.7750    6.5930    9.3380 C   0  0  1  0  0  3  0  0  0  0  0  0
   12.4990    5.4180    9.3580 C   0  0  2  0  0  3  0  0  0  0  0  0
   13.5530    5.4640   10.2380 C   0  0  2  0  0  3  0  0  0  0  0  0
   14.4980    4.5940    9.9100 C   0  0  2  0  0  3  0  0  0  0  0  0
   14.1600    3.9110    8.7680 C   0  0  1  0  0  3  0  0  0  0  0  0
   15.2650    3.3170    8.1580 C   0  0  1  0  0  3  0  0  0  0  0  0
   15.9320    2.4520    9.0890 C   0  0  0  0  0  0  0  0  0  0  0  0
   15.4050    1.1960    8.7630 C   0  0  0  0  0  0  0  0  0  0  0  0
   14.7160    1.3440    7.4860 C   0  0  0  0  0  0  0  0  0  0  0  0
   13.4080    0.8790    7.5110 C   0  0  0  0  0  0  0  0  0  0  0  0
   12.8170    0.0850    8.5560 C   0  0  0  0  0  0  0  0  0  0  0  0
   13.5420   -0.1320    9.7370 C   0  0  0  0  0  0  0  0  0  0  0  0
   12.8780   -0.0270   11.0440 C   0  0  0  0  0  0  0  0  0  0  0  0
   11.5120    0.2480   11.1640 C   0  0  0  0  0  0  0  0  0  0  0  0
   11.0170    1.1210   12.1590 C   0  0  0  0  0  0  0  0  0  0  0  0
    9.8930    1.8300   11.7210 C   0  0  0  0  0  0  0  0  0  0  0  0
    9.6270    3.1530   12.1050 C   0  0  0  0  0  0  0  0  0  0  0  0
   10.5240    3.7460   12.9660 C   0  0  0  0  0  0  0  0  0  0  0  0
   10.5930    5.0780   12.6380 C   0  0  0  0  0  0  0  0  0  0  0  0
   11.8470    5.6890   12.7790 C   0  0  0  0  0  0  0  0  0  0  0  0
   12.1990    6.4930   11.7460 C   0  0  0  0  0  0  0  0  0  0  0  0
   13.4420    6.0330   11.4800 C   0  0  1  0  0  3  0  0  0  0  0  0
   14.0180    5.2670   12.4420 C   0  0  0  0  0  0  0  0  0  0  0  0
   15.0460    4.2800   12.0870 C   0  0  0  0  0  0  0  0  0  0  0  0
   15.4410    4.1310   10.7960 C   0  0  1  0  0  3  0  0  0  0  0  0
   15.9400    2.9150   10.4740 C   0  0  0  0  0  0  0  0  0  0  0  0
   15.5050    2.1610   11.5180 C   0  0  0  0  0  0  0  0  0  0  0  0
   14.8630    0.9480   11.1830 C   0  0  0  0  0  0  0  0  0  0  0  0
   14.7810    0.4920    9.8510 C   0  0  0  0  0  0  0  0  0  0  0  0
   13.7300    0.6380   11.9040 C   0  0  0  0  0  0  0  0  0  0  0  0
   13.2260    1.4970   12.9390 C   0  0  0  0  0  0  0  0  0  0  0  0
   11.8910    1.7290   13.0490 C   0  0  0  0  0  0  0  0  0  0  0  0
   11.6570    3.0100   13.4580 C   0  0  0  0  0  0  0  0  0  0  0  0
   12.8690    3.5970   13.5990 C   0  0  0  0  0  0  0  0  0  0  0  0
   12.9600    4.9580   13.2250 C   0  0  0  0  0  0  0  0  0  0  0  0
   13.8430    2.6580   13.2660 C   0  0  0  0  0  0  0  0  0  0  0  0
   14.9950    2.9980   12.5210 C   0  0  0  0  0  0  0  0  0  0  0  0
    9.4580    1.2540   10.3670 C   0  0  1  0  0  0  0  0  0  0  0  0
   10.5480    0.1620    9.9890 C   0  0  0  0  0  0  0  0  0  0  0  0
   11.2800    0.3180    8.6270 C   0  0  0  0  0  0  0  0  0  0  0  0
   11.2160    1.7120    8.1010 C   0  0  0  0  0  0  0  0  0  0  0  0
   12.4990    1.9450    7.2870 C   0  0  0  0  0  0  0  0  0  0  0  0
   12.8190    3.5070    6.6040 C   0  0  1  0  0  0  0  0  0  0  0  0
   11.4340    4.8880    7.0830 C   0  0  1  0  0  0  0  0  0  0  0  0
   10.1470    4.1760    8.1070 C   0  0  0  0  0  0  0  0  0  0  0  0
   10.1160    2.6390    8.4430 C   0  0  0  0  0  0  0  0  0  0  0  0
    9.0550    4.8870    8.7870 C   0  0  0  0  0  0  0  0  0  0  0  0
    9.6100    6.2890    9.0510 C   0  0  0  0  0  0  0  0  0  0  0  0
   11.0160    6.7890    8.0460 C   0  0  2  0  0  3  0  0  0  0  0  0
   11.8510    6.2250    6.9880 C   0  0  0  0  0  2  0  0  0  0  0  0
   12.5660    4.6680    6.6710 C   0  0  1  0  0  3  0  0  0  0  0  0
   14.0210    4.0760    6.1270 C   0  0  0  0  0  1  0  0  0  0  0  0
   15.0230    2.7990    6.8170 C   0  0  0  0  0  2  0  0  0  0  0  0
   11.0760    3.2780    6.4820 C   0  0  0  0  0  0  0  0  0  0  0  0
   12.2820    3.8430    8.3150 C   0  0  2  0  0  3  0  0  0  0  0  0
    7.4040   -0.9870    9.3180 O   0  0  0  0  0  1  0  0  0  0  0  0
    7.6080    0.2130    8.9020 C   0  0  0  0  0  0  0  0  0  0  0  0
    7.3700    0.5340    7.6870 O   0  0  0  0  0  0  0  0  0  0  0  0
    7.0130    1.4630   10.9350 C   0  0  0  0  0  0  0  0  0  0  0  0
    6.0950    2.3550   10.8070 O   0  0  0  0  0  0  0  0  0  0  0  0
    7.1150    0.7980   12.0370 O   0  0  0  0  0  1  0  0  0  0  0  0
   11.4520    2.2180    5.1570 C   0  0  0  0  0  0  0  0  0  0  0  0
   12.2190    2.6480    4.2200 O   0  0  0  0  0  0  0  0  0  0  0  0
   10.9080    1.0460    5.0520 O   0  0  0  0  0  1  0  0  0  0  0  0
    9.8880    4.1400    5.5590 C   0  0  0  0  0  0  0  0  0  0  0  0
   10.2440    5.0450    4.7240 O   0  0  0  0  0  0  0  0  0  0  0  0
    8.6390    3.8160    5.6710 O   0  0  0  0  0  1  0  0  0  0  0  0
  1 45  1  0  0  0  0
  1 66  1  0  0  0  0
  2 53  1  6  0  0  0
  2  1  1  0  0  0  0
  2  3  1  0  0  0  0
  2 45  1  0  0  0  0
  3  4  1  0  0  0  0
  4  5  2  0  0  0  0
  4 24  1  0  0  0  0
  5 26  1  0  0  0  0
  6  7  1  0  0  0  0
  6  5  1  0  0  0  0
  7 28  2  0  0  0  0
  8  9  1  0  0  0  0
  8  7  1  1  0  0  0
  9 10  1  0  0  0  0
 10 29  1  0  0  0  0
 11 10  1  0  0  0  0
 11 32  1  0  0  0  0
 12 11  1  0  0  0  0
 13 12  1  0  0  0  0
 13 14  1  0  0  0  0
 14 33  2  0  0  0  0
 15 14  1  0  0  0  0
 15 36  2  0  0  0  0
 16 17  2  0  0  0  0
 16 15  1  0  0  0  0
 17 18  1  0  0  0  0
 18 47  2  0  0  0  0
 18 19  1  0  0  0  0
 19 36  1  0  0  0  0
 19 20  2  0  0  0  0
 20 21  1  0  0  0  0
 20 37  1  0  0  0  0
 21 22  1  0  0  0  0
 22 39  2  0  0  0  0
 23 24  2  0  0  0  0
 23 22  1  0  0  0  0
 24 25  1  0  0  0  0
 25 40  1  0  0  0  0
 26 27  1  0  0  0  0
 26 25  2  0  0  0  0
 27 42  2  0  0  0  0
 28 27  1  0  0  0  0
 29 28  1  0  0  0  0
 29 30  1  0  0  0  0
 30 42  1  0  0  0  0
 31 30  2  0  0  0  0
 31 44  1  0  0  0  0
 32 31  1  0  0  0  0
 33 32  1  0  0  0  0
 33 34  1  0  0  0  0
 34 44  1  0  0  0  0
 35 34  2  0  0  0  0
 35 37  1  0  0  0  0
 36 35  1  0  0  0  0
 37 38  2  0  0  0  0
 38 39  1  0  0  0  0
 38 43  1  0  0  0  0
 39 40  1  0  0  0  0
 40 41  2  0  0  0  0
 42 41  1  0  0  0  0
 43 41  1  0  0  0  0
 44 43  2  0  0  0  0
 45 23  1  0  0  0  0
 46 45  1  0  0  0  0
 46 21  2  0  0  0  0
 47 46  1  0  0  0  0
 48 53  1  0  0  0  0
 48 47  1  0  0  0  0
 49 17  1  0  0  0  0
 49 48  2  0  0  0  0
 50 58  1  0  0  0  0
 50 49  1  0  0  0  0
 51 52  1  0  0  0  0
 52 53  2  0  0  0  0
 52 54  1  0  0  0  0
 54 55  1  0  0  0  0
 54  3  2  0  0  0  0
 55  6  2  0  0  0  0
 56 55  1  0  0  0  0
 56  8  1  0  0  0  0
 57 51  1  0  0  0  0
 57 56  1  0  0  0  0
 58 51  1  0  0  0  0
 58 62  1  0  0  0  0
 59 50  1  0  0  0  0
 60 16  1  0  0  0  0
 60 13  1  0  0  0  0
 61 50  1  0  0  0  0
 61 51  1  0  0  0  0
 62 12  1  0  0  0  0
 62  9  1  0  0  0  0
 64 63  1  0  0  0  0
 64  1  1  0  0  0  0
 65 64  2  0  0  0  0
 66 68  1  0  0  0  0
 67 66  2  0  0  0  0
 69 61  1  0  0  0  0
 70 69  2  0  0  0  0
 71 69  1  0  0  0  0
 72 74  1  0  0  0  0
 72 61  1  0  0  0  0
 73 72  2  0  0  0  0
M  END
>  <minimizedAffinity>
-10.5166645

$$$$
