
 OpenBabel09182209113D

 74104  0  0  1  0  0  0  0  0999 V2000
    9.8150    1.9650    6.7910 C   0  0  0  0  0  0  0  0  0  0  0  0
    9.7560    1.9570    8.3330 C   0  0  1  0  0  0  0  0  0  0  0  0
    9.7040    0.6120    9.1200 C   0  0  0  0  0  0  0  0  0  0  0  0
   10.8400   -0.1260    9.2480 C   0  0  0  0  0  0  0  0  0  0  0  0
   11.1630   -0.8280   10.4170 C   0  0  0  0  0  0  0  0  0  0  0  0
   10.3820   -0.7420   11.6130 C   0  0  0  0  0  0  0  0  0  0  0  0
   11.0700   -0.4440   12.7900 C   0  0  0  0  0  0  0  0  0  0  0  0
   10.4170    0.7480   13.1980 C   0  0  1  0  0  3  0  0  0  0  0  0
   11.1400    1.8470   12.7790 C   0  0  2  0  0  3  0  0  0  0  0  0
   12.4350    1.8300   13.2360 C   0  0  2  0  0  3  0  0  0  0  0  0
   12.9540    3.0500   13.2720 C   0  0  2  0  0  3  0  0  0  0  0  0
   12.0350    3.9850   12.8630 C   0  0  1  0  0  3  0  0  0  0  0  0
   12.3690    5.2740   13.2760 C   0  0  1  0  0  3  0  0  0  0  0  0
   13.6820    5.6140   12.8080 C   0  0  0  0  0  0  0  0  0  0  0  0
   13.4090    6.3400   11.6430 C   0  0  0  0  0  0  0  0  0  0  0  0
   11.9820    6.6490   11.6620 C   0  0  0  0  0  0  0  0  0  0  0  0
   11.3250    6.2750   10.4990 C   0  0  0  0  0  0  0  0  0  0  0  0
   11.9540    5.8710    9.2680 C   0  0  0  0  0  0  0  0  0  0  0  0
   13.3430    5.6800    9.2460 C   0  0  0  0  0  0  0  0  0  0  0  0
   13.9210    4.5160    8.5630 C   0  0  0  0  0  0  0  0  0  0  0  0
   13.1290    3.5850    7.8820 C   0  0  0  0  0  0  0  0  0  0  0  0
   13.3910    2.1980    7.9500 C   0  0  0  0  0  0  0  0  0  0  0  0
   12.2170    1.4400    7.8880 C   0  0  0  0  0  0  0  0  0  0  0  0
   12.0430    0.2390    8.5930 C   0  0  0  0  0  0  0  0  0  0  0  0
   13.1040   -0.1940    9.3600 C   0  0  0  0  0  0  0  0  0  0  0  0
   12.5850   -0.8140   10.4690 C   0  0  0  0  0  0  0  0  0  0  0  0
   13.3040   -0.6570   11.6630 C   0  0  0  0  0  0  0  0  0  0  0  0
   12.5380   -0.3880   12.7480 C   0  0  0  0  0  0  0  0  0  0  0  0
   13.1880    0.6840   13.2550 C   0  0  1  0  0  3  0  0  0  0  0  0
   14.4470    0.8970   12.7950 C   0  0  0  0  0  0  0  0  0  0  0  0
   15.0220    2.2490   12.8040 C   0  0  0  0  0  0  0  0  0  0  0  0
   14.3050    3.2980   13.2840 C   0  0  1  0  0  3  0  0  0  0  0  0
   14.6400    4.5110   12.7860 C   0  0  0  0  0  0  0  0  0  0  0  0
   15.3530    4.1610   11.6830 C   0  0  0  0  0  0  0  0  0  0  0  0
   14.9930    4.8080   10.4790 C   0  0  0  0  0  0  0  0  0  0  0  0
   14.0300    5.8380   10.4460 C   0  0  0  0  0  0  0  0  0  0  0  0
   14.9360    4.0150    9.3530 C   0  0  0  0  0  0  0  0  0  0  0  0
   15.2260    2.6090    9.3970 C   0  0  0  0  0  0  0  0  0  0  0  0
   14.4550    1.7270    8.7050 C   0  0  0  0  0  0  0  0  0  0  0  0
   14.3310    0.5550    9.3930 C   0  0  0  0  0  0  0  0  0  0  0  0
   15.0300    0.7060   10.5430 C   0  0  0  0  0  0  0  0  0  0  0  0
   14.4830    0.1050   11.7010 C   0  0  0  0  0  0  0  0  0  0  0  0
   15.5780    1.9870   10.5480 C   0  0  0  0  0  0  0  0  0  0  0  0
   15.6200    2.7850   11.7140 C   0  0  0  0  0  0  0  0  0  0  0  0
   11.0520    2.3820    7.5530 C   0  0  1  0  0  0  0  0  0  0  0  0
   11.6700    3.8450    7.5300 C   0  0  0  0  0  0  0  0  0  0  0  0
   11.0310    4.9110    8.4630 C   0  0  0  0  0  0  0  0  0  0  0  0
   10.2670    4.3000    9.5890 C   0  0  0  0  0  0  0  0  0  0  0  0
   10.3600    5.2710   10.7750 C   0  0  0  0  0  0  0  0  0  0  0  0
    9.6670    4.8380   12.3050 C   0  0  1  0  0  0  0  0  0  0  0  0
    8.8820    2.9840   12.3310 C   0  0  1  0  0  0  0  0  0  0  0  0
    9.0580    2.1920   10.7330 C   0  0  0  0  0  0  0  0  0  0  0  0
    9.6540    2.9580    9.4940 C   0  0  0  0  0  0  0  0  0  0  0  0
    8.7580    0.7930   10.3940 C   0  0  0  0  0  0  0  0  0  0  0  0
    8.9680    0.0240   11.7010 C   0  0  0  0  0  0  0  0  0  0  0  0
    8.9270    1.0000   13.2130 C   0  0  2  0  0  3  0  0  0  0  0  0
    8.7500    2.3980   13.5990 C   0  0  0  0  0  2  0  0  0  0  0  0
    9.2970    3.9330   12.9840 C   0  0  1  0  0  3  0  0  0  0  0  0
    9.8920    5.3580   13.5990 C   0  0  0  0  0  1  0  0  0  0  0  0
   11.3180    6.2690   13.1010 C   0  0  0  0  0  2  0  0  0  0  0  0
    8.5810    4.1810   11.0830 C   0  0  0  0  0  0  0  0  0  0  0  0
   10.5770    3.3520   11.7630 C   0  0  2  0  0  3  0  0  0  0  0  0
    9.4300    3.2540    4.8240 O   0  0  0  0  0  0  0  0  0  0  0  0
    9.0620    2.9760    6.0250 C   0  0  0  0  0  0  0  0  0  0  0  0
    8.0090    3.5020    6.5250 O   0  0  0  0  0  1  0  0  0  0  0  0
    9.9710    0.6900    6.0330 C   0  0  0  0  0  0  0  0  0  0  0  0
   10.9840    0.4910    5.2660 O   0  0  0  0  0  0  0  0  0  0  0  0
    9.0260   -0.1880    6.0900 O   0  0  0  0  0  1  0  0  0  0  0  0
    8.0380    5.8210   10.8900 C   0  0  0  0  0  0  0  0  0  0  0  0
    7.9970    6.3240    9.7080 O   0  0  0  0  0  0  0  0  0  0  0  0
    7.7600    6.5680   11.9130 O   0  0  0  0  0  1  0  0  0  0  0  0
    6.9610    3.5780   11.2220 C   0  0  0  0  0  0  0  0  0  0  0  0
    6.3220    3.6790   12.3290 O   0  0  0  0  0  1  0  0  0  0  0  0
    6.3760    3.0820   10.1780 O   0  0  0  0  0  0  0  0  0  0  0  0
  1 45  1  0  0  0  0
  1  2  1  0  0  0  0
  2  3  1  1  0  0  0
  2 53  1  0  0  0  0
  3  4  2  0  0  0  0
  3 54  1  0  0  0  0
  4  5  1  0  0  0  0
  5 26  2  0  0  0  0
  5  6  1  0  0  0  0
  6 55  1  0  0  0  0
  6  7  2  0  0  0  0
  8  7  1  6  0  0  0
  8 56  1  0  0  0  0
  9  8  1  0  0  0  0
  9 10  1  0  0  0  0
 10 29  1  0  0  0  0
 10 11  1  0  0  0  0
 11 32  1  0  0  0  0
 12 11  1  0  0  0  0
 12 13  1  0  0  0  0
 14 13  1  0  0  0  0
 15 16  1  0  0  0  0
 15 14  2  0  0  0  0
 16 60  1  0  0  0  0
 17 49  1  0  0  0  0
 17 16  2  0  0  0  0
 18 17  1  0  0  0  0
 19 18  1  0  0  0  0
 19 36  1  0  0  0  0
 20 19  2  0  0  0  0
 20 37  1  0  0  0  0
 21 22  1  0  0  0  0
 21 20  1  0  0  0  0
 22 39  1  0  0  0  0
 23 22  2  0  0  0  0
 23 24  1  0  0  0  0
 24  4  1  0  0  0  0
 24 25  2  0  0  0  0
 25 40  1  0  0  0  0
 25 26  1  0  0  0  0
 26 27  1  0  0  0  0
 27 42  1  0  0  0  0
 27 28  2  0  0  0  0
 28  7  1  0  0  0  0
 28 29  1  0  0  0  0
 30 31  1  0  0  0  0
 30 29  1  0  0  0  0
 31 32  1  0  0  0  0
 33 14  1  0  0  0  0
 33 32  1  0  0  0  0
 34 44  1  0  0  0  0
 34 33  2  0  0  0  0
 35 34  1  0  0  0  0
 36 35  2  0  0  0  0
 36 15  1  0  0  0  0
 37 38  2  0  0  0  0
 37 35  1  0  0  0  0
 38 43  1  0  0  0  0
 39 40  2  0  0  0  0
 39 38  1  0  0  0  0
 40 41  1  0  0  0  0
 41 43  2  0  0  0  0
 41 42  1  0  0  0  0
 42 30  2  0  0  0  0
 43 44  1  0  0  0  0
 44 31  2  0  0  0  0
 45 23  1  0  0  0  0
 45  2  1  0  0  0  0
 46 45  1  0  0  0  0
 46 21  2  0  0  0  0
 46 47  1  0  0  0  0
 47 18  2  0  0  0  0
 47 48  1  0  0  0  0
 48 49  2  0  0  0  0
 49 50  1  0  0  0  0
 50 58  1  0  0  0  0
 50 59  1  0  0  0  0
 51 58  1  0  0  0  0
 51 57  1  0  0  0  0
 52 51  1  0  0  0  0
 53 48  1  0  0  0  0
 53 52  2  0  0  0  0
 54 52  1  0  0  0  0
 54 55  2  0  0  0  0
 55 56  1  0  0  0  0
 56 57  1  0  0  0  0
 60 13  1  0  0  0  0
 61 72  1  0  0  0  0
 61 50  1  0  0  0  0
 61 51  1  0  0  0  0
 62  9  1  0  0  0  0
 62 12  1  0  0  0  0
 62 58  1  0  0  0  0
 63 64  2  0  0  0  0
 64 65  1  0  0  0  0
 64  1  1  0  0  0  0
 66 68  1  0  0  0  0
 66  1  1  0  0  0  0
 67 66  2  0  0  0  0
 69 61  1  0  0  0  0
 69 71  1  0  0  0  0
 70 69  2  0  0  0  0
 72 73  1  0  0  0  0
 74 72  2  0  0  0  0
M  END
>  <minimizedAffinity>
-10.5018492

$$$$
