REMARK  Name = 
REMARK  6 active torsions:
REMARK  status: ('A' for Active; 'I' for Inactive)
REMARK    1  A    between atoms: C_1  and  O_2
REMARK    2  A    between atoms: O_2  and  C_3
REMARK    3  A    between atoms: C_13  and  C_14
REMARK    4  A    between atoms: C_15  and  O_16
REMARK    5  A    between atoms: N_23  and  C_24
REMARK    6  A    between atoms: C_24  and  C_25
REMARK                            x       y       z     vdW  Elec       q    Type
REMARK                         _______ _______ _______ _____ _____    ______ ____
ROOT
ATOM      1  C   UNL     1       2.894  -5.419  -5.277  0.00  0.00    +0.170 A 
ATOM      2  C   UNL     1       3.387  -4.773  -6.350  0.00  0.00    +0.148 A 
ATOM      3  C   UNL     1       3.745  -5.495  -7.584  0.00  0.00    +0.060 A 
ATOM      4  C   UNL     1       4.411  -4.900  -8.666  0.00  0.00    +0.016 A 
ATOM      5  C   UNL     1       4.690  -5.642  -9.811  0.00  0.00    +0.021 A 
ATOM      6  C   UNL     1       4.304  -6.965  -9.840  0.00  0.00    +0.113 A 
ATOM      7  N   UNL     1       3.689  -7.576  -8.808  0.00  0.00    -0.237 NA
ATOM      8  C   UNL     1       3.429  -6.854  -7.694  0.00  0.00    +0.147 A 
ATOM      9  N   UNL     1       2.859  -7.518  -6.582  0.00  0.00    -0.288 N 
ATOM     10  C   UNL     1       2.650  -6.891  -5.378  0.00  0.00    +0.272 A 
ATOM     11  O   UNL     1       2.238  -7.460  -4.363  0.00  0.00    -0.267 OA
ENDROOT
BRANCH   1  22
ATOM     12  C   UNL     1       1.930  -1.046  -0.541  0.00  0.00    +0.122 A 
ATOM     13  C   UNL     1       2.471  -0.498  -1.703  0.00  0.00    +0.050 A 
ATOM     14  C   UNL     1       2.740  -1.316  -2.811  0.00  0.00    +0.056 A 
ATOM     15  C   UNL     1       2.476  -2.690  -2.778  0.00  0.00    +0.155 A 
ATOM     16  C   UNL     1       1.943  -3.208  -1.614  0.00  0.00    +0.178 A 
ATOM     17  C   UNL     1       1.666  -2.412  -0.497  0.00  0.00    +0.080 A 
ATOM     18  S   UNL     1       1.613  -4.916  -1.560  0.00  0.00    +0.136 S 
ATOM     19  O   UNL     1       2.507  -5.457  -0.561  0.00  0.00    -0.130 OA
ATOM     20  O   UNL     1       0.179  -5.036  -1.417  0.00  0.00    -0.130 OA
ATOM     21  N   UNL     1       2.041  -5.461  -2.993  0.00  0.00    -0.093 N 
ATOM     22  C   UNL     1       2.536  -4.735  -3.960  0.00  0.00    +0.308 C 
ATOM     23  N   UNL     1       2.751  -3.432  -3.879  0.00  0.00    -0.238 N 
ATOM     24  H   UNL     1       1.920  -6.460  -3.147  0.00  0.00    +0.326 HD
ATOM     25  H   UNL     1       3.148  -2.981  -4.710  0.00  0.00    +0.311 HD
BRANCH  12  27
ATOM     26  C   UNL     1       1.857   1.033   0.621  0.00  0.00    +0.277 C 
ATOM     27  O   UNL     1       1.620  -0.371   0.601  0.00  0.00    -0.495 OA
ENDBRANCH  12  27
ENDBRANCH   1  22
BRANCH   2  28
ATOM     28  O   UNL     1       3.535  -3.391  -6.327  0.00  0.00    -0.505 OA
ATOM     29  H   UNL     1       3.547  -3.057  -7.247  0.00  0.00    +0.292 HD
ENDBRANCH   2  28
BRANCH   9  30
ATOM     30  C   UNL     1       2.472  -8.924  -6.728  0.00  0.00    +0.162 C 
BRANCH  30  31
ATOM     31  C   UNL     1       1.002  -9.063  -7.066  0.00  0.00    -0.028 A 
ATOM     32  C   UNL     1       0.055  -9.294  -6.057  0.00  0.00    +0.005 A 
ATOM     33  C   UNL     1      -1.302  -9.397  -6.368  0.00  0.00    +0.000 A 
ATOM     34  C   UNL     1      -1.727  -9.268  -7.688  0.00  0.00    +0.000 A 
ATOM     35  C   UNL     1      -0.797  -9.037  -8.699  0.00  0.00    +0.000 A 
ATOM     36  C   UNL     1       0.560  -8.934  -8.391  0.00  0.00    +0.005 A 
ENDBRANCH  30  31
ENDBRANCH   9  30
TORSDOF 5
