
 OpenBabel09122222393D

 36 40  0  0  1  0  0  0  0  0999 V2000
    3.6290   -8.8350    2.3000 C   0  0  0  0  0  0  0  0  0  0  0  0
    3.5600   -9.6000    1.1940 C   0  0  0  0  0  0  0  0  0  0  0  0
    2.7970  -10.8610    1.1780 C   0  0  0  0  0  0  0  0  0  0  0  0
    2.8260  -11.7720    0.1120 C   0  0  0  0  0  3  0  0  0  0  0  0
    2.0540  -12.9300    0.1590 C   0  0  0  0  0  3  0  0  0  0  0  0
    1.2810  -13.1530    1.2780 C   0  0  0  0  0  3  0  0  0  0  0  0
    1.2520  -12.3140    2.3320 N   0  0  0  0  0  0  0  0  0  0  0  0
    2.0100  -11.1950    2.2860 C   0  0  0  0  0  0  0  0  0  0  0  0
    2.0420  -10.3590    3.4280 N   0  0  0  0  0  0  0  0  0  0  0  0
    2.8570   -9.2560    3.5100 C   0  0  0  0  0  0  0  0  0  0  0  0
    2.9760   -8.5560    4.5190 O   0  0  0  0  0  0  0  0  0  0  0  0
    8.0400   -4.1140    1.4440 C   0  0  0  0  0  0  0  0  0  0  0  0
    8.2770   -5.2450    0.6650 C   0  0  0  0  0  3  0  0  0  0  0  0
    7.4150   -6.3500    0.7420 C   0  0  0  0  0  3  0  0  0  0  0  0
    6.3060   -6.3440    1.5960 C   0  0  0  0  0  0  0  0  0  0  0  0
    6.0960   -5.2130    2.3590 C   0  0  0  0  0  0  0  0  0  0  0  0
    6.9410   -4.0990    2.2980 C   0  0  0  0  0  3  0  0  0  0  0  0
    4.7220   -5.1960    3.4270 S   0  0  0  0  0  0  0  0  0  0  0  0
    5.2660   -5.1430    4.7650 O   0  0  0  0  0  0  0  0  0  0  0  0
    3.8540   -4.1490    2.9360 O   0  0  0  0  0  0  0  0  0  0  0  0
    4.0150   -6.6050    3.2070 N   0  0  0  0  0  0  0  0  0  0  0  0
    4.4280   -7.5380    2.3910 C   0  0  2  0  0  3  0  0  0  0  0  0
    5.5040   -7.4370    1.6270 N   0  0  0  0  0  0  0  0  0  0  0  0
    3.1790   -6.7780    3.7610 H   0  0  0  0  0  0  0  0  0  0  0  0
    5.7210   -8.2440    1.0340 H   0  0  0  0  0  0  0  0  0  0  0  0
    8.7260   -2.1680    2.6360 C   0  0  0  0  0  1  0  0  0  0  0  0
    8.7910   -2.9770    1.4660 O   0  0  0  0  0  0  0  0  0  0  0  0
    4.1840   -9.1910    0.0210 O   0  0  0  0  0  0  0  0  0  0  0  0
    3.7550   -9.6340   -0.7390 H   0  0  0  0  0  0  0  0  0  0  0  0
    1.1660  -10.6810    4.5570 C   0  0  0  0  0  2  0  0  0  0  0  0
   -0.2060  -10.0610    4.3910 C   0  0  0  0  0  0  0  0  0  0  0  0
   -0.3770   -8.6710    4.4710 C   0  0  0  0  0  3  0  0  0  0  0  0
   -1.6380   -8.1000    4.2920 C   0  0  0  0  0  3  0  0  0  0  0  0
   -2.7400   -8.9110    4.0290 C   0  0  0  0  0  3  0  0  0  0  0  0
   -2.5830  -10.2920    3.9450 C   0  0  0  0  0  3  0  0  0  0  0  0
   -1.3240  -10.8650    4.1240 C   0  0  0  0  0  3  0  0  0  0  0  0
  1 10  1  0  0  0  0
  2  1  2  0  0  0  0
  3  2  1  0  0  0  0
  3  8  1  0  0  0  0
  4  5  1  0  0  0  0
  4  3  2  0  0  0  0
  5  6  2  0  0  0  0
  6  7  1  0  0  0  0
  8  7  2  0  0  0  0
  8  9  1  0  0  0  0
  9 10  1  0  0  0  0
  9 30  1  0  0  0  0
 10 11  2  0  0  0  0
 12 27  1  0  0  0  0
 12 17  1  0  0  0  0
 13 14  1  0  0  0  0
 13 12  2  0  0  0  0
 14 15  2  0  0  0  0
 15 23  1  0  0  0  0
 15 16  1  0  0  0  0
 16 18  1  0  0  0  0
 17 16  2  0  0  0  0
 18 19  2  0  0  0  0
 20 18  2  0  0  0  0
 21 18  1  0  0  0  0
 21 24  1  0  0  0  0
 22  1  1  6  0  0  0
 22 21  1  0  0  0  0
 23 22  1  0  0  0  0
 25 23  1  0  0  0  0
 27 26  1  0  0  0  0
 28  2  1  0  0  0  0
 29 28  1  0  0  0  0
 31 32  1  0  0  0  0
 31 30  1  0  0  0  0
 33 32  2  0  0  0  0
 34 33  1  0  0  0  0
 35 34  2  0  0  0  0
 35 36  1  0  0  0  0
 36 31  2  0  0  0  0
M  END
>  <minimizedAffinity>
-7.82362938

$$$$
