REMARK  Name = 
REMARK  6 active torsions:
REMARK  status: ('A' for Active; 'I' for Inactive)
REMARK    1  A    between atoms: C_1  and  C_2
REMARK    2  A    between atoms: C_5  and  C_6
REMARK    3  A    between atoms: C_6  and  N_7
REMARK    4  A    between atoms: N_7  and  C_8
REMARK    5  A    between atoms: C_14  and  C_15
REMARK    6  A    between atoms: C_21  and  C_22
REMARK                            x       y       z     vdW  Elec       q    Type
REMARK                         _______ _______ _______ _____ _____    ______ ____
ROOT
ATOM      1  C   UNL     1      -4.137  -2.318  -1.133  0.00  0.00    +0.150 A 
ATOM      2  N   UNL     1      -5.203  -2.184  -0.322  0.00  0.00    -0.219 NA
ATOM      3  C   UNL     1      -6.185  -3.071  -0.491  0.00  0.00    +0.225 A 
ATOM      4  N   UNL     1      -6.191  -4.076  -1.367  0.00  0.00    -0.214 NA
ATOM      5  C   UNL     1      -5.124  -4.197  -2.151  0.00  0.00    +0.184 A 
ATOM      6  N   UNL     1      -5.100  -5.222  -3.006  0.00  0.00    -0.224 NA
ATOM      7  C   UNL     1      -4.016  -5.385  -3.822  0.00  0.00    +0.099 A 
ATOM      8  C   UNL     1      -2.963  -4.462  -3.818  0.00  0.00    +0.098 A 
ATOM      9  N   UNL     1      -2.963  -3.432  -2.934  0.00  0.00    -0.238 NA
ATOM     10  C   UNL     1      -4.038  -3.318  -2.102  0.00  0.00    +0.148 A 
ENDROOT
BRANCH   7  11
ATOM     11  C   UNL     1      -4.061  -6.620  -4.628  0.00  0.00    +0.003 A 
ATOM     12  C   UNL     1      -2.978  -7.518  -4.669  0.00  0.00    +0.010 A 
ATOM     13  C   UNL     1      -3.036  -8.688  -5.432  0.00  0.00    +0.001 A 
ATOM     14  C   UNL     1      -4.185  -8.989  -6.159  0.00  0.00    +0.000 A 
ATOM     15  C   UNL     1      -5.277  -8.127  -6.118  0.00  0.00    +0.001 A 
ATOM     16  C   UNL     1      -5.216  -6.957  -5.356  0.00  0.00    +0.010 A 
ENDBRANCH   7  11
BRANCH   8  17
ATOM     17  C   UNL     1      -1.806  -4.458  -4.734  0.00  0.00    +0.002 A 
ATOM     18  C   UNL     1      -0.505  -4.256  -4.236  0.00  0.00    +0.010 A 
ATOM     19  C   UNL     1       0.602  -4.231  -5.088  0.00  0.00    +0.001 A 
ATOM     20  C   UNL     1       0.430  -4.400  -6.458  0.00  0.00    +0.000 A 
ATOM     21  C   UNL     1      -0.848  -4.586  -6.977  0.00  0.00    +0.001 A 
ATOM     22  C   UNL     1      -1.955  -4.608  -6.124  0.00  0.00    +0.010 A 
ENDBRANCH   8  17
BRANCH   1  23
ATOM     23  N   UNL     1      -3.049  -1.475  -0.946  0.00  0.00    -0.323 N 
ATOM     24  H   UNL     1      -2.374  -1.438  -1.703  0.00  0.00    +0.148 HD
BRANCH  23  25
ATOM     25  C   UNL     1      -3.023  -0.465   0.079  0.00  0.00    +0.138 C 
BRANCH  25  30
ATOM     26  C   UNL     1       2.538   1.193   0.627  0.00  0.00    +0.044 C 
ATOM     27  C   UNL     1       1.096   0.792   0.528  0.00  0.00    -0.050 A 
ATOM     28  C   UNL     1       0.670  -0.444   1.025  0.00  0.00    +0.003 A 
ATOM     29  C   UNL     1      -0.664  -0.835   0.894  0.00  0.00    +0.005 A 
ATOM     30  C   UNL     1      -1.595  -0.002   0.256  0.00  0.00    -0.030 A 
ATOM     31  C   UNL     1      -1.162   1.226  -0.258  0.00  0.00    +0.005 A 
ATOM     32  C   UNL     1       0.173   1.618  -0.124  0.00  0.00    +0.003 A 
ENDBRANCH  25  30
ENDBRANCH  23  25
ENDBRANCH   1  23
TORSDOF 5
