REMARK  Name = 
REMARK  4 active torsions:
REMARK  status: ('A' for Active; 'I' for Inactive)
REMARK    1  A    between atoms: C_1  and  N_2
REMARK    2  A    between atoms: C_3  and  C_4
REMARK    3  A    between atoms: C_10  and  C_11
REMARK    4  A    between atoms: CA_20  and  C_21
REMARK                            x       y       z     vdW  Elec       q    Type
REMARK                         _______ _______ _______ _____ _____    ______ ____
ROOT
ATOM      1  C   UNL     1       0.816  -0.038   0.051  0.00  0.00    +0.151 C 
ATOM      2  N   UNL     1       0.406  -1.350  -0.398  0.00  0.00    -0.328 N 
ATOM      3  C   UNL     1      -0.634  -1.640  -1.259  0.00  0.00    +0.054 A 
ATOM      4  C   UNL     1      -0.681  -3.029  -1.408  0.00  0.00    -0.010 A 
ATOM      5  C   UNL     1       0.385  -3.570  -0.611  0.00  0.00    +0.023 A 
ATOM      6  C   UNL     1       0.883  -4.851  -0.327  0.00  0.00    +0.014 A 
ATOM      7  C   UNL     1       1.986  -4.950   0.526  0.00  0.00    +0.030 A 
ATOM      8  CA  UNL     1       2.572  -3.802   1.077  0.00  0.00    +0.088 A 
ATOM      9  N   UNL     1       2.100  -2.548   0.813  0.00  0.00    -0.228 NA
ATOM     10  C   UNL     1       1.037  -2.502  -0.010  0.00  0.00    +0.142 A 
ENDROOT
BRANCH   3  11
ATOM     11  C   UNL     1      -1.483  -0.618  -1.865  0.00  0.00    -0.001 A 
ATOM     12  C   UNL     1      -1.041   0.093  -2.985  0.00  0.00    +0.010 A 
ATOM     13  C   UNL     1      -1.855   1.068  -3.565  0.00  0.00    +0.001 A 
ATOM     14  C   UNL     1      -3.115   1.333  -3.028  0.00  0.00    +0.000 A 
ATOM     15  C   UNL     1      -3.563   0.625  -1.913  0.00  0.00    +0.001 A 
ATOM     16  C   UNL     1      -2.749  -0.350  -1.333  0.00  0.00    +0.010 A 
ENDBRANCH   3  11
BRANCH   4  17
ATOM     17  C   UNL     1      -1.664  -3.793  -2.264  0.00  0.00    +0.022 C 
ATOM     18  C   UNL     1      -0.975  -4.558  -3.407  0.00  0.00    +0.008 C 
ATOM     19  C   UNL     1      -1.989  -5.303  -4.274  0.00  0.00    +0.001 C 
ATOM     20  C   UNL     1      -2.875  -6.223  -3.439  0.00  0.00    +0.000 C 
ATOM     21  C   UNL     1      -3.568  -5.466  -2.311  0.00  0.00    +0.001 C 
ATOM     22  C   UNL     1      -2.564  -4.721  -1.432  0.00  0.00    +0.008 C 
ENDBRANCH   4  17
BRANCH   8  23
ATOM     23  C   UNL     1       3.793  -3.985   2.012  0.00  0.00    +0.090 C 
ATOM     24  O   UNL     1       4.332  -2.946   2.517  0.00  0.00    -0.543 OA
ATOM     25  OXT UNL     1       4.189  -5.183   2.222  0.00  0.00    -0.543 OA
ENDBRANCH   8  23
TORSDOF 3
