
 OpenBabel09122222393D

 25 28  0  0  0  0  0  0  0  0999 V2000
    6.0670   -3.5640    3.0000 C   0  0  0  0  0  1  0  0  0  0  0  0
    5.0620   -4.5590    3.3030 N   0  0  0  0  0  0  0  0  0  0  0  0
    5.1160   -5.9050    3.0000 C   0  0  0  0  0  0  0  0  0  0  0  0
    3.9330   -6.4880    3.4640 C   0  0  0  0  0  0  0  0  0  0  0  0
    3.1640   -5.4400    4.0750 C   0  0  0  0  0  0  0  0  0  0  0  0
    1.9210   -5.3450    4.7200 C   0  0  0  0  0  3  0  0  0  0  0  0
    1.5260   -4.0910    5.1970 C   0  0  0  0  0  3  0  0  0  0  0  0
    2.3490   -2.9690    5.0330 C   0  0  0  0  0  0  0  0  0  0  0  0
    3.5610   -3.0430    4.4060 N   0  0  0  0  0  0  0  0  0  0  0  0
    3.8980   -4.2670    3.9620 C   0  0  0  0  0  0  0  0  0  0  0  0
    6.2460   -6.5300    2.3180 C   0  0  0  0  0  0  0  0  0  0  0  0
    6.6040   -7.8500    2.6080 C   0  0  0  0  0  3  0  0  0  0  0  0
    7.6830   -8.4470    1.9530 C   0  0  0  0  0  3  0  0  0  0  0  0
    8.4060   -7.7250    1.0030 C   0  0  0  0  0  3  0  0  0  0  0  0
    8.0520   -6.4090    0.7060 C   0  0  0  0  0  3  0  0  0  0  0  0
    6.9730   -5.8130    1.3610 C   0  0  0  0  0  3  0  0  0  0  0  0
    3.5630   -7.9480    3.3490 C   0  0  0  0  0  3  0  0  0  0  0  0
    2.5190   -8.3730    4.3950 C   0  0  0  0  0  2  0  0  0  0  0  0
    2.1780   -9.8580    4.2760 C   0  0  0  0  0  2  0  0  0  0  0  0
    1.7340  -10.2220    2.8620 C   0  0  0  0  0  2  0  0  0  0  0  0
    2.7720   -9.8120    1.8230 C   0  0  0  0  0  2  0  0  0  0  0  0
    3.1180   -8.3270    1.9270 C   0  0  0  0  0  2  0  0  0  0  0  0
    1.8500   -1.6120    5.5880 C   0  0  0  0  0  0  0  0  0  0  0  0
    2.4230   -1.1300    6.6200 O   0  0  0  0  0  1  0  0  0  0  0  0
    0.8820   -1.0520    4.9680 O   0  0  0  0  0  0  0  0  0  0  0  0
  1  2  1  0  0  0  0
  2 10  1  0  0  0  0
  3  2  1  0  0  0  0
  3  4  2  0  0  0  0
  4  5  1  0  0  0  0
  5  6  1  0  0  0  0
  6  7  2  0  0  0  0
  8  7  1  0  0  0  0
  8 23  1  0  0  0  0
  9  8  2  0  0  0  0
 10  5  2  0  0  0  0
 10  9  1  0  0  0  0
 11 12  1  0  0  0  0
 11  3  1  0  0  0  0
 13 12  2  0  0  0  0
 14 13  1  0  0  0  0
 15 14  2  0  0  0  0
 15 16  1  0  0  0  0
 16 11  2  0  0  0  0
 17  4  1  0  0  0  0
 17 18  1  0  0  0  0
 19 18  1  0  0  0  0
 20 19  1  0  0  0  0
 21 22  1  0  0  0  0
 21 20  1  0  0  0  0
 22 17  1  0  0  0  0
 23 24  1  0  0  0  0
 25 23  2  0  0  0  0
M  END
>  <minimizedAffinity>
-2.91871667

$$$$
