
 OpenBabel09122222393D

 25 28  0  0  0  0  0  0  0  0999 V2000
    4.9890   -5.7000    2.2320 C   0  0  0  0  0  1  0  0  0  0  0  0
    4.0570   -6.1700    3.2320 N   0  0  0  0  0  0  0  0  0  0  0  0
    3.3800   -7.3730    3.2290 C   0  0  0  0  0  0  0  0  0  0  0  0
    2.5790   -7.4080    4.3750 C   0  0  0  0  0  0  0  0  0  0  0  0
    2.8110   -6.1790    5.0820 C   0  0  0  0  0  0  0  0  0  0  0  0
    2.3460   -5.5960    6.2710 C   0  0  0  0  0  3  0  0  0  0  0  0
    2.8460   -4.3380    6.6210 C   0  0  0  0  0  3  0  0  0  0  0  0
    3.7820   -3.6860    5.8080 C   0  0  0  0  0  0  0  0  0  0  0  0
    4.2440   -4.2380    4.6470 N   0  0  0  0  0  0  0  0  0  0  0  0
    3.7340   -5.4460    4.3490 C   0  0  0  0  0  0  0  0  0  0  0  0
    3.5320   -8.3770    2.1790 C   0  0  0  0  0  0  0  0  0  0  0  0
    4.6620   -8.3710    1.3560 C   0  0  0  0  0  3  0  0  0  0  0  0
    4.8070   -9.3330    0.3540 C   0  0  0  0  0  3  0  0  0  0  0  0
    3.8230  -10.3060    0.1750 C   0  0  0  0  0  3  0  0  0  0  0  0
    2.6960  -10.3200    0.9960 C   0  0  0  0  0  3  0  0  0  0  0  0
    2.5500   -9.3580    1.9970 C   0  0  0  0  0  3  0  0  0  0  0  0
    1.6660   -8.5410    4.7800 C   0  0  0  0  0  3  0  0  0  0  0  0
    2.0580   -9.1530    6.1360 C   0  0  0  0  0  2  0  0  0  0  0  0
    1.1370  -10.3120    6.5150 C   0  0  0  0  0  2  0  0  0  0  0  0
   -0.3300   -9.8950    6.4930 C   0  0  0  0  0  2  0  0  0  0  0  0
   -0.7260   -9.2970    5.1470 C   0  0  0  0  0  2  0  0  0  0  0  0
    0.1840   -8.1320    4.7580 C   0  0  0  0  0  2  0  0  0  0  0  0
    4.2950   -2.2960    6.2580 C   0  0  0  0  0  0  0  0  0  0  0  0
    3.4410   -1.3770    6.4840 O   0  0  0  0  0  1  0  0  0  0  0  0
    5.5610   -2.1550    6.3780 O   0  0  0  0  0  0  0  0  0  0  0  0
  1  2  1  0  0  0  0
  2 10  1  0  0  0  0
  3  2  1  0  0  0  0
  3  4  2  0  0  0  0
  4 17  1  0  0  0  0
  4  5  1  0  0  0  0
  5  6  1  0  0  0  0
  6  7  2  0  0  0  0
  8 23  1  0  0  0  0
  8  7  1  0  0  0  0
  9  8  2  0  0  0  0
 10  9  1  0  0  0  0
 10  5  2  0  0  0  0
 11  3  1  0  0  0  0
 12 11  2  0  0  0  0
 13 12  1  0  0  0  0
 14 13  2  0  0  0  0
 14 15  1  0  0  0  0
 15 16  2  0  0  0  0
 16 11  1  0  0  0  0
 17 18  1  0  0  0  0
 18 19  1  0  0  0  0
 20 19  1  0  0  0  0
 21 20  1  0  0  0  0
 22 17  1  0  0  0  0
 22 21  1  0  0  0  0
 23 25  2  0  0  0  0
 23 24  1  0  0  0  0
M  END
>  <minimizedAffinity>
-3.09935975

$$$$
