
 OpenBabel09122222393D

 25 28  0  0  0  0  0  0  0  0999 V2000
    0.6780   -4.7690    5.1210 C   0  0  0  0  0  1  0  0  0  0  0  0
    0.9280   -6.1900    5.0260 N   0  0  0  0  0  0  0  0  0  0  0  0
    2.1270   -6.7980    4.7100 C   0  0  0  0  0  0  0  0  0  0  0  0
    1.9130   -8.1790    4.7210 C   0  0  0  0  0  0  0  0  0  0  0  0
    0.5350   -8.3850    5.0700 C   0  0  0  0  0  0  0  0  0  0  0  0
   -0.3040   -9.4950    5.2550 C   0  0  0  0  0  3  0  0  0  0  0  0
   -1.6340   -9.2560    5.6130 C   0  0  0  0  0  3  0  0  0  0  0  0
   -2.1080   -7.9480    5.7810 C   0  0  0  0  0  0  0  0  0  0  0  0
   -1.3070   -6.8570    5.6040 N   0  0  0  0  0  0  0  0  0  0  0  0
   -0.0370   -7.1340    5.2580 C   0  0  0  0  0  0  0  0  0  0  0  0
    3.3540   -6.0560    4.4330 C   0  0  0  0  0  0  0  0  0  0  0  0
    3.9400   -6.1110    3.1640 C   0  0  0  0  0  3  0  0  0  0  0  0
    5.1120   -5.3990    2.9000 C   0  0  0  0  0  3  0  0  0  0  0  0
    5.7000   -4.6280    3.9030 C   0  0  0  0  0  3  0  0  0  0  0  0
    5.1190   -4.5670    5.1690 C   0  0  0  0  0  3  0  0  0  0  0  0
    3.9470   -5.2790    5.4340 C   0  0  0  0  0  3  0  0  0  0  0  0
    2.9540   -9.2360    4.4330 C   0  0  0  0  0  3  0  0  0  0  0  0
    3.4170   -9.2190    2.9660 C   0  0  0  0  0  2  0  0  0  0  0  0
    4.4500  -10.3110    2.6920 C   0  0  0  0  0  2  0  0  0  0  0  0
    5.6320  -10.2220    3.6530 C   0  0  0  0  0  2  0  0  0  0  0  0
    5.1770  -10.2500    5.1090 C   0  0  0  0  0  2  0  0  0  0  0  0
    4.1480   -9.1580    5.3980 C   0  0  0  0  0  2  0  0  0  0  0  0
   -3.5920   -7.7570    6.1820 C   0  0  0  0  0  0  0  0  0  0  0  0
   -4.2370   -8.7650    6.6210 O   0  0  0  0  0  1  0  0  0  0  0  0
   -4.0850   -6.5840    6.0440 O   0  0  0  0  0  0  0  0  0  0  0  0
  2  1  1  0  0  0  0
  2 10  1  0  0  0  0
  3  4  2  0  0  0  0
  3  2  1  0  0  0  0
  4  5  1  0  0  0  0
  5  6  2  0  0  0  0
  5 10  1  0  0  0  0
  6  7  1  0  0  0  0
  7  8  2  0  0  0  0
  8 23  1  0  0  0  0
  9  8  1  0  0  0  0
 10  9  2  0  0  0  0
 11  3  1  0  0  0  0
 11 16  1  0  0  0  0
 12 11  2  0  0  0  0
 13 12  1  0  0  0  0
 13 14  2  0  0  0  0
 14 15  1  0  0  0  0
 15 16  2  0  0  0  0
 17  4  1  0  0  0  0
 17 22  1  0  0  0  0
 18 17  1  0  0  0  0
 19 18  1  0  0  0  0
 19 20  1  0  0  0  0
 20 21  1  0  0  0  0
 21 22  1  0  0  0  0
 23 24  1  0  0  0  0
 25 23  2  0  0  0  0
M  END
>  <minimizedAffinity>
-3.87506866

$$$$
