
 OpenBabel09122222393D

 25 28  0  0  0  0  0  0  0  0999 V2000
   -0.1300   -5.1600    5.8170 C   0  0  0  0  0  1  0  0  0  0  0  0
    0.6160   -6.3320    5.4140 N   0  0  0  0  0  0  0  0  0  0  0  0
    1.9780   -6.4120    5.2060 C   0  0  0  0  0  0  0  0  0  0  0  0
    2.2680   -7.7230    4.8170 C   0  0  0  0  0  0  0  0  0  0  0  0
    1.0230   -8.4410    4.8110 C   0  0  0  0  0  0  0  0  0  0  0  0
    0.6160   -9.7540    4.5290 C   0  0  0  0  0  3  0  0  0  0  0  0
   -0.7430  -10.0590    4.6550 C   0  0  0  0  0  3  0  0  0  0  0  0
   -1.6640   -9.0800    5.0520 C   0  0  0  0  0  0  0  0  0  0  0  0
   -1.2860   -7.7980    5.3300 N   0  0  0  0  0  0  0  0  0  0  0  0
    0.0290   -7.5500    5.1920 C   0  0  0  0  0  0  0  0  0  0  0  0
    2.8860   -5.2820    5.3870 C   0  0  0  0  0  0  0  0  0  0  0  0
    3.8060   -5.2780    6.4390 C   0  0  0  0  0  3  0  0  0  0  0  0
    4.6750   -4.1980    6.6090 C   0  0  0  0  0  3  0  0  0  0  0  0
    4.6270   -3.1200    5.7240 C   0  0  0  0  0  3  0  0  0  0  0  0
    3.7140   -3.1200    4.6700 C   0  0  0  0  0  3  0  0  0  0  0  0
    2.8450   -4.2000    4.5010 C   0  0  0  0  0  3  0  0  0  0  0  0
    3.6390   -8.2650    4.4880 C   0  0  0  0  0  3  0  0  0  0  0  0
    4.0210   -9.4680    5.3680 C   0  0  0  0  0  2  0  0  0  0  0  0
    5.4200   -9.9840    5.0350 C   0  0  0  0  0  2  0  0  0  0  0  0
    5.5620  -10.3090    3.5510 C   0  0  0  0  0  2  0  0  0  0  0  0
    5.1940   -9.1150    2.6750 C   0  0  0  0  0  2  0  0  0  0  0  0
    3.7930   -8.5930    2.9940 C   0  0  0  0  0  2  0  0  0  0  0  0
   -3.1530   -9.4890    5.1750 C   0  0  0  0  0  0  0  0  0  0  0  0
   -3.8140   -9.0790    6.1840 O   0  0  0  0  0  1  0  0  0  0  0  0
   -3.6320  -10.2210    4.2420 O   0  0  0  0  0  0  0  0  0  0  0  0
  2  1  1  0  0  0  0
  3 11  1  0  0  0  0
  3  2  1  0  0  0  0
  4  3  2  0  0  0  0
  5  4  1  0  0  0  0
  5 10  1  0  0  0  0
  6  7  1  0  0  0  0
  6  5  2  0  0  0  0
  7  8  2  0  0  0  0
  8 23  1  0  0  0  0
  8  9  1  0  0  0  0
 10  9  2  0  0  0  0
 10  2  1  0  0  0  0
 11 12  1  0  0  0  0
 12 13  2  0  0  0  0
 14 13  1  0  0  0  0
 15 14  2  0  0  0  0
 16 15  1  0  0  0  0
 16 11  2  0  0  0  0
 17  4  1  0  0  0  0
 17 18  1  0  0  0  0
 19 18  1  0  0  0  0
 20 19  1  0  0  0  0
 21 22  1  0  0  0  0
 21 20  1  0  0  0  0
 22 17  1  0  0  0  0
 23 24  1  0  0  0  0
 25 23  2  0  0  0  0
M  END
>  <minimizedAffinity>
-2.77266026

$$$$
