
 OpenBabel09122222163D

 25 28  0  0  0  0  0  0  0  0999 V2000
    4.8190   -3.1120    2.2700 C   0  0  0  0  0  1  0  0  0  0  0  0
    4.3370   -4.3600    2.8180 N   0  0  0  0  0  0  0  0  0  0  0  0
    3.6650   -4.5320    4.0120 C   0  0  0  0  0  0  0  0  0  0  0  0
    3.4000   -5.8980    4.1520 C   0  0  0  0  0  0  0  0  0  0  0  0
    3.9270   -6.5460    2.9830 C   0  0  0  0  0  0  0  0  0  0  0  0
    3.9930   -7.8630    2.5020 C   0  0  0  0  0  3  0  0  0  0  0  0
    4.6090   -8.0780    1.2660 C   0  0  0  0  0  3  0  0  0  0  0  0
    5.1420   -7.0080    0.5340 C   0  0  0  0  0  0  0  0  0  0  0  0
    5.0890   -5.7210    0.9870 N   0  0  0  0  0  0  0  0  0  0  0  0
    4.4900   -5.5630    2.1810 C   0  0  0  0  0  0  0  0  0  0  0  0
    3.3280   -3.4310    4.9100 C   0  0  0  0  0  0  0  0  0  0  0  0
    4.2990   -2.8880    5.7570 C   0  0  0  0  0  3  0  0  0  0  0  0
    3.9760   -1.8330    6.6120 C   0  0  0  0  0  3  0  0  0  0  0  0
    2.6800   -1.3160    6.6210 C   0  0  0  0  0  3  0  0  0  0  0  0
    1.7080   -1.8500    5.7760 C   0  0  0  0  0  3  0  0  0  0  0  0
    2.0310   -2.9050    4.9210 C   0  0  0  0  0  3  0  0  0  0  0  0
    2.6790   -6.5440    5.3110 C   0  0  0  0  0  3  0  0  0  0  0  0
    1.1620   -6.2870    5.2750 C   0  0  0  0  0  2  0  0  0  0  0  0
    0.4560   -6.9280    6.4690 C   0  0  0  0  0  2  0  0  0  0  0  0
    0.7700   -8.4180    6.5740 C   0  0  0  0  0  2  0  0  0  0  0  0
    2.2720   -8.6760    6.6210 C   0  0  0  0  0  2  0  0  0  0  0  0
    2.9900   -8.0450    5.4290 C   0  0  0  0  0  2  0  0  0  0  0  0
    5.8080   -7.3190   -0.8290 C   0  0  0  0  0  0  0  0  0  0  0  0
    5.6480   -8.4790   -1.3330 O   0  0  0  0  0  1  0  0  0  0  0  0
    6.4860   -6.3800   -1.3720 O   0  0  0  0  0  0  0  0  0  0  0  0
  1  2  1  0  0  0  0
  2  3  1  0  0  0  0
  3  4  2  0  0  0  0
  3 11  1  0  0  0  0
  4 17  1  0  0  0  0
  5  4  1  0  0  0  0
  6  5  1  0  0  0  0
  7  6  2  0  0  0  0
  8  9  2  0  0  0  0
  8  7  1  0  0  0  0
  9 10  1  0  0  0  0
 10  2  1  0  0  0  0
 10  5  2  0  0  0  0
 11 16  2  0  0  0  0
 11 12  1  0  0  0  0
 12 13  2  0  0  0  0
 13 14  1  0  0  0  0
 15 14  2  0  0  0  0
 16 15  1  0  0  0  0
 17 22  1  0  0  0  0
 18 17  1  0  0  0  0
 18 19  1  0  0  0  0
 19 20  1  0  0  0  0
 20 21  1  0  0  0  0
 22 21  1  0  0  0  0
 23  8  1  0  0  0  0
 24 23  1  0  0  0  0
 25 23  2  0  0  0  0
M  END
>  <minimizedAffinity>
-4.90009928

$$$$

 OpenBabel09122222163D

 25 28  0  0  0  0  0  0  0  0999 V2000
    3.5490   -8.6590    3.2570 C   0  0  0  0  0  1  0  0  0  0  0  0
    3.7050   -7.2570    3.5730 N   0  0  0  0  0  0  0  0  0  0  0  0
    2.9020   -6.5050    4.4080 C   0  0  0  0  0  0  0  0  0  0  0  0
    3.4070   -5.2020    4.4150 C   0  0  0  0  0  0  0  0  0  0  0  0
    4.5610   -5.1970    3.5590 C   0  0  0  0  0  0  0  0  0  0  0  0
    5.5050   -4.2460    3.1410 C   0  0  0  0  0  3  0  0  0  0  0  0
    6.5180   -4.6660    2.2740 C   0  0  0  0  0  3  0  0  0  0  0  0
    6.5830   -5.9970    1.8390 C   0  0  0  0  0  0  0  0  0  0  0  0
    5.6730   -6.9350    2.2330 N   0  0  0  0  0  0  0  0  0  0  0  0
    4.7160   -6.4850    3.0650 C   0  0  0  0  0  0  0  0  0  0  0  0
    1.7510   -7.0520    5.1220 C   0  0  0  0  0  0  0  0  0  0  0  0
    0.4910   -6.4600    4.9870 C   0  0  0  0  0  3  0  0  0  0  0  0
   -0.6080   -6.9860    5.6680 C   0  0  0  0  0  3  0  0  0  0  0  0
   -0.4520   -8.1070    6.4840 C   0  0  0  0  0  3  0  0  0  0  0  0
    0.8010   -8.7040    6.6190 C   0  0  0  0  0  3  0  0  0  0  0  0
    1.9010   -8.1780    5.9380 C   0  0  0  0  0  3  0  0  0  0  0  0
    2.8410   -4.0390    5.1960 C   0  0  0  0  0  3  0  0  0  0  0  0
    3.9400   -3.1580    5.8150 C   0  0  0  0  0  2  0  0  0  0  0  0
    3.3460   -2.0040    6.6200 C   0  0  0  0  0  2  0  0  0  0  0  0
    2.3720   -1.1780    5.7850 C   0  0  0  0  0  2  0  0  0  0  0  0
    1.2750   -2.0460    5.1780 C   0  0  0  0  0  2  0  0  0  0  0  0
    1.8560   -3.2020    4.3640 C   0  0  0  0  0  2  0  0  0  0  0  0
    7.7330   -6.3940    0.8810 C   0  0  0  0  0  0  0  0  0  0  0  0
    8.1070   -5.5520   -0.0000 O   0  0  0  0  0  0  0  0  0  0  0  0
    8.2430   -7.5570    1.0360 O   0  0  0  0  0  1  0  0  0  0  0  0
  1  2  1  0  0  0  0
  2  3  1  0  0  0  0
  3  4  2  0  0  0  0
  3 11  1  0  0  0  0
  4 17  1  0  0  0  0
  5  4  1  0  0  0  0
  6  5  1  0  0  0  0
  7  6  2  0  0  0  0
  8  9  2  0  0  0  0
  8  7  1  0  0  0  0
  9 10  1  0  0  0  0
 10  5  2  0  0  0  0
 10  2  1  0  0  0  0
 11 16  1  0  0  0  0
 12 11  2  0  0  0  0
 12 13  1  0  0  0  0
 13 14  2  0  0  0  0
 14 15  1  0  0  0  0
 16 15  2  0  0  0  0
 17 18  1  0  0  0  0
 18 19  1  0  0  0  0
 20 19  1  0  0  0  0
 21 20  1  0  0  0  0
 22 21  1  0  0  0  0
 22 17  1  0  0  0  0
 23 25  1  0  0  0  0
 23  8  1  0  0  0  0
 24 23  2  0  0  0  0
M  END
>  <minimizedAffinity>
-4.81467819

$$$$

 OpenBabel09122222163D

 25 28  0  0  0  0  0  0  0  0999 V2000
    2.9040   -9.1980    2.2140 C   0  0  0  0  0  1  0  0  0  0  0  0
    3.3360   -7.9280    2.7530 N   0  0  0  0  0  0  0  0  0  0  0  0
    2.9370   -7.3590    3.9470 C   0  0  0  0  0  0  0  0  0  0  0  0
    3.5910   -6.1300    4.0650 C   0  0  0  0  0  0  0  0  0  0  0  0
    4.4160   -5.9820    2.8980 C   0  0  0  0  0  0  0  0  0  0  0  0
    5.3060   -5.0150    2.4070 C   0  0  0  0  0  3  0  0  0  0  0  0
    5.9380   -5.2670    1.1860 C   0  0  0  0  0  3  0  0  0  0  0  0
    5.6870   -6.4510    0.4790 C   0  0  0  0  0  0  0  0  0  0  0  0
    4.8230   -7.4030    0.9410 N   0  0  0  0  0  0  0  0  0  0  0  0
    4.2370   -7.1160    2.1170 C   0  0  0  0  0  0  0  0  0  0  0  0
    1.9980   -7.9970    4.8650 C   0  0  0  0  0  0  0  0  0  0  0  0
    0.7160   -7.4680    5.0440 C   0  0  0  0  0  3  0  0  0  0  0  0
   -0.1810   -8.0800    5.9200 C   0  0  0  0  0  3  0  0  0  0  0  0
    0.1990   -9.2260    6.6190 C   0  0  0  0  0  3  0  0  0  0  0  0
    1.4750   -9.7610    6.4430 C   0  0  0  0  0  3  0  0  0  0  0  0
    2.3730   -9.1480    5.5670 C   0  0  0  0  0  3  0  0  0  0  0  0
    3.4540   -5.1640    5.2190 C   0  0  0  0  0  3  0  0  0  0  0  0
    4.7260   -4.3260    5.4360 C   0  0  0  0  0  2  0  0  0  0  0  0
    4.5750   -3.3740    6.6210 C   0  0  0  0  0  2  0  0  0  0  0  0
    3.3390   -2.4900    6.4790 C   0  0  0  0  0  2  0  0  0  0  0  0
    2.0750   -3.3170    6.2740 C   0  0  0  0  0  2  0  0  0  0  0  0
    2.2110   -4.2700    5.0870 C   0  0  0  0  0  2  0  0  0  0  0  0
    6.4230   -6.6660   -0.8660 C   0  0  0  0  0  0  0  0  0  0  0  0
    6.1270   -7.6910   -1.5640 O   0  0  0  0  0  0  0  0  0  0  0  0
    7.2940   -5.7900   -1.1980 O   0  0  0  0  0  1  0  0  0  0  0  0
  1  2  1  0  0  0  0
  2  3  1  0  0  0  0
  3  4  2  0  0  0  0
  3 11  1  0  0  0  0
  4 17  1  0  0  0  0
  5  4  1  0  0  0  0
  6  5  1  0  0  0  0
  7  6  2  0  0  0  0
  8  9  2  0  0  0  0
  8  7  1  0  0  0  0
  9 10  1  0  0  0  0
 10  2  1  0  0  0  0
 10  5  2  0  0  0  0
 11 12  2  0  0  0  0
 11 16  1  0  0  0  0
 12 13  1  0  0  0  0
 13 14  2  0  0  0  0
 15 14  1  0  0  0  0
 16 15  2  0  0  0  0
 17 18  1  0  0  0  0
 18 19  1  0  0  0  0
 20 19  1  0  0  0  0
 21 20  1  0  0  0  0
 22 17  1  0  0  0  0
 22 21  1  0  0  0  0
 23  8  1  0  0  0  0
 24 23  2  0  0  0  0
 25 23  1  0  0  0  0
M  END
>  <minimizedAffinity>
-4.21793699

$$$$

 OpenBabel09122222163D

 25 28  0  0  0  0  0  0  0  0999 V2000
    0.6780   -4.7690    5.1210 C   0  0  0  0  0  1  0  0  0  0  0  0
    0.9280   -6.1900    5.0260 N   0  0  0  0  0  0  0  0  0  0  0  0
    2.1270   -6.7980    4.7100 C   0  0  0  0  0  0  0  0  0  0  0  0
    1.9130   -8.1790    4.7210 C   0  0  0  0  0  0  0  0  0  0  0  0
    0.5350   -8.3850    5.0700 C   0  0  0  0  0  0  0  0  0  0  0  0
   -0.3040   -9.4950    5.2550 C   0  0  0  0  0  3  0  0  0  0  0  0
   -1.6340   -9.2560    5.6130 C   0  0  0  0  0  3  0  0  0  0  0  0
   -2.1080   -7.9480    5.7810 C   0  0  0  0  0  0  0  0  0  0  0  0
   -1.3070   -6.8570    5.6040 N   0  0  0  0  0  0  0  0  0  0  0  0
   -0.0370   -7.1340    5.2580 C   0  0  0  0  0  0  0  0  0  0  0  0
    3.3540   -6.0560    4.4330 C   0  0  0  0  0  0  0  0  0  0  0  0
    3.9400   -6.1110    3.1640 C   0  0  0  0  0  3  0  0  0  0  0  0
    5.1120   -5.3990    2.9000 C   0  0  0  0  0  3  0  0  0  0  0  0
    5.7000   -4.6280    3.9030 C   0  0  0  0  0  3  0  0  0  0  0  0
    5.1190   -4.5670    5.1690 C   0  0  0  0  0  3  0  0  0  0  0  0
    3.9470   -5.2790    5.4340 C   0  0  0  0  0  3  0  0  0  0  0  0
    2.9540   -9.2360    4.4330 C   0  0  0  0  0  3  0  0  0  0  0  0
    3.4170   -9.2190    2.9660 C   0  0  0  0  0  2  0  0  0  0  0  0
    4.4500  -10.3110    2.6920 C   0  0  0  0  0  2  0  0  0  0  0  0
    5.6320  -10.2220    3.6530 C   0  0  0  0  0  2  0  0  0  0  0  0
    5.1770  -10.2500    5.1090 C   0  0  0  0  0  2  0  0  0  0  0  0
    4.1480   -9.1580    5.3980 C   0  0  0  0  0  2  0  0  0  0  0  0
   -3.5920   -7.7570    6.1820 C   0  0  0  0  0  0  0  0  0  0  0  0
   -4.2370   -8.7650    6.6210 O   0  0  0  0  0  1  0  0  0  0  0  0
   -4.0850   -6.5840    6.0440 O   0  0  0  0  0  0  0  0  0  0  0  0
  2  1  1  0  0  0  0
  2 10  1  0  0  0  0
  3  4  2  0  0  0  0
  3  2  1  0  0  0  0
  4  5  1  0  0  0  0
  5  6  2  0  0  0  0
  5 10  1  0  0  0  0
  6  7  1  0  0  0  0
  7  8  2  0  0  0  0
  8 23  1  0  0  0  0
  9  8  1  0  0  0  0
 10  9  2  0  0  0  0
 11  3  1  0  0  0  0
 11 16  1  0  0  0  0
 12 11  2  0  0  0  0
 13 12  1  0  0  0  0
 13 14  2  0  0  0  0
 14 15  1  0  0  0  0
 15 16  2  0  0  0  0
 17  4  1  0  0  0  0
 17 22  1  0  0  0  0
 18 17  1  0  0  0  0
 19 18  1  0  0  0  0
 19 20  1  0  0  0  0
 20 21  1  0  0  0  0
 21 22  1  0  0  0  0
 23 24  1  0  0  0  0
 25 23  2  0  0  0  0
M  END
>  <minimizedAffinity>
-3.87506866

$$$$

 OpenBabel09122222163D

 25 28  0  0  0  0  0  0  0  0999 V2000
    1.5130   -3.9630    5.6730 C   0  0  0  0  0  1  0  0  0  0  0  0
    1.9260   -5.3110    5.3540 N   0  0  0  0  0  0  0  0  0  0  0  0
    3.2170   -5.7470    5.1280 C   0  0  0  0  0  0  0  0  0  0  0  0
    3.1540   -7.1140    4.8430 C   0  0  0  0  0  0  0  0  0  0  0  0
    1.7710   -7.4940    4.9190 C   0  0  0  0  0  0  0  0  0  0  0  0
    1.0380   -8.6790    4.7540 C   0  0  0  0  0  3  0  0  0  0  0  0
   -0.3470   -8.6230    4.9300 C   0  0  0  0  0  3  0  0  0  0  0  0
   -0.9790   -7.4160    5.2630 C   0  0  0  0  0  0  0  0  0  0  0  0
   -0.2830   -6.2530    5.4270 N   0  0  0  0  0  0  0  0  0  0  0  0
    1.0460   -6.3550    5.2440 C   0  0  0  0  0  0  0  0  0  0  0  0
    4.3830   -4.8720    5.1980 C   0  0  0  0  0  0  0  0  0  0  0  0
    4.8980   -4.4800    6.4370 C   0  0  0  0  0  3  0  0  0  0  0  0
    6.0150   -3.6450    6.5020 C   0  0  0  0  0  3  0  0  0  0  0  0
    6.6230   -3.2020    5.3270 C   0  0  0  0  0  3  0  0  0  0  0  0
    6.1160   -3.5920    4.0880 C   0  0  0  0  0  3  0  0  0  0  0  0
    4.9990   -4.4270    4.0230 C   0  0  0  0  0  3  0  0  0  0  0  0
    4.3330   -8.0070    4.5340 C   0  0  0  0  0  3  0  0  0  0  0  0
    4.1380   -9.4400    5.0590 C   0  0  0  0  0  2  0  0  0  0  0  0
    5.3510  -10.3180    4.7570 C   0  0  0  0  0  2  0  0  0  0  0  0
    5.6970  -10.3090    3.2710 C   0  0  0  0  0  2  0  0  0  0  0  0
    5.9020   -8.8910    2.7490 C   0  0  0  0  0  2  0  0  0  0  0  0
    4.6920   -8.0030    3.0390 C   0  0  0  0  0  2  0  0  0  0  0  0
   -2.5170   -7.4270    5.4460 C   0  0  0  0  0  0  0  0  0  0  0  0
   -3.1630   -8.4690    5.0970 O   0  0  0  0  0  0  0  0  0  0  0  0
   -3.0500   -6.3750    5.9430 O   0  0  0  0  0  1  0  0  0  0  0  0
  2  1  1  0  0  0  0
  3 11  1  0  0  0  0
  3  2  1  0  0  0  0
  4  5  1  0  0  0  0
  4  3  2  0  0  0  0
  5 10  1  0  0  0  0
  6  5  2  0  0  0  0
  6  7  1  0  0  0  0
  7  8  2  0  0  0  0
  8  9  1  0  0  0  0
  8 23  1  0  0  0  0
 10  2  1  0  0  0  0
 10  9  2  0  0  0  0
 11 12  1  0  0  0  0
 12 13  2  0  0  0  0
 14 13  1  0  0  0  0
 15 14  2  0  0  0  0
 16 15  1  0  0  0  0
 16 11  2  0  0  0  0
 17  4  1  0  0  0  0
 17 18  1  0  0  0  0
 19 18  1  0  0  0  0
 20 19  1  0  0  0  0
 21 22  1  0  0  0  0
 21 20  1  0  0  0  0
 22 17  1  0  0  0  0
 23 25  1  0  0  0  0
 24 23  2  0  0  0  0
M  END
>  <minimizedAffinity>
-3.81059003

$$$$

 OpenBabel09122222163D

 25 28  0  0  0  0  0  0  0  0999 V2000
    3.2340   -9.9100    2.4310 C   0  0  0  0  0  1  0  0  0  0  0  0
    3.0540   -8.7380    3.2590 N   0  0  0  0  0  0  0  0  0  0  0  0
    3.9090   -7.6590    3.3600 C   0  0  0  0  0  0  0  0  0  0  0  0
    3.3520   -6.7660    4.2790 C   0  0  0  0  0  0  0  0  0  0  0  0
    2.1120   -7.3420    4.7210 C   0  0  0  0  0  0  0  0  0  0  0  0
    1.0880   -6.9750    5.6070 C   0  0  0  0  0  3  0  0  0  0  0  0
    0.0060   -7.8470    5.7540 C   0  0  0  0  0  3  0  0  0  0  0  0
   -0.0490   -9.0490    5.0350 C   0  0  0  0  0  0  0  0  0  0  0  0
    0.9390   -9.4230    4.1700 N   0  0  0  0  0  0  0  0  0  0  0  0
    1.9600   -8.5550    4.0630 C   0  0  0  0  0  0  0  0  0  0  0  0
    5.1540   -7.5490    2.6040 C   0  0  0  0  0  0  0  0  0  0  0  0
    5.3080   -6.5460    1.6420 C   0  0  0  0  0  3  0  0  0  0  0  0
    6.4990   -6.4390    0.9220 C   0  0  0  0  0  3  0  0  0  0  0  0
    7.5420   -7.3340    1.1640 C   0  0  0  0  0  3  0  0  0  0  0  0
    7.3960   -8.3340    2.1250 C   0  0  0  0  0  3  0  0  0  0  0  0
    6.2040   -8.4410    2.8450 C   0  0  0  0  0  3  0  0  0  0  0  0
    3.9490   -5.4420    4.6980 C   0  0  0  0  0  3  0  0  0  0  0  0
    3.1170   -4.2440    4.2110 C   0  0  0  0  0  2  0  0  0  0  0  0
    3.7510   -2.9160    4.6250 C   0  0  0  0  0  2  0  0  0  0  0  0
    3.9950   -2.8540    6.1300 C   0  0  0  0  0  2  0  0  0  0  0  0
    4.8290   -4.0360    6.6150 C   0  0  0  0  0  2  0  0  0  0  0  0
    4.2020   -5.3700    6.2130 C   0  0  0  0  0  2  0  0  0  0  0  0
   -1.2790   -9.9670    5.2440 C   0  0  0  0  0  0  0  0  0  0  0  0
   -1.5800  -10.3180    6.4330 O   0  0  0  0  0  1  0  0  0  0  0  0
   -1.9250  -10.3200    4.1980 O   0  0  0  0  0  0  0  0  0  0  0  0
  1  2  1  0  0  0  0
  2  3  1  0  0  0  0
  2 10  1  0  0  0  0
  3  4  2  0  0  0  0
  4 17  1  0  0  0  0
  4  5  1  0  0  0  0
  5  6  1  0  0  0  0
  6  7  2  0  0  0  0
  8 23  1  0  0  0  0
  8  7  1  0  0  0  0
  9  8  2  0  0  0  0
 10  9  1  0  0  0  0
 10  5  2  0  0  0  0
 11 16  1  0  0  0  0
 11  3  1  0  0  0  0
 12 11  2  0  0  0  0
 13 14  2  0  0  0  0
 13 12  1  0  0  0  0
 14 15  1  0  0  0  0
 15 16  2  0  0  0  0
 17 22  1  0  0  0  0
 18 19  1  0  0  0  0
 18 17  1  0  0  0  0
 19 20  1  0  0  0  0
 20 21  1  0  0  0  0
 22 21  1  0  0  0  0
 23 24  1  0  0  0  0
 25 23  2  0  0  0  0
M  END
>  <minimizedAffinity>
-3.73397875

$$$$

 OpenBabel09122222163D

 25 28  0  0  0  0  0  0  0  0999 V2000
    4.0820   -4.6730    5.6230 C   0  0  0  0  0  1  0  0  0  0  0  0
    4.3380   -5.5960    4.5390 N   0  0  0  0  0  0  0  0  0  0  0  0
    3.6580   -6.7680    4.2760 C   0  0  0  0  0  0  0  0  0  0  0  0
    4.2420   -7.3480    3.1460 C   0  0  0  0  0  0  0  0  0  0  0  0
    5.2970   -6.4690    2.7250 C   0  0  0  0  0  0  0  0  0  0  0  0
    6.2450   -6.4530    1.6900 C   0  0  0  0  0  3  0  0  0  0  0  0
    7.1240   -5.3680    1.6250 C   0  0  0  0  0  3  0  0  0  0  0  0
    7.0560   -4.3320    2.5660 C   0  0  0  0  0  0  0  0  0  0  0  0
    6.1420   -4.3320    3.5810 N   0  0  0  0  0  0  0  0  0  0  0  0
    5.3190   -5.3960    3.6050 C   0  0  0  0  0  0  0  0  0  0  0  0
    2.5370   -7.2440    5.0820 C   0  0  0  0  0  0  0  0  0  0  0  0
    1.3250   -6.5470    5.0870 C   0  0  0  0  0  3  0  0  0  0  0  0
    0.2530   -7.0050    5.8560 C   0  0  0  0  0  3  0  0  0  0  0  0
    0.3900   -8.1630    6.6210 C   0  0  0  0  0  3  0  0  0  0  0  0
    1.5950   -8.8650    6.6190 C   0  0  0  0  0  3  0  0  0  0  0  0
    2.6670   -8.4070    5.8500 C   0  0  0  0  0  3  0  0  0  0  0  0
    3.8150   -8.6450    2.4980 C   0  0  0  0  0  3  0  0  0  0  0  0
    2.3310   -8.9630    2.7460 C   0  0  0  0  0  2  0  0  0  0  0  0
    1.9270  -10.2900    2.1030 C   0  0  0  0  0  2  0  0  0  0  0  0
    2.2660  -10.3200    0.6160 C   0  0  0  0  0  2  0  0  0  0  0  0
    3.7390  -10.0150    0.3670 C   0  0  0  0  0  2  0  0  0  0  0  0
    4.1540   -8.6870    0.9990 C   0  0  0  0  0  2  0  0  0  0  0  0
    8.0590   -3.1600    2.4320 C   0  0  0  0  0  0  0  0  0  0  0  0
    8.4440   -2.5660    3.4930 O   0  0  0  0  0  1  0  0  0  0  0  0
    8.4440   -2.8570    1.2500 O   0  0  0  0  0  0  0  0  0  0  0  0
  2  1  1  0  0  0  0
  3  2  1  0  0  0  0
  3 11  1  0  0  0  0
  4  3  2  0  0  0  0
  5  4  1  0  0  0  0
  5 10  1  0  0  0  0
  6  5  2  0  0  0  0
  7  6  1  0  0  0  0
  7  8  2  0  0  0  0
  8  9  1  0  0  0  0
  9 10  2  0  0  0  0
 10  2  1  0  0  0  0
 11 12  2  0  0  0  0
 11 16  1  0  0  0  0
 12 13  1  0  0  0  0
 13 14  2  0  0  0  0
 15 14  1  0  0  0  0
 16 15  2  0  0  0  0
 17 18  1  0  0  0  0
 17  4  1  0  0  0  0
 19 18  1  0  0  0  0
 20 19  1  0  0  0  0
 21 20  1  0  0  0  0
 21 22  1  0  0  0  0
 22 17  1  0  0  0  0
 23  8  1  0  0  0  0
 23 24  1  0  0  0  0
 25 23  2  0  0  0  0
M  END
>  <minimizedAffinity>
-3.72772765

$$$$

 OpenBabel09122222163D

 25 28  0  0  0  0  0  0  0  0999 V2000
    4.9890   -5.7000    2.2320 C   0  0  0  0  0  1  0  0  0  0  0  0
    4.0570   -6.1700    3.2320 N   0  0  0  0  0  0  0  0  0  0  0  0
    3.3800   -7.3730    3.2290 C   0  0  0  0  0  0  0  0  0  0  0  0
    2.5790   -7.4080    4.3750 C   0  0  0  0  0  0  0  0  0  0  0  0
    2.8110   -6.1790    5.0820 C   0  0  0  0  0  0  0  0  0  0  0  0
    2.3460   -5.5960    6.2710 C   0  0  0  0  0  3  0  0  0  0  0  0
    2.8460   -4.3380    6.6210 C   0  0  0  0  0  3  0  0  0  0  0  0
    3.7820   -3.6860    5.8080 C   0  0  0  0  0  0  0  0  0  0  0  0
    4.2440   -4.2380    4.6470 N   0  0  0  0  0  0  0  0  0  0  0  0
    3.7340   -5.4460    4.3490 C   0  0  0  0  0  0  0  0  0  0  0  0
    3.5320   -8.3770    2.1790 C   0  0  0  0  0  0  0  0  0  0  0  0
    4.6620   -8.3710    1.3560 C   0  0  0  0  0  3  0  0  0  0  0  0
    4.8070   -9.3330    0.3540 C   0  0  0  0  0  3  0  0  0  0  0  0
    3.8230  -10.3060    0.1750 C   0  0  0  0  0  3  0  0  0  0  0  0
    2.6960  -10.3200    0.9960 C   0  0  0  0  0  3  0  0  0  0  0  0
    2.5500   -9.3580    1.9970 C   0  0  0  0  0  3  0  0  0  0  0  0
    1.6660   -8.5410    4.7800 C   0  0  0  0  0  3  0  0  0  0  0  0
    2.0580   -9.1530    6.1360 C   0  0  0  0  0  2  0  0  0  0  0  0
    1.1370  -10.3120    6.5150 C   0  0  0  0  0  2  0  0  0  0  0  0
   -0.3300   -9.8950    6.4930 C   0  0  0  0  0  2  0  0  0  0  0  0
   -0.7260   -9.2970    5.1470 C   0  0  0  0  0  2  0  0  0  0  0  0
    0.1840   -8.1320    4.7580 C   0  0  0  0  0  2  0  0  0  0  0  0
    4.2950   -2.2960    6.2580 C   0  0  0  0  0  0  0  0  0  0  0  0
    3.4410   -1.3770    6.4840 O   0  0  0  0  0  1  0  0  0  0  0  0
    5.5610   -2.1550    6.3780 O   0  0  0  0  0  0  0  0  0  0  0  0
  1  2  1  0  0  0  0
  2 10  1  0  0  0  0
  3  2  1  0  0  0  0
  3  4  2  0  0  0  0
  4 17  1  0  0  0  0
  4  5  1  0  0  0  0
  5  6  1  0  0  0  0
  6  7  2  0  0  0  0
  8 23  1  0  0  0  0
  8  7  1  0  0  0  0
  9  8  2  0  0  0  0
 10  9  1  0  0  0  0
 10  5  2  0  0  0  0
 11  3  1  0  0  0  0
 12 11  2  0  0  0  0
 13 12  1  0  0  0  0
 14 13  2  0  0  0  0
 14 15  1  0  0  0  0
 15 16  2  0  0  0  0
 16 11  1  0  0  0  0
 17 18  1  0  0  0  0
 18 19  1  0  0  0  0
 20 19  1  0  0  0  0
 21 20  1  0  0  0  0
 22 17  1  0  0  0  0
 22 21  1  0  0  0  0
 23 25  2  0  0  0  0
 23 24  1  0  0  0  0
M  END
>  <minimizedAffinity>
-3.09935975

$$$$

 OpenBabel09122222163D

 25 28  0  0  0  0  0  0  0  0999 V2000
    6.0670   -3.5640    3.0000 C   0  0  0  0  0  1  0  0  0  0  0  0
    5.0620   -4.5590    3.3030 N   0  0  0  0  0  0  0  0  0  0  0  0
    5.1160   -5.9050    3.0000 C   0  0  0  0  0  0  0  0  0  0  0  0
    3.9330   -6.4880    3.4640 C   0  0  0  0  0  0  0  0  0  0  0  0
    3.1640   -5.4400    4.0750 C   0  0  0  0  0  0  0  0  0  0  0  0
    1.9210   -5.3450    4.7200 C   0  0  0  0  0  3  0  0  0  0  0  0
    1.5260   -4.0910    5.1970 C   0  0  0  0  0  3  0  0  0  0  0  0
    2.3490   -2.9690    5.0330 C   0  0  0  0  0  0  0  0  0  0  0  0
    3.5610   -3.0430    4.4060 N   0  0  0  0  0  0  0  0  0  0  0  0
    3.8980   -4.2670    3.9620 C   0  0  0  0  0  0  0  0  0  0  0  0
    6.2460   -6.5300    2.3180 C   0  0  0  0  0  0  0  0  0  0  0  0
    6.6040   -7.8500    2.6080 C   0  0  0  0  0  3  0  0  0  0  0  0
    7.6830   -8.4470    1.9530 C   0  0  0  0  0  3  0  0  0  0  0  0
    8.4060   -7.7250    1.0030 C   0  0  0  0  0  3  0  0  0  0  0  0
    8.0520   -6.4090    0.7060 C   0  0  0  0  0  3  0  0  0  0  0  0
    6.9730   -5.8130    1.3610 C   0  0  0  0  0  3  0  0  0  0  0  0
    3.5630   -7.9480    3.3490 C   0  0  0  0  0  3  0  0  0  0  0  0
    2.5190   -8.3730    4.3950 C   0  0  0  0  0  2  0  0  0  0  0  0
    2.1780   -9.8580    4.2760 C   0  0  0  0  0  2  0  0  0  0  0  0
    1.7340  -10.2220    2.8620 C   0  0  0  0  0  2  0  0  0  0  0  0
    2.7720   -9.8120    1.8230 C   0  0  0  0  0  2  0  0  0  0  0  0
    3.1180   -8.3270    1.9270 C   0  0  0  0  0  2  0  0  0  0  0  0
    1.8500   -1.6120    5.5880 C   0  0  0  0  0  0  0  0  0  0  0  0
    2.4230   -1.1300    6.6200 O   0  0  0  0  0  1  0  0  0  0  0  0
    0.8820   -1.0520    4.9680 O   0  0  0  0  0  0  0  0  0  0  0  0
  1  2  1  0  0  0  0
  2 10  1  0  0  0  0
  3  2  1  0  0  0  0
  3  4  2  0  0  0  0
  4  5  1  0  0  0  0
  5  6  1  0  0  0  0
  6  7  2  0  0  0  0
  8  7  1  0  0  0  0
  8 23  1  0  0  0  0
  9  8  2  0  0  0  0
 10  5  2  0  0  0  0
 10  9  1  0  0  0  0
 11 12  1  0  0  0  0
 11  3  1  0  0  0  0
 13 12  2  0  0  0  0
 14 13  1  0  0  0  0
 15 14  2  0  0  0  0
 15 16  1  0  0  0  0
 16 11  2  0  0  0  0
 17  4  1  0  0  0  0
 17 18  1  0  0  0  0
 19 18  1  0  0  0  0
 20 19  1  0  0  0  0
 21 22  1  0  0  0  0
 21 20  1  0  0  0  0
 22 17  1  0  0  0  0
 23 24  1  0  0  0  0
 25 23  2  0  0  0  0
M  END
>  <minimizedAffinity>
-2.91871667

$$$$

 OpenBabel09122222163D

 25 28  0  0  0  0  0  0  0  0999 V2000
   -0.1300   -5.1600    5.8170 C   0  0  0  0  0  1  0  0  0  0  0  0
    0.6160   -6.3320    5.4140 N   0  0  0  0  0  0  0  0  0  0  0  0
    1.9780   -6.4120    5.2060 C   0  0  0  0  0  0  0  0  0  0  0  0
    2.2680   -7.7230    4.8170 C   0  0  0  0  0  0  0  0  0  0  0  0
    1.0230   -8.4410    4.8110 C   0  0  0  0  0  0  0  0  0  0  0  0
    0.6160   -9.7540    4.5290 C   0  0  0  0  0  3  0  0  0  0  0  0
   -0.7430  -10.0590    4.6550 C   0  0  0  0  0  3  0  0  0  0  0  0
   -1.6640   -9.0800    5.0520 C   0  0  0  0  0  0  0  0  0  0  0  0
   -1.2860   -7.7980    5.3300 N   0  0  0  0  0  0  0  0  0  0  0  0
    0.0290   -7.5500    5.1920 C   0  0  0  0  0  0  0  0  0  0  0  0
    2.8860   -5.2820    5.3870 C   0  0  0  0  0  0  0  0  0  0  0  0
    3.8060   -5.2780    6.4390 C   0  0  0  0  0  3  0  0  0  0  0  0
    4.6750   -4.1980    6.6090 C   0  0  0  0  0  3  0  0  0  0  0  0
    4.6270   -3.1200    5.7240 C   0  0  0  0  0  3  0  0  0  0  0  0
    3.7140   -3.1200    4.6700 C   0  0  0  0  0  3  0  0  0  0  0  0
    2.8450   -4.2000    4.5010 C   0  0  0  0  0  3  0  0  0  0  0  0
    3.6390   -8.2650    4.4880 C   0  0  0  0  0  3  0  0  0  0  0  0
    4.0210   -9.4680    5.3680 C   0  0  0  0  0  2  0  0  0  0  0  0
    5.4200   -9.9840    5.0350 C   0  0  0  0  0  2  0  0  0  0  0  0
    5.5620  -10.3090    3.5510 C   0  0  0  0  0  2  0  0  0  0  0  0
    5.1940   -9.1150    2.6750 C   0  0  0  0  0  2  0  0  0  0  0  0
    3.7930   -8.5930    2.9940 C   0  0  0  0  0  2  0  0  0  0  0  0
   -3.1530   -9.4890    5.1750 C   0  0  0  0  0  0  0  0  0  0  0  0
   -3.8140   -9.0790    6.1840 O   0  0  0  0  0  1  0  0  0  0  0  0
   -3.6320  -10.2210    4.2420 O   0  0  0  0  0  0  0  0  0  0  0  0
  2  1  1  0  0  0  0
  3 11  1  0  0  0  0
  3  2  1  0  0  0  0
  4  3  2  0  0  0  0
  5  4  1  0  0  0  0
  5 10  1  0  0  0  0
  6  7  1  0  0  0  0
  6  5  2  0  0  0  0
  7  8  2  0  0  0  0
  8 23  1  0  0  0  0
  8  9  1  0  0  0  0
 10  9  2  0  0  0  0
 10  2  1  0  0  0  0
 11 12  1  0  0  0  0
 12 13  2  0  0  0  0
 14 13  1  0  0  0  0
 15 14  2  0  0  0  0
 16 15  1  0  0  0  0
 16 11  2  0  0  0  0
 17  4  1  0  0  0  0
 17 18  1  0  0  0  0
 19 18  1  0  0  0  0
 20 19  1  0  0  0  0
 21 22  1  0  0  0  0
 21 20  1  0  0  0  0
 22 17  1  0  0  0  0
 23 24  1  0  0  0  0
 25 23  2  0  0  0  0
M  END
>  <minimizedAffinity>
-2.77266026

$$$$
