
 OpenBabel09122222393D

 25 28  0  0  0  0  0  0  0  0999 V2000
    4.8190   -3.1120    2.2700 C   0  0  0  0  0  1  0  0  0  0  0  0
    4.3370   -4.3600    2.8180 N   0  0  0  0  0  0  0  0  0  0  0  0
    3.6650   -4.5320    4.0120 C   0  0  0  0  0  0  0  0  0  0  0  0
    3.4000   -5.8980    4.1520 C   0  0  0  0  0  0  0  0  0  0  0  0
    3.9270   -6.5460    2.9830 C   0  0  0  0  0  0  0  0  0  0  0  0
    3.9930   -7.8630    2.5020 C   0  0  0  0  0  3  0  0  0  0  0  0
    4.6090   -8.0780    1.2660 C   0  0  0  0  0  3  0  0  0  0  0  0
    5.1420   -7.0080    0.5340 C   0  0  0  0  0  0  0  0  0  0  0  0
    5.0890   -5.7210    0.9870 N   0  0  0  0  0  0  0  0  0  0  0  0
    4.4900   -5.5630    2.1810 C   0  0  0  0  0  0  0  0  0  0  0  0
    3.3280   -3.4310    4.9100 C   0  0  0  0  0  0  0  0  0  0  0  0
    4.2990   -2.8880    5.7570 C   0  0  0  0  0  3  0  0  0  0  0  0
    3.9760   -1.8330    6.6120 C   0  0  0  0  0  3  0  0  0  0  0  0
    2.6800   -1.3160    6.6210 C   0  0  0  0  0  3  0  0  0  0  0  0
    1.7080   -1.8500    5.7760 C   0  0  0  0  0  3  0  0  0  0  0  0
    2.0310   -2.9050    4.9210 C   0  0  0  0  0  3  0  0  0  0  0  0
    2.6790   -6.5440    5.3110 C   0  0  0  0  0  3  0  0  0  0  0  0
    1.1620   -6.2870    5.2750 C   0  0  0  0  0  2  0  0  0  0  0  0
    0.4560   -6.9280    6.4690 C   0  0  0  0  0  2  0  0  0  0  0  0
    0.7700   -8.4180    6.5740 C   0  0  0  0  0  2  0  0  0  0  0  0
    2.2720   -8.6760    6.6210 C   0  0  0  0  0  2  0  0  0  0  0  0
    2.9900   -8.0450    5.4290 C   0  0  0  0  0  2  0  0  0  0  0  0
    5.8080   -7.3190   -0.8290 C   0  0  0  0  0  0  0  0  0  0  0  0
    5.6480   -8.4790   -1.3330 O   0  0  0  0  0  1  0  0  0  0  0  0
    6.4860   -6.3800   -1.3720 O   0  0  0  0  0  0  0  0  0  0  0  0
  1  2  1  0  0  0  0
  2  3  1  0  0  0  0
  3  4  2  0  0  0  0
  3 11  1  0  0  0  0
  4 17  1  0  0  0  0
  5  4  1  0  0  0  0
  6  5  1  0  0  0  0
  7  6  2  0  0  0  0
  8  9  2  0  0  0  0
  8  7  1  0  0  0  0
  9 10  1  0  0  0  0
 10  2  1  0  0  0  0
 10  5  2  0  0  0  0
 11 16  2  0  0  0  0
 11 12  1  0  0  0  0
 12 13  2  0  0  0  0
 13 14  1  0  0  0  0
 15 14  2  0  0  0  0
 16 15  1  0  0  0  0
 17 22  1  0  0  0  0
 18 17  1  0  0  0  0
 18 19  1  0  0  0  0
 19 20  1  0  0  0  0
 20 21  1  0  0  0  0
 22 21  1  0  0  0  0
 23  8  1  0  0  0  0
 24 23  1  0  0  0  0
 25 23  2  0  0  0  0
M  END
>  <minimizedAffinity>
-4.90009928

$$$$
