
 OpenBabel09122222393D

 25 28  0  0  0  0  0  0  0  0999 V2000
    1.5130   -3.9630    5.6730 C   0  0  0  0  0  1  0  0  0  0  0  0
    1.9260   -5.3110    5.3540 N   0  0  0  0  0  0  0  0  0  0  0  0
    3.2170   -5.7470    5.1280 C   0  0  0  0  0  0  0  0  0  0  0  0
    3.1540   -7.1140    4.8430 C   0  0  0  0  0  0  0  0  0  0  0  0
    1.7710   -7.4940    4.9190 C   0  0  0  0  0  0  0  0  0  0  0  0
    1.0380   -8.6790    4.7540 C   0  0  0  0  0  3  0  0  0  0  0  0
   -0.3470   -8.6230    4.9300 C   0  0  0  0  0  3  0  0  0  0  0  0
   -0.9790   -7.4160    5.2630 C   0  0  0  0  0  0  0  0  0  0  0  0
   -0.2830   -6.2530    5.4270 N   0  0  0  0  0  0  0  0  0  0  0  0
    1.0460   -6.3550    5.2440 C   0  0  0  0  0  0  0  0  0  0  0  0
    4.3830   -4.8720    5.1980 C   0  0  0  0  0  0  0  0  0  0  0  0
    4.8980   -4.4800    6.4370 C   0  0  0  0  0  3  0  0  0  0  0  0
    6.0150   -3.6450    6.5020 C   0  0  0  0  0  3  0  0  0  0  0  0
    6.6230   -3.2020    5.3270 C   0  0  0  0  0  3  0  0  0  0  0  0
    6.1160   -3.5920    4.0880 C   0  0  0  0  0  3  0  0  0  0  0  0
    4.9990   -4.4270    4.0230 C   0  0  0  0  0  3  0  0  0  0  0  0
    4.3330   -8.0070    4.5340 C   0  0  0  0  0  3  0  0  0  0  0  0
    4.1380   -9.4400    5.0590 C   0  0  0  0  0  2  0  0  0  0  0  0
    5.3510  -10.3180    4.7570 C   0  0  0  0  0  2  0  0  0  0  0  0
    5.6970  -10.3090    3.2710 C   0  0  0  0  0  2  0  0  0  0  0  0
    5.9020   -8.8910    2.7490 C   0  0  0  0  0  2  0  0  0  0  0  0
    4.6920   -8.0030    3.0390 C   0  0  0  0  0  2  0  0  0  0  0  0
   -2.5170   -7.4270    5.4460 C   0  0  0  0  0  0  0  0  0  0  0  0
   -3.1630   -8.4690    5.0970 O   0  0  0  0  0  0  0  0  0  0  0  0
   -3.0500   -6.3750    5.9430 O   0  0  0  0  0  1  0  0  0  0  0  0
  2  1  1  0  0  0  0
  3 11  1  0  0  0  0
  3  2  1  0  0  0  0
  4  5  1  0  0  0  0
  4  3  2  0  0  0  0
  5 10  1  0  0  0  0
  6  5  2  0  0  0  0
  6  7  1  0  0  0  0
  7  8  2  0  0  0  0
  8  9  1  0  0  0  0
  8 23  1  0  0  0  0
 10  2  1  0  0  0  0
 10  9  2  0  0  0  0
 11 12  1  0  0  0  0
 12 13  2  0  0  0  0
 14 13  1  0  0  0  0
 15 14  2  0  0  0  0
 16 15  1  0  0  0  0
 16 11  2  0  0  0  0
 17  4  1  0  0  0  0
 17 18  1  0  0  0  0
 19 18  1  0  0  0  0
 20 19  1  0  0  0  0
 21 22  1  0  0  0  0
 21 20  1  0  0  0  0
 22 17  1  0  0  0  0
 23 25  1  0  0  0  0
 24 23  2  0  0  0  0
M  END
>  <minimizedAffinity>
-3.81059003

$$$$
