REMARK  Name = 
REMARK  11 active torsions:
REMARK  status: ('A' for Active; 'I' for Inactive)
REMARK    1  A    between atoms: C_1  and  C_2
REMARK    2  A    between atoms: C_2  and  N_3
REMARK    3  A    between atoms: C_4  and  O_5
REMARK    4  A    between atoms: C_6  and  C_7
REMARK    5  A    between atoms: C_7  and  O_8
REMARK    6  A    between atoms: O_8  and  P_9
REMARK    7  A    between atoms: P_9  and  O_12
REMARK    8  A    between atoms: O_12  and  P_13
REMARK    9  A    between atoms: P_13  and  O_16
REMARK   10  A    between atoms: O_16  and  P_17
REMARK   11  A    between atoms: C_22  and  C_23
REMARK                            x       y       z     vdW  Elec       q    Type
REMARK                         _______ _______ _______ _____ _____    ______ ____
ROOT
ATOM      1  C   UNL     1       0.208  -2.582  -4.541  0.00  0.00    +0.073 C 
ATOM      2  C   UNL     1      -0.358  -3.297  -3.324  0.00  0.00    +0.045 C 
ATOM      3  C   UNL     1       0.668  -4.161  -2.583  0.00  0.00    +0.199 C 
ATOM      4  C   UNL     1      -0.159  -4.463  -1.352  0.00  0.00    +0.180 C 
ATOM      5  O   UNL     1      -0.773  -3.231  -0.980  0.00  0.00    -0.356 OA
ATOM      6  C   UNL     1      -0.885  -2.407  -2.160  0.00  0.00    +0.220 C 
ENDROOT
BRANCH   6   7
ATOM      7  C   UNL     1      -0.074  -1.178  -1.811  0.00  0.00    +0.078 A 
ATOM      8  C   UNL     1       0.863  -0.970  -0.806  0.00  0.00    +0.028 A 
ATOM      9  C   UNL     1       1.107   0.420  -0.719  0.00  0.00    +0.033 A 
ATOM     10  C   UNL     1       0.311   1.017  -1.671  0.00  0.00    +0.105 A 
ATOM     11  C   UNL     1       0.035   2.373  -2.006  0.00  0.00    +0.144 A 
ATOM     12  N   UNL     1       0.524   3.428  -1.297  0.00  0.00    -0.341 N 
ATOM     13  N   UNL     1      -0.740   2.621  -3.019  0.00  0.00    -0.217 NA
ATOM     14  C   UNL     1      -1.285   1.550  -3.694  0.00  0.00    +0.245 A 
ATOM     15  N   UNL     1      -1.106   0.292  -3.444  0.00  0.00    -0.154 NA
ATOM     16  N   UNL     1      -0.337   0.045  -2.375  0.00  0.00    -0.229 N 
ATOM     17  H   UNL     1       0.906   3.267  -0.376  0.00  0.00    +0.144 HD
ATOM     18  H   UNL     1       0.137   4.334  -1.511  0.00  0.00    +0.144 HD
ENDBRANCH   6   7
BRANCH   2  19
ATOM     19  N   UNL     1      -1.410  -4.229  -3.817  0.00  0.00    +0.227 N 
ATOM     20  H   UNL     1      -2.199  -3.650  -4.234  0.00  0.00    +0.200 HD
ATOM     21  H   UNL     1      -1.271  -5.011  -4.435  0.00  0.00    +0.200 HD
ATOM     22  H   UNL     1      -2.142  -4.526  -3.080  0.00  0.00    +0.200 HD
ENDBRANCH   2  19
BRANCH   3  23
ATOM     23  O   UNL     1       1.086  -5.322  -3.314  0.00  0.00    -0.383 OA
ATOM     24  H   UNL     1       0.513  -6.058  -3.015  0.00  0.00    +0.210 HD
ENDBRANCH   3  23
BRANCH   4  25
ATOM     25  C   UNL     1       0.562  -5.050  -0.177  0.00  0.00    +0.202 C 
BRANCH  25  26
ATOM     26  O   UNL     1      -0.332  -6.005   0.350  0.00  0.00    -0.325 OA
BRANCH  26  27
ATOM     27  P   UNL     1      -1.845  -5.383   0.914  0.00  0.00    +0.218 P 
ATOM     28  O   UNL     1      -2.345  -6.845   0.964  0.00  0.00    -0.517 OA
ATOM     29  O   UNL     1      -1.094  -4.862   2.170  0.00  0.00    -0.437 OA
BRANCH  27  30
ATOM     30  O   UNL     1      -3.357  -4.762   1.478  0.00  0.00    -0.270 OA
BRANCH  30  31
ATOM     31  P   UNL     1      -4.338  -4.316   0.125  0.00  0.00    +0.221 P 
ATOM     32  O   UNL     1      -5.621  -4.704   0.923  0.00  0.00    -0.517 OA
ATOM     33  O   UNL     1      -3.880  -2.834   0.280  0.00  0.00    -0.437 OA
BRANCH  31  34
ATOM     34  O   UNL     1      -5.320  -3.870  -1.229  0.00  0.00    -0.314 OA
BRANCH  34  35
ATOM     35  P   UNL     1      -4.304  -3.497  -2.579  0.00  0.00    -0.007 P 
ATOM     36  O   UNL     1      -3.342  -4.704  -2.326  0.00  0.00    -0.637 OA
ATOM     37  O   UNL     1      -5.507  -3.732  -3.522  0.00  0.00    -0.577 OA
ATOM     38  O   UNL     1      -3.289  -3.123  -3.929  0.00  0.00    -0.577 OA
ENDBRANCH  34  35
ENDBRANCH  31  34
ENDBRANCH  30  31
ENDBRANCH  27  30
ENDBRANCH  26  27
ENDBRANCH  25  26
ENDBRANCH   4  25
TORSDOF 10
