
 OpenBabel09122222393D

 38 40  0  0  1  0  0  0  0  0999 V2000
    1.6320   -3.4080    6.3060 C   0  0  0  0  0  1  0  0  0  0  0  0
    2.2070   -3.7230    4.9340 C   0  0  1  0  0  0  0  0  0  0  0  0
    3.7270   -3.9180    4.9320 C   0  0  1  0  0  3  0  0  0  0  0  0
    3.8690   -4.4580    3.5250 C   0  0  2  0  0  3  0  0  0  0  0  0
    2.8150   -5.4030    3.3590 O   0  0  0  0  0  0  0  0  0  0  0  0
    1.7420   -5.0470    4.2580 C   0  0  1  0  0  3  0  0  0  0  0  0
    1.6070   -6.2640    5.1470 C   0  0  0  0  0  0  0  0  0  0  0  0
    2.5690   -6.9810    5.8480 C   0  0  0  0  0  3  0  0  0  0  0  0
    1.9810   -8.1930    6.2770 C   0  0  0  0  0  3  0  0  0  0  0  0
    0.6810   -8.1800    5.8230 C   0  0  0  0  0  0  0  0  0  0  0  0
   -0.3730   -9.1370    5.8440 C   0  0  0  0  0  0  0  0  0  0  0  0
   -0.2160  -10.4050    6.3140 N   0  0  0  0  0  0  0  0  0  0  0  0
   -1.5340   -8.7970    5.3710 N   0  0  0  0  0  0  0  0  0  0  0  0
   -1.6710   -7.5340    4.8370 C   0  0  0  0  0  3  0  0  0  0  0  0
   -0.7630   -6.6140    4.7570 N   0  0  0  0  0  0  0  0  0  0  0  0
    0.4410   -6.9850    5.2120 N   0  0  0  0  0  0  0  0  0  0  0  0
    0.7170  -10.7700    6.4450 H   0  0  0  0  0  0  0  0  0  0  0  0
   -0.9680  -11.0510    6.1310 H   0  0  0  0  0  0  0  0  0  0  0  0
    1.9360   -2.5430    4.0670 N   0  0  0  0  0  4  0  0  0  0  0  0
    0.8820   -2.4510    3.9500 H   0  0  0  0  0  0  0  0  0  0  0  0
    2.2920   -1.6120    4.2000 H   0  0  0  0  0  0  0  0  0  0  0  0
    1.9420   -2.7430    3.0050 H   0  0  0  0  0  0  0  0  0  0  0  0
    4.4670   -2.7150    5.1810 O   0  0  0  0  0  0  0  0  0  0  0  0
    4.6910   -2.3410    4.3030 H   0  0  0  0  0  0  0  0  0  0  0  0
    5.1810   -5.0880    3.1690 C   0  0  0  0  0  2  0  0  0  0  0  0
    5.2430   -5.0140    1.7620 O   0  0  0  0  0  0  0  0  0  0  0  0
    4.3330   -6.2140    0.9090 P   0  0  1  0  0  0  0  0  0  0  0  0
    5.0490   -5.7380   -0.3760 O   0  0  0  0  0  0  0  0  0  0  0  0
    5.0690   -7.2880    1.7570 O   0  0  0  0  0  1  0  0  0  0  0  0
    3.4250   -7.4130    0.0560 O   0  0  0  0  0  0  0  0  0  0  0  0
    3.7600   -8.9730    0.7240 P   0  0  1  0  0  0  0  0  0  0  0  0
    2.2970   -9.4220    0.4170 O   0  0  0  0  0  1  0  0  0  0  0  0
    4.7910   -9.2400   -0.4140 O   0  0  0  0  0  0  0  0  0  0  0  0
    4.0940  -10.5340    1.3930 O   0  0  0  0  0  0  0  0  0  0  0  0
    3.6830  -10.5410    3.0740 P   0  0  0  0  0  0  0  0  0  0  0  0
    5.1690  -10.4310    3.5480 O   0  0  0  0  0  1  0  0  0  0  0  0
    2.9040   -9.2210    2.8660 O   0  0  0  0  0  0  0  0  0  0  0  0
    3.2710  -10.5470    4.7540 O   0  0  0  0  0  1  0  0  0  0  0  0
  2  1  1  1  0  0  0
  3  2  1  0  0  0  0
  3 23  1  6  0  0  0
  4 25  1  1  0  0  0
  4  3  1  0  0  0  0
  5  4  1  0  0  0  0
  5  6  1  0  0  0  0
  6  2  1  0  0  0  0
  6  7  1  1  0  0  0
  7 16  1  0  0  0  0
  7  8  2  0  0  0  0
  8  9  1  0  0  0  0
 10 11  1  0  0  0  0
 10  9  2  0  0  0  0
 11 12  1  0  0  0  0
 12 17  1  0  0  0  0
 13 11  2  0  0  0  0
 14 13  1  0  0  0  0
 15 14  2  0  0  0  0
 15 16  1  0  0  0  0
 16 10  1  0  0  0  0
 18 12  1  0  0  0  0
 19 21  1  0  0  0  0
 19  2  1  0  0  0  0
 20 19  1  0  0  0  0
 22 19  1  0  0  0  0
 24 23  1  0  0  0  0
 26 25  1  0  0  0  0
 27 28  2  6  0  0  0
 27 29  1  0  0  0  0
 27 26  1  0  0  0  0
 30 31  1  0  0  0  0
 30 27  1  0  0  0  0
 31 33  2  6  0  0  0
 31 34  1  0  0  0  0
 32 31  1  0  0  0  0
 34 35  1  0  0  0  0
 35 36  1  0  0  0  0
 35 38  1  0  0  0  0
 37 35  2  0  0  0  0
M  END
>  <minimizedAffinity>
-3.52006054

$$$$
