
 OpenBabel09122222393D

 38 40  0  0  1  0  0  0  0  0999 V2000
    2.1720   -3.9160    3.9600 C   0  0  0  0  0  1  0  0  0  0  0  0
    2.8240   -4.8400    4.9770 C   0  0  1  0  0  0  0  0  0  0  0  0
    2.1610   -6.2180    5.0730 C   0  0  1  0  0  3  0  0  0  0  0  0
    3.2050   -6.8960    5.9340 C   0  0  2  0  0  3  0  0  0  0  0  0
    4.4680   -6.5110    5.3950 O   0  0  0  0  0  0  0  0  0  0  0  0
    4.3050   -5.2450    4.7200 C   0  0  1  0  0  3  0  0  0  0  0  0
    4.6970   -5.5540    3.2910 C   0  0  0  0  0  0  0  0  0  0  0  0
    4.6890   -4.7480    2.1590 C   0  0  0  0  0  3  0  0  0  0  0  0
    4.8570   -5.5820    1.0300 C   0  0  0  0  0  3  0  0  0  0  0  0
    4.9610   -6.8690    1.5070 C   0  0  0  0  0  0  0  0  0  0  0  0
    5.0430   -8.1430    0.8760 C   0  0  0  0  0  0  0  0  0  0  0  0
    4.9470   -8.3130   -0.4720 N   0  0  0  0  0  0  0  0  0  0  0  0
    5.1900   -9.2000    1.6190 N   0  0  0  0  0  0  0  0  0  0  0  0
    5.2220   -9.0300    2.9860 C   0  0  0  0  0  3  0  0  0  0  0  0
    5.1320   -7.9160    3.6410 N   0  0  0  0  0  0  0  0  0  0  0  0
    4.9410   -6.8360    2.8700 N   0  0  0  0  0  0  0  0  0  0  0  0
    4.5820   -7.5600   -1.0370 H   0  0  0  0  0  0  0  0  0  0  0  0
    4.8490   -9.2610   -0.8010 H   0  0  0  0  0  0  0  0  0  0  0  0
    2.6570   -4.2030    6.3130 N   0  0  0  0  0  4  0  0  0  0  0  0
    3.2080   -3.2930    6.3200 H   0  0  0  0  0  0  0  0  0  0  0  0
    1.7840   -4.0130    6.7780 H   0  0  0  0  0  0  0  0  0  0  0  0
    3.3600   -4.5270    7.0670 H   0  0  0  0  0  0  0  0  0  0  0  0
    0.8470   -6.1930    5.6470 O   0  0  0  0  0  0  0  0  0  0  0  0
    0.9590   -6.3760    6.6030 H   0  0  0  0  0  0  0  0  0  0  0  0
    3.1300   -8.3880    6.0440 C   0  0  0  0  0  2  0  0  0  0  0  0
    2.3910   -8.7930    4.9120 O   0  0  0  0  0  0  0  0  0  0  0  0
    1.0610   -9.8540    5.2270 P   0  0  1  0  0  0  0  0  0  0  0  0
    1.2130  -10.3570    3.7730 O   0  0  0  0  0  0  0  0  0  0  0  0
    1.9460  -10.5480    6.2980 O   0  0  0  0  0  1  0  0  0  0  0  0
   -0.2680  -10.9150    5.5410 O   0  0  0  0  0  0  0  0  0  0  0  0
   -1.7110   -9.9850    5.7510 P   0  0  1  0  0  0  0  0  0  0  0  0
   -0.9110   -8.6750    5.4760 O   0  0  0  0  0  1  0  0  0  0  0  0
   -2.3320  -10.6630    4.4920 O   0  0  0  0  0  0  0  0  0  0  0  0
   -3.1550   -9.0540    5.9620 O   0  0  0  0  0  0  0  0  0  0  0  0
   -2.8470   -7.4080    5.5260 P   0  0  0  0  0  0  0  0  0  0  0  0
   -3.0100   -7.6700    3.9930 O   0  0  0  0  0  0  0  0  0  0  0  0
   -4.1100   -6.9860    6.3140 O   0  0  0  0  0  1  0  0  0  0  0  0
   -2.5390   -5.7620    5.0930 O   0  0  0  0  0  1  0  0  0  0  0  0
  2  1  1  6  0  0  0
  2  3  1  0  0  0  0
  2 19  1  0  0  0  0
  3 23  1  1  0  0  0
  3  4  1  0  0  0  0
  4 25  1  6  0  0  0
  5  4  1  0  0  0  0
  6  7  1  6  0  0  0
  6  2  1  0  0  0  0
  6  5  1  0  0  0  0
  8  7  2  0  0  0  0
  9 10  2  0  0  0  0
  9  8  1  0  0  0  0
 10 16  1  0  0  0  0
 11 10  1  0  0  0  0
 11 13  2  0  0  0  0
 12 11  1  0  0  0  0
 13 14  1  0  0  0  0
 14 15  2  0  0  0  0
 16  7  1  0  0  0  0
 16 15  1  0  0  0  0
 17 12  1  0  0  0  0
 18 12  1  0  0  0  0
 19 20  1  0  0  0  0
 19 21  1  0  0  0  0
 19 22  1  0  0  0  0
 23 24  1  0  0  0  0
 26 27  1  0  0  0  0
 26 25  1  0  0  0  0
 27 28  2  6  0  0  0
 27 30  1  0  0  0  0
 27 29  1  0  0  0  0
 30 31  1  0  0  0  0
 31 33  2  6  0  0  0
 31 34  1  0  0  0  0
 32 31  1  0  0  0  0
 35 34  1  0  0  0  0
 35 37  1  0  0  0  0
 36 35  2  0  0  0  0
 38 35  1  0  0  0  0
M  END
>  <minimizedAffinity>
-5.0985446

$$$$
