REMARK  Name = 
REMARK  5 active torsions:
REMARK  status: ('A' for Active; 'I' for Inactive)
REMARK    1  A    between atoms: C_3  and  C_4
REMARK    2  A    between atoms: C_16  and  O_17
REMARK    3  A    between atoms: N_24  and  N_25
REMARK    4  A    between atoms: N_25  and  C_26
REMARK    5  A    between atoms: C_26  and  C_27
REMARK                            x       y       z     vdW  Elec       q    Type
REMARK                         _______ _______ _______ _____ _____    ______ ____
ROOT
ATOM      1  O   UNL     1       2.135   2.568  -1.172  0.00  0.00    -0.265 OA
ATOM      2  C   UNL     1       3.167   1.967  -0.849  0.00  0.00    +0.287 A 
ATOM      3  C   UNL     1       3.154   0.470  -0.842  0.00  0.00    +0.171 A 
ATOM      4  C   UNL     1       4.282  -0.185  -0.506  0.00  0.00    +0.146 A 
ATOM      5  C   UNL     1       5.549   0.524  -0.231  0.00  0.00    +0.043 A 
ATOM      6  C   UNL     1       6.771  -0.150  -0.047  0.00  0.00    +0.013 A 
ATOM      7  C   UNL     1       7.947   0.553   0.226  0.00  0.00    +0.001 A 
ATOM      8  C   UNL     1       7.926   1.940   0.302  0.00  0.00    +0.002 A 
ATOM      9  C   UNL     1       6.732   2.625   0.087  0.00  0.00    +0.028 A 
ATOM     10  C   UNL     1       5.543   1.929  -0.188  0.00  0.00    +0.075 A 
ATOM     11  N   UNL     1       4.333   2.617  -0.460  0.00  0.00    -0.229 N 
ENDROOT
BRANCH   3  12
ATOM     12  C   UNL     1       1.849  -0.207  -1.197  0.00  0.00    +0.308 C 
ATOM     13  N   UNL     1       0.792   0.507  -1.498  0.00  0.00    -0.131 N 
ATOM     14  S   UNL     1      -0.662  -0.052  -1.881  0.00  0.00    +0.141 S 
ATOM     15  O   UNL     1      -1.592   0.282  -0.820  0.00  0.00    -0.129 OA
ATOM     16  O   UNL     1      -0.970   0.326  -3.246  0.00  0.00    -0.129 OA
ATOM     17  C   UNL     1      -0.551  -1.809  -1.883  0.00  0.00    +0.175 A 
ATOM     18  C   UNL     1      -1.676  -2.569  -2.223  0.00  0.00    +0.035 A 
ATOM     19  C   UNL     1      -1.581  -3.958  -2.221  0.00  0.00    +0.002 A 
ATOM     20  C   UNL     1      -0.373  -4.568  -1.883  0.00  0.00    +0.004 A 
ATOM     21  C   UNL     1       0.741  -3.791  -1.547  0.00  0.00    +0.051 A 
ATOM     22  C   UNL     1       0.661  -2.395  -1.546  0.00  0.00    +0.147 A 
ATOM     23  N   UNL     1       1.764  -1.617  -1.217  0.00  0.00    -0.200 N 
ATOM     24  H   UNL     1       0.883   1.518  -1.492  0.00  0.00    +0.339 HD
ATOM     25  H   UNL     1       2.636  -2.097  -0.986  0.00  0.00    +0.298 HD
ENDBRANCH   3  12
BRANCH   4  26
ATOM     26  O   UNL     1       4.282  -1.568  -0.380  0.00  0.00    -0.505 OA
ATOM     27  H   UNL     1       4.955  -1.821   0.280  0.00  0.00    +0.292 HD
ENDBRANCH   4  26
BRANCH  11  28
ATOM     28  N   UNL     1       4.324   4.041  -0.445  0.00  0.00    -0.277 N 
ATOM     29  H   UNL     1       3.669   4.351  -1.172  0.00  0.00    +0.167 HD
BRANCH  28  30
ATOM     30  C   UNL     1       3.834   4.563   0.838  0.00  0.00    +0.156 C 
BRANCH  30  31
ATOM     31  C   UNL     1       3.674   6.062   0.775  0.00  0.00    -0.029 A 
ATOM     32  C   UNL     1       4.798   6.900   0.819  0.00  0.00    +0.005 A 
ATOM     33  C   UNL     1       4.652   8.286   0.741  0.00  0.00    +0.000 A 
ATOM     34  C   UNL     1       3.383   8.848   0.615  0.00  0.00    +0.000 A 
ATOM     35  C   UNL     1       2.259   8.025   0.563  0.00  0.00    +0.000 A 
ATOM     36  C   UNL     1       2.403   6.639   0.639  0.00  0.00    +0.005 A 
ENDBRANCH  30  31
ENDBRANCH  28  30
ENDBRANCH  11  28
TORSDOF 5
