
 OpenBabel09122222393D

 36 40  0  0  1  0  0  0  0  0999 V2000
   10.4360    2.7060   -0.8190 O   0  0  0  0  0  0  0  0  0  0  0  0
   10.4050    2.9820    0.3870 C   0  0  0  0  0  0  0  0  0  0  0  0
   10.2610    1.8660    1.3750 C   0  0  0  0  0  0  0  0  0  0  0  0
   10.2430    2.1640    2.6880 C   0  0  0  0  0  0  0  0  0  0  0  0
   10.4490    3.5410    3.1840 C   0  0  0  0  0  0  0  0  0  0  0  0
   10.6030    3.8410    4.5500 C   0  0  0  0  0  3  0  0  0  0  0  0
   10.7810    5.1570    4.9830 C   0  0  0  0  0  3  0  0  0  0  0  0
   10.8260    6.1930    4.0590 C   0  0  0  0  0  3  0  0  0  0  0  0
   10.7110    5.9100    2.7000 C   0  0  0  0  0  3  0  0  0  0  0  0
   10.5320    4.5900    2.2520 C   0  0  0  0  0  0  0  0  0  0  0  0
   10.4660    4.2840    0.8690 N   0  0  0  0  0  0  0  0  0  0  0  0
   10.1220    0.4680    0.8160 C   0  0  1  0  0  3  0  0  0  0  0  0
   10.6740    0.1530   -0.3300 N   0  0  0  0  0  0  0  0  0  0  0  0
   10.6100   -1.2720   -1.0640 S   0  0  0  0  0  0  0  0  0  0  0  0
    9.8130   -1.1480   -2.2690 O   0  0  0  0  0  0  0  0  0  0  0  0
   11.9480   -1.8230   -1.1460 O   0  0  0  0  0  0  0  0  0  0  0  0
    9.7090   -2.3520   -0.0050 C   0  0  0  0  0  0  0  0  0  0  0  0
    9.5270   -3.6880   -0.3800 C   0  0  0  0  0  3  0  0  0  0  0  0
    8.8130   -4.5370    0.4620 C   0  0  0  0  0  3  0  0  0  0  0  0
    8.2930   -4.0460    1.6590 C   0  0  0  0  0  3  0  0  0  0  0  0
    8.4870   -2.7070    2.0170 C   0  0  0  0  0  3  0  0  0  0  0  0
    9.2030   -1.8440    1.1830 C   0  0  0  0  0  0  0  0  0  0  0  0
    9.4030   -0.5140    1.5330 N   0  0  0  0  0  0  0  0  0  0  0  0
   11.1990    0.8720   -0.8180 H   0  0  0  0  0  0  0  0  0  0  0  0
    9.0180   -0.1920    2.4230 H   0  0  0  0  0  0  0  0  0  0  0  0
   10.0010    1.1740    3.6310 O   0  0  0  0  0  0  0  0  0  0  0  0
    9.5690    1.5810    4.4060 H   0  0  0  0  0  0  0  0  0  0  0  0
   10.5760    5.3380   -0.0830 N   0  0  0  0  0  0  0  0  0  0  0  0
   10.8410    4.9150   -0.9800 H   0  0  0  0  0  0  0  0  0  0  0  0
    9.2900    6.0200   -0.2820 C   0  0  0  0  0  2  0  0  0  0  0  0
    9.4950    7.5070   -0.4340 C   0  0  0  0  0  0  0  0  0  0  0  0
    8.7960    8.4080    0.3830 C   0  0  0  0  0  3  0  0  0  0  0  0
    9.0000    9.7830    0.2570 C   0  0  0  0  0  3  0  0  0  0  0  0
    9.9060   10.2710   -0.6830 C   0  0  0  0  0  3  0  0  0  0  0  0
   10.6120    9.3850   -1.4950 C   0  0  0  0  0  3  0  0  0  0  0  0
   10.4110    8.0100   -1.3690 C   0  0  0  0  0  3  0  0  0  0  0  0
  1  2  2  0  0  0  0
  2 11  1  0  0  0  0
  2  3  1  0  0  0  0
  3  4  2  0  0  0  0
  4  5  1  0  0  0  0
  4 26  1  0  0  0  0
  5  6  1  0  0  0  0
  6  7  2  0  0  0  0
  8  7  1  0  0  0  0
  9  8  2  0  0  0  0
 10  9  1  0  0  0  0
 10  5  2  0  0  0  0
 11 10  1  0  0  0  0
 12  3  1  1  0  0  0
 12 23  1  0  0  0  0
 13 12  1  0  0  0  0
 14 13  1  0  0  0  0
 14 17  1  0  0  0  0
 15 14  2  0  0  0  0
 16 14  2  0  0  0  0
 17 22  1  0  0  0  0
 18 17  2  0  0  0  0
 18 19  1  0  0  0  0
 19 20  2  0  0  0  0
 20 21  1  0  0  0  0
 22 23  1  0  0  0  0
 22 21  2  0  0  0  0
 23 25  1  0  0  0  0
 24 13  1  0  0  0  0
 26 27  1  0  0  0  0
 28 11  1  0  0  0  0
 29 28  1  0  0  0  0
 30 28  1  0  0  0  0
 31 30  1  0  0  0  0
 31 32  1  0  0  0  0
 33 32  2  0  0  0  0
 34 33  1  0  0  0  0
 35 36  1  0  0  0  0
 35 34  2  0  0  0  0
 36 31  2  0  0  0  0
M  END
>  <minimizedAffinity>
-6.86726427

$$$$
