REMARK  Name = 
REMARK  6 active torsions:
REMARK  status: ('A' for Active; 'I' for Inactive)
REMARK    1  A    between atoms: C_1  and  C_2
REMARK    2  A    between atoms: C_6  and  C_7
REMARK    3  A    between atoms: C_7  and  S_8
REMARK    4  A    between atoms: S_8  and  C_9
REMARK    5  A    between atoms: C_11  and  C_12
REMARK    6  A    between atoms: C_20  and  C_21
REMARK                            x       y       z     vdW  Elec       q    Type
REMARK                         _______ _______ _______ _____ _____    ______ ____
ROOT
ATOM      1  C   UNL     1      -1.939   2.506  -3.012  0.00  0.00    +0.170 A 
ATOM      2  N   UNL     1      -1.437   3.635  -3.379  0.00  0.00    -0.222 NA
ATOM      3  C   UNL     1      -0.619   3.622  -4.490  0.00  0.00    +0.096 A 
ATOM      4  C   UNL     1      -0.278   2.506  -5.162  0.00  0.00    +0.142 A 
ATOM      5  C   UNL     1      -0.841   1.225  -4.685  0.00  0.00    +0.270 A 
ATOM      6  O   UNL     1      -0.579   0.151  -5.211  0.00  0.00    -0.266 OA
ATOM      7  N   UNL     1      -1.685   1.320  -3.618  0.00  0.00    -0.301 N 
ATOM      8  H   UNL     1      -2.095   0.473  -3.253  0.00  0.00    +0.171 HD
ENDROOT
BRANCH   3   9
ATOM      9  C   UNL     1      -0.131   4.948  -4.922  0.00  0.00    +0.005 A 
ATOM     10  C   UNL     1       0.805   5.634  -4.136  0.00  0.00    +0.030 A 
ATOM     11  C   UNL     1       1.255   6.895  -4.528  0.00  0.00    +0.043 A 
ATOM     12 CL   UNL     1       2.407   7.725  -3.556  0.00  0.00    -0.083 Cl
ATOM     13  C   UNL     1       0.780   7.490  -5.694  0.00  0.00    +0.040 A 
ATOM     14  C   UNL     1      -0.160   6.814  -6.467  0.00  0.00    +0.043 A 
ATOM     15 CL   UNL     1      -0.769   7.546  -7.900  0.00  0.00    -0.083 Cl
ATOM     16  C   UNL     1      -0.621   5.553  -6.088  0.00  0.00    +0.030 A 
ENDBRANCH   3   9
BRANCH   4  17
ATOM     17  C   UNL     1       0.604   2.494  -6.400  0.00  0.00    +0.107 C 
ATOM     18  N   UNL     1       1.335   2.484  -7.427  0.00  0.00    -0.191 NA
ENDBRANCH   4  17
BRANCH   1  19
ATOM     19  S   UNL     1      -3.034   2.382  -1.678  0.00  0.00    -0.083 S 
BRANCH  19  20
ATOM     20  C   UNL     1      -1.838   2.566  -0.323  0.00  0.00    +0.112 C 
BRANCH  20  26
ATOM     21  C   UNL     1       2.631   0.366  -1.138  0.00  0.00    +0.044 C 
ATOM     22  C   UNL     1       1.229   0.303  -0.608  0.00  0.00    -0.050 A 
ATOM     23  C   UNL     1       0.721  -0.896  -0.095  0.00  0.00    +0.003 A 
ATOM     24  C   UNL     1      -0.590  -0.966   0.373  0.00  0.00    +0.001 A 
ATOM     25  C   UNL     1      -1.412   0.158   0.318  0.00  0.00    +0.004 A 
ATOM     26  C   UNL     1      -0.931   1.365  -0.211  0.00  0.00    -0.037 A 
ATOM     27  C   UNL     1       0.393   1.426  -0.673  0.00  0.00    +0.007 A 
ENDBRANCH  20  26
ENDBRANCH  19  20
ENDBRANCH   1  19
TORSDOF 5
