
 OpenBabel09132204463D

 27 29  0  0  0  0  0  0  0  0999 V2000
    1.3060    5.9480   -8.2530 C   0  0  0  0  0  0  0  0  0  0  0  0
    0.9050    5.2630   -7.2370 N   0  0  0  0  0  0  0  0  0  0  0  0
    1.5620    4.0760   -6.9860 C   0  0  0  0  0  0  0  0  0  0  0  0
    2.5410    3.5780   -7.7650 C   0  0  0  0  0  0  0  0  0  0  0  0
    2.9450    4.3720   -8.9440 C   0  0  0  0  0  0  0  0  0  0  0  0
    3.8090    4.0010   -9.7270 O   0  0  0  0  0  0  0  0  0  0  0  0
    2.2920    5.5600   -9.0980 N   0  0  0  0  0  0  0  0  0  0  0  0
    2.5310    6.1400   -9.8890 H   0  0  0  0  0  0  0  0  0  0  0  0
    1.1230    3.3650   -5.7680 C   0  0  0  0  0  0  0  0  0  0  0  0
    1.7160    3.6680   -4.5350 C   0  0  0  0  0  3  0  0  0  0  0  0
    1.3200    2.9860   -3.3840 C   0  0  0  0  0  0  0  0  0  0  0  0
    2.0540    3.3700   -1.8750 Cl  0  0  0  0  0  0  0  0  0  0  0  0
    0.3420    1.9970   -3.4430 C   0  0  0  0  0  3  0  0  0  0  0  0
   -0.2370    1.6860   -4.6700 C   0  0  0  0  0  0  0  0  0  0  0  0
   -1.4330    0.4530   -4.7610 Cl  0  0  0  0  0  0  0  0  0  0  0  0
    0.1490    2.3580   -5.8310 C   0  0  0  0  0  3  0  0  0  0  0  0
    3.2810    2.2820   -7.4760 C   0  0  0  0  0  2  0  0  0  0  0  0
    3.8950    1.2070   -7.2370 N   0  0  0  0  0  1  0  0  0  0  0  0
    0.6200    7.4870   -8.6480 S   0  0  0  0  0  0  0  0  0  0  0  0
   -1.1320    7.0810   -8.3890 C   0  0  0  0  0  2  0  0  0  0  0  0
   -2.6230   11.5130  -10.2890 C   0  0  0  0  0  1  0  0  0  0  0  0
   -2.7520   10.0200  -10.2190 C   0  0  0  0  0  0  0  0  0  0  0  0
   -3.7670    9.3640  -10.9250 C   0  0  0  0  0  3  0  0  0  0  0  0
   -3.9060    7.9800  -10.8410 C   0  0  0  0  0  3  0  0  0  0  0  0
   -3.0420    7.2380  -10.0370 C   0  0  0  0  0  3  0  0  0  0  0  0
   -2.0310    7.8760   -9.3040 C   0  0  0  0  0  0  0  0  0  0  0  0
   -1.8950    9.2700   -9.4010 C   0  0  0  0  0  3  0  0  0  0  0  0
  1  2  2  0  0  0  0
  2  3  1  0  0  0  0
  3  9  1  0  0  0  0
  4 17  1  0  0  0  0
  4  3  2  0  0  0  0
  5  4  1  0  0  0  0
  6  5  2  0  0  0  0
  7  5  1  0  0  0  0
  7  1  1  0  0  0  0
  8  7  1  0  0  0  0
  9 10  1  0  0  0  0
 10 11  2  0  0  0  0
 11 12  1  0  0  0  0
 13 11  1  0  0  0  0
 14 13  2  0  0  0  0
 15 14  1  0  0  0  0
 16  9  2  0  0  0  0
 16 14  1  0  0  0  0
 17 18  1  0  0  0  0
 19 20  1  0  0  0  0
 19  1  1  0  0  0  0
 21 22  1  0  0  0  0
 22 27  1  0  0  0  0
 23 24  1  0  0  0  0
 23 22  2  0  0  0  0
 24 25  2  0  0  0  0
 25 26  1  0  0  0  0
 26 20  1  0  0  0  0
 27 26  2  0  0  0  0
M  END
>  <minimizedAffinity>
55.7753944

$$$$
