
 OpenBabel09132204463D

 27 29  0  0  0  0  0  0  0  0999 V2000
    1.3850    5.9770   -8.2720 C   0  0  0  0  0  0  0  0  0  0  0  0
    0.9940    5.2800   -7.2610 N   0  0  0  0  0  0  0  0  0  0  0  0
    1.6320    4.0740   -7.0510 C   0  0  0  0  0  0  0  0  0  0  0  0
    2.5810    3.5720   -7.8640 C   0  0  0  0  0  0  0  0  0  0  0  0
    2.9720    4.3830   -9.0370 C   0  0  0  0  0  0  0  0  0  0  0  0
    3.8080    4.0100   -9.8500 O   0  0  0  0  0  0  0  0  0  0  0  0
    2.3410    5.5860   -9.1510 N   0  0  0  0  0  0  0  0  0  0  0  0
    2.5720    6.1770   -9.9360 H   0  0  0  0  0  0  0  0  0  0  0  0
    1.2090    3.3470   -5.8370 C   0  0  0  0  0  0  0  0  0  0  0  0
    0.2080    2.3700   -5.9250 C   0  0  0  0  0  3  0  0  0  0  0  0
   -0.2100    1.6940   -4.7790 C   0  0  0  0  0  0  0  0  0  0  0  0
   -1.4380    0.4940   -4.9020 Cl  0  0  0  0  0  0  0  0  0  0  0  0
    0.3520    1.9800   -3.5380 C   0  0  0  0  0  3  0  0  0  0  0  0
    1.3370    2.9600   -3.4490 C   0  0  0  0  0  0  0  0  0  0  0  0
    2.0260    3.3380   -1.9180 Cl  0  0  0  0  0  0  0  0  0  0  0  0
    1.7650    3.6470   -4.5850 C   0  0  0  0  0  3  0  0  0  0  0  0
    3.3000    2.2550   -7.6210 C   0  0  0  0  0  2  0  0  0  0  0  0
    3.8970    1.1630   -7.4180 N   0  0  0  0  0  1  0  0  0  0  0  0
    0.7220    7.5370   -8.6190 S   0  0  0  0  0  0  0  0  0  0  0  0
   -1.0220    7.1820   -8.2550 C   0  0  0  0  0  2  0  0  0  0  0  0
   -2.7460   11.4300  -10.3670 C   0  0  0  0  0  1  0  0  0  0  0  0
   -2.7810    9.9350  -10.2370 C   0  0  0  0  0  0  0  0  0  0  0  0
   -3.7370    9.1880  -10.9360 C   0  0  0  0  0  3  0  0  0  0  0  0
   -3.7910    7.8030  -10.7970 C   0  0  0  0  0  3  0  0  0  0  0  0
   -2.9010    7.1510   -9.9460 C   0  0  0  0  0  3  0  0  0  0  0  0
   -1.9480    7.8810   -9.2190 C   0  0  0  0  0  0  0  0  0  0  0  0
   -1.8980    9.2750   -9.3720 C   0  0  0  0  0  3  0  0  0  0  0  0
  1  2  2  0  0  0  0
  2  3  1  0  0  0  0
  3  9  1  0  0  0  0
  4 17  1  0  0  0  0
  4  3  2  0  0  0  0
  5  4  1  0  0  0  0
  6  5  2  0  0  0  0
  7  5  1  0  0  0  0
  7  1  1  0  0  0  0
  8  7  1  0  0  0  0
  9 16  1  0  0  0  0
 10  9  2  0  0  0  0
 10 11  1  0  0  0  0
 11 13  2  0  0  0  0
 12 11  1  0  0  0  0
 13 14  1  0  0  0  0
 14 15  1  0  0  0  0
 16 14  2  0  0  0  0
 17 18  1  0  0  0  0
 19  1  1  0  0  0  0
 19 20  1  0  0  0  0
 21 22  1  0  0  0  0
 22 27  1  0  0  0  0
 23 24  1  0  0  0  0
 23 22  2  0  0  0  0
 24 25  2  0  0  0  0
 25 26  1  0  0  0  0
 26 20  1  0  0  0  0
 27 26  2  0  0  0  0
M  END
>  <minimizedAffinity>
55.5247917

$$$$
