REMARK  Name = 
REMARK  7 active torsions:
REMARK  status: ('A' for Active; 'I' for Inactive)
REMARK    1  A    between atoms: C_2  and  C_4
REMARK    2  A    between atoms: C_11  and  C_12
REMARK    3  A    between atoms: C_15  and  O_16
REMARK    4  A    between atoms: O_16  and  C_17
REMARK    5  A    between atoms: C_17  and  C_18
REMARK    6  A    between atoms: C_23  and  C_24
REMARK    7  A    between atoms: N_33  and  C_34
REMARK                            x       y       z     vdW  Elec       q    Type
REMARK                         _______ _______ _______ _____ _____    ______ ____
ROOT
ATOM      1  C   UNL     1       6.630  -5.586   0.807  0.00  0.00    +0.020 A 
ATOM      2  C   UNL     1       7.937  -5.141   1.053  0.00  0.00    +0.015 A 
ATOM      3  C   UNL     1       8.962  -6.051   1.325  0.00  0.00    +0.049 A 
ATOM      4  C   UNL     1       8.684  -7.417   1.342  0.00  0.00    +0.156 A 
ATOM      5  C   UNL     1       7.368  -7.853   1.183  0.00  0.00    +0.165 A 
ATOM      6  F   UNL     1       7.078  -9.161   1.246  0.00  0.00    -0.202 F 
ATOM      7  C   UNL     1       6.343  -6.950   0.919  0.00  0.00    +0.053 A 
ENDROOT
BRANCH   1  15
ATOM      8  C   UNL     1       2.668  -1.156   0.058  0.00  0.00    -0.001 A 
ATOM      9  C   UNL     1       2.322  -1.858  -1.108  0.00  0.00    +0.012 A 
ATOM     10  C   UNL     1       2.960  -3.048  -1.480  0.00  0.00    +0.028 A 
ATOM     11  C   UNL     1       3.973  -3.530  -0.641  0.00  0.00    +0.069 A 
ATOM     12  C   UNL     1       4.334  -2.867   0.529  0.00  0.00    +0.090 A 
ATOM     13  C   UNL     1       3.685  -1.674   0.884  0.00  0.00    +0.039 A 
ATOM     14  N   UNL     1       5.341  -3.535   1.178  0.00  0.00    -0.228 NA
ATOM     15  C   UNL     1       5.599  -4.608   0.457  0.00  0.00    +0.142 A 
ATOM     16  N   UNL     1       4.821  -4.619  -0.694  0.00  0.00    -0.320 N 
BRANCH  16  17
ATOM     17  C   UNL     1       4.939  -5.569  -1.797  0.00  0.00    +0.089 C 
ATOM     18  C   UNL     1       3.694  -6.456  -1.950  0.00  0.00    +0.025 C 
ATOM     19  C   UNL     1       3.880  -7.485  -3.064  0.00  0.00    +0.002 C 
ATOM     20  C   UNL     1       4.277  -6.826  -4.382  0.00  0.00    +0.000 C 
ATOM     21  C   UNL     1       5.524  -5.957  -4.227  0.00  0.00    +0.002 C 
ATOM     22  C   UNL     1       5.349  -4.912  -3.126  0.00  0.00    +0.025 C 
ENDBRANCH  16  17
BRANCH   8  24
ATOM     23  O   UNL     1       1.052   0.537  -0.376  0.00  0.00    -0.545 OA
ATOM     24  C   UNL     1       1.962   0.137   0.418  0.00  0.00    +0.072 C 
ATOM     25  O   UNL     1       2.333   0.728   1.480  0.00  0.00    -0.545 OA
ENDBRANCH   8  24
ENDBRANCH   1  15
BRANCH   4  26
ATOM     26  O   UNL     1       9.655  -8.359   1.557  0.00  0.00    -0.484 OA
BRANCH  26  27
ATOM     27  C   UNL     1      10.711  -8.311   0.582  0.00  0.00    +0.265 C 
BRANCH  27  28
ATOM     28  C   UNL     1      10.277  -8.821  -0.780  0.00  0.00    -0.003 A 
ATOM     29  C   UNL     1       9.751 -10.126  -0.861  0.00  0.00    +0.007 A 
ATOM     30  C   UNL     1       9.321 -10.655  -2.076  0.00  0.00    +0.000 A 
ATOM     31  C   UNL     1       9.409  -9.891  -3.233  0.00  0.00    +0.001 A 
ATOM     32  C   UNL     1       9.926  -8.596  -3.172  0.00  0.00    +0.009 A 
ATOM     33  C   UNL     1      10.367  -8.040  -1.955  0.00  0.00    -0.011 A 
BRANCH  33  34
ATOM     34  C   UNL     1      10.888  -6.667  -1.963  0.00  0.00    -0.018 A 
ATOM     35  C   UNL     1      12.269  -6.418  -1.918  0.00  0.00    +0.008 A 
ATOM     36  C   UNL     1      12.757  -5.109  -1.913  0.00  0.00    +0.001 A 
ATOM     37  C   UNL     1      11.872  -4.034  -1.960  0.00  0.00    +0.000 A 
ATOM     38  C   UNL     1      10.499  -4.264  -2.018  0.00  0.00    +0.001 A 
ATOM     39  C   UNL     1      10.012  -5.572  -2.025  0.00  0.00    +0.008 A 
ENDBRANCH  33  34
ENDBRANCH  27  28
ENDBRANCH  26  27
ENDBRANCH   4  26
TORSDOF 7
