
 OpenBabel09122222393D

 39 44  0  0  0  0  0  0  0  0999 V2000
    6.2270   -6.6510    0.8120 C   0  0  0  0  0  0  0  0  0  0  0  0
    7.5130   -6.5450    1.3600 C   0  0  0  0  0  3  0  0  0  0  0  0
    8.4830   -5.7410    0.7560 C   0  0  0  0  0  3  0  0  0  0  0  0
    8.1650   -5.0290   -0.4000 C   0  0  0  0  0  0  0  0  0  0  0  0
    6.9140   -5.2040   -0.9930 C   0  0  0  0  0  0  0  0  0  0  0  0
    6.6120   -4.5630   -2.1320 F   0  0  0  0  0  0  0  0  0  0  0  0
    5.9480   -6.0080   -0.3980 C   0  0  0  0  0  3  0  0  0  0  0  0
    2.3060  -10.5320    3.1460 C   0  0  0  0  0  0  0  0  0  0  0  0
    2.0430   -9.4960    4.0560 C   0  0  0  0  0  3  0  0  0  0  0  0
    2.7090   -8.2650    3.9990 C   0  0  0  0  0  3  0  0  0  0  0  0
    3.6650   -8.0920    2.9900 C   0  0  0  0  0  0  0  0  0  0  0  0
    3.9440   -9.0930    2.0630 C   0  0  0  0  0  0  0  0  0  0  0  0
    3.2670  -10.3210    2.1380 C   0  0  0  0  0  3  0  0  0  0  0  0
    4.9070   -8.6840    1.1770 N   0  0  0  0  0  0  0  0  0  0  0  0
    5.2180   -7.4470    1.5120 C   0  0  0  0  0  0  0  0  0  0  0  0
    4.5190   -7.0610    2.6490 N   0  0  0  0  0  0  0  0  0  0  0  0
    4.7160   -5.8200    3.3930 C   0  0  0  0  0  3  0  0  0  0  0  0
    4.1540   -4.5940    2.6570 C   0  0  0  0  0  2  0  0  0  0  0  0
    4.4410   -3.3060    3.4280 C   0  0  0  0  0  2  0  0  0  0  0  0
    3.9410   -3.3850    4.8680 C   0  0  0  0  0  2  0  0  0  0  0  0
    4.5140   -4.5980    5.5990 C   0  0  0  0  0  2  0  0  0  0  0  0
    4.2240   -5.8970    4.8490 C   0  0  0  0  0  2  0  0  0  0  0  0
    0.3020  -11.8070    3.2980 O   0  0  0  0  0  1  0  0  0  0  0  0
    1.5720  -11.8550    3.2500 C   0  0  0  0  0  0  0  0  0  0  0  0
    2.2770  -12.9120    3.2880 O   0  0  0  0  0  0  0  0  0  0  0  0
    9.0590   -4.1900   -1.0120 O   0  0  0  0  0  0  0  0  0  0  0  0
   10.3120   -4.0960   -0.3130 C   0  0  0  0  0  2  0  0  0  0  0  0
   11.3250   -3.2280   -1.0370 C   0  0  0  0  0  0  0  0  0  0  0  0
   12.2150   -3.8560   -1.9320 C   0  0  0  0  0  3  0  0  0  0  0  0
   13.1620   -3.1200   -2.6400 C   0  0  0  0  0  3  0  0  0  0  0  0
   13.2400   -1.7440   -2.4670 C   0  0  0  0  0  3  0  0  0  0  0  0
   12.3660   -1.1050   -1.5860 C   0  0  0  0  0  3  0  0  0  0  0  0
   11.4000   -1.8280   -0.8590 C   0  0  0  0  0  0  0  0  0  0  0  0
   10.5050   -1.0880    0.0410 C   0  0  0  0  0  0  0  0  0  0  0  0
   10.3180    0.2960   -0.1030 C   0  0  0  0  0  3  0  0  0  0  0  0
    9.4760    0.9950    0.7640 C   0  0  0  0  0  3  0  0  0  0  0  0
    8.8050    0.3190    1.7810 C   0  0  0  0  0  3  0  0  0  0  0  0
    8.9700   -1.0570    1.9300 C   0  0  0  0  0  3  0  0  0  0  0  0
    9.8100   -1.7550    1.0620 C   0  0  0  0  0  3  0  0  0  0  0  0
  1  2  1  0  0  0  0
  1 15  1  0  0  0  0
  3  2  2  0  0  0  0
  4  3  1  0  0  0  0
  5  4  2  0  0  0  0
  5  7  1  0  0  0  0
  6  5  1  0  0  0  0
  7  1  2  0  0  0  0
  8 24  1  0  0  0  0
  8  9  1  0  0  0  0
 10  9  2  0  0  0  0
 11 10  1  0  0  0  0
 12 13  1  0  0  0  0
 12 11  2  0  0  0  0
 13  8  2  0  0  0  0
 14 15  2  0  0  0  0
 14 12  1  0  0  0  0
 15 16  1  0  0  0  0
 16 11  1  0  0  0  0
 16 17  1  0  0  0  0
 17 22  1  0  0  0  0
 18 17  1  0  0  0  0
 18 19  1  0  0  0  0
 19 20  1  0  0  0  0
 20 21  1  0  0  0  0
 22 21  1  0  0  0  0
 24 25  2  0  0  0  0
 24 23  1  0  0  0  0
 26  4  1  0  0  0  0
 26 27  1  0  0  0  0
 28 33  1  0  0  0  0
 28 27  1  0  0  0  0
 29 28  2  0  0  0  0
 30 31  2  0  0  0  0
 30 29  1  0  0  0  0
 31 32  1  0  0  0  0
 32 33  2  0  0  0  0
 33 34  1  0  0  0  0
 34 39  1  0  0  0  0
 35 34  2  0  0  0  0
 35 36  1  0  0  0  0
 36 37  2  0  0  0  0
 37 38  1  0  0  0  0
 39 38  2  0  0  0  0
M  END
>  <minimizedAffinity>
-8.28139305

$$$$
