
 OpenBabel09122222393D

 39 44  0  0  0  0  0  0  0  0999 V2000
    4.7920   -7.4900    1.8370 C   0  0  0  0  0  0  0  0  0  0  0  0
    4.0340   -7.8870    0.7250 C   0  0  0  0  0  3  0  0  0  0  0  0
    2.9770   -8.7890    0.8670 C   0  0  0  0  0  3  0  0  0  0  0  0
    2.6660   -9.2930    2.1300 C   0  0  0  0  0  0  0  0  0  0  0  0
    3.4740   -8.9650    3.2190 C   0  0  0  0  0  0  0  0  0  0  0  0
    3.2160   -9.4810    4.4300 F   0  0  0  0  0  0  0  0  0  0  0  0
    4.5320   -8.0730    3.0810 C   0  0  0  0  0  3  0  0  0  0  0  0
    9.3200   -3.8340    0.4170 C   0  0  0  0  0  0  0  0  0  0  0  0
    8.8860   -3.1000    1.5330 C   0  0  0  0  0  3  0  0  0  0  0  0
    7.7890   -3.4970    2.3070 C   0  0  0  0  0  3  0  0  0  0  0  0
    7.1230   -4.6720    1.9330 C   0  0  0  0  0  0  0  0  0  0  0  0
    7.5330   -5.4310    0.8400 C   0  0  0  0  0  0  0  0  0  0  0  0
    8.6330   -5.0150    0.0740 C   0  0  0  0  0  3  0  0  0  0  0  0
    6.7290   -6.5320    0.6810 N   0  0  0  0  0  0  0  0  0  0  0  0
    5.8460   -6.4900    1.6590 C   0  0  0  0  0  0  0  0  0  0  0  0
    6.0170   -5.3400    2.4200 N   0  0  0  0  0  0  0  0  0  0  0  0
    5.1330   -4.8840    3.4900 C   0  0  0  0  0  3  0  0  0  0  0  0
    5.8760   -4.0790    4.5670 C   0  0  0  0  0  2  0  0  0  0  0  0
    4.9380   -3.6800    5.7060 C   0  0  0  0  0  2  0  0  0  0  0  0
    3.7040   -2.9440    5.1910 C   0  0  0  0  0  2  0  0  0  0  0  0
    2.9620   -3.7560    4.1310 C   0  0  0  0  0  2  0  0  0  0  0  0
    3.8830   -4.1500    2.9770 C   0  0  0  0  0  2  0  0  0  0  0  0
   10.3270   -2.3310   -1.1300 O   0  0  0  0  0  0  0  0  0  0  0  0
   10.5040   -3.3610   -0.4040 C   0  0  0  0  0  0  0  0  0  0  0  0
   11.5820   -4.0280   -0.3110 O   0  0  0  0  0  1  0  0  0  0  0  0
    1.6130  -10.1440    2.3390 O   0  0  0  0  0  0  0  0  0  0  0  0
    2.0270  -11.4960    2.6040 C   0  0  0  0  0  2  0  0  0  0  0  0
    2.6410  -12.1700    1.3910 C   0  0  0  0  0  0  0  0  0  0  0  0
    2.0150  -11.9850    0.1420 C   0  0  0  0  0  3  0  0  0  0  0  0
    2.5300  -12.5640   -1.0150 C   0  0  0  0  0  3  0  0  0  0  0  0
    3.6810  -13.3390   -0.9480 C   0  0  0  0  0  3  0  0  0  0  0  0
    4.3160  -13.5330    0.2800 C   0  0  0  0  0  3  0  0  0  0  0  0
    3.8130  -12.9580    1.4640 C   0  0  0  0  0  0  0  0  0  0  0  0
    4.5400  -13.1940    2.7180 C   0  0  0  0  0  0  0  0  0  0  0  0
    4.7150  -14.4940    3.2180 C   0  0  0  0  0  3  0  0  0  0  0  0
    5.3960  -14.7100    4.4180 C   0  0  0  0  0  3  0  0  0  0  0  0
    5.9170  -13.6300    5.1290 C   0  0  0  0  0  3  0  0  0  0  0  0
    5.7630  -12.3350    4.6400 C   0  0  0  0  0  3  0  0  0  0  0  0
    5.0840  -12.1200    3.4400 C   0  0  0  0  0  3  0  0  0  0  0  0
  1  7  1  0  0  0  0
  2  3  1  0  0  0  0
  2  1  2  0  0  0  0
  3  4  2  0  0  0  0
  4 26  1  0  0  0  0
  4  5  1  0  0  0  0
  5  6  1  0  0  0  0
  7  5  2  0  0  0  0
  8  9  1  0  0  0  0
  9 10  2  0  0  0  0
 11 10  1  0  0  0  0
 11 16  1  0  0  0  0
 12 11  2  0  0  0  0
 13  8  2  0  0  0  0
 13 12  1  0  0  0  0
 14 12  1  0  0  0  0
 14 15  2  0  0  0  0
 15  1  1  0  0  0  0
 15 16  1  0  0  0  0
 16 17  1  0  0  0  0
 17 18  1  0  0  0  0
 18 19  1  0  0  0  0
 20 19  1  0  0  0  0
 21 20  1  0  0  0  0
 22 17  1  0  0  0  0
 22 21  1  0  0  0  0
 23 24  2  0  0  0  0
 24 25  1  0  0  0  0
 24  8  1  0  0  0  0
 26 27  1  0  0  0  0
 28 33  1  0  0  0  0
 28 27  1  0  0  0  0
 29 28  2  0  0  0  0
 30 31  2  0  0  0  0
 30 29  1  0  0  0  0
 31 32  1  0  0  0  0
 32 33  2  0  0  0  0
 33 34  1  0  0  0  0
 34 35  2  0  0  0  0
 34 39  1  0  0  0  0
 35 36  1  0  0  0  0
 36 37  2  0  0  0  0
 38 37  1  0  0  0  0
 39 38  2  0  0  0  0
M  END
>  <minimizedAffinity>
-9.64756775

$$$$
