
 OpenBabel09122222393D

 39 44  0  0  0  0  0  0  0  0999 V2000
    4.7670   -7.4340    2.0560 C   0  0  0  0  0  0  0  0  0  0  0  0
    4.1600   -8.0750    0.9660 C   0  0  0  0  0  3  0  0  0  0  0  0
    3.1050   -8.9700    1.1610 C   0  0  0  0  0  3  0  0  0  0  0  0
    2.6430   -9.2200    2.4530 C   0  0  0  0  0  0  0  0  0  0  0  0
    3.3030   -8.6490    3.5420 C   0  0  0  0  0  0  0  0  0  0  0  0
    2.9020   -8.9200    4.7920 F   0  0  0  0  0  0  0  0  0  0  0  0
    4.3600   -7.7630    3.3530 C   0  0  0  0  0  3  0  0  0  0  0  0
    9.2780   -3.8790    0.3550 C   0  0  0  0  0  0  0  0  0  0  0  0
    8.8800   -3.0940    1.4490 C   0  0  0  0  0  3  0  0  0  0  0  0
    7.8030   -3.4490    2.2710 C   0  0  0  0  0  3  0  0  0  0  0  0
    7.1190   -4.6330    1.9660 C   0  0  0  0  0  0  0  0  0  0  0  0
    7.4930   -5.4420    0.8960 C   0  0  0  0  0  0  0  0  0  0  0  0
    8.5740   -5.0680    0.0830 C   0  0  0  0  0  3  0  0  0  0  0  0
    6.6780   -6.5420    0.8070 N   0  0  0  0  0  0  0  0  0  0  0  0
    5.8230   -6.4510    1.8070 C   0  0  0  0  0  0  0  0  0  0  0  0
    6.0220   -5.2710    2.5120 N   0  0  0  0  0  0  0  0  0  0  0  0
    5.1720   -4.7620    3.5850 C   0  0  0  0  0  3  0  0  0  0  0  0
    5.9340   -3.8550    4.5630 C   0  0  0  0  0  2  0  0  0  0  0  0
    5.0350   -3.4000    5.7120 C   0  0  0  0  0  2  0  0  0  0  0  0
    3.7550   -2.7430    5.2020 C   0  0  0  0  0  2  0  0  0  0  0  0
    2.9950   -3.6560    4.2420 C   0  0  0  0  0  2  0  0  0  0  0  0
    3.8760   -4.1090    3.0780 C   0  0  0  0  0  2  0  0  0  0  0  0
   11.4520   -4.2240   -0.5520 O   0  0  0  0  0  1  0  0  0  0  0  0
   10.4420   -3.4510   -0.5180 C   0  0  0  0  0  0  0  0  0  0  0  0
   10.3270   -2.3530   -1.1470 O   0  0  0  0  0  0  0  0  0  0  0  0
    1.5830  -10.0510    2.7040 O   0  0  0  0  0  0  0  0  0  0  0  0
    1.7420  -11.3570    2.1230 C   0  0  0  0  0  2  0  0  0  0  0  0
    2.3190  -12.3670    3.0970 C   0  0  0  0  0  0  0  0  0  0  0  0
    2.2290  -12.0830    4.4750 C   0  0  0  0  0  3  0  0  0  0  0  0
    2.7260  -12.9710    5.4270 C   0  0  0  0  0  3  0  0  0  0  0  0
    3.3220  -14.1580    5.0210 C   0  0  0  0  0  3  0  0  0  0  0  0
    3.4190  -14.4570    3.6610 C   0  0  0  0  0  3  0  0  0  0  0  0
    2.9250  -13.5750    2.6810 C   0  0  0  0  0  0  0  0  0  0  0  0
    3.0500  -13.9590    1.2690 C   0  0  0  0  0  0  0  0  0  0  0  0
    1.9120  -14.1620    0.4720 C   0  0  0  0  0  3  0  0  0  0  0  0
    2.0380  -14.5410   -0.8670 C   0  0  0  0  0  3  0  0  0  0  0  0
    3.3020  -14.7130   -1.4270 C   0  0  0  0  0  3  0  0  0  0  0  0
    4.4410  -14.5030   -0.6540 C   0  0  0  0  0  3  0  0  0  0  0  0
    4.3150  -14.1230    0.6830 C   0  0  0  0  0  3  0  0  0  0  0  0
  1  7  1  0  0  0  0
  2  3  1  0  0  0  0
  2  1  2  0  0  0  0
  3  4  2  0  0  0  0
  4 26  1  0  0  0  0
  4  5  1  0  0  0  0
  5  6  1  0  0  0  0
  7  5  2  0  0  0  0
  8  9  1  0  0  0  0
  9 10  2  0  0  0  0
 11 10  1  0  0  0  0
 11 16  1  0  0  0  0
 12 11  2  0  0  0  0
 13  8  2  0  0  0  0
 13 12  1  0  0  0  0
 14 12  1  0  0  0  0
 14 15  2  0  0  0  0
 15  1  1  0  0  0  0
 15 16  1  0  0  0  0
 16 17  1  0  0  0  0
 17 18  1  0  0  0  0
 18 19  1  0  0  0  0
 20 19  1  0  0  0  0
 21 20  1  0  0  0  0
 22 17  1  0  0  0  0
 22 21  1  0  0  0  0
 23 24  1  0  0  0  0
 24  8  1  0  0  0  0
 25 24  2  0  0  0  0
 27 26  1  0  0  0  0
 27 28  1  0  0  0  0
 28 29  1  0  0  0  0
 29 30  2  0  0  0  0
 31 30  1  0  0  0  0
 32 31  2  0  0  0  0
 33 28  2  0  0  0  0
 33 32  1  0  0  0  0
 34 33  1  0  0  0  0
 35 34  2  0  0  0  0
 36 35  1  0  0  0  0
 37 36  2  0  0  0  0
 37 38  1  0  0  0  0
 38 39  2  0  0  0  0
 39 34  1  0  0  0  0
M  END
>  <minimizedAffinity>
-8.64163017

$$$$
