REMARK  Name = 
REMARK  6 active torsions:
REMARK  status: ('A' for Active; 'I' for Inactive)
REMARK    1  A    between atoms: C_1  and  C_2
REMARK    2  A    between atoms: C_6  and  C_7
REMARK    3  A    between atoms: C_7  and  S_8
REMARK    4  A    between atoms: S_8  and  C_9
REMARK    5  A    between atoms: C_11  and  C_12
REMARK    6  A    between atoms: C_20  and  C_21
REMARK                            x       y       z     vdW  Elec       q    Type
REMARK                         _______ _______ _______ _____ _____    ______ ____
ROOT
ATOM      1  C   UNL     1      -2.010   2.509  -3.069  0.00  0.00    +0.170 A 
ATOM      2  N   UNL     1      -1.528   3.644  -3.446  0.00  0.00    -0.222 NA
ATOM      3  C   UNL     1      -0.650   3.625  -4.511  0.00  0.00    +0.099 A 
ATOM      4  C   UNL     1      -0.278   2.506  -5.162  0.00  0.00    +0.142 A 
ATOM      5  C   UNL     1      -0.837   1.223  -4.685  0.00  0.00    +0.270 A 
ATOM      6  O   UNL     1      -0.554   0.147  -5.197  0.00  0.00    -0.266 OA
ATOM      7  N   UNL     1      -1.706   1.318  -3.640  0.00  0.00    -0.301 N 
ATOM      8  H   UNL     1      -2.108   0.468  -3.271  0.00  0.00    +0.171 HD
ENDROOT
BRANCH   3   9
ATOM      9  C   UNL     1      -0.164   4.951  -4.948  0.00  0.00    +0.037 A 
ATOM     10  C   UNL     1      -1.062   5.878  -5.500  0.00  0.00    +0.016 A 
ATOM     11  C   UNL     1      -0.607   7.133  -5.913  0.00  0.00    +0.039 A 
ATOM     12  C   UNL     1       0.737   7.462  -5.767  0.00  0.00    +0.126 A 
ATOM     13  F   UNL     1       1.165   8.667  -6.163  0.00  0.00    -0.205 F 
ATOM     14  C   UNL     1       1.640   6.565  -5.212  0.00  0.00    +0.077 A 
ATOM     15  C   UNL     1       1.181   5.318  -4.803  0.00  0.00    +0.135 A 
ATOM     16  F   UNL     1       2.054   4.456  -4.259  0.00  0.00    -0.205 F 
ENDBRANCH   3   9
BRANCH   4  17
ATOM     17  C   UNL     1       0.604   2.494  -6.400  0.00  0.00    +0.107 C 
ATOM     18  N   UNL     1       1.335   2.484  -7.427  0.00  0.00    -0.191 NA
ENDBRANCH   4  17
BRANCH   1  19
ATOM     19  S   UNL     1      -3.140   2.386  -1.765  0.00  0.00    -0.083 S 
BRANCH  19  20
ATOM     20  C   UNL     1      -1.982   2.619  -0.384  0.00  0.00    +0.112 C 
BRANCH  20  26
ATOM     21  C   UNL     1       2.532   0.497  -1.142  0.00  0.00    +0.044 C 
ATOM     22  C   UNL     1       1.134   0.418  -0.604  0.00  0.00    -0.050 A 
ATOM     23  C   UNL     1       0.653  -0.778  -0.059  0.00  0.00    +0.003 A 
ATOM     24  C   UNL     1      -0.657  -0.863   0.411  0.00  0.00    +0.001 A 
ATOM     25  C   UNL     1      -1.503   0.241   0.326  0.00  0.00    +0.004 A 
ATOM     26  C   UNL     1      -1.048   1.444  -0.233  0.00  0.00    -0.037 A 
ATOM     27  C   UNL     1       0.275   1.521  -0.696  0.00  0.00    +0.007 A 
ENDBRANCH  20  26
ENDBRANCH  19  20
ENDBRANCH   1  19
TORSDOF 5
