
 OpenBabel09122222393D

 27 29  0  0  0  0  0  0  0  0999 V2000
   -2.4890    4.9590   -7.6400 C   0  0  0  0  0  0  0  0  0  0  0  0
   -2.8300    6.0640   -8.2110 N   0  0  0  0  0  0  0  0  0  0  0  0
   -1.8070    6.8790   -8.6520 C   0  0  0  0  0  0  0  0  0  0  0  0
   -0.4990    6.5870   -8.5190 C   0  0  0  0  0  0  0  0  0  0  0  0
   -0.1500    5.3210   -7.8400 C   0  0  0  0  0  0  0  0  0  0  0  0
    1.0080    4.9660   -7.6560 O   0  0  0  0  0  0  0  0  0  0  0  0
   -1.2090    4.5610   -7.4430 N   0  0  0  0  0  0  0  0  0  0  0  0
   -1.0230    3.6900   -6.9660 H   0  0  0  0  0  0  0  0  0  0  0  0
   -2.2400    8.1080   -9.3500 C   0  0  0  0  0  0  0  0  0  0  0  0
   -1.7810    9.3600   -8.9120 C   0  0  0  0  0  3  0  0  0  0  0  0
   -2.1870   10.5240   -9.5700 C   0  0  0  0  0  3  0  0  0  0  0  0
   -3.0410   10.4360  -10.6660 C   0  0  0  0  0  0  0  0  0  0  0  0
   -3.4230   11.5550  -11.2920 F   0  0  0  0  0  0  0  0  0  0  0  0
   -3.4970    9.2070  -11.1240 C   0  0  0  0  0  3  0  0  0  0  0  0
   -3.0890    8.0520  -10.4650 C   0  0  0  0  0  0  0  0  0  0  0  0
   -3.5250    6.8650  -10.9140 F   0  0  0  0  0  0  0  0  0  0  0  0
    0.6250    7.4300   -9.0980 C   0  0  0  0  0  2  0  0  0  0  0  0
    1.5580    8.1300   -9.5780 N   0  0  0  0  0  1  0  0  0  0  0  0
   -3.6650    3.8310   -7.0610 S   0  0  0  0  0  0  0  0  0  0  0  0
   -2.7380    2.2980   -7.3660 C   0  0  0  0  0  2  0  0  0  0  0  0
    2.1100    2.1340   -5.9780 C   0  0  0  0  0  1  0  0  0  0  0  0
    0.6570    1.9770   -5.6410 C   0  0  0  0  0  0  0  0  0  0  0  0
    0.2710    1.5050   -4.3810 C   0  0  0  0  0  3  0  0  0  0  0  0
   -1.0780    1.3270   -4.0770 C   0  0  0  0  0  3  0  0  0  0  0  0
   -2.0530    1.6030   -5.0340 C   0  0  0  0  0  3  0  0  0  0  0  0
   -1.6880    2.0600   -6.3090 C   0  0  0  0  0  0  0  0  0  0  0  0
   -0.3270    2.2430   -6.6020 C   0  0  0  0  0  3  0  0  0  0  0  0
  1  7  1  0  0  0  0
  1 19  1  0  0  0  0
  2  1  2  0  0  0  0
  3  4  2  0  0  0  0
  3  2  1  0  0  0  0
  4  5  1  0  0  0  0
  5  6  2  0  0  0  0
  5  7  1  0  0  0  0
  7  8  1  0  0  0  0
  9 10  1  0  0  0  0
  9  3  1  0  0  0  0
 11 10  2  0  0  0  0
 12 11  1  0  0  0  0
 13 12  1  0  0  0  0
 14 12  2  0  0  0  0
 14 15  1  0  0  0  0
 15  9  2  0  0  0  0
 16 15  1  0  0  0  0
 17  4  1  0  0  0  0
 18 17  1  0  0  0  0
 20 19  1  0  0  0  0
 20 26  1  0  0  0  0
 21 22  1  0  0  0  0
 22 23  1  0  0  0  0
 23 24  2  0  0  0  0
 25 24  1  0  0  0  0
 26 25  2  0  0  0  0
 27 26  1  0  0  0  0
 27 22  2  0  0  0  0
M  END
>  <minimizedAffinity>
47.1979141

$$$$
