
 OpenBabel09122222393D

 27 29  0  0  0  0  0  0  0  0999 V2000
   -2.5120    4.8780   -7.6860 C   0  0  0  0  0  0  0  0  0  0  0  0
   -2.8620    5.9590   -8.2950 N   0  0  0  0  0  0  0  0  0  0  0  0
   -1.8460    6.7770   -8.7470 C   0  0  0  0  0  0  0  0  0  0  0  0
   -0.5360    6.5100   -8.5880 C   0  0  0  0  0  0  0  0  0  0  0  0
   -0.1760    5.2700   -7.8660 C   0  0  0  0  0  0  0  0  0  0  0  0
    0.9840    4.9400   -7.6560 O   0  0  0  0  0  0  0  0  0  0  0  0
   -1.2280    4.5060   -7.4600 N   0  0  0  0  0  0  0  0  0  0  0  0
   -1.0350    3.6530   -6.9540 H   0  0  0  0  0  0  0  0  0  0  0  0
   -2.2890    7.9770   -9.4880 C   0  0  0  0  0  0  0  0  0  0  0  0
   -3.0730    7.8360  -10.6440 C   0  0  0  0  0  3  0  0  0  0  0  0
   -3.4950    8.9680  -11.3470 C   0  0  0  0  0  3  0  0  0  0  0  0
   -3.1410   10.2340  -10.8910 C   0  0  0  0  0  0  0  0  0  0  0  0
   -3.5500   11.3140  -11.5690 F   0  0  0  0  0  0  0  0  0  0  0  0
   -2.3760   10.3970   -9.7440 C   0  0  0  0  0  3  0  0  0  0  0  0
   -1.9600    9.2670   -9.0490 C   0  0  0  0  0  0  0  0  0  0  0  0
   -1.2280    9.4270   -7.9350 F   0  0  0  0  0  0  0  0  0  0  0  0
    0.5830    7.3530   -9.1770 C   0  0  0  0  0  2  0  0  0  0  0  0
    1.5110    8.0530   -9.6660 N   0  0  0  0  0  1  0  0  0  0  0  0
   -3.6780    3.7490   -7.0890 S   0  0  0  0  0  0  0  0  0  0  0  0
   -2.7350    2.2190   -7.3630 C   0  0  0  0  0  2  0  0  0  0  0  0
    2.1170    2.1630   -5.9820 C   0  0  0  0  0  1  0  0  0  0  0  0
    0.6670    1.9850   -5.6400 C   0  0  0  0  0  0  0  0  0  0  0  0
    0.2920    1.5240   -4.3730 C   0  0  0  0  0  3  0  0  0  0  0  0
   -1.0530    1.3260   -4.0640 C   0  0  0  0  0  3  0  0  0  0  0  0
   -2.0340    1.5710   -5.0230 C   0  0  0  0  0  3  0  0  0  0  0  0
   -1.6800    2.0160   -6.3050 C   0  0  0  0  0  0  0  0  0  0  0  0
   -0.3230    2.2190   -6.6030 C   0  0  0  0  0  3  0  0  0  0  0  0
  1  7  1  0  0  0  0
  1 19  1  0  0  0  0
  2  1  2  0  0  0  0
  3  4  2  0  0  0  0
  3  2  1  0  0  0  0
  4  5  1  0  0  0  0
  5  6  2  0  0  0  0
  5  7  1  0  0  0  0
  7  8  1  0  0  0  0
  9 15  1  0  0  0  0
  9  3  1  0  0  0  0
 10  9  2  0  0  0  0
 11 12  2  0  0  0  0
 11 10  1  0  0  0  0
 12 14  1  0  0  0  0
 13 12  1  0  0  0  0
 14 15  2  0  0  0  0
 15 16  1  0  0  0  0
 17  4  1  0  0  0  0
 18 17  1  0  0  0  0
 20 19  1  0  0  0  0
 20 26  1  0  0  0  0
 21 22  1  0  0  0  0
 22 23  1  0  0  0  0
 23 24  2  0  0  0  0
 25 24  1  0  0  0  0
 26 25  2  0  0  0  0
 27 26  1  0  0  0  0
 27 22  2  0  0  0  0
M  END
>  <minimizedAffinity>
48.1302109

$$$$
