
 OpenBabel09122222393D

 27 29  0  0  0  0  0  0  0  0999 V2000
    1.1250    5.3710   -7.6700 C   0  0  0  0  0  0  0  0  0  0  0  0
    0.5210    4.6240   -6.8100 N   0  0  0  0  0  0  0  0  0  0  0  0
    1.0990    3.4010   -6.5330 C   0  0  0  0  0  0  0  0  0  0  0  0
    2.2360    2.9570   -7.1030 C   0  0  0  0  0  0  0  0  0  0  0  0
    2.8850    3.8360   -8.0990 C   0  0  0  0  0  0  0  0  0  0  0  0
    3.9140    3.5230   -8.6860 O   0  0  0  0  0  0  0  0  0  0  0  0
    2.2680    5.0310   -8.3130 N   0  0  0  0  0  0  0  0  0  0  0  0
    2.6680    5.6630   -8.9920 H   0  0  0  0  0  0  0  0  0  0  0  0
    0.4080    2.5990   -5.5010 C   0  0  0  0  0  0  0  0  0  0  0  0
    0.8670    2.6190   -4.1750 C   0  0  0  0  0  3  0  0  0  0  0  0
    0.2160    1.8630   -3.1960 C   0  0  0  0  0  3  0  0  0  0  0  0
   -0.8940    1.0990   -3.5410 C   0  0  0  0  0  0  0  0  0  0  0  0
   -1.5140    0.3790   -2.5980 F   0  0  0  0  0  0  0  0  0  0  0  0
   -1.3740    1.0740   -4.8440 C   0  0  0  0  0  3  0  0  0  0  0  0
   -0.7210    1.8280   -5.8130 C   0  0  0  0  0  0  0  0  0  0  0  0
   -1.1910    1.8090   -7.0700 F   0  0  0  0  0  0  0  0  0  0  0  0
    2.9300    1.6600   -6.7220 C   0  0  0  0  0  2  0  0  0  0  0  0
    3.5060    0.5840   -6.4060 N   0  0  0  0  0  1  0  0  0  0  0  0
    0.5280    6.9380   -8.0940 S   0  0  0  0  0  0  0  0  0  0  0  0
   -1.2480    6.5520   -8.1140 C   0  0  0  0  0  2  0  0  0  0  0  0
   -2.3360   11.1350   -9.9220 C   0  0  0  0  0  1  0  0  0  0  0  0
   -2.5280    9.6470   -9.9530 C   0  0  0  0  0  0  0  0  0  0  0  0
   -3.4830    9.0760  -10.8020 C   0  0  0  0  0  3  0  0  0  0  0  0
   -3.6860    7.6960  -10.8080 C   0  0  0  0  0  3  0  0  0  0  0  0
   -2.9490    6.8780   -9.9550 C   0  0  0  0  0  3  0  0  0  0  0  0
   -2.0000    7.4300   -9.0830 C   0  0  0  0  0  0  0  0  0  0  0  0
   -1.7980    8.8190   -9.0910 C   0  0  0  0  0  3  0  0  0  0  0  0
  1  2  2  0  0  0  0
  2  3  1  0  0  0  0
  3  9  1  0  0  0  0
  4 17  1  0  0  0  0
  4  3  2  0  0  0  0
  5  4  1  0  0  0  0
  6  5  2  0  0  0  0
  7  5  1  0  0  0  0
  7  1  1  0  0  0  0
  8  7  1  0  0  0  0
  9 10  1  0  0  0  0
 10 11  2  0  0  0  0
 12 11  1  0  0  0  0
 12 13  1  0  0  0  0
 14 12  2  0  0  0  0
 15  9  2  0  0  0  0
 15 14  1  0  0  0  0
 16 15  1  0  0  0  0
 17 18  1  0  0  0  0
 19  1  1  0  0  0  0
 20 19  1  0  0  0  0
 22 21  1  0  0  0  0
 22 27  1  0  0  0  0
 23 22  2  0  0  0  0
 24 23  1  0  0  0  0
 24 25  2  0  0  0  0
 25 26  1  0  0  0  0
 26 20  1  0  0  0  0
 27 26  2  0  0  0  0
M  END
>  <minimizedAffinity>
49.7758026

$$$$
