REMARK  Name = 
REMARK  10 active torsions:
REMARK  status: ('A' for Active; 'I' for Inactive)
REMARK    1  A    between atoms: C_1  and  C_2
REMARK    2  A    between atoms: C_2  and  C_3
REMARK    3  A    between atoms: C_2  and  C_4
REMARK    4  A    between atoms: C_7  and  C_8
REMARK    5  A    between atoms: C_10  and  S_11
REMARK    6  A    between atoms: S_11  and  C_12
REMARK    7  A    between atoms: C_12  and  C_13
REMARK    8  A    between atoms: C_16  and  O_17
REMARK    9  A    between atoms: O_17  and  C_18
REMARK   10  A    between atoms: C_27  and  C_28
REMARK                            x       y       z     vdW  Elec       q    Type
REMARK                         _______ _______ _______ _____ _____    ______ ____
ROOT
ATOM      1  C   UNL     1      -5.396   1.357   0.235  0.00  0.00    +0.096 A 
ATOM      2  N   UNL     1      -6.069   2.034  -0.760  0.00  0.00    -0.222 NA
ATOM      3  C   UNL     1      -7.333   2.236  -0.598  0.00  0.00    +0.170 A 
ATOM      4  N   UNL     1      -8.021   1.818   0.495  0.00  0.00    -0.301 N 
ATOM      5  C   UNL     1      -7.436   1.071   1.475  0.00  0.00    +0.270 A 
ATOM      6  O   UNL     1      -8.087   0.647   2.423  0.00  0.00    -0.266 OA
ATOM      7  C   UNL     1      -5.986   0.841   1.328  0.00  0.00    +0.142 A 
ATOM      8  H   UNL     1      -9.000   2.014   0.610  0.00  0.00    +0.171 HD
ENDROOT
BRANCH   1  12
ATOM      9  C   UNL     1      -1.117   1.235  -0.146  0.00  0.00    -0.045 A 
ATOM     10  C   UNL     1      -1.771   2.389   0.308  0.00  0.00    +0.004 A 
ATOM     11  C   UNL     1      -3.163   2.423   0.421  0.00  0.00    +0.010 A 
ATOM     12  C   UNL     1      -3.929   1.300   0.087  0.00  0.00    +0.002 A 
ATOM     13  C   UNL     1      -3.287   0.150  -0.381  0.00  0.00    +0.010 A 
ATOM     14  C   UNL     1      -1.893   0.120  -0.499  0.00  0.00    +0.004 A 
BRANCH   9  16
ATOM     15  C   UNL     1       1.050   0.016   0.375  0.00  0.00    +0.012 C 
ATOM     16  C   UNL     1       0.397   1.239  -0.274  0.00  0.00    +0.013 C 
ATOM     17  C   UNL     1       0.814   1.366  -1.740  0.00  0.00    +0.012 C 
ENDBRANCH   9  16
ENDBRANCH   1  12
BRANCH   7  18
ATOM     18  C   UNL     1      -5.253   0.144   2.462  0.00  0.00    +0.107 C 
ATOM     19  N   UNL     1      -4.644  -0.434   3.404  0.00  0.00    -0.191 NA
ENDBRANCH   7  18
BRANCH   3  20
ATOM     20  S   UNL     1      -8.201   3.146  -1.793  0.00  0.00    -0.083 S 
BRANCH  20  21
ATOM     21  C   UNL     1      -9.873   2.465  -1.805  0.00  0.00    +0.112 C 
BRANCH  21  22
ATOM     22  C   UNL     1      -9.987   0.962  -1.824  0.00  0.00    -0.037 A 
ATOM     23  C   UNL     1     -10.805   0.313  -0.889  0.00  0.00    +0.008 A 
ATOM     24  C   UNL     1     -10.940  -1.077  -0.907  0.00  0.00    +0.046 A 
ATOM     25  C   UNL     1     -10.278  -1.848  -1.865  0.00  0.00    +0.130 A 
ATOM     26  C   UNL     1      -9.476  -1.208  -2.809  0.00  0.00    +0.046 A 
ATOM     27  C   UNL     1      -9.337   0.186  -2.793  0.00  0.00    +0.008 A 
BRANCH  25  28
ATOM     28  O   UNL     1     -10.510  -3.189  -1.765  0.00  0.00    -0.406 OA
BRANCH  28  29
ATOM     29  C   UNL     1      -9.893  -4.040  -2.715  0.00  0.00    +0.575 C 
ATOM     30  F   UNL     1     -10.295  -3.742  -3.969  0.00  0.00    -0.133 F 
ATOM     31  F   UNL     1      -8.548  -3.959  -2.640  0.00  0.00    -0.133 F 
ATOM     32  F   UNL     1     -10.253  -5.316  -2.451  0.00  0.00    -0.133 F 
ENDBRANCH  28  29
ENDBRANCH  25  28
ENDBRANCH  21  22
ENDBRANCH  20  21
ENDBRANCH   3  20
TORSDOF 8
