REMARK  Name = 
REMARK  6 active torsions:
REMARK  status: ('A' for Active; 'I' for Inactive)
REMARK    1  A    between atoms: C_2  and  C_4
REMARK    2  A    between atoms: C_11  and  C_12
REMARK    3  A    between atoms: C_15  and  O_16
REMARK    4  A    between atoms: O_16  and  C_17
REMARK    5  A    between atoms: C_22  and  C_23
REMARK    6  A    between atoms: N_31  and  C_32
REMARK                            x       y       z     vdW  Elec       q    Type
REMARK                         _______ _______ _______ _____ _____    ______ ____
ROOT
ATOM      1  C   UNL     1       6.850  -5.109  -2.656  0.00  0.00    +0.018 A 
ATOM      2  C   UNL     1       7.723  -5.092  -3.751  0.00  0.00    +0.015 A 
ATOM      3  C   UNL     1       8.583  -6.169  -3.989  0.00  0.00    +0.047 A 
ATOM      4  C   UNL     1       8.599  -7.265  -3.124  0.00  0.00    +0.129 A 
ATOM      5  C   UNL     1       7.782  -7.260  -1.992  0.00  0.00    +0.047 A 
ATOM      6  C   UNL     1       6.909  -6.190  -1.766  0.00  0.00    +0.015 A 
ENDROOT
BRANCH   1  14
ATOM      7  C   UNL     1       3.427  -0.580  -0.731  0.00  0.00    -0.001 A 
ATOM      8  C   UNL     1       2.932  -0.584  -2.045  0.00  0.00    +0.012 A 
ATOM      9  C   UNL     1       3.381  -1.495  -3.010  0.00  0.00    +0.028 A 
ATOM     10  C   UNL     1       4.356  -2.423  -2.621  0.00  0.00    +0.069 A 
ATOM     11  C   UNL     1       4.878  -2.441  -1.331  0.00  0.00    +0.090 A 
ATOM     12  C   UNL     1       4.414  -1.521  -0.377  0.00  0.00    +0.039 A 
ATOM     13  N   UNL     1       5.821  -3.427  -1.201  0.00  0.00    -0.228 NA
ATOM     14  C   UNL     1       5.923  -4.007  -2.382  0.00  0.00    +0.142 A 
ATOM     15  N   UNL     1       4.998  -3.464  -3.266  0.00  0.00    -0.320 N 
BRANCH  15  16
ATOM     16  C   UNL     1       4.707  -3.951  -4.612  0.00  0.00    +0.089 C 
ATOM     17  C   UNL     1       3.255  -4.431  -4.788  0.00  0.00    +0.025 C 
ATOM     18  C   UNL     1       3.023  -4.984  -6.194  0.00  0.00    +0.002 C 
ATOM     19  C   UNL     1       3.423  -3.976  -7.269  0.00  0.00    +0.000 C 
ATOM     20  C   UNL     1       4.867  -3.512  -7.099  0.00  0.00    +0.002 C 
ATOM     21  C   UNL     1       5.117  -2.948  -5.702  0.00  0.00    +0.025 C 
ENDBRANCH  15  16
BRANCH   7  23
ATOM     22  O   UNL     1       2.020   1.238  -0.114  0.00  0.00    -0.545 OA
ATOM     23  C   UNL     1       2.907   0.418   0.285  0.00  0.00    +0.072 C 
ATOM     24  O   UNL     1       3.391   0.361   1.459  0.00  0.00    -0.545 OA
ENDBRANCH   7  23
ENDBRANCH   1  14
BRANCH   4  25
ATOM     25  O   UNL     1       9.500  -8.258  -3.448  0.00  0.00    -0.455 OA
BRANCH  25  26
ATOM     26  C   UNL     1       9.327  -9.513  -2.904  0.00  0.00    +0.136 A 
ATOM     27  C   UNL     1       8.154 -10.236  -3.166  0.00  0.00    +0.047 A 
ATOM     28  C   UNL     1       7.997 -11.522  -2.655  0.00  0.00    +0.004 A 
ATOM     29  C   UNL     1       9.019 -12.098  -1.904  0.00  0.00    +0.001 A 
ATOM     30  C   UNL     1      10.204 -11.392  -1.677  0.00  0.00    +0.012 A 
ATOM     31  C   UNL     1      10.388 -10.091  -2.180  0.00  0.00    +0.024 A 
BRANCH  31  32
ATOM     32  C   UNL     1      11.663  -9.391  -1.950  0.00  0.00    -0.014 A 
ATOM     33  C   UNL     1      11.718  -8.197  -1.214  0.00  0.00    +0.008 A 
ATOM     34  C   UNL     1      12.931  -7.538  -1.002  0.00  0.00    +0.001 A 
ATOM     35  C   UNL     1      14.112  -8.065  -1.521  0.00  0.00    +0.000 A 
ATOM     36  C   UNL     1      14.080  -9.250  -2.251  0.00  0.00    +0.001 A 
ATOM     37  C   UNL     1      12.866  -9.908  -2.462  0.00  0.00    +0.008 A 
ENDBRANCH  31  32
ENDBRANCH  25  26
ENDBRANCH   4  25
TORSDOF 6
