
 OpenBabel09122222393D

 37 42  0  0  0  0  0  0  0  0999 V2000
    6.3290   -6.7350    0.6850 C   0  0  0  0  0  0  0  0  0  0  0  0
    7.4850   -6.5730    1.4590 C   0  0  0  0  0  3  0  0  0  0  0  0
    8.4680   -5.6520    1.0810 C   0  0  0  0  0  3  0  0  0  0  0  0
    8.3200   -4.9000   -0.0860 C   0  0  0  0  0  0  0  0  0  0  0  0
    7.2050   -5.1040   -0.9000 C   0  0  0  0  0  3  0  0  0  0  0  0
    6.2140   -6.0120   -0.5100 C   0  0  0  0  0  3  0  0  0  0  0  0
    2.2420  -11.0470    1.4830 C   0  0  0  0  0  0  0  0  0  0  0  0
    1.9430  -10.3470    2.6630 C   0  0  0  0  0  3  0  0  0  0  0  0
    2.6120   -9.1700    3.0240 C   0  0  0  0  0  3  0  0  0  0  0  0
    3.6070   -8.6990    2.1570 C   0  0  0  0  0  0  0  0  0  0  0  0
    3.9380   -9.3720    0.9850 C   0  0  0  0  0  0  0  0  0  0  0  0
    3.2550  -10.5490    0.6400 C   0  0  0  0  0  3  0  0  0  0  0  0
    4.9440   -8.7230    0.3180 N   0  0  0  0  0  0  0  0  0  0  0  0
    5.2700   -7.6780    1.0560 C   0  0  0  0  0  0  0  0  0  0  0  0
    4.4330   -7.5900    2.1610 N   0  0  0  0  0  0  0  0  0  0  0  0
    4.3860   -6.4870    3.1180 C   0  0  0  0  0  3  0  0  0  0  0  0
    4.1410   -5.1170    2.4600 C   0  0  0  0  0  2  0  0  0  0  0  0
    4.1620   -3.9940    3.4980 C   0  0  0  0  0  2  0  0  0  0  0  0
    3.1800   -4.2620    4.6360 C   0  0  0  0  0  2  0  0  0  0  0  0
    3.4330   -5.6160    5.2940 C   0  0  0  0  0  2  0  0  0  0  0  0
    3.4090   -6.7520    4.2740 C   0  0  0  0  0  2  0  0  0  0  0  0
    1.5540  -12.7020   -0.0840 O   0  0  0  0  0  0  0  0  0  0  0  0
    1.4870  -12.3120    1.1260 C   0  0  0  0  0  0  0  0  0  0  0  0
    0.8480  -12.8930    2.0580 O   0  0  0  0  0  1  0  0  0  0  0  0
    9.3600   -4.0380   -0.3670 O   0  0  0  0  0  0  0  0  0  0  0  0
    9.3690   -2.7940    0.2270 C   0  0  0  0  0  0  0  0  0  0  0  0
    8.4730   -2.5060    1.2660 C   0  0  0  0  0  3  0  0  0  0  0  0
    8.5100   -1.2650    1.8980 C   0  0  0  0  0  3  0  0  0  0  0  0
    9.4570   -0.3200    1.5100 C   0  0  0  0  0  3  0  0  0  0  0  0
   10.3760   -0.6220    0.5010 C   0  0  0  0  0  3  0  0  0  0  0  0
   10.3590   -1.8670   -0.1540 C   0  0  0  0  0  0  0  0  0  0  0  0
   11.3640   -2.1630   -1.1890 C   0  0  0  0  0  0  0  0  0  0  0  0
   12.0400   -3.3930   -1.2200 C   0  0  0  0  0  3  0  0  0  0  0  0
   12.9930   -3.6660   -2.2040 C   0  0  0  0  0  3  0  0  0  0  0  0
   13.2850   -2.7120   -3.1770 C   0  0  0  0  0  3  0  0  0  0  0  0
   12.6230   -1.4870   -3.1660 C   0  0  0  0  0  3  0  0  0  0  0  0
   11.6700   -1.2160   -2.1820 C   0  0  0  0  0  3  0  0  0  0  0  0
  1 14  1  0  0  0  0
  1  2  1  0  0  0  0
  3  2  2  0  0  0  0
  4  3  1  0  0  0  0
  5  6  1  0  0  0  0
  5  4  2  0  0  0  0
  6  1  2  0  0  0  0
  7  8  1  0  0  0  0
  8  9  2  0  0  0  0
 10 15  1  0  0  0  0
 10  9  1  0  0  0  0
 11 10  2  0  0  0  0
 12 11  1  0  0  0  0
 12  7  2  0  0  0  0
 13 11  1  0  0  0  0
 13 14  2  0  0  0  0
 14 15  1  0  0  0  0
 15 16  1  0  0  0  0
 16 21  1  0  0  0  0
 17 16  1  0  0  0  0
 17 18  1  0  0  0  0
 18 19  1  0  0  0  0
 19 20  1  0  0  0  0
 21 20  1  0  0  0  0
 22 23  2  0  0  0  0
 23  7  1  0  0  0  0
 23 24  1  0  0  0  0
 25  4  1  0  0  0  0
 25 26  1  0  0  0  0
 26 27  1  0  0  0  0
 27 28  2  0  0  0  0
 29 28  1  0  0  0  0
 30 29  2  0  0  0  0
 31 26  2  0  0  0  0
 31 30  1  0  0  0  0
 32 31  1  0  0  0  0
 33 32  1  0  0  0  0
 34 33  2  0  0  0  0
 35 36  2  0  0  0  0
 35 34  1  0  0  0  0
 36 37  1  0  0  0  0
 37 32  2  0  0  0  0
M  END
>  <minimizedAffinity>
-8.21342087

$$$$
