
 OpenBabel09122222393D

 37 42  0  0  0  0  0  0  0  0999 V2000
    4.9020   -7.3360    1.7180 C   0  0  0  0  0  0  0  0  0  0  0  0
    4.1090   -7.8100    0.6650 C   0  0  0  0  0  3  0  0  0  0  0  0
    3.0950   -8.7430    0.9050 C   0  0  0  0  0  3  0  0  0  0  0  0
    2.8770   -9.2320    2.1950 C   0  0  0  0  0  0  0  0  0  0  0  0
    3.7070   -8.8180    3.2380 C   0  0  0  0  0  3  0  0  0  0  0  0
    4.7080   -7.8700    2.9990 C   0  0  0  0  0  3  0  0  0  0  0  0
    9.5150   -3.8180    0.2090 C   0  0  0  0  0  0  0  0  0  0  0  0
    8.9980   -2.9600    1.1930 C   0  0  0  0  0  3  0  0  0  0  0  0
    7.8590   -3.2830    1.9430 C   0  0  0  0  0  3  0  0  0  0  0  0
    7.2370   -4.5110    1.6800 C   0  0  0  0  0  0  0  0  0  0  0  0
    7.7140   -5.3800    0.7030 C   0  0  0  0  0  0  0  0  0  0  0  0
    8.8590   -5.0400   -0.0360 C   0  0  0  0  0  3  0  0  0  0  0  0
    6.9320   -6.5030    0.6270 N   0  0  0  0  0  0  0  0  0  0  0  0
    5.9630   -6.3460    1.5090 C   0  0  0  0  0  0  0  0  0  0  0  0
    6.1470   -5.1670    2.2210 N   0  0  0  0  0  0  0  0  0  0  0  0
    5.3700   -4.7320    3.3780 C   0  0  0  0  0  3  0  0  0  0  0  0
    6.1410   -3.7790    4.3100 C   0  0  0  0  0  2  0  0  0  0  0  0
    5.3040   -3.4040    5.5320 C   0  0  0  0  0  2  0  0  0  0  0  0
    3.9470   -2.8310    5.1310 C   0  0  0  0  0  2  0  0  0  0  0  0
    3.1790   -3.7830    4.2180 C   0  0  0  0  0  2  0  0  0  0  0  0
    3.9970   -4.1640    2.9860 C   0  0  0  0  0  2  0  0  0  0  0  0
   10.6730   -2.4040   -1.3160 O   0  0  0  0  0  0  0  0  0  0  0  0
   10.7560   -3.4340   -0.5730 C   0  0  0  0  0  0  0  0  0  0  0  0
   11.7860   -4.1630   -0.4280 O   0  0  0  0  0  1  0  0  0  0  0  0
    1.8630  -10.1620    2.3080 O   0  0  0  0  0  0  0  0  0  0  0  0
    2.0240  -11.2130    3.1860 C   0  0  0  0  0  0  0  0  0  0  0  0
    1.6680  -11.0630    4.5340 C   0  0  0  0  0  3  0  0  0  0  0  0
    1.7860  -12.1370    5.4120 C   0  0  0  0  0  3  0  0  0  0  0  0
    2.2340  -13.3690    4.9420 C   0  0  0  0  0  3  0  0  0  0  0  0
    2.5510  -13.5290    3.5890 C   0  0  0  0  0  3  0  0  0  0  0  0
    2.4430  -12.4600    2.6810 C   0  0  0  0  0  0  0  0  0  0  0  0
    2.7520  -12.6740    1.2580 C   0  0  0  0  0  0  0  0  0  0  0  0
    1.7370  -12.7240    0.2890 C   0  0  0  0  0  3  0  0  0  0  0  0
    2.0380  -12.9300   -1.0590 C   0  0  0  0  0  3  0  0  0  0  0  0
    3.3630  -13.0870   -1.4620 C   0  0  0  0  0  3  0  0  0  0  0  0
    4.3850  -13.0370   -0.5180 C   0  0  0  0  0  3  0  0  0  0  0  0
    4.0820  -12.8310    0.8300 C   0  0  0  0  0  3  0  0  0  0  0  0
  1  6  1  0  0  0  0
  2  3  1  0  0  0  0
  2  1  2  0  0  0  0
  3  4  2  0  0  0  0
  4 25  1  0  0  0  0
  4  5  1  0  0  0  0
  6  5  2  0  0  0  0
  7  8  1  0  0  0  0
  8  9  2  0  0  0  0
 10  9  1  0  0  0  0
 10 15  1  0  0  0  0
 11 10  2  0  0  0  0
 12  7  2  0  0  0  0
 12 11  1  0  0  0  0
 13 11  1  0  0  0  0
 13 14  2  0  0  0  0
 14  1  1  0  0  0  0
 14 15  1  0  0  0  0
 15 16  1  0  0  0  0
 16 17  1  0  0  0  0
 17 18  1  0  0  0  0
 19 18  1  0  0  0  0
 20 19  1  0  0  0  0
 21 16  1  0  0  0  0
 21 20  1  0  0  0  0
 22 23  2  0  0  0  0
 23 24  1  0  0  0  0
 23  7  1  0  0  0  0
 25 26  1  0  0  0  0
 26 27  1  0  0  0  0
 27 28  2  0  0  0  0
 29 28  1  0  0  0  0
 30 29  2  0  0  0  0
 31 26  2  0  0  0  0
 31 30  1  0  0  0  0
 32 31  1  0  0  0  0
 33 32  2  0  0  0  0
 34 33  1  0  0  0  0
 35 34  2  0  0  0  0
 35 36  1  0  0  0  0
 36 37  2  0  0  0  0
 37 32  1  0  0  0  0
M  END
>  <minimizedAffinity>
-8.61135483

$$$$
