
 OpenBabel09122222393D

 37 42  0  0  0  0  0  0  0  0999 V2000
    5.4450   -7.5620    1.5770 C   0  0  0  0  0  0  0  0  0  0  0  0
    5.6450   -8.5740    2.5250 C   0  0  0  0  0  3  0  0  0  0  0  0
    4.7460   -9.6410    2.6220 C   0  0  0  0  0  3  0  0  0  0  0  0
    3.6240   -9.6980    1.7920 C   0  0  0  0  0  0  0  0  0  0  0  0
    3.3800   -8.6590    0.8930 C   0  0  0  0  0  3  0  0  0  0  0  0
    4.2910   -7.6020    0.7840 C   0  0  0  0  0  3  0  0  0  0  0  0
    9.6140   -3.4340    0.3460 C   0  0  0  0  0  0  0  0  0  0  0  0
    8.9360   -2.6680    1.3080 C   0  0  0  0  0  3  0  0  0  0  0  0
    7.8130   -3.1520    1.9920 C   0  0  0  0  0  3  0  0  0  0  0  0
    7.3770   -4.4480    1.6860 C   0  0  0  0  0  0  0  0  0  0  0  0
    8.0180   -5.2320    0.7310 C   0  0  0  0  0  0  0  0  0  0  0  0
    9.1430   -4.7300    0.0570 C   0  0  0  0  0  3  0  0  0  0  0  0
    7.3990   -6.4480    0.6040 N   0  0  0  0  0  0  0  0  0  0  0  0
    6.3730   -6.4360    1.4340 C   0  0  0  0  0  0  0  0  0  0  0  0
    6.3580   -5.2520    2.1630 N   0  0  0  0  0  0  0  0  0  0  0  0
    5.4690   -4.9420    3.2800 C   0  0  0  0  0  3  0  0  0  0  0  0
    6.1010   -4.0010    4.3210 C   0  0  0  0  0  2  0  0  0  0  0  0
    5.1520   -3.7580    5.4940 C   0  0  0  0  0  2  0  0  0  0  0  0
    3.7900   -3.2530    5.0220 C   0  0  0  0  0  2  0  0  0  0  0  0
    3.1610   -4.1950    4.0000 C   0  0  0  0  0  2  0  0  0  0  0  0
    4.0920   -4.4430    2.8150 C   0  0  0  0  0  2  0  0  0  0  0  0
   10.6250   -2.2350   -1.4440 O   0  0  0  0  0  0  0  0  0  0  0  0
   10.8320   -2.8760   -0.3650 C   0  0  0  0  0  0  0  0  0  0  0  0
   11.9660   -3.0840    0.1700 O   0  0  0  0  0  1  0  0  0  0  0  0
    2.8000  -10.7860    1.9910 O   0  0  0  0  0  0  0  0  0  0  0  0
    2.8700  -11.8410    1.1070 C   0  0  0  0  0  0  0  0  0  0  0  0
    2.4740  -11.6670   -0.2270 C   0  0  0  0  0  3  0  0  0  0  0  0
    2.5870  -12.7190   -1.1330 C   0  0  0  0  0  3  0  0  0  0  0  0
    3.1190  -13.9370   -0.7160 C   0  0  0  0  0  3  0  0  0  0  0  0
    3.5510  -14.0970    0.6040 C   0  0  0  0  0  3  0  0  0  0  0  0
    3.4460  -13.0520    1.5390 C   0  0  0  0  0  0  0  0  0  0  0  0
    3.9430  -13.2460    2.9120 C   0  0  0  0  0  0  0  0  0  0  0  0
    3.0640  -13.4920    3.9790 C   0  0  0  0  0  3  0  0  0  0  0  0
    3.5430  -13.6730    5.2780 C   0  0  0  0  0  3  0  0  0  0  0  0
    4.9120  -13.6140    5.5320 C   0  0  0  0  0  3  0  0  0  0  0  0
    5.8010  -13.3740    4.4880 C   0  0  0  0  0  3  0  0  0  0  0  0
    5.3200  -13.1940    3.1890 C   0  0  0  0  0  3  0  0  0  0  0  0
  1  2  1  0  0  0  0
  2  3  2  0  0  0  0
  4 25  1  0  0  0  0
  4  3  1  0  0  0  0
  5  4  2  0  0  0  0
  6  5  1  0  0  0  0
  6  1  2  0  0  0  0
  7  8  1  0  0  0  0
  8  9  2  0  0  0  0
 10  9  1  0  0  0  0
 10 15  1  0  0  0  0
 11 10  2  0  0  0  0
 12  7  2  0  0  0  0
 12 11  1  0  0  0  0
 13 11  1  0  0  0  0
 13 14  2  0  0  0  0
 14  1  1  0  0  0  0
 14 15  1  0  0  0  0
 15 16  1  0  0  0  0
 16 17  1  0  0  0  0
 17 18  1  0  0  0  0
 19 18  1  0  0  0  0
 20 19  1  0  0  0  0
 21 16  1  0  0  0  0
 21 20  1  0  0  0  0
 22 23  2  0  0  0  0
 23 24  1  0  0  0  0
 23  7  1  0  0  0  0
 26 31  1  0  0  0  0
 26 25  1  0  0  0  0
 27 26  2  0  0  0  0
 28 29  2  0  0  0  0
 28 27  1  0  0  0  0
 29 30  1  0  0  0  0
 30 31  2  0  0  0  0
 31 32  1  0  0  0  0
 32 37  2  0  0  0  0
 32 33  1  0  0  0  0
 33 34  2  0  0  0  0
 34 35  1  0  0  0  0
 36 35  2  0  0  0  0
 37 36  1  0  0  0  0
M  END
>  <minimizedAffinity>
-8.62428474

$$$$
