
 OpenBabel09122222393D

 37 42  0  0  0  0  0  0  0  0999 V2000
    5.4050   -7.1870    1.4490 C   0  0  0  0  0  0  0  0  0  0  0  0
    4.3390   -7.3210    0.5500 C   0  0  0  0  0  3  0  0  0  0  0  0
    3.4020   -8.3470    0.7100 C   0  0  0  0  0  3  0  0  0  0  0  0
    3.5300   -9.2650    1.7540 C   0  0  0  0  0  0  0  0  0  0  0  0
    4.6270   -9.1810    2.6140 C   0  0  0  0  0  3  0  0  0  0  0  0
    5.5540   -8.1430    2.4630 C   0  0  0  0  0  3  0  0  0  0  0  0
    9.7860   -3.2730    0.2570 C   0  0  0  0  0  0  0  0  0  0  0  0
    9.1980   -2.5200    1.2860 C   0  0  0  0  0  3  0  0  0  0  0  0
    8.0740   -2.9680    1.9920 C   0  0  0  0  0  3  0  0  0  0  0  0
    7.5410   -4.2140    1.6380 C   0  0  0  0  0  0  0  0  0  0  0  0
    8.0900   -4.9830    0.6150 C   0  0  0  0  0  0  0  0  0  0  0  0
    9.2180   -4.5170   -0.0800 C   0  0  0  0  0  3  0  0  0  0  0  0
    7.3880   -6.1480    0.4520 N   0  0  0  0  0  0  0  0  0  0  0  0
    6.3990   -6.1160    1.3250 C   0  0  0  0  0  0  0  0  0  0  0  0
    6.4910   -4.9770    2.1150 N   0  0  0  0  0  0  0  0  0  0  0  0
    5.6710   -4.6730    3.2850 C   0  0  0  0  0  3  0  0  0  0  0  0
    6.3700   -3.7520    4.3000 C   0  0  0  0  0  2  0  0  0  0  0  0
    5.4920   -3.5160    5.5280 C   0  0  0  0  0  2  0  0  0  0  0  0
    4.1110   -2.9910    5.1410 C   0  0  0  0  0  2  0  0  0  0  0  0
    3.4150   -3.9140    4.1440 C   0  0  0  0  0  2  0  0  0  0  0  0
    4.2740   -4.1550    2.9050 C   0  0  0  0  0  2  0  0  0  0  0  0
   12.1430   -3.0350    0.0250 O   0  0  0  0  0  1  0  0  0  0  0  0
   11.0080   -2.7540   -0.4760 C   0  0  0  0  0  0  0  0  0  0  0  0
   10.8100   -2.0810   -1.5360 O   0  0  0  0  0  0  0  0  0  0  0  0
    2.5590  -10.2430    1.8010 O   0  0  0  0  0  0  0  0  0  0  0  0
    2.7280  -11.3050    2.6640 C   0  0  0  0  0  0  0  0  0  0  0  0
    3.5620  -12.3750    2.3050 C   0  0  0  0  0  3  0  0  0  0  0  0
    3.7700  -13.4260    3.1940 C   0  0  0  0  0  3  0  0  0  0  0  0
    3.1690  -13.4000    4.4510 C   0  0  0  0  0  3  0  0  0  0  0  0
    2.3710  -12.3150    4.8230 C   0  0  0  0  0  3  0  0  0  0  0  0
    2.1420  -11.2400    3.9430 C   0  0  0  0  0  0  0  0  0  0  0  0
    1.3240  -10.0970    4.3820 C   0  0  0  0  0  0  0  0  0  0  0  0
   -0.0490  -10.0300    4.0960 C   0  0  0  0  0  3  0  0  0  0  0  0
   -0.8180   -8.9410    4.5130 C   0  0  0  0  0  3  0  0  0  0  0  0
   -0.2260   -7.9020    5.2290 C   0  0  0  0  0  3  0  0  0  0  0  0
    1.1330   -7.9510    5.5260 C   0  0  0  0  0  3  0  0  0  0  0  0
    1.9010   -9.0400    5.1080 C   0  0  0  0  0  3  0  0  0  0  0  0
  1  6  1  0  0  0  0
  2  3  1  0  0  0  0
  2  1  2  0  0  0  0
  3  4  2  0  0  0  0
  4 25  1  0  0  0  0
  4  5  1  0  0  0  0
  6  5  2  0  0  0  0
  7  8  1  0  0  0  0
  8  9  2  0  0  0  0
 10  9  1  0  0  0  0
 10 15  1  0  0  0  0
 11 10  2  0  0  0  0
 12  7  2  0  0  0  0
 12 11  1  0  0  0  0
 13 11  1  0  0  0  0
 13 14  2  0  0  0  0
 14  1  1  0  0  0  0
 14 15  1  0  0  0  0
 15 16  1  0  0  0  0
 16 17  1  0  0  0  0
 17 18  1  0  0  0  0
 19 18  1  0  0  0  0
 20 19  1  0  0  0  0
 21 16  1  0  0  0  0
 21 20  1  0  0  0  0
 23 22  1  0  0  0  0
 23  7  1  0  0  0  0
 24 23  2  0  0  0  0
 25 26  1  0  0  0  0
 26 31  1  0  0  0  0
 27 26  2  0  0  0  0
 27 28  1  0  0  0  0
 28 29  2  0  0  0  0
 29 30  1  0  0  0  0
 31 32  1  0  0  0  0
 31 30  2  0  0  0  0
 32 37  1  0  0  0  0
 33 32  2  0  0  0  0
 33 34  1  0  0  0  0
 34 35  2  0  0  0  0
 35 36  1  0  0  0  0
 37 36  2  0  0  0  0
M  END
>  <minimizedAffinity>
-8.01288891

$$$$
