
 OpenBabel08192222473D

 28 29  0  0  1  0  0  0  0  0999 V2000
   -7.9030   35.0610  -34.9620 C   0  0  0  0  0  0  0  0  0  0  0  0
   -7.9910   35.5370  -36.1010 O   0  0  0  0  0  0  0  0  0  0  0  0
   -7.3690   33.7730  -34.7130 N   0  0  0  0  0  0  0  0  0  0  0  0
   -9.0940   39.5330  -31.4080 C   0  0  0  0  0  1  0  0  0  0  0  0
   -8.8150   38.6300  -32.6100 C   0  0  2  0  0  3  0  0  0  0  0  0
   -9.8780   37.5290  -32.7120 C   0  0  0  0  0  2  0  0  0  0  0  0
   -9.5890   36.5790  -33.8700 C   0  0  0  0  0  2  0  0  0  0  0  0
   -8.1900   35.9610  -33.7500 C   0  0  2  0  0  3  0  0  0  0  0  0
   -7.1250   37.0640  -33.6770 C   0  0  0  0  0  2  0  0  0  0  0  0
   -7.4050   38.0290  -32.5240 C   0  0  0  0  0  2  0  0  0  0  0  0
   -7.7860   32.9500  -33.6210 C   0  0  0  0  0  0  0  0  0  0  0  0
   -9.1820   32.6190  -33.4020 C   0  0  0  0  0  3  0  0  0  0  0  0
   -9.4220   31.9090  -32.2520 C   0  0  0  0  0  0  0  0  0  0  0  0
   -7.9820   31.4970  -31.4730 S   0  0  0  0  0  0  0  0  0  0  0  0
   -7.0100   32.2920  -32.6600 C   0  0  0  0  0  0  0  0  0  0  0  0
   -5.5270   32.2450  -32.5290 C   0  0  0  0  0  0  0  0  0  0  0  0
   -4.9240   33.2350  -32.0350 O   0  0  0  0  0  1  0  0  0  0  0  0
   -4.9770   31.1600  -32.9070 O   0  0  0  0  0  0  0  0  0  0  0  0
  -10.7150   31.5730  -31.7590 C   0  0  0  0  0  0  0  0  0  0  0  0
  -11.7860   31.2480  -31.3220 C   0  0  0  0  0  0  0  0  0  0  0  0
  -13.0920   30.8050  -30.7860 C   0  0  0  0  0  0  0  0  0  0  0  0
  -14.2100   31.6560  -31.4050 C   0  0  0  0  0  1  0  0  0  0  0  0
  -13.3140   29.3280  -31.1360 C   0  0  0  0  0  1  0  0  0  0  0  0
  -13.1000   30.9800  -29.2610 C   0  0  0  0  0  1  0  0  0  0  0  0
   -6.5220   33.2260  -35.7470 N   0  0  0  0  0  4  0  0  0  0  0  0
   -5.1190   33.6380  -35.5390 C   0  0  0  0  0  1  0  0  0  0  0  0
   -6.8000   31.7820  -35.9660 C   0  0  0  0  0  1  0  0  0  0  0  0
   -6.8470   33.6450  -36.6540 H   0  0  0  0  0  0  0  0  0  0  0  0
  1  3  1  0  0  0  0
  2  1  2  0  0  0  0
  3 11  1  0  0  0  0
  5 10  1  0  0  0  0
  5  4  1  1  0  0  0
  6  5  1  0  0  0  0
  7  8  1  0  0  0  0
  7  6  1  0  0  0  0
  8  1  1  6  0  0  0
  8  9  1  0  0  0  0
  9 10  1  0  0  0  0
 11 12  1  0  0  0  0
 11 15  2  0  0  0  0
 12 13  2  0  0  0  0
 13 19  1  0  0  0  0
 13 14  1  0  0  0  0
 15 16  1  0  0  0  0
 15 14  1  0  0  0  0
 16 17  1  0  0  0  0
 18 16  2  0  0  0  0
 19 20  3  0  0  0  0
 20 21  1  0  0  0  0
 21 24  1  0  0  0  0
 22 21  1  0  0  0  0
 23 21  1  0  0  0  0
 25 26  1  0  0  0  0
 25  3  1  0  0  0  0
 27 25  1  0  0  0  0
 28 25  1  0  0  0  0
M  END
>  <minimizedAffinity>
-7.76863766

$$$$

 OpenBabel08192222473D

 28 29  0  0  1  0  0  0  0  0999 V2000
   -7.3800   35.9870  -35.9710 C   0  0  0  0  0  0  0  0  0  0  0  0
   -7.5600   36.7860  -36.8990 O   0  0  0  0  0  0  0  0  0  0  0  0
   -6.6860   34.7640  -36.1420 N   0  0  0  0  0  0  0  0  0  0  0  0
   -9.0740   38.8850  -31.1980 C   0  0  0  0  0  1  0  0  0  0  0  0
   -8.7260   38.4530  -32.6230 C   0  0  2  0  0  3  0  0  0  0  0  0
   -9.5920   37.2600  -33.0480 C   0  0  0  0  0  2  0  0  0  0  0  0
   -9.2220   36.7730  -34.4460 C   0  0  0  0  0  2  0  0  0  0  0  0
   -7.7350   36.4120  -34.5370 C   0  0  2  0  0  3  0  0  0  0  0  0
   -6.8690   37.6150  -34.1380 C   0  0  0  0  0  2  0  0  0  0  0  0
   -7.2320   38.1200  -32.7410 C   0  0  0  0  0  2  0  0  0  0  0  0
   -6.9670   33.5910  -35.3730 C   0  0  0  0  0  0  0  0  0  0  0  0
   -8.1390   32.7740  -35.6230 C   0  0  0  0  0  3  0  0  0  0  0  0
   -8.3150   31.7470  -34.7300 C   0  0  0  0  0  0  0  0  0  0  0  0
   -7.0190   31.6400  -33.6540 S   0  0  0  0  0  0  0  0  0  0  0  0
   -6.2100   32.9950  -34.3590 C   0  0  0  0  0  0  0  0  0  0  0  0
   -4.8830   33.4040  -33.8180 C   0  0  0  0  0  0  0  0  0  0  0  0
   -3.8420   33.1140  -34.4670 O   0  0  0  0  0  0  0  0  0  0  0  0
   -4.9140   34.0630  -32.7290 O   0  0  0  0  0  1  0  0  0  0  0  0
   -9.4500   30.8870  -34.6930 C   0  0  0  0  0  0  0  0  0  0  0  0
  -10.4350   30.2000  -34.6760 C   0  0  0  0  0  0  0  0  0  0  0  0
  -11.6730   29.3900  -34.6470 C   0  0  0  0  0  0  0  0  0  0  0  0
  -11.3160   27.9240  -34.3630 C   0  0  0  0  0  1  0  0  0  0  0  0
  -12.6030   29.9170  -33.5470 C   0  0  0  0  0  1  0  0  0  0  0  0
  -12.3770   29.4910  -36.0080 C   0  0  0  0  0  1  0  0  0  0  0  0
   -5.8130   34.6840  -37.2890 N   0  0  0  0  0  4  0  0  0  0  0  0
   -4.5180   35.3310  -36.9990 C   0  0  0  0  0  1  0  0  0  0  0  0
   -5.7950   33.3110  -37.8600 C   0  0  0  0  0  1  0  0  0  0  0  0
   -6.2780   35.2290  -38.0580 H   0  0  0  0  0  0  0  0  0  0  0  0
  2  1  2  0  0  0  0
  3  1  1  0  0  0  0
  3 11  1  0  0  0  0
  5  4  1  1  0  0  0
  6  5  1  0  0  0  0
  7  6  1  0  0  0  0
  8  1  1  6  0  0  0
  8  7  1  0  0  0  0
  8  9  1  0  0  0  0
  9 10  1  0  0  0  0
 10  5  1  0  0  0  0
 11 15  2  0  0  0  0
 12 11  1  0  0  0  0
 12 13  2  0  0  0  0
 13 19  1  0  0  0  0
 13 14  1  0  0  0  0
 15 16  1  0  0  0  0
 15 14  1  0  0  0  0
 16 18  1  0  0  0  0
 17 16  2  0  0  0  0
 19 20  3  0  0  0  0
 20 21  1  0  0  0  0
 21 22  1  0  0  0  0
 21 23  1  0  0  0  0
 24 21  1  0  0  0  0
 25 26  1  0  0  0  0
 25  3  1  0  0  0  0
 27 25  1  0  0  0  0
 28 25  1  0  0  0  0
M  END
>  <minimizedAffinity>
-6.55712652

$$$$

 OpenBabel08192222473D

 28 29  0  0  1  0  0  0  0  0999 V2000
   -6.2710   35.1370  -34.0770 C   0  0  0  0  0  0  0  0  0  0  0  0
   -5.3570   35.7790  -34.6090 O   0  0  0  0  0  0  0  0  0  0  0  0
   -6.2930   33.7220  -34.0480 N   0  0  0  0  0  0  0  0  0  0  0  0
   -9.9630   39.0720  -31.8550 C   0  0  0  0  0  1  0  0  0  0  0  0
   -8.9250   38.3210  -32.6890 C   0  0  2  0  0  3  0  0  0  0  0  0
   -9.5490   37.0740  -33.3260 C   0  0  0  0  0  2  0  0  0  0  0  0
   -8.5170   36.2740  -34.1160 C   0  0  0  0  0  2  0  0  0  0  0  0
   -7.3210   35.8840  -33.2380 C   0  0  2  0  0  3  0  0  0  0  0  0
   -6.6800   37.1360  -32.6240 C   0  0  0  0  0  2  0  0  0  0  0  0
   -7.7040   37.9520  -31.8340 C   0  0  0  0  0  2  0  0  0  0  0  0
   -7.5020   32.9570  -34.0420 C   0  0  0  0  0  0  0  0  0  0  0  0
   -8.2640   32.7410  -32.8270 C   0  0  0  0  0  3  0  0  0  0  0  0
   -9.3380   31.8990  -32.9740 C   0  0  0  0  0  0  0  0  0  0  0  0
   -9.5520   31.4530  -34.5880 S   0  0  0  0  0  0  0  0  0  0  0  0
   -8.1830   32.3670  -35.1130 C   0  0  0  0  0  0  0  0  0  0  0  0
   -7.8490   32.3990  -36.5650 C   0  0  0  0  0  0  0  0  0  0  0  0
   -7.3750   31.3650  -37.1060 O   0  0  0  0  0  1  0  0  0  0  0  0
   -8.1090   33.4930  -37.1630 O   0  0  0  0  0  0  0  0  0  0  0  0
  -10.1630   31.4390  -31.9080 C   0  0  0  0  0  0  0  0  0  0  0  0
  -10.8980   31.0760  -31.0290 C   0  0  0  0  0  0  0  0  0  0  0  0
  -11.8270   30.6660  -29.9540 C   0  0  0  0  0  0  0  0  0  0  0  0
  -11.1390   30.8420  -28.5930 C   0  0  0  0  0  1  0  0  0  0  0  0
  -13.0900   31.5340  -30.0100 C   0  0  0  0  0  1  0  0  0  0  0  0
  -12.2070   29.1910  -30.1480 C   0  0  0  0  0  1  0  0  0  0  0  0
   -5.0230   33.0620  -34.2440 N   0  0  0  0  0  4  0  0  0  0  0  0
   -4.9640   31.8110  -33.4620 C   0  0  0  0  0  1  0  0  0  0  0  0
   -4.6600   33.0030  -35.6840 C   0  0  0  0  0  1  0  0  0  0  0  0
   -4.2870   33.7100  -33.8650 H   0  0  0  0  0  0  0  0  0  0  0  0
  1  3  1  0  0  0  0
  2  1  2  0  0  0  0
  3 11  1  0  0  0  0
  5  4  1  1  0  0  0
  5 10  1  0  0  0  0
  6  5  1  0  0  0  0
  7  6  1  0  0  0  0
  7  8  1  0  0  0  0
  8  1  1  6  0  0  0
  8  9  1  0  0  0  0
  9 10  1  0  0  0  0
 11 12  1  0  0  0  0
 13 12  2  0  0  0  0
 13 19  1  0  0  0  0
 14 13  1  0  0  0  0
 15 14  1  0  0  0  0
 15 11  2  0  0  0  0
 16 15  1  0  0  0  0
 17 16  1  0  0  0  0
 18 16  2  0  0  0  0
 19 20  3  0  0  0  0
 20 21  1  0  0  0  0
 21 22  1  0  0  0  0
 23 21  1  0  0  0  0
 24 21  1  0  0  0  0
 25  3  1  0  0  0  0
 25 28  1  0  0  0  0
 25 26  1  0  0  0  0
 27 25  1  0  0  0  0
M  END
>  <minimizedAffinity>
-6.2540307

$$$$

 OpenBabel08192222473D

 28 29  0  0  1  0  0  0  0  0999 V2000
  -11.9080   33.3540   -9.2420 C   0  0  0  0  0  0  0  0  0  0  0  0
  -12.8490   34.0990   -9.5420 O   0  0  0  0  0  0  0  0  0  0  0  0
  -11.6700   32.9240   -7.9140 N   0  0  0  0  0  0  0  0  0  0  0  0
  -10.1110   30.7290  -14.1330 C   0  0  0  0  0  1  0  0  0  0  0  0
  -10.9250   31.3860  -13.0190 C   0  0  2  0  0  3  0  0  0  0  0  0
  -10.4760   32.8370  -12.8110 C   0  0  0  0  0  2  0  0  0  0  0  0
  -11.2340   33.4980  -11.6630 C   0  0  0  0  0  2  0  0  0  0  0  0
  -11.0820   32.7010  -10.3610 C   0  0  2  0  0  3  0  0  0  0  0  0
  -11.5590   31.2550  -10.5630 C   0  0  0  0  0  2  0  0  0  0  0  0
  -10.8130   30.5820  -11.7160 C   0  0  0  0  0  2  0  0  0  0  0  0
  -10.3650   32.6300   -7.4080 C   0  0  0  0  0  0  0  0  0  0  0  0
   -9.9600   31.2780   -7.0720 C   0  0  0  0  0  3  0  0  0  0  0  0
   -8.7150   31.1840   -6.5020 C   0  0  0  0  0  0  0  0  0  0  0  0
   -7.9370   32.6810   -6.4760 S   0  0  0  0  0  0  0  0  0  0  0  0
   -9.2770   33.4880   -7.2110 C   0  0  0  0  0  0  0  0  0  0  0  0
   -9.1700   34.9450   -7.5040 C   0  0  0  0  0  0  0  0  0  0  0  0
  -10.2170   35.6470   -7.5050 O   0  0  0  0  0  1  0  0  0  0  0  0
   -7.9900   35.3800   -7.7010 O   0  0  0  0  0  0  0  0  0  0  0  0
   -8.1490   29.9860   -5.9790 C   0  0  0  0  0  0  0  0  0  0  0  0
   -7.7170   28.9540   -5.5410 C   0  0  0  0  0  0  0  0  0  0  0  0
   -7.2250   27.6740   -4.9860 C   0  0  0  0  0  0  0  0  0  0  0  0
   -5.9440   27.2580   -5.7240 C   0  0  0  0  0  1  0  0  0  0  0  0
   -6.9270   27.8450   -3.4910 C   0  0  0  0  0  1  0  0  0  0  0  0
   -8.2990   26.5930   -5.1770 C   0  0  0  0  0  1  0  0  0  0  0  0
  -12.7940   32.9990   -7.0100 N   0  0  0  0  0  4  0  0  0  0  0  0
  -13.5510   31.7310   -7.0200 C   0  0  0  0  0  1  0  0  0  0  0  0
  -12.3940   33.5620   -5.6930 C   0  0  0  0  0  1  0  0  0  0  0  0
  -13.4270   33.7520   -7.3800 H   0  0  0  0  0  0  0  0  0  0  0  0
  1  3  1  0  0  0  0
  2  1  2  0  0  0  0
  3 11  1  0  0  0  0
  3 25  1  0  0  0  0
  5  4  1  6  0  0  0
  5  6  1  0  0  0  0
  5 10  1  0  0  0  0
  6  7  1  0  0  0  0
  7  8  1  0  0  0  0
  8  1  1  1  0  0  0
  9  8  1  0  0  0  0
 10  9  1  0  0  0  0
 11 15  2  0  0  0  0
 11 12  1  0  0  0  0
 12 13  2  0  0  0  0
 13 14  1  0  0  0  0
 13 19  1  0  0  0  0
 15 14  1  0  0  0  0
 16 15  1  0  0  0  0
 17 16  1  0  0  0  0
 18 16  2  0  0  0  0
 19 20  3  0  0  0  0
 20 21  1  0  0  0  0
 21 23  1  0  0  0  0
 22 21  1  0  0  0  0
 24 21  1  0  0  0  0
 25 27  1  0  0  0  0
 26 25  1  0  0  0  0
 28 25  1  0  0  0  0
M  END
>  <minimizedAffinity>
-5.72228479

$$$$

 OpenBabel08192222473D

 28 29  0  0  1  0  0  0  0  0999 V2000
   -7.7440   32.2900   -4.6080 C   0  0  0  0  0  0  0  0  0  0  0  0
   -6.9300   31.6390   -3.9410 O   0  0  0  0  0  0  0  0  0  0  0  0
   -7.8010   33.7040   -4.5740 N   0  0  0  0  0  0  0  0  0  0  0  0
   -9.8450   28.5690   -8.5810 C   0  0  0  0  0  1  0  0  0  0  0  0
   -9.0090   29.2890   -7.5230 C   0  0  2  0  0  3  0  0  0  0  0  0
   -9.7950   29.4130   -6.2120 C   0  0  0  0  0  2  0  0  0  0  0  0
   -9.0040   30.1800   -5.1570 C   0  0  0  0  0  2  0  0  0  0  0  0
   -8.5930   31.5680   -5.6660 C   0  0  2  0  0  3  0  0  0  0  0  0
   -7.7820   31.4400   -6.9630 C   0  0  0  0  0  2  0  0  0  0  0  0
   -8.5590   30.6670   -8.0290 C   0  0  0  0  0  2  0  0  0  0  0  0
   -9.0070   34.4450   -4.7760 C   0  0  0  0  0  0  0  0  0  0  0  0
   -9.8140   34.9130   -3.6640 C   0  0  0  0  0  3  0  0  0  0  0  0
  -10.9910   35.5140   -4.0310 C   0  0  0  0  0  0  0  0  0  0  0  0
  -11.1060   35.6640   -5.7080 S   0  0  0  0  0  0  0  0  0  0  0  0
   -9.5800   34.8970   -5.9690 C   0  0  0  0  0  0  0  0  0  0  0  0
   -9.0730   34.7540   -7.3630 C   0  0  0  0  0  0  0  0  0  0  0  0
   -7.9670   35.2770   -7.6680 O   0  0  0  0  0  1  0  0  0  0  0  0
   -9.8050   34.0650   -8.1460 O   0  0  0  0  0  0  0  0  0  0  0  0
  -12.0020   35.9440   -3.1250 C   0  0  0  0  0  0  0  0  0  0  0  0
  -12.8650   36.3450   -2.3910 C   0  0  0  0  0  0  0  0  0  0  0  0
  -13.9210   36.8800   -1.5040 C   0  0  0  0  0  0  0  0  0  0  0  0
  -15.2450   36.1580   -1.7970 C   0  0  0  0  0  1  0  0  0  0  0  0
  -13.5230   36.6530   -0.0400 C   0  0  0  0  0  1  0  0  0  0  0  0
  -14.0890   38.3830   -1.7650 C   0  0  0  0  0  1  0  0  0  0  0  0
   -6.6100   34.3770   -4.1070 N   0  0  0  0  0  4  0  0  0  0  0  0
   -5.7430   34.7410   -5.2460 C   0  0  0  0  0  1  0  0  0  0  0  0
   -6.9390   35.4330   -3.1140 C   0  0  0  0  0  1  0  0  0  0  0  0
   -6.0860   33.6840   -3.5160 H   0  0  0  0  0  0  0  0  0  0  0  0
  1  3  1  0  0  0  0
  1  2  2  0  0  0  0
  3 25  1  0  0  0  0
  5  4  1  6  0  0  0
  5  6  1  0  0  0  0
  6  7  1  0  0  0  0
  8  7  1  0  0  0  0
  8  1  1  1  0  0  0
  9  8  1  0  0  0  0
 10  5  1  0  0  0  0
 10  9  1  0  0  0  0
 11  3  1  0  0  0  0
 11 12  1  0  0  0  0
 13 12  2  0  0  0  0
 13 19  1  0  0  0  0
 14 13  1  0  0  0  0
 15 14  1  0  0  0  0
 15 11  2  0  0  0  0
 16 15  1  0  0  0  0
 17 16  1  0  0  0  0
 18 16  2  0  0  0  0
 19 20  3  0  0  0  0
 20 21  1  0  0  0  0
 21 23  1  0  0  0  0
 22 21  1  0  0  0  0
 24 21  1  0  0  0  0
 25 28  1  0  0  0  0
 25 27  1  0  0  0  0
 26 25  1  0  0  0  0
M  END
>  <minimizedAffinity>
-5.68839788

$$$$

 OpenBabel08192222473D

 28 29  0  0  1  0  0  0  0  0999 V2000
   -7.7010   29.5730   -4.6910 C   0  0  0  0  0  0  0  0  0  0  0  0
   -7.3760   29.3580   -3.5170 O   0  0  0  0  0  0  0  0  0  0  0  0
   -7.9430   28.5300   -5.6190 N   0  0  0  0  0  0  0  0  0  0  0  0
   -9.5640   35.0970   -4.9220 C   0  0  0  0  0  1  0  0  0  0  0  0
   -9.2000   33.6740   -4.5000 C   0  0  2  0  0  3  0  0  0  0  0  0
   -7.6870   33.4520   -4.6090 C   0  0  0  0  0  2  0  0  0  0  0  0
   -7.3050   32.0190   -4.2490 C   0  0  0  0  0  2  0  0  0  0  0  0
   -8.0570   31.0050   -5.1200 C   0  0  2  0  0  3  0  0  0  0  0  0
   -9.5720   31.2100   -4.9880 C   0  0  0  0  0  2  0  0  0  0  0  0
   -9.9700   32.6440   -5.3390 C   0  0  0  0  0  2  0  0  0  0  0  0
   -7.7040   28.6600   -7.0230 C   0  0  0  0  0  0  0  0  0  0  0  0
   -8.6550   29.3120   -7.9040 C   0  0  0  0  0  3  0  0  0  0  0  0
   -8.3230   29.2580   -9.2350 C   0  0  0  0  0  0  0  0  0  0  0  0
   -6.8060   28.5550   -9.4610 S   0  0  0  0  0  0  0  0  0  0  0  0
   -6.5810   28.2870   -7.7690 C   0  0  0  0  0  0  0  0  0  0  0  0
   -5.3070   27.6740   -7.2980 C   0  0  0  0  0  0  0  0  0  0  0  0
   -4.5610   28.3320   -6.5240 O   0  0  0  0  0  1  0  0  0  0  0  0
   -5.0870   26.4860   -7.7020 O   0  0  0  0  0  0  0  0  0  0  0  0
   -9.1520   29.7180  -10.2990 C   0  0  0  0  0  0  0  0  0  0  0  0
   -9.8290   30.1500  -11.1920 C   0  0  0  0  0  0  0  0  0  0  0  0
  -10.6590   30.7230  -12.2740 C   0  0  0  0  0  0  0  0  0  0  0  0
  -11.2790   32.0430  -11.7940 C   0  0  0  0  0  1  0  0  0  0  0  0
   -9.7840   30.9810  -13.5070 C   0  0  0  0  0  1  0  0  0  0  0  0
  -11.7770   29.7340  -12.6330 C   0  0  0  0  0  1  0  0  0  0  0  0
   -8.2450   27.2350   -5.0550 N   0  0  0  0  0  4  0  0  0  0  0  0
   -9.2790   26.5510   -5.8560 C   0  0  0  0  0  1  0  0  0  0  0  0
   -7.0040   26.4840   -4.7290 C   0  0  0  0  0  1  0  0  0  0  0  0
   -8.6450   27.4100   -4.0990 H   0  0  0  0  0  0  0  0  0  0  0  0
  1  2  2  0  0  0  0
  3 25  1  0  0  0  0
  3  1  1  0  0  0  0
  5  4  1  6  0  0  0
  6  5  1  0  0  0  0
  6  7  1  0  0  0  0
  8  9  1  0  0  0  0
  8  1  1  1  0  0  0
  8  7  1  0  0  0  0
 10  9  1  0  0  0  0
 10  5  1  0  0  0  0
 11  3  1  0  0  0  0
 12 11  1  0  0  0  0
 13 12  2  0  0  0  0
 14 13  1  0  0  0  0
 14 15  1  0  0  0  0
 15 16  1  0  0  0  0
 15 11  2  0  0  0  0
 16 17  1  0  0  0  0
 18 16  2  0  0  0  0
 19 13  1  0  0  0  0
 20 19  3  0  0  0  0
 21 22  1  0  0  0  0
 21 20  1  0  0  0  0
 23 21  1  0  0  0  0
 24 21  1  0  0  0  0
 25 27  1  0  0  0  0
 25 28  1  0  0  0  0
 26 25  1  0  0  0  0
M  END
>  <minimizedAffinity>
-5.57156467

$$$$

 OpenBabel08192222473D

 28 29  0  0  1  0  0  0  0  0999 V2000
  -12.3120   31.5320   -9.7600 C   0  0  0  0  0  0  0  0  0  0  0  0
  -13.1030   30.9920   -8.9770 O   0  0  0  0  0  0  0  0  0  0  0  0
  -12.5880   31.6800  -11.1410 N   0  0  0  0  0  0  0  0  0  0  0  0
   -8.4320   34.2800   -6.3780 C   0  0  0  0  0  1  0  0  0  0  0  0
   -9.6540   33.5560   -6.9410 C   0  0  2  0  0  3  0  0  0  0  0  0
   -9.2690   32.1560   -7.4350 C   0  0  0  0  0  2  0  0  0  0  0  0
  -10.4610   31.4350   -8.0560 C   0  0  0  0  0  2  0  0  0  0  0  0
  -11.0760   32.2530   -9.1990 C   0  0  2  0  0  3  0  0  0  0  0  0
  -11.4880   33.6440   -8.6960 C   0  0  0  0  0  2  0  0  0  0  0  0
  -10.3040   34.3770   -8.0640 C   0  0  0  0  0  2  0  0  0  0  0  0
  -11.5700   31.6940  -12.1460 C   0  0  0  0  0  0  0  0  0  0  0  0
  -10.8250   30.5000  -12.4970 C   0  0  0  0  0  3  0  0  0  0  0  0
   -9.8150   30.7080  -13.4030 C   0  0  0  0  0  0  0  0  0  0  0  0
   -9.8130   32.2990  -13.9660 S   0  0  0  0  0  0  0  0  0  0  0  0
  -11.1600   32.7420  -12.9770 C   0  0  0  0  0  0  0  0  0  0  0  0
  -11.6930   34.1310  -13.0640 C   0  0  0  0  0  0  0  0  0  0  0  0
  -12.0650   34.7100  -12.0080 O   0  0  0  0  0  1  0  0  0  0  0  0
  -11.6980   34.6450  -14.2290 O   0  0  0  0  0  0  0  0  0  0  0  0
   -8.8710   29.7210  -13.8100 C   0  0  0  0  0  0  0  0  0  0  0  0
   -8.0920   28.8950  -14.2000 C   0  0  0  0  0  0  0  0  0  0  0  0
   -7.1590   27.8680  -14.7150 C   0  0  0  0  0  0  0  0  0  0  0  0
   -5.7350   28.1910  -14.2420 C   0  0  0  0  0  1  0  0  0  0  0  0
   -7.5770   26.4890  -14.1900 C   0  0  0  0  0  1  0  0  0  0  0  0
   -7.2010   27.8690  -16.2500 C   0  0  0  0  0  1  0  0  0  0  0  0
  -13.9790   31.6020  -11.5240 N   0  0  0  0  0  4  0  0  0  0  0  0
  -14.6690   32.8720  -11.2210 C   0  0  0  0  0  1  0  0  0  0  0  0
  -14.1340   31.0310  -12.8870 C   0  0  0  0  0  1  0  0  0  0  0  0
  -14.4120   30.8530  -10.9280 H   0  0  0  0  0  0  0  0  0  0  0  0
  1  2  2  0  0  0  0
  3  1  1  0  0  0  0
  5  4  1  6  0  0  0
  6  5  1  0  0  0  0
  7  6  1  0  0  0  0
  8  1  1  1  0  0  0
  8  9  1  0  0  0  0
  8  7  1  0  0  0  0
  9 10  1  0  0  0  0
 10  5  1  0  0  0  0
 11  3  1  0  0  0  0
 12 11  1  0  0  0  0
 13 12  2  0  0  0  0
 14 13  1  0  0  0  0
 14 15  1  0  0  0  0
 15 11  2  0  0  0  0
 16 15  1  0  0  0  0
 16 17  1  0  0  0  0
 18 16  2  0  0  0  0
 19 13  1  0  0  0  0
 20 19  3  0  0  0  0
 21 22  1  0  0  0  0
 21 20  1  0  0  0  0
 21 23  1  0  0  0  0
 24 21  1  0  0  0  0
 25 26  1  0  0  0  0
 25  3  1  0  0  0  0
 25 28  1  0  0  0  0
 27 25  1  0  0  0  0
M  END
>  <minimizedAffinity>
-5.38771534

$$$$

 OpenBabel08192222473D

 28 29  0  0  1  0  0  0  0  0999 V2000
  -12.7750   34.8660   36.2390 C   0  0  0  0  0  0  0  0  0  0  0  0
  -12.9080   34.3760   37.3670 O   0  0  0  0  0  0  0  0  0  0  0  0
  -13.7510   34.7190   35.2230 N   0  0  0  0  0  0  0  0  0  0  0  0
   -8.6400   38.9620   36.6570 C   0  0  0  0  0  1  0  0  0  0  0  0
   -9.7880   37.9850   36.9120 C   0  0  2  0  0  3  0  0  0  0  0  0
   -9.3100   36.5380   36.7400 C   0  0  0  0  0  2  0  0  0  0  0  0
  -10.4520   35.5460   36.9320 C   0  0  0  0  0  2  0  0  0  0  0  0
  -11.6150   35.8400   35.9770 C   0  0  2  0  0  3  0  0  0  0  0  0
  -12.1120   37.2800   36.1700 C   0  0  0  0  0  2  0  0  0  0  0  0
  -10.9760   38.2870   35.9880 C   0  0  0  0  0  2  0  0  0  0  0  0
  -13.4320   34.6870   33.8290 C   0  0  0  0  0  0  0  0  0  0  0  0
  -13.6770   35.8240   32.9620 C   0  0  0  0  0  3  0  0  0  0  0  0
  -13.4130   35.5920   31.6350 C   0  0  0  0  0  0  0  0  0  0  0  0
  -12.7360   34.0630   31.4020 S   0  0  0  0  0  0  0  0  0  0  0  0
  -12.8110   33.6780   33.0850 C   0  0  0  0  0  0  0  0  0  0  0  0
  -12.2830   32.3640   33.5490 C   0  0  0  0  0  0  0  0  0  0  0  0
  -11.3070   32.3440   34.3460 O   0  0  0  0  0  1  0  0  0  0  0  0
  -12.9020   31.3390   33.1150 O   0  0  0  0  0  0  0  0  0  0  0  0
  -13.6870   36.5070   30.5790 C   0  0  0  0  0  0  0  0  0  0  0  0
  -13.9650   37.2610   29.6850 C   0  0  0  0  0  0  0  0  0  0  0  0
  -14.3370   38.1590   28.5700 C   0  0  0  0  0  0  0  0  0  0  0  0
  -13.3920   39.3690   28.5550 C   0  0  0  0  0  1  0  0  0  0  0  0
  -14.2240   37.3990   27.2420 C   0  0  0  0  0  1  0  0  0  0  0  0
  -15.7820   38.6400   28.7670 C   0  0  0  0  0  1  0  0  0  0  0  0
  -15.0840   34.3820   35.6660 N   0  0  0  0  0  4  0  0  0  0  0  0
  -15.8900   35.6050   35.8530 C   0  0  0  0  0  1  0  0  0  0  0  0
  -15.6630   33.2820   34.8520 C   0  0  0  0  0  1  0  0  0  0  0  0
  -14.9800   33.9220   36.6050 H   0  0  0  0  0  0  0  0  0  0  0  0
  1  2  2  0  0  0  0
  3 25  1  0  0  0  0
  3  1  1  0  0  0  0
  5  4  1  6  0  0  0
  6  5  1  0  0  0  0
  6  7  1  0  0  0  0
  8  9  1  0  0  0  0
  8  1  1  1  0  0  0
  8  7  1  0  0  0  0
 10  9  1  0  0  0  0
 10  5  1  0  0  0  0
 11  3  1  0  0  0  0
 12 11  1  0  0  0  0
 13 12  2  0  0  0  0
 14 13  1  0  0  0  0
 14 15  1  0  0  0  0
 15 16  1  0  0  0  0
 15 11  2  0  0  0  0
 16 17  1  0  0  0  0
 18 16  2  0  0  0  0
 19 13  1  0  0  0  0
 20 19  3  0  0  0  0
 21 24  1  0  0  0  0
 21 20  1  0  0  0  0
 22 21  1  0  0  0  0
 23 21  1  0  0  0  0
 25 26  1  0  0  0  0
 25 28  1  0  0  0  0
 27 25  1  0  0  0  0
M  END
>  <minimizedAffinity>
-5.35632229

$$$$

 OpenBabel08192222473D

 28 29  0  0  1  0  0  0  0  0999 V2000
   10.0250   31.5210  -17.8290 C   0  0  0  0  0  0  0  0  0  0  0  0
   10.2540   31.1890  -16.6590 O   0  0  0  0  0  0  0  0  0  0  0  0
   10.9620   31.3280  -18.8740 N   0  0  0  0  0  0  0  0  0  0  0  0
    4.2790   32.5110  -18.0480 C   0  0  0  0  0  1  0  0  0  0  0  0
    5.6920   32.0720  -17.6650 C   0  0  2  0  0  3  0  0  0  0  0  0
    6.5940   33.2940  -17.4520 C   0  0  0  0  0  2  0  0  0  0  0  0
    8.0260   32.8810  -17.1260 C   0  0  0  0  0  2  0  0  0  0  0  0
    8.6080   31.9730  -18.2170 C   0  0  2  0  0  3  0  0  0  0  0  0
    7.7190   30.7360  -18.4090 C   0  0  0  0  0  2  0  0  0  0  0  0
    6.2780   31.1330  -18.7290 C   0  0  0  0  0  2  0  0  0  0  0  0
   11.0500   32.1860  -20.0150 C   0  0  0  0  0  0  0  0  0  0  0  0
   11.0470   33.6310  -19.8880 C   0  0  0  0  0  3  0  0  0  0  0  0
   11.0320   34.3040  -21.0840 C   0  0  0  0  0  0  0  0  0  0  0  0
   11.1610   33.2420  -22.3890 S   0  0  0  0  0  0  0  0  0  0  0  0
   11.2140   31.8510  -21.3640 C   0  0  0  0  0  0  0  0  0  0  0  0
   11.3700   30.5040  -21.9810 C   0  0  0  0  0  0  0  0  0  0  0  0
   10.5010   30.1020  -22.8010 O   0  0  0  0  0  0  0  0  0  0  0  0
   12.4180   29.8650  -21.6440 O   0  0  0  0  0  1  0  0  0  0  0  0
   10.9050   35.7170  -21.2200 C   0  0  0  0  0  0  0  0  0  0  0  0
   10.7500   36.9040  -21.3210 C   0  0  0  0  0  0  0  0  0  0  0  0
   10.5160   38.3580  -21.4550 C   0  0  0  0  0  0  0  0  0  0  0  0
    9.6530   38.8440  -20.2820 C   0  0  0  0  0  1  0  0  0  0  0  0
   11.8610   39.0960  -21.4450 C   0  0  0  0  0  1  0  0  0  0  0  0
    9.7870   38.6350  -22.7770 C   0  0  0  0  0  1  0  0  0  0  0  0
   11.9850   30.3360  -18.6350 N   0  0  0  0  0  4  0  0  0  0  0  0
   13.0240   30.8730  -17.7340 C   0  0  0  0  0  1  0  0  0  0  0  0
   11.3900   29.0140  -18.3060 C   0  0  0  0  0  1  0  0  0  0  0  0
   12.4360   30.1420  -19.5640 H   0  0  0  0  0  0  0  0  0  0  0  0
  1  2  2  0  0  0  0
  3 25  1  0  0  0  0
  3  1  1  0  0  0  0
  5  4  1  6  0  0  0
  5  6  1  0  0  0  0
  6  7  1  0  0  0  0
  8  1  1  1  0  0  0
  8  7  1  0  0  0  0
  9  8  1  0  0  0  0
 10  9  1  0  0  0  0
 10  5  1  0  0  0  0
 11 12  1  0  0  0  0
 11  3  1  0  0  0  0
 13 12  2  0  0  0  0
 14 15  1  0  0  0  0
 14 13  1  0  0  0  0
 15 11  2  0  0  0  0
 16 18  1  0  0  0  0
 16 15  1  0  0  0  0
 17 16  2  0  0  0  0
 19 13  1  0  0  0  0
 20 19  3  0  0  0  0
 21 23  1  0  0  0  0
 21 20  1  0  0  0  0
 21 22  1  0  0  0  0
 24 21  1  0  0  0  0
 25 27  1  0  0  0  0
 25 26  1  0  0  0  0
 28 25  1  0  0  0  0
M  END
>  <minimizedAffinity>
-5.2781992

$$$$

 OpenBabel08192222473D

 28 29  0  0  1  0  0  0  0  0999 V2000
  -10.3440   32.3080   58.9860 C   0  0  0  0  0  0  0  0  0  0  0  0
  -10.8250   32.0550   57.8740 O   0  0  0  0  0  0  0  0  0  0  0  0
  -11.0760   32.1490   60.1870 N   0  0  0  0  0  0  0  0  0  0  0  0
   -4.5670   32.5920   58.2170 C   0  0  0  0  0  1  0  0  0  0  0  0
   -6.0630   32.2990   58.1040 C   0  0  2  0  0  3  0  0  0  0  0  0
   -6.8500   33.5990   57.8970 C   0  0  0  0  0  2  0  0  0  0  0  0
   -8.3530   33.3390   57.8410 C   0  0  0  0  0  2  0  0  0  0  0  0
   -8.8420   32.6140   59.1010 C   0  0  2  0  0  3  0  0  0  0  0  0
   -8.0730   31.2990   59.2910 C   0  0  0  0  0  2  0  0  0  0  0  0
   -6.5640   31.5420   59.3430 C   0  0  0  0  0  2  0  0  0  0  0  0
  -10.8600   32.9550   61.3490 C   0  0  0  0  0  0  0  0  0  0  0  0
  -11.0650   34.3910   61.3320 C   0  0  0  0  0  3  0  0  0  0  0  0
  -10.7130   35.0270   62.4960 C   0  0  0  0  0  0  0  0  0  0  0  0
  -10.2610   33.9210   63.6880 S   0  0  0  0  0  0  0  0  0  0  0  0
  -10.5080   32.5650   62.6450 C   0  0  0  0  0  0  0  0  0  0  0  0
  -10.2870   31.1920   63.1810 C   0  0  0  0  0  0  0  0  0  0  0  0
  -11.2560   30.5740   63.6980 O   0  0  0  0  0  1  0  0  0  0  0  0
   -9.1090   30.7300   63.0370 O   0  0  0  0  0  0  0  0  0  0  0  0
  -10.7080   36.4400   62.6820 C   0  0  0  0  0  0  0  0  0  0  0  0
  -10.6600   37.6330   62.8140 C   0  0  0  0  0  0  0  0  0  0  0  0
  -10.5560   39.1000   62.9750 C   0  0  0  0  0  0  0  0  0  0  0  0
   -9.6370   39.6670   61.8840 C   0  0  0  0  0  1  0  0  0  0  0  0
  -11.9500   39.7270   62.8530 C   0  0  0  0  0  1  0  0  0  0  0  0
   -9.9670   39.4180   64.3560 C   0  0  0  0  0  1  0  0  0  0  0  0
  -12.2160   31.2640   60.1240 N   0  0  0  0  0  4  0  0  0  0  0  0
  -11.7920   29.8610   60.3020 C   0  0  0  0  0  1  0  0  0  0  0  0
  -13.3370   31.7650   60.9620 C   0  0  0  0  0  1  0  0  0  0  0  0
  -12.6140   31.3570   59.1570 H   0  0  0  0  0  0  0  0  0  0  0  0
  1  3  1  0  0  0  0
  2  1  2  0  0  0  0
  3 11  1  0  0  0  0
  5  4  1  1  0  0  0
  5 10  1  0  0  0  0
  6  5  1  0  0  0  0
  7  6  1  0  0  0  0
  7  8  1  0  0  0  0
  8  1  1  6  0  0  0
  8  9  1  0  0  0  0
  9 10  1  0  0  0  0
 11 15  2  0  0  0  0
 12 11  1  0  0  0  0
 12 13  2  0  0  0  0
 13 19  1  0  0  0  0
 13 14  1  0  0  0  0
 15 16  1  0  0  0  0
 15 14  1  0  0  0  0
 16 17  1  0  0  0  0
 18 16  2  0  0  0  0
 19 20  3  0  0  0  0
 20 21  1  0  0  0  0
 21 24  1  0  0  0  0
 22 21  1  0  0  0  0
 23 21  1  0  0  0  0
 25  3  1  0  0  0  0
 25 26  1  0  0  0  0
 25 27  1  0  0  0  0
 28 25  1  0  0  0  0
M  END
>  <minimizedAffinity>
-5.20868683

$$$$
