
 OpenBabel08192222473D

 28 29  0  0  1  0  0  0  0  0999 V2000
  -12.7750   34.8660   36.2390 C   0  0  0  0  0  0  0  0  0  0  0  0
  -12.9080   34.3760   37.3670 O   0  0  0  0  0  0  0  0  0  0  0  0
  -13.7510   34.7190   35.2230 N   0  0  0  0  0  0  0  0  0  0  0  0
   -8.6400   38.9620   36.6570 C   0  0  0  0  0  1  0  0  0  0  0  0
   -9.7880   37.9850   36.9120 C   0  0  2  0  0  3  0  0  0  0  0  0
   -9.3100   36.5380   36.7400 C   0  0  0  0  0  2  0  0  0  0  0  0
  -10.4520   35.5460   36.9320 C   0  0  0  0  0  2  0  0  0  0  0  0
  -11.6150   35.8400   35.9770 C   0  0  2  0  0  3  0  0  0  0  0  0
  -12.1120   37.2800   36.1700 C   0  0  0  0  0  2  0  0  0  0  0  0
  -10.9760   38.2870   35.9880 C   0  0  0  0  0  2  0  0  0  0  0  0
  -13.4320   34.6870   33.8290 C   0  0  0  0  0  0  0  0  0  0  0  0
  -13.6770   35.8240   32.9620 C   0  0  0  0  0  3  0  0  0  0  0  0
  -13.4130   35.5920   31.6350 C   0  0  0  0  0  0  0  0  0  0  0  0
  -12.7360   34.0630   31.4020 S   0  0  0  0  0  0  0  0  0  0  0  0
  -12.8110   33.6780   33.0850 C   0  0  0  0  0  0  0  0  0  0  0  0
  -12.2830   32.3640   33.5490 C   0  0  0  0  0  0  0  0  0  0  0  0
  -11.3070   32.3440   34.3460 O   0  0  0  0  0  1  0  0  0  0  0  0
  -12.9020   31.3390   33.1150 O   0  0  0  0  0  0  0  0  0  0  0  0
  -13.6870   36.5070   30.5790 C   0  0  0  0  0  0  0  0  0  0  0  0
  -13.9650   37.2610   29.6850 C   0  0  0  0  0  0  0  0  0  0  0  0
  -14.3370   38.1590   28.5700 C   0  0  0  0  0  0  0  0  0  0  0  0
  -13.3920   39.3690   28.5550 C   0  0  0  0  0  1  0  0  0  0  0  0
  -14.2240   37.3990   27.2420 C   0  0  0  0  0  1  0  0  0  0  0  0
  -15.7820   38.6400   28.7670 C   0  0  0  0  0  1  0  0  0  0  0  0
  -15.0840   34.3820   35.6660 N   0  0  0  0  0  4  0  0  0  0  0  0
  -15.8900   35.6050   35.8530 C   0  0  0  0  0  1  0  0  0  0  0  0
  -15.6630   33.2820   34.8520 C   0  0  0  0  0  1  0  0  0  0  0  0
  -14.9800   33.9220   36.6050 H   0  0  0  0  0  0  0  0  0  0  0  0
  1  2  2  0  0  0  0
  3 25  1  0  0  0  0
  3  1  1  0  0  0  0
  5  4  1  6  0  0  0
  6  5  1  0  0  0  0
  6  7  1  0  0  0  0
  8  9  1  0  0  0  0
  8  1  1  1  0  0  0
  8  7  1  0  0  0  0
 10  9  1  0  0  0  0
 10  5  1  0  0  0  0
 11  3  1  0  0  0  0
 12 11  1  0  0  0  0
 13 12  2  0  0  0  0
 14 13  1  0  0  0  0
 14 15  1  0  0  0  0
 15 16  1  0  0  0  0
 15 11  2  0  0  0  0
 16 17  1  0  0  0  0
 18 16  2  0  0  0  0
 19 13  1  0  0  0  0
 20 19  3  0  0  0  0
 21 24  1  0  0  0  0
 21 20  1  0  0  0  0
 22 21  1  0  0  0  0
 23 21  1  0  0  0  0
 25 26  1  0  0  0  0
 25 28  1  0  0  0  0
 27 25  1  0  0  0  0
M  END
>  <minimizedAffinity>
-5.35632229

$$$$
