REMARK  Name = 
REMARK  12 active torsions:
REMARK  status: ('A' for Active; 'I' for Inactive)
REMARK    1  A    between atoms: C_1  and  C_2
REMARK    2  A    between atoms: C_5  and  C_8
REMARK    3  A    between atoms: N_10  and  C_11
REMARK    4  A    between atoms: N_10  and  N_25
REMARK    5  A    between atoms: C_13  and  C_19
REMARK    6  A    between atoms: C_15  and  C_16
REMARK    7  A    between atoms: C_20  and  C_21
REMARK    8  A    between atoms: C_21  and  C_22
REMARK    9  A    between atoms: C_21  and  C_23
REMARK   10  A    between atoms: C_21  and  C_24
REMARK   11  A    between atoms: N_25  and  C_26
REMARK   12  A    between atoms: N_25  and  C_27
REMARK                            x       y       z     vdW  Elec       q    Type
REMARK                         _______ _______ _______ _____ _____    ______ ____
ROOT
ATOM      1  C   UNL     1      -3.278  -0.478   0.089  0.00  0.00    +0.258 C 
ATOM      2  O   UNL     1      -3.499  -0.921   1.223  0.00  0.00    -0.270 OA
ATOM      3  N   UNL     1      -4.314  -0.057  -0.780  0.00  0.00    -0.237 N 
ENDROOT
BRANCH   1   8
ATOM      4  C   UNL     1       2.477   0.473  -0.044  0.00  0.00    +0.007 C 
ATOM      5  C   UNL     1       1.036   0.168   0.364  0.00  0.00    -0.014 C 
ATOM      6  C   UNL     1       0.528  -1.086  -0.358  0.00  0.00    +0.004 C 
ATOM      7  C   UNL     1      -0.929  -1.378  -0.012  0.00  0.00    +0.013 C 
ATOM      8  C   UNL     1      -1.830  -0.178  -0.330  0.00  0.00    +0.080 C 
ATOM      9  C   UNL     1      -1.337   1.070   0.416  0.00  0.00    +0.013 C 
ATOM     10  C   UNL     1       0.125   1.372   0.085  0.00  0.00    +0.004 C 
ENDBRANCH   1   8
BRANCH   3  11
ATOM     11  C   UNL     1      -4.223  -0.140  -2.205  0.00  0.00    +0.094 A 
ATOM     12  C   UNL     1      -3.347  -1.092  -2.862  0.00  0.00    +0.053 A 
ATOM     13  C   UNL     1      -3.300  -0.969  -4.228  0.00  0.00    +0.065 A 
ATOM     14  S   UNL     1      -4.399   0.187  -4.779  0.00  0.00    -0.077 S 
ATOM     15  C   UNL     1      -4.940   0.561  -3.181  0.00  0.00    +0.062 A 
BRANCH  15  16
ATOM     16  C   UNL     1      -6.021   1.571  -3.002  0.00  0.00    +0.080 C 
ATOM     17  O   UNL     1      -6.458   2.185  -4.012  0.00  0.00    -0.544 OA
ATOM     18  O   UNL     1      -6.450   1.710  -1.811  0.00  0.00    -0.544 OA
ENDBRANCH  15  16
BRANCH  13  19
ATOM     19  C   UNL     1      -2.427  -1.704  -5.081  0.00  0.00    -0.059 C 
ATOM     20  C   UNL     1      -1.659  -2.285  -5.799  0.00  0.00    -0.091 C 
BRANCH  20  21
ATOM     21  C   UNL     1      -0.698  -2.961  -6.698  0.00  0.00    +0.024 C 
ATOM     22  C   UNL     1       0.509  -3.444  -5.881  0.00  0.00    +0.024 C 
ATOM     23  C   UNL     1      -1.381  -4.160  -7.368  0.00  0.00    +0.024 C 
ATOM     24  C   UNL     1      -0.226  -1.971  -7.772  0.00  0.00    +0.024 C 
ENDBRANCH  20  21
ENDBRANCH  13  19
ENDBRANCH   3  11
BRANCH   3  25
ATOM     25  N   UNL     1      -5.575   0.269  -0.155  0.00  0.00    +0.356 N 
ATOM     26  C   UNL     1      -6.331  -0.961   0.155  0.00  0.00    +0.212 C 
ATOM     27  C   UNL     1      -5.399   1.272   0.928  0.00  0.00    +0.212 C 
ATOM     28  H   UNL     1      -6.128   0.814  -0.863  0.00  0.00    +0.225 HD
ENDBRANCH   3  25
TORSDOF 6
