
 OpenBabel09132204463D

 35 39  0  0  1  0  0  0  0  0999 V2000
    9.3960    5.0990    1.0690 C   0  0  0  0  0  0  0  0  0  0  0  0
    9.2250    5.2330   -0.2590 C   0  0  1  0  0  3  0  0  0  0  0  0
    9.2250    6.5570   -0.9040 C   0  0  0  0  0  0  0  0  0  0  0  0
    8.8940    6.7640   -2.2520 C   0  0  0  0  0  3  0  0  0  0  0  0
    8.9480    8.0440   -2.7990 C   0  0  0  0  0  3  0  0  0  0  0  0
    9.3250    9.0860   -1.9810 C   0  0  0  0  0  3  0  0  0  0  0  0
    9.6210    8.9280   -0.6750 N   0  0  0  0  0  0  0  0  0  0  0  0
    9.5540    7.6860   -0.1450 C   0  0  0  0  0  0  0  0  0  0  0  0
    9.7810    7.5350    1.2430 N   0  0  0  0  0  0  0  0  0  0  0  0
    9.6440    6.3280    1.8850 C   0  0  0  0  0  0  0  0  0  0  0  0
    9.7410    6.1780    3.1060 O   0  0  0  0  0  0  0  0  0  0  0  0
   10.1670    4.1610    5.9070 C   0  0  0  0  0  1  0  0  0  0  0  0
    9.9010    2.8170    5.2780 C   0  0  0  0  0  0  0  0  0  0  0  0
    9.9230    1.6790    6.1080 C   0  0  0  0  0  3  0  0  0  0  0  0
    9.6870    0.4090    5.5880 C   0  0  0  0  0  3  0  0  0  0  0  0
    9.4280    0.2600    4.2340 C   0  0  0  0  0  3  0  0  0  0  0  0
    9.4070    1.3960    3.4150 C   0  0  0  0  0  0  0  0  0  0  0  0
    9.6360    2.6760    3.8980 C   0  0  0  0  0  0  0  0  0  0  0  0
    9.6120    3.7810    3.1050 N   0  0  0  0  0  0  0  0  0  0  0  0
    9.3870    3.7590    1.8010 C   0  0  0  0  0  0  0  0  0  0  0  0
    9.1560    2.6750    1.1110 N   0  0  0  0  0  0  0  0  0  0  0  0
    9.0800    1.2060    1.7130 S   0  0  0  0  0  0  0  0  0  0  0  0
   10.1750    0.4210    1.1880 O   0  0  0  0  0  0  0  0  0  0  0  0
    7.7180    0.7260    1.6280 O   0  0  0  0  0  0  0  0  0  0  0  0
    9.7800    4.7040    3.5120 H   0  0  0  0  0  0  0  0  0  0  0  0
    9.0080    2.7580    0.1080 H   0  0  0  0  0  0  0  0  0  0  0  0
    9.0880    4.1060   -1.0620 O   0  0  0  0  0  0  0  0  0  0  0  0
    9.3390    4.3390   -1.9800 H   0  0  0  0  0  0  0  0  0  0  0  0
   10.1770    8.7100    2.0230 C   0  0  0  0  0  2  0  0  0  0  0  0
    9.4620    9.9580    1.5500 C   0  0  0  0  0  0  0  0  0  0  0  0
   10.1290   11.1930    1.5120 C   0  0  0  0  0  3  0  0  0  0  0  0
    9.4760   12.3380    1.0530 C   0  0  0  0  0  3  0  0  0  0  0  0
    8.1530   12.2620    0.6230 C   0  0  0  0  0  3  0  0  0  0  0  0
    7.4800   11.0430    0.6540 C   0  0  0  0  0  3  0  0  0  0  0  0
    8.1310    9.8950    1.1150 C   0  0  0  0  0  3  0  0  0  0  0  0
  1 20  2  0  0  0  0
  1 10  1  0  0  0  0
  2 27  1  6  0  0  0
  2  1  1  0  0  0  0
  3  2  1  0  0  0  0
  3  8  1  0  0  0  0
  4  3  2  0  0  0  0
  5  4  1  0  0  0  0
  5  6  2  0  0  0  0
  6  7  1  0  0  0  0
  7  8  2  0  0  0  0
  8  9  1  0  0  0  0
  9 10  1  0  0  0  0
  9 29  1  0  0  0  0
 10 11  2  0  0  0  0
 13 12  1  0  0  0  0
 13 14  1  0  0  0  0
 15 14  2  0  0  0  0
 16 15  1  0  0  0  0
 17 18  1  0  0  0  0
 17 16  2  0  0  0  0
 18 13  2  0  0  0  0
 19 25  1  0  0  0  0
 19 18  1  0  0  0  0
 20 19  1  0  0  0  0
 21 22  1  0  0  0  0
 21 20  1  0  0  0  0
 22 17  1  0  0  0  0
 23 22  2  0  0  0  0
 24 22  2  0  0  0  0
 26 21  1  0  0  0  0
 28 27  1  0  0  0  0
 30 29  1  0  0  0  0
 31 30  1  0  0  0  0
 32 31  2  0  0  0  0
 33 34  2  0  0  0  0
 33 32  1  0  0  0  0
 34 35  1  0  0  0  0
 35 30  2  0  0  0  0
M  END
>  <minimizedAffinity>
4.20572853

$$$$
