REMARK  Name = 
REMARK  5 active torsions:
REMARK  status: ('A' for Active; 'I' for Inactive)
REMARK    1  A    between atoms: C_2  and  CA_4
REMARK    2  A    between atoms: CA_4  and  N_18
REMARK    3  A    between atoms: C_5  and  C_6
REMARK    4  A    between atoms: C_9  and  C_10
REMARK    5  A    between atoms: C_19  and  C_21
REMARK                            x       y       z     vdW  Elec       q    Type
REMARK                         _______ _______ _______ _____ _____    ______ ____
ROOT
ATOM      1  CA  UNL     1       3.150  -0.887   1.255  0.00  0.00    +0.060 C 
ATOM      2  C   UNL     1       2.626  -1.176   2.463  0.00  0.00    +0.071 C 
ENDROOT
BRANCH   2   3
ATOM      3  C   UNL     1       3.258  -0.946   3.717  0.00  0.00    +0.130 A 
ATOM      4  C   UNL     1       4.047   0.109   4.159  0.00  0.00    +0.050 A 
ATOM      5  C   UNL     1       4.405  -0.142   5.505  0.00  0.00    +0.050 A 
ATOM      6  C   UNL     1       3.807  -1.334   5.850  0.00  0.00    +0.136 A 
ATOM      7  O   UNL     1       3.103  -1.807   4.782  0.00  0.00    -0.455 OA
BRANCH   6   8
ATOM      8  C   UNL     1       3.768  -2.150   7.061  0.00  0.00    +0.017 A 
ATOM      9  C   UNL     1       4.370  -1.701   8.247  0.00  0.00    +0.013 A 
ATOM     10  C   UNL     1       4.340  -2.480   9.409  0.00  0.00    +0.021 A 
ATOM     11  C   UNL     1       3.705  -3.720   9.396  0.00  0.00    +0.041 A 
ATOM     12 CL   UNL     1       3.669  -4.678  10.825  0.00  0.00    -0.084 Cl
ATOM     13  C   UNL     1       3.102  -4.186   8.232  0.00  0.00    +0.021 A 
ATOM     14  C   UNL     1       3.134  -3.404   7.073  0.00  0.00    +0.013 A 
ENDBRANCH   6   8
ENDBRANCH   2   3
BRANCH   1  15
ATOM     15  N   UNL     1       4.455  -0.442   1.082  0.00  0.00    -0.280 N 
ATOM     16  C   UNL     1       5.124  -0.005  -0.039  0.00  0.00    +0.248 C 
ATOM     17  O   UNL     1       6.355   0.086  -0.009  0.00  0.00    -0.270 OA
ATOM     18  H   UNL     1       5.077  -0.561   1.868  0.00  0.00    +0.155 HD
BRANCH  16  19
ATOM     19  C   UNL     1       4.420   0.475  -1.248  0.00  0.00    +0.037 A 
ATOM     20  C   UNL     1       4.925   0.112  -2.503  0.00  0.00    +0.013 A 
ATOM     21  C   UNL     1       4.333   0.608  -3.665  0.00  0.00    +0.001 A 
ATOM     22  C   UNL     1       3.249   1.481  -3.577  0.00  0.00    +0.000 A 
ATOM     23  C   UNL     1       2.759   1.864  -2.327  0.00  0.00    +0.001 A 
ATOM     24  C   UNL     1       3.352   1.374  -1.162  0.00  0.00    +0.013 A 
ENDBRANCH  16  19
ENDBRANCH   1  15
BRANCH   1  26
ATOM     25  O   UNL     1       1.056  -0.657   0.128  0.00  0.00    -0.543 OA
ATOM     26  C   UNL     1       2.173  -1.252   0.092  0.00  0.00    +0.086 C 
ATOM     27  OXT UNL     1       2.611  -2.117  -0.718  0.00  0.00    -0.543 OA
ENDBRANCH   1  26
TORSDOF 5
