
 OpenBabel09132204463D

 27 29  0  0  0  0  0  0  0  0999 V2000
    6.9260   -2.5700    7.0630 C   0  0  0  0  0  0  0  0  0  0  0  0
    7.8130   -1.9810    6.2350 C   0  0  0  0  0  2  0  0  0  0  0  0
    8.2200   -2.4800    4.9660 C   0  0  0  0  0  0  0  0  0  0  0  0
    9.4130   -2.3320    4.2690 C   0  0  0  0  0  3  0  0  0  0  0  0
    9.3080   -3.0540    3.0570 C   0  0  0  0  0  3  0  0  0  0  0  0
    8.0600   -3.6380    3.0600 C   0  0  0  0  0  0  0  0  0  0  0  0
    7.4150   -3.3090    4.2150 O   0  0  0  0  0  0  0  0  0  0  0  0
    7.3270   -4.4970    2.1330 C   0  0  0  0  0  0  0  0  0  0  0  0
    7.9050   -4.8980    0.9180 C   0  0  0  0  0  3  0  0  0  0  0  0
    7.2060   -5.7160    0.0240 C   0  0  0  0  0  3  0  0  0  0  0  0
    5.9170   -6.1430    0.3380 C   0  0  0  0  0  0  0  0  0  0  0  0
    5.0570   -7.1490   -0.7620 Cl  0  0  0  0  0  0  0  0  0  0  0  0
    5.3240   -5.7580    1.5360 C   0  0  0  0  0  3  0  0  0  0  0  0
    6.0260   -4.9400    2.4260 C   0  0  0  0  0  3  0  0  0  0  0  0
    6.3910   -3.8300    6.8270 N   0  0  0  0  0  4  0  0  0  0  0  0
    5.0930   -4.2420    6.6270 C   0  0  0  0  0  0  0  0  0  0  0  0
    4.8240   -5.4450    6.7040 O   0  0  0  0  0  0  0  0  0  0  0  0
    7.0210   -4.6120    6.9350 H   0  0  0  0  0  0  0  0  0  0  0  0
    4.0210   -3.3150    6.2050 C   0  0  0  0  0  0  0  0  0  0  0  0
    3.3640   -2.5630    7.1870 C   0  0  0  0  0  3  0  0  0  0  0  0
    2.2970   -1.7350    6.8360 C   0  0  0  0  0  3  0  0  0  0  0  0
    1.8720   -1.6700    5.5090 C   0  0  0  0  0  3  0  0  0  0  0  0
    2.5100   -2.4370    4.5320 C   0  0  0  0  0  3  0  0  0  0  0  0
    3.5740   -3.2710    4.8800 C   0  0  0  0  0  3  0  0  0  0  0  0
    7.0060   -2.3310    9.4390 O   0  0  0  0  0  1  0  0  0  0  0  0
    6.6990   -1.7360    8.3640 C   0  0  0  0  0  0  0  0  0  0  0  0
    6.2100   -0.5860    8.1790 O   0  0  0  0  0  0  0  0  0  0  0  0
  1 26  1  0  0  0  0
  2  1  1  0  0  0  0
  3  2  1  0  0  0  0
  4  3  2  0  0  0  0
  5  6  2  0  0  0  0
  5  4  1  0  0  0  0
  6  7  1  0  0  0  0
  7  3  1  0  0  0  0
  8 14  1  0  0  0  0
  8  6  1  0  0  0  0
  9  8  2  0  0  0  0
 10 11  2  0  0  0  0
 10  9  1  0  0  0  0
 11 13  1  0  0  0  0
 12 11  1  0  0  0  0
 13 14  2  0  0  0  0
 15 18  1  0  0  0  0
 15  1  2  0  0  0  0
 16 17  2  0  0  0  0
 16 15  1  0  0  0  0
 19 16  1  0  0  0  0
 19 20  1  0  0  0  0
 21 20  2  0  0  0  0
 22 21  1  0  0  0  0
 23 24  1  0  0  0  0
 23 22  2  0  0  0  0
 24 19  2  0  0  0  0
 26 25  1  0  0  0  0
 27 26  2  0  0  0  0
M  END
>  <minimizedAffinity>
-6.58975887

$$$$
