
 OpenBabel09132204463D

 27 29  0  0  0  0  0  0  0  0999 V2000
    3.0280   -5.8970    4.9070 C   0  0  0  0  0  0  0  0  0  0  0  0
    3.7560   -6.9160    4.4090 C   0  0  0  0  0  2  0  0  0  0  0  0
    4.5010   -6.8890    3.1970 C   0  0  0  0  0  0  0  0  0  0  0  0
    4.4030   -7.6670    2.0500 C   0  0  0  0  0  3  0  0  0  0  0  0
    5.3700   -7.2100    1.1240 C   0  0  0  0  0  3  0  0  0  0  0  0
    6.0160   -6.1530    1.7260 C   0  0  0  0  0  0  0  0  0  0  0  0
    5.4820   -5.9490    2.9640 O   0  0  0  0  0  0  0  0  0  0  0  0
    7.0950   -5.2500    1.3320 C   0  0  0  0  0  0  0  0  0  0  0  0
    7.7140   -5.3790    0.0790 C   0  0  0  0  0  3  0  0  0  0  0  0
    8.7510   -4.5190   -0.3030 C   0  0  0  0  0  3  0  0  0  0  0  0
    9.1790   -3.5200    0.5680 C   0  0  0  0  0  0  0  0  0  0  0  0
   10.4540   -2.4640    0.0980 Cl  0  0  0  0  0  0  0  0  0  0  0  0
    8.5800   -3.3730    1.8150 C   0  0  0  0  0  3  0  0  0  0  0  0
    7.5440   -4.2340    2.1920 C   0  0  0  0  0  3  0  0  0  0  0  0
    2.8060   -4.7140    4.2110 N   0  0  0  0  0  4  0  0  0  0  0  0
    3.1640   -3.4150    4.4920 C   0  0  0  0  0  0  0  0  0  0  0  0
    2.6290   -2.4940    3.8690 O   0  0  0  0  0  0  0  0  0  0  0  0
    2.1760   -4.7680    3.4250 H   0  0  0  0  0  0  0  0  0  0  0  0
    4.2550   -3.0770    5.4330 C   0  0  0  0  0  0  0  0  0  0  0  0
    3.9900   -2.1640    6.4620 C   0  0  0  0  0  3  0  0  0  0  0  0
    5.0130   -1.7630    7.3210 C   0  0  0  0  0  3  0  0  0  0  0  0
    6.3050   -2.2570    7.1450 C   0  0  0  0  0  3  0  0  0  0  0  0
    6.5770   -3.1480    6.1050 C   0  0  0  0  0  3  0  0  0  0  0  0
    5.5570   -3.5480    5.2400 C   0  0  0  0  0  3  0  0  0  0  0  0
    1.3730   -7.0570    6.1800 O   0  0  0  0  0  0  0  0  0  0  0  0
    2.3580   -6.2670    6.2680 C   0  0  0  0  0  0  0  0  0  0  0  0
    2.8650   -5.7060    7.2800 O   0  0  0  0  0  1  0  0  0  0  0  0
  1 26  1  0  0  0  0
  2  1  1  0  0  0  0
  3  2  1  0  0  0  0
  4  3  2  0  0  0  0
  5  6  2  0  0  0  0
  5  4  1  0  0  0  0
  6  7  1  0  0  0  0
  7  3  1  0  0  0  0
  8  6  1  0  0  0  0
  8 14  1  0  0  0  0
  9  8  2  0  0  0  0
 10  9  1  0  0  0  0
 10 11  2  0  0  0  0
 11 13  1  0  0  0  0
 12 11  1  0  0  0  0
 13 14  2  0  0  0  0
 15 16  1  0  0  0  0
 15  1  2  0  0  0  0
 16 19  1  0  0  0  0
 17 16  2  0  0  0  0
 18 15  1  0  0  0  0
 19 20  1  0  0  0  0
 20 21  2  0  0  0  0
 22 21  1  0  0  0  0
 23 22  2  0  0  0  0
 24 19  2  0  0  0  0
 24 23  1  0  0  0  0
 25 26  2  0  0  0  0
 26 27  1  0  0  0  0
M  END
>  <minimizedAffinity>
-7.15938997

$$$$
