
 OpenBabel09132204463D

 27 29  0  0  0  0  0  0  0  0999 V2000
    3.6650   -5.7060    7.1160 C   0  0  0  0  0  0  0  0  0  0  0  0
    2.8970   -6.6340    6.5100 C   0  0  0  0  0  2  0  0  0  0  0  0
    3.1450   -7.2080    5.2320 C   0  0  0  0  0  0  0  0  0  0  0  0
    2.6810   -8.3840    4.6570 C   0  0  0  0  0  3  0  0  0  0  0  0
    3.2140   -8.4750    3.3490 C   0  0  0  0  0  3  0  0  0  0  0  0
    3.9720   -7.3420    3.1580 C   0  0  0  0  0  0  0  0  0  0  0  0
    3.9160   -6.5720    4.2830 O   0  0  0  0  0  0  0  0  0  0  0  0
    4.7770   -6.8180    2.0580 C   0  0  0  0  0  0  0  0  0  0  0  0
    4.4950   -7.1770    0.7300 C   0  0  0  0  0  3  0  0  0  0  0  0
    5.2650   -6.6820   -0.3280 C   0  0  0  0  0  3  0  0  0  0  0  0
    6.3290   -5.8210   -0.0680 C   0  0  0  0  0  0  0  0  0  0  0  0
    7.2760   -5.2130   -1.3700 Cl  0  0  0  0  0  0  0  0  0  0  0  0
    6.6280   -5.4520    1.2390 C   0  0  0  0  0  3  0  0  0  0  0  0
    5.8550   -5.9480    2.2940 C   0  0  0  0  0  3  0  0  0  0  0  0
    4.7420   -5.0880    6.4930 N   0  0  0  0  0  4  0  0  0  0  0  0
    4.8460   -3.8730    5.8540 C   0  0  0  0  0  0  0  0  0  0  0  0
    5.8290   -3.6490    5.1410 O   0  0  0  0  0  0  0  0  0  0  0  0
    5.5690   -5.6520    6.3640 H   0  0  0  0  0  0  0  0  0  0  0  0
    3.8850   -2.7720    6.0790 C   0  0  0  0  0  0  0  0  0  0  0  0
    4.0890   -1.9200    7.1720 C   0  0  0  0  0  3  0  0  0  0  0  0
    3.1610   -0.9180    7.4600 C   0  0  0  0  0  3  0  0  0  0  0  0
    2.0210   -0.7760    6.6710 C   0  0  0  0  0  3  0  0  0  0  0  0
    1.8030   -1.6390    5.5950 C   0  0  0  0  0  3  0  0  0  0  0  0
    2.7250   -2.6460    5.3070 C   0  0  0  0  0  3  0  0  0  0  0  0
    3.9710   -4.8620    9.3310 O   0  0  0  0  0  1  0  0  0  0  0  0
    3.1080   -5.3150    8.5230 C   0  0  0  0  0  0  0  0  0  0  0  0
    1.8730   -5.5300    8.6840 O   0  0  0  0  0  0  0  0  0  0  0  0
  1 26  1  0  0  0  0
  2  1  1  0  0  0  0
  3  2  1  0  0  0  0
  4  3  2  0  0  0  0
  5  4  1  0  0  0  0
  6  5  2  0  0  0  0
  6  7  1  0  0  0  0
  7  3  1  0  0  0  0
  8 14  1  0  0  0  0
  8  6  1  0  0  0  0
  9  8  2  0  0  0  0
 10 11  2  0  0  0  0
 10  9  1  0  0  0  0
 11 13  1  0  0  0  0
 12 11  1  0  0  0  0
 13 14  2  0  0  0  0
 15  1  2  0  0  0  0
 16 19  1  0  0  0  0
 16 15  1  0  0  0  0
 17 16  2  0  0  0  0
 18 15  1  0  0  0  0
 19 20  1  0  0  0  0
 20 21  2  0  0  0  0
 22 21  1  0  0  0  0
 23 22  2  0  0  0  0
 24 23  1  0  0  0  0
 24 19  2  0  0  0  0
 26 27  2  0  0  0  0
 26 25  1  0  0  0  0
M  END
>  <minimizedAffinity>
-6.78765726

$$$$
