
 OpenBabel09132204463D

 27 29  0  0  0  0  0  0  0  0999 V2000
    3.2770   -6.0230    6.8560 C   0  0  0  0  0  0  0  0  0  0  0  0
    2.5440   -6.8860    6.1250 C   0  0  0  0  0  2  0  0  0  0  0  0
    2.9220   -7.4370    4.8680 C   0  0  0  0  0  0  0  0  0  0  0  0
    2.5730   -8.6350    4.2570 C   0  0  0  0  0  3  0  0  0  0  0  0
    3.2080   -8.6870    2.9930 C   0  0  0  0  0  3  0  0  0  0  0  0
    3.9110   -7.5090    2.8630 C   0  0  0  0  0  0  0  0  0  0  0  0
    3.7240   -6.7510    3.9810 O   0  0  0  0  0  0  0  0  0  0  0  0
    4.7650   -6.9320    1.8280 C   0  0  0  0  0  0  0  0  0  0  0  0
    5.8730   -6.1410    2.1720 C   0  0  0  0  0  3  0  0  0  0  0  0
    6.6920   -5.5820    1.1850 C   0  0  0  0  0  3  0  0  0  0  0  0
    6.4100   -5.8100   -0.1610 C   0  0  0  0  0  0  0  0  0  0  0  0
    7.4170   -5.1220   -1.3740 Cl  0  0  0  0  0  0  0  0  0  0  0  0
    5.3180   -6.5900   -0.5250 C   0  0  0  0  0  3  0  0  0  0  0  0
    4.5020   -7.1480    0.4650 C   0  0  0  0  0  3  0  0  0  0  0  0
    4.4570   -5.4520    6.3960 N   0  0  0  0  0  4  0  0  0  0  0  0
    4.7120   -4.2200    5.8370 C   0  0  0  0  0  0  0  0  0  0  0  0
    5.7860   -4.0310    5.2570 O   0  0  0  0  0  0  0  0  0  0  0  0
    5.2580   -6.0630    6.3370 H   0  0  0  0  0  0  0  0  0  0  0  0
    3.7990   -3.0680    6.0020 C   0  0  0  0  0  0  0  0  0  0  0  0
    4.0270   -2.1830    7.0640 C   0  0  0  0  0  3  0  0  0  0  0  0
    3.1430   -1.1290    7.2970 C   0  0  0  0  0  3  0  0  0  0  0  0
    2.0210   -0.9670    6.4840 C   0  0  0  0  0  3  0  0  0  0  0  0
    1.7790   -1.8620    5.4410 C   0  0  0  0  0  3  0  0  0  0  0  0
    2.6580   -2.9210    5.2070 C   0  0  0  0  0  3  0  0  0  0  0  0
    3.2750   -4.9710    9.0010 O   0  0  0  0  0  1  0  0  0  0  0  0
    2.5660   -5.6410    8.1940 C   0  0  0  0  0  0  0  0  0  0  0  0
    1.3860   -6.0760    8.3110 O   0  0  0  0  0  0  0  0  0  0  0  0
  1 26  1  0  0  0  0
  2  1  1  0  0  0  0
  3  2  1  0  0  0  0
  4  3  2  0  0  0  0
  5  4  1  0  0  0  0
  6  5  2  0  0  0  0
  6  7  1  0  0  0  0
  7  3  1  0  0  0  0
  8  9  1  0  0  0  0
  8  6  1  0  0  0  0
 10  9  2  0  0  0  0
 11 10  1  0  0  0  0
 12 11  1  0  0  0  0
 13 11  2  0  0  0  0
 13 14  1  0  0  0  0
 14  8  2  0  0  0  0
 15  1  2  0  0  0  0
 16 19  1  0  0  0  0
 16 15  1  0  0  0  0
 17 16  2  0  0  0  0
 18 15  1  0  0  0  0
 19 20  1  0  0  0  0
 20 21  2  0  0  0  0
 22 21  1  0  0  0  0
 23 22  2  0  0  0  0
 24 23  1  0  0  0  0
 24 19  2  0  0  0  0
 26 27  2  0  0  0  0
 26 25  1  0  0  0  0
M  END
>  <minimizedAffinity>
-7.0139513

$$$$
