
 OpenBabel09132204463D

 27 29  0  0  0  0  0  0  0  0999 V2000
    5.2730   -2.0620    7.2210 C   0  0  0  0  0  0  0  0  0  0  0  0
    5.6220   -3.3580    7.1000 C   0  0  0  0  0  2  0  0  0  0  0  0
    4.8970   -4.3480    6.3800 C   0  0  0  0  0  0  0  0  0  0  0  0
    3.7580   -5.0680    6.7180 C   0  0  0  0  0  3  0  0  0  0  0  0
    3.4300   -5.9120    5.6300 C   0  0  0  0  0  3  0  0  0  0  0  0
    4.3690   -5.6660    4.6520 C   0  0  0  0  0  0  0  0  0  0  0  0
    5.2380   -4.7130    5.0950 O   0  0  0  0  0  0  0  0  0  0  0  0
    4.6090   -6.1840    3.3070 C   0  0  0  0  0  0  0  0  0  0  0  0
    4.7880   -5.3090    2.2250 C   0  0  0  0  0  3  0  0  0  0  0  0
    5.0140   -5.7980    0.9330 C   0  0  0  0  0  3  0  0  0  0  0  0
    5.0640   -7.1730    0.7120 C   0  0  0  0  0  0  0  0  0  0  0  0
    5.3410   -7.7740   -0.8760 Cl  0  0  0  0  0  0  0  0  0  0  0  0
    4.8890   -8.0590    1.7700 C   0  0  0  0  0  3  0  0  0  0  0  0
    4.6630   -7.5660    3.0590 C   0  0  0  0  0  3  0  0  0  0  0  0
    4.0650   -1.5560    6.7570 N   0  0  0  0  0  4  0  0  0  0  0  0
    2.8060   -1.5580    7.3140 C   0  0  0  0  0  0  0  0  0  0  0  0
    1.8320   -1.2900    6.6040 O   0  0  0  0  0  0  0  0  0  0  0  0
    4.0520   -1.2330    5.8010 H   0  0  0  0  0  0  0  0  0  0  0  0
    2.5780   -1.7550    8.7630 C   0  0  0  0  0  0  0  0  0  0  0  0
    3.0020   -0.7550    9.6470 C   0  0  0  0  0  3  0  0  0  0  0  0
    2.8730   -0.9390   11.0240 C   0  0  0  0  0  3  0  0  0  0  0  0
    2.3390   -2.1270   11.5210 C   0  0  0  0  0  3  0  0  0  0  0  0
    1.9380   -3.1360   10.6430 C   0  0  0  0  0  3  0  0  0  0  0  0
    2.0700   -2.9570    9.2650 C   0  0  0  0  0  3  0  0  0  0  0  0
    6.8950   -0.3210    7.4380 O   0  0  0  0  0  0  0  0  0  0  0  0
    6.3110   -1.2530    8.0640 C   0  0  0  0  0  0  0  0  0  0  0  0
    6.4560   -1.6530    9.2540 O   0  0  0  0  0  1  0  0  0  0  0  0
  1 26  1  0  0  0  0
  2  1  1  0  0  0  0
  3  4  2  0  0  0  0
  3  2  1  0  0  0  0
  5  4  1  0  0  0  0
  6  7  1  0  0  0  0
  6  5  2  0  0  0  0
  7  3  1  0  0  0  0
  8  6  1  0  0  0  0
  9  8  2  0  0  0  0
 10  9  1  0  0  0  0
 11 10  2  0  0  0  0
 11 13  1  0  0  0  0
 12 11  1  0  0  0  0
 13 14  2  0  0  0  0
 14  8  1  0  0  0  0
 15  1  2  3  0  0  0
 15 16  1  0  0  0  0
 16 19  1  0  0  0  0
 17 16  2  0  0  0  0
 18 15  1  0  0  0  0
 19 24  2  0  0  0  0
 19 20  1  0  0  0  0
 20 21  2  0  0  0  0
 21 22  1  0  0  0  0
 23 22  2  0  0  0  0
 24 23  1  0  0  0  0
 25 26  2  0  0  0  0
 26 27  1  0  0  0  0
M  END
>  <minimizedAffinity>
-6.57294798

$$$$
