
 OpenBabel09132204463D

 27 29  0  0  0  0  0  0  0  0999 V2000
    3.7430   -6.0720    5.0990 C   0  0  0  0  0  0  0  0  0  0  0  0
    3.6760   -6.7620    3.9430 C   0  0  0  0  0  2  0  0  0  0  0  0
    4.7140   -6.8600    2.9750 C   0  0  0  0  0  0  0  0  0  0  0  0
    5.0750   -7.9020    2.1300 C   0  0  0  0  0  3  0  0  0  0  0  0
    6.1700   -7.4720    1.3420 C   0  0  0  0  0  3  0  0  0  0  0  0
    6.4310   -6.1730    1.7180 C   0  0  0  0  0  0  0  0  0  0  0  0
    5.5450   -5.8000    2.6850 O   0  0  0  0  0  0  0  0  0  0  0  0
    7.4060   -5.1640    1.3120 C   0  0  0  0  0  0  0  0  0  0  0  0
    8.0150   -5.2230    0.0490 C   0  0  0  0  0  3  0  0  0  0  0  0
    8.9530   -4.2620   -0.3440 C   0  0  0  0  0  3  0  0  0  0  0  0
    9.2920   -3.2280    0.5260 C   0  0  0  0  0  0  0  0  0  0  0  0
   10.4460   -2.0470    0.0430 Cl  0  0  0  0  0  0  0  0  0  0  0  0
    8.7020   -3.1490    1.7840 C   0  0  0  0  0  3  0  0  0  0  0  0
    7.7650   -4.1110    2.1720 C   0  0  0  0  0  3  0  0  0  0  0  0
    4.8110   -5.2460    5.4280 N   0  0  0  0  0  4  0  0  0  0  0  0
    4.9410   -3.8760    5.3990 C   0  0  0  0  0  0  0  0  0  0  0  0
    6.0680   -3.3760    5.4780 O   0  0  0  0  0  0  0  0  0  0  0  0
    5.6930   -5.7040    5.6060 H   0  0  0  0  0  0  0  0  0  0  0  0
    3.7750   -2.9670    5.3960 C   0  0  0  0  0  0  0  0  0  0  0  0
    3.4640   -2.2760    6.5740 C   0  0  0  0  0  3  0  0  0  0  0  0
    2.3270   -1.4690    6.6320 C   0  0  0  0  0  3  0  0  0  0  0  0
    1.4900   -1.3630    5.5220 C   0  0  0  0  0  3  0  0  0  0  0  0
    1.7840   -2.0700    4.3540 C   0  0  0  0  0  3  0  0  0  0  0  0
    2.9170   -2.8830    4.2940 C   0  0  0  0  0  3  0  0  0  0  0  0
    2.5140   -5.7970    7.1300 O   0  0  0  0  0  1  0  0  0  0  0  0
    2.4280   -6.2000    5.9330 C   0  0  0  0  0  0  0  0  0  0  0  0
    1.4550   -6.7170    5.3150 O   0  0  0  0  0  0  0  0  0  0  0  0
  1 15  2  0  0  0  0
  1 26  1  0  0  0  0
  2  1  1  0  0  0  0
  3  2  1  0  0  0  0
  4  3  2  0  0  0  0
  5  6  2  0  0  0  0
  5  4  1  0  0  0  0
  6  7  1  0  0  0  0
  7  3  1  0  0  0  0
  8  6  1  0  0  0  0
  8 14  1  0  0  0  0
  9  8  2  0  0  0  0
 10  9  1  0  0  0  0
 10 11  2  0  0  0  0
 11 13  1  0  0  0  0
 12 11  1  0  0  0  0
 13 14  2  0  0  0  0
 15 18  1  0  0  0  0
 16 15  1  0  0  0  0
 16 17  2  0  0  0  0
 19 16  1  0  0  0  0
 19 20  1  0  0  0  0
 20 21  2  0  0  0  0
 22 21  1  0  0  0  0
 23 22  2  0  0  0  0
 24 23  1  0  0  0  0
 24 19  2  0  0  0  0
 26 25  1  0  0  0  0
 27 26  2  0  0  0  0
M  END
>  <minimizedAffinity>
-7.21101999

$$$$
