REMARK  Name = 
REMARK  2 active torsions:
REMARK  status: ('A' for Active; 'I' for Inactive)
REMARK    1  A    between atoms: C_3  and  C_5
REMARK    2  A    between atoms: C_9  and  C_10
REMARK                            x       y       z     vdW  Elec       q    Type
REMARK                         _______ _______ _______ _____ _____    ______ ____
ROOT
ATOM      1 CL   UNL     1       0.966   0.092  -0.021  0.00  0.00    -0.145 Cl
ATOM      2  H   UNL     1       2.296   0.092  -0.021  0.00  0.00    +0.145 HD
ENDROOT
TORSDOF 0
REMARK  Name = 
REMARK  2 active torsions:
REMARK  status: ('A' for Active; 'I' for Inactive)
REMARK    1  A    between atoms: C_3  and  C_5
REMARK    2  A    between atoms: C_9  and  C_10
REMARK                            x       y       z     vdW  Elec       q    Type
REMARK                         _______ _______ _______ _____ _____    ______ ____
ROOT
ATOM      1  C   UNL     1       3.014  -0.462   1.246  0.00  0.00    -0.001 A 
ATOM      2  C   UNL     1       4.454  -0.462   1.246  0.00  0.00    +0.010 A 
ATOM      3  C   UNL     1       5.174   0.057   0.112  0.00  0.00    +0.011 A 
ATOM      4  C   UNL     1       6.694   0.057   0.112  0.00  0.00    +0.004 A 
ATOM      5  C   UNL     1       7.450   1.050  -0.258  0.00  0.00    -0.011 A 
ATOM      6  C   UNL     1       8.757   0.693  -0.108  0.00  0.00    +0.055 A 
ATOM      7  N   UNL     1       8.781  -0.585   0.343  0.00  0.00    -0.338 N 
ATOM      8  C   UNL     1       7.485  -0.982   0.499  0.00  0.00    +0.050 A 
ATOM      9  C   UNL     1       2.294  -0.980   2.380  0.00  0.00    +0.036 A 
ATOM     10  C   UNL     1      10.016  -1.404   0.584  0.00  0.00    +0.141 C 
ATOM     11  C   UNL     1      10.753  -1.498  -0.680  0.00  0.00    +0.123 C 
ATOM     12  N   UNL     1      11.214  -0.412  -1.301  0.00  0.00    -0.342 N 
ATOM     13  C   UNL     1      11.059   0.980  -0.877  0.00  0.00    +0.036 A 
ATOM     14  C   UNL     1      12.167   1.835  -1.013  0.00  0.00    +0.023 A 
ATOM     15  C   UNL     1      12.075   3.160  -0.657  0.00  0.00    +0.002 A 
ATOM     16  C   UNL     1      10.884   3.669  -0.164  0.00  0.00    +0.001 A 
ATOM     17  C   UNL     1       9.791   2.843  -0.014  0.00  0.00    +0.012 A 
ATOM     18  C   UNL     1       9.872   1.495  -0.353  0.00  0.00    +0.020 A 
ATOM     19  H   UNL     1      11.731  -0.569  -2.166  0.00  0.00    +0.146 HD
ENDROOT
BRANCH   5  20
ATOM     20  C   UNL     1       6.955   2.392  -0.774  0.00  0.00    +0.022 C 
ATOM     21  C   UNL     1       6.130   2.142  -2.044  0.00  0.00    +0.008 C 
ATOM     22  C   UNL     1       5.509   3.428  -2.576  0.00  0.00    +0.001 C 
ATOM     23  C   UNL     1       4.656   4.108  -1.517  0.00  0.00    +0.000 C 
ATOM     24  C   UNL     1       5.486   4.367  -0.266  0.00  0.00    +0.001 C 
ATOM     25  C   UNL     1       6.092   3.082   0.279  0.00  0.00    +0.008 C 
ENDBRANCH   5  20
BRANCH   1  27
ATOM     26  O   UNL     1       0.983   0.086   0.049  0.00  0.00    -0.545 OA
ATOM     27  C   UNL     1       2.254   0.086   0.049  0.00  0.00    +0.072 C 
ATOM     28  O   UNL     1       2.964   0.597  -1.070  0.00  0.00    -0.545 OA
ENDBRANCH   1  27
TORSDOF 2
