REMARK  Name = 
REMARK  3 active torsions:
REMARK  status: ('A' for Active; 'I' for Inactive)
REMARK    1  A    between atoms: C_2  and  C_4
REMARK    2  A    between atoms: C_4  and  C_6
REMARK    3  A    between atoms: C_7  and  C_9
REMARK                            x       y       z     vdW  Elec       q    Type
REMARK                         _______ _______ _______ _____ _____    ______ ____
ROOT
ATOM      1  C   UNL     1       4.430   0.232   0.434  0.00  0.00    +0.045 C 
ATOM      2  C   UNL     1       5.307  -0.616   1.033  0.00  0.00    -0.097 C 
ATOM      3  O   UNL     1       5.128  -1.614   1.787  0.00  0.00    -0.873 OA
ENDROOT
BRANCH   2   4
ATOM      4  C   UNL     1       6.713  -0.210   0.693  0.00  0.00    -0.033 A 
ATOM      5  C   UNL     1       7.256  -0.483  -0.571  0.00  0.00    +0.007 A 
ATOM      6  C   UNL     1       8.558  -0.088  -0.886  0.00  0.00    +0.001 A 
ATOM      7  C   UNL     1       9.333   0.579   0.063  0.00  0.00    +0.000 A 
ATOM      8  C   UNL     1       8.808   0.848   1.328  0.00  0.00    +0.001 A 
ATOM      9  C   UNL     1       7.504   0.454   1.640  0.00  0.00    +0.007 A 
ENDBRANCH   2   4
BRANCH   1  10
ATOM     10  C   UNL     1       2.920   0.263   0.458  0.00  0.00    +0.201 C 
ATOM     11  O   UNL     1       2.186  -0.484   1.101  0.00  0.00    -0.286 OA
BRANCH  10  13
ATOM     12  O   UNL     1       0.923   1.441  -0.338  0.00  0.00    -0.541 OA
ATOM     13  C   UNL     1       2.198   1.350  -0.406  0.00  0.00    +0.111 C 
ATOM     14  O   UNL     1       2.935   2.099  -1.139  0.00  0.00    -0.541 OA
ENDBRANCH  10  13
ENDBRANCH   1  10
TORSDOF 3
