
 OpenBabel09122222393D

 14 14  0  0  0  0  0  0  0  0999 V2000
   10.1590   -2.1870   -0.0190 C   0  0  0  0  0  2  0  0  0  0  0  0
    9.4780   -1.3950    0.8510 C   0  0  0  0  0  0  0  0  0  0  0  0
    8.6600   -1.6710    1.7740 O   0  0  0  0  0  0  0  0  0  0  0  0
    9.8070    0.0460    0.5850 C   0  0  0  0  0  0  0  0  0  0  0  0
   10.4700    0.4290   -0.5900 C   0  0  0  0  0  3  0  0  0  0  0  0
   10.7590    1.7720   -0.8390 C   0  0  0  0  0  3  0  0  0  0  0  0
   10.3920    2.7470    0.0890 C   0  0  0  0  0  3  0  0  0  0  0  0
    9.7410    2.3790    1.2670 C   0  0  0  0  0  3  0  0  0  0  0  0
    9.4510    1.0340    1.5120 C   0  0  0  0  0  3  0  0  0  0  0  0
   10.1780   -3.6890   -0.1720 C   0  0  0  0  0  0  0  0  0  0  0  0
   11.1770   -4.4040   -0.2220 O   0  0  0  0  0  0  0  0  0  0  0  0
    8.3440   -4.7200   -1.4290 O   0  0  0  0  0  0  0  0  0  0  0  0
    8.8040   -4.4310   -0.2700 C   0  0  0  0  0  0  0  0  0  0  0  0
    8.2120   -4.7140    0.8300 O   0  0  0  0  0  1  0  0  0  0  0  0
  1  2  1  0  0  0  0
  2  3  2  0  0  0  0
  4  2  1  0  0  0  0
  4  9  1  0  0  0  0
  5  4  2  0  0  0  0
  6  5  1  0  0  0  0
  6  7  2  0  0  0  0
  7  8  1  0  0  0  0
  8  9  2  0  0  0  0
 10  1  1  0  0  0  0
 11 10  2  0  0  0  0
 12 13  2  0  0  0  0
 13 10  1  0  0  0  0
 13 14  1  0  0  0  0
M  END
>  <minimizedAffinity>
-5.73741817

$$$$
