
 OpenBabel09122218323D

 14 14  0  0  0  0  0  0  0  0999 V2000
   10.0060   -2.5980   -0.1490 C   0  0  0  0  0  2  0  0  0  0  0  0
   11.0920   -2.8360   -0.9320 C   0  0  0  0  0  0  0  0  0  0  0  0
   11.7190   -3.9010   -1.1960 O   0  0  0  0  0  0  0  0  0  0  0  0
   11.5690   -1.5470   -1.5370 C   0  0  0  0  0  0  0  0  0  0  0  0
   10.6760   -0.4950   -1.7880 C   0  0  0  0  0  3  0  0  0  0  0  0
   11.1290    0.7080   -2.3350 C   0  0  0  0  0  3  0  0  0  0  0  0
   12.4800    0.8670   -2.6440 C   0  0  0  0  0  3  0  0  0  0  0  0
   13.3780   -0.1750   -2.4090 C   0  0  0  0  0  3  0  0  0  0  0  0
   12.9220   -1.3770   -1.8580 C   0  0  0  0  0  3  0  0  0  0  0  0
    9.1620   -3.5420    0.6740 C   0  0  0  0  0  0  0  0  0  0  0  0
    8.9250   -3.4480    1.8760 O   0  0  0  0  0  0  0  0  0  0  0  0
    8.0870   -5.7460    0.6470 O   0  0  0  0  0  1  0  0  0  0  0  0
    8.5070   -4.7620   -0.0560 C   0  0  0  0  0  0  0  0  0  0  0  0
    8.4240   -4.7030   -1.3340 O   0  0  0  0  0  0  0  0  0  0  0  0
  1 10  1  0  0  0  0
  2  1  1  0  0  0  0
  3  2  2  0  0  0  0
  4  2  1  0  0  0  0
  5  4  1  0  0  0  0
  6  5  2  0  0  0  0
  7  8  2  0  0  0  0
  7  6  1  0  0  0  0
  8  9  1  0  0  0  0
  9  4  2  0  0  0  0
 10 11  2  0  0  0  0
 13 12  1  0  0  0  0
 13 10  1  0  0  0  0
 14 13  2  0  0  0  0
M  END
>  <minimizedAffinity>
-6.22700071

$$$$

 OpenBabel09122218323D

 14 14  0  0  0  0  0  0  0  0999 V2000
   10.0630   -2.8360   -0.4490 C   0  0  0  0  0  2  0  0  0  0  0  0
   11.1830   -2.9410   -1.2110 C   0  0  0  0  0  0  0  0  0  0  0  0
   11.8720   -3.9420   -1.5570 O   0  0  0  0  0  0  0  0  0  0  0  0
   11.6120   -1.5750   -1.6690 C   0  0  0  0  0  0  0  0  0  0  0  0
   10.6730   -0.5490   -1.8520 C   0  0  0  0  0  3  0  0  0  0  0  0
   11.0810    0.7220   -2.2610 C   0  0  0  0  0  3  0  0  0  0  0  0
   12.4320    0.9790   -2.4970 C   0  0  0  0  0  3  0  0  0  0  0  0
   13.3750   -0.0360   -2.3280 C   0  0  0  0  0  3  0  0  0  0  0  0
   12.9650   -1.3070   -1.9160 C   0  0  0  0  0  3  0  0  0  0  0  0
    9.2430   -3.8970    0.2460 C   0  0  0  0  0  0  0  0  0  0  0  0
    9.0220   -5.0330   -0.1670 O   0  0  0  0  0  0  0  0  0  0  0  0
    7.8490   -4.3990    2.1990 O   0  0  0  0  0  1  0  0  0  0  0  0
    8.6110   -3.5410    1.6330 C   0  0  0  0  0  0  0  0  0  0  0  0
    8.9000   -2.3960    2.1300 O   0  0  0  0  0  0  0  0  0  0  0  0
  1 10  1  0  0  0  0
  2  1  1  0  0  0  0
  3  2  2  0  0  0  0
  4  2  1  0  0  0  0
  5  4  1  0  0  0  0
  6  5  2  0  0  0  0
  7  8  2  0  0  0  0
  7  6  1  0  0  0  0
  8  9  1  0  0  0  0
  9  4  2  0  0  0  0
 10 13  1  0  0  0  0
 11 10  2  0  0  0  0
 13 14  2  0  0  0  0
 13 12  1  0  0  0  0
M  END
>  <minimizedAffinity>
-6.09896994

$$$$

 OpenBabel09122218323D

 14 14  0  0  0  0  0  0  0  0999 V2000
   10.1750   -2.6170    0.8580 C   0  0  0  0  0  2  0  0  0  0  0  0
   10.1420   -3.2530   -0.3420 C   0  0  0  0  0  0  0  0  0  0  0  0
    9.3960   -4.1710   -0.7860 O   0  0  0  0  0  0  0  0  0  0  0  0
   11.2290   -2.7150   -1.2280 C   0  0  0  0  0  0  0  0  0  0  0  0
   12.3020   -3.5260   -1.6270 C   0  0  0  0  0  3  0  0  0  0  0  0
   13.3010   -3.0230   -2.4640 C   0  0  0  0  0  3  0  0  0  0  0  0
   13.2390   -1.7020   -2.9070 C   0  0  0  0  0  3  0  0  0  0  0  0
   12.1820   -0.8810   -2.5100 C   0  0  0  0  0  3  0  0  0  0  0  0
   11.1830   -1.3870   -1.6740 C   0  0  0  0  0  3  0  0  0  0  0  0
    9.3090   -2.7860    2.0840 C   0  0  0  0  0  0  0  0  0  0  0  0
    8.2880   -3.4640    2.1680 O   0  0  0  0  0  0  0  0  0  0  0  0
    9.2480   -0.8840    3.6300 O   0  0  0  0  0  0  0  0  0  0  0  0
    9.7410   -2.0410    3.3910 C   0  0  0  0  0  0  0  0  0  0  0  0
   10.5730   -2.6410    4.1590 O   0  0  0  0  0  1  0  0  0  0  0  0
  1 10  1  0  0  0  0
  2  1  1  0  0  0  0
  3  2  2  0  0  0  0
  4  2  1  0  0  0  0
  5  4  1  0  0  0  0
  6  5  2  0  0  0  0
  7  8  2  0  0  0  0
  7  6  1  0  0  0  0
  8  9  1  0  0  0  0
  9  4  2  0  0  0  0
 10 11  2  0  0  0  0
 10 13  1  0  0  0  0
 13 12  2  0  0  0  0
 13 14  1  0  0  0  0
M  END
>  <minimizedAffinity>
-5.89261055

$$$$

 OpenBabel09122218323D

 14 14  0  0  0  0  0  0  0  0999 V2000
   10.1750   -2.6210    0.8360 C   0  0  0  0  0  2  0  0  0  0  0  0
   10.1340   -3.2540   -0.3660 C   0  0  0  0  0  0  0  0  0  0  0  0
    9.3820   -4.1680   -0.8090 O   0  0  0  0  0  0  0  0  0  0  0  0
   11.2180   -2.7160   -1.2570 C   0  0  0  0  0  0  0  0  0  0  0  0
   11.1820   -1.3910   -1.7150 C   0  0  0  0  0  3  0  0  0  0  0  0
   12.2010   -0.8920   -2.5290 C   0  0  0  0  0  3  0  0  0  0  0  0
   13.2650   -1.7160   -2.8980 C   0  0  0  0  0  3  0  0  0  0  0  0
   13.3080   -3.0390   -2.4560 C   0  0  0  0  0  3  0  0  0  0  0  0
   12.2880   -3.5350   -1.6400 C   0  0  0  0  0  3  0  0  0  0  0  0
    9.3160   -2.7920    2.0660 C   0  0  0  0  0  0  0  0  0  0  0  0
    8.3030   -3.4810    2.1580 O   0  0  0  0  0  0  0  0  0  0  0  0
    9.2520   -0.8720    3.5900 O   0  0  0  0  0  0  0  0  0  0  0  0
    9.7440   -2.0330    3.3670 C   0  0  0  0  0  0  0  0  0  0  0  0
   10.5700   -2.6260    4.1460 O   0  0  0  0  0  1  0  0  0  0  0  0
  1 10  1  0  0  0  0
  2  1  1  0  0  0  0
  3  2  2  0  0  0  0
  4  2  1  0  0  0  0
  5  4  2  0  0  0  0
  6  5  1  0  0  0  0
  7  6  2  0  0  0  0
  7  8  1  0  0  0  0
  8  9  2  0  0  0  0
  9  4  1  0  0  0  0
 10 11  2  0  0  0  0
 10 13  1  0  0  0  0
 13 12  2  0  0  0  0
 13 14  1  0  0  0  0
M  END
>  <minimizedAffinity>
-5.88677597

$$$$

 OpenBabel09122218323D

 14 14  0  0  0  0  0  0  0  0999 V2000
   10.2470   -2.1410   -0.0950 C   0  0  0  0  0  2  0  0  0  0  0  0
   10.4110   -1.1650   -1.0270 C   0  0  0  0  0  0  0  0  0  0  0  0
   10.6420   -1.2200   -2.2680 O   0  0  0  0  0  0  0  0  0  0  0  0
   10.2950    0.1820   -0.3730 C   0  0  0  0  0  0  0  0  0  0  0  0
    9.6120    0.3360    0.8430 C   0  0  0  0  0  3  0  0  0  0  0  0
    9.5230    1.5890    1.4540 C   0  0  0  0  0  3  0  0  0  0  0  0
   10.1100    2.7020    0.8520 C   0  0  0  0  0  3  0  0  0  0  0  0
   10.7830    2.5640   -0.3630 C   0  0  0  0  0  3  0  0  0  0  0  0
   10.8740    1.3090   -0.9710 C   0  0  0  0  0  3  0  0  0  0  0  0
   10.2730   -3.6450   -0.2310 C   0  0  0  0  0  0  0  0  0  0  0  0
   11.2760   -4.3510   -0.3170 O   0  0  0  0  0  0  0  0  0  0  0  0
    8.4440   -4.7990   -1.3840 O   0  0  0  0  0  0  0  0  0  0  0  0
    8.9030   -4.4000   -0.2580 C   0  0  0  0  0  0  0  0  0  0  0  0
    8.3130   -4.5820    0.8650 O   0  0  0  0  0  1  0  0  0  0  0  0
  2  4  1  0  0  0  0
  2  1  1  0  0  0  0
  3  2  2  0  0  0  0
  4  5  1  0  0  0  0
  5  6  2  0  0  0  0
  7  6  1  0  0  0  0
  8  7  2  0  0  0  0
  9  4  2  0  0  0  0
  9  8  1  0  0  0  0
 10  1  1  0  0  0  0
 11 10  2  0  0  0  0
 12 13  2  0  0  0  0
 13 10  1  0  0  0  0
 13 14  1  0  0  0  0
M  END
>  <minimizedAffinity>
-5.88096285

$$$$

 OpenBabel09122218323D

 14 14  0  0  0  0  0  0  0  0999 V2000
    9.6860   -2.3510    0.7500 C   0  0  0  0  0  2  0  0  0  0  0  0
   10.1170   -2.7790   -0.4650 C   0  0  0  0  0  0  0  0  0  0  0  0
   10.0350   -3.9030   -1.0370 O   0  0  0  0  0  0  0  0  0  0  0  0
   10.8140   -1.6550   -1.1780 C   0  0  0  0  0  0  0  0  0  0  0  0
   11.9360   -1.8990   -1.9840 C   0  0  0  0  0  3  0  0  0  0  0  0
   12.5690   -0.8510   -2.6570 C   0  0  0  0  0  3  0  0  0  0  0  0
   12.0900    0.4520   -2.5250 C   0  0  0  0  0  3  0  0  0  0  0  0
   10.9800    0.7100   -1.7170 C   0  0  0  0  0  3  0  0  0  0  0  0
   10.3470   -0.3410   -1.0470 C   0  0  0  0  0  3  0  0  0  0  0  0
    8.9400   -3.0810    1.8430 C   0  0  0  0  0  0  0  0  0  0  0  0
    8.2280   -4.0730    1.7010 O   0  0  0  0  0  0  0  0  0  0  0  0
    9.3040   -1.2990    3.4850 O   0  0  0  0  0  0  0  0  0  0  0  0
    9.0820   -2.5460    3.3070 C   0  0  0  0  0  0  0  0  0  0  0  0
    8.9610   -3.3990    4.2550 O   0  0  0  0  0  1  0  0  0  0  0  0
  1 10  1  0  0  0  0
  2  1  1  0  0  0  0
  3  2  2  0  0  0  0
  4  9  1  0  0  0  0
  4  2  1  0  0  0  0
  5  4  2  0  0  0  0
  6  7  2  0  0  0  0
  6  5  1  0  0  0  0
  7  8  1  0  0  0  0
  8  9  2  0  0  0  0
 10 13  1  0  0  0  0
 11 10  2  0  0  0  0
 13 12  2  0  0  0  0
 13 14  1  0  0  0  0
M  END
>  <minimizedAffinity>
-5.81175613

$$$$

 OpenBabel09122218323D

 14 14  0  0  0  0  0  0  0  0999 V2000
    9.6530   -2.2840    0.1100 C   0  0  0  0  0  2  0  0  0  0  0  0
    9.6390   -0.9470    0.3510 C   0  0  0  0  0  0  0  0  0  0  0  0
    9.0830   -0.2640    1.2570 O   0  0  0  0  0  0  0  0  0  0  0  0
   10.4400   -0.2360   -0.7020 C   0  0  0  0  0  0  0  0  0  0  0  0
   10.7900    1.1140   -0.5520 C   0  0  0  0  0  3  0  0  0  0  0  0
   11.5480    1.7650   -1.5280 C   0  0  0  0  0  3  0  0  0  0  0  0
   11.9600    1.0730   -2.6670 C   0  0  0  0  0  3  0  0  0  0  0  0
   11.6100   -0.2680   -2.8330 C   0  0  0  0  0  3  0  0  0  0  0  0
   10.8520   -0.9170   -1.8550 C   0  0  0  0  0  3  0  0  0  0  0  0
    9.0090   -3.4260    0.8600 C   0  0  0  0  0  0  0  0  0  0  0  0
    8.7700   -3.4630    2.0650 O   0  0  0  0  0  0  0  0  0  0  0  0
    8.0660   -5.6800    0.6660 O   0  0  0  0  0  1  0  0  0  0  0  0
    8.5880   -4.6920    0.0420 C   0  0  0  0  0  0  0  0  0  0  0  0
    8.7900   -4.6650   -1.2230 O   0  0  0  0  0  0  0  0  0  0  0  0
  1  2  1  0  0  0  0
  1 10  1  0  0  0  0
  2  3  2  0  0  0  0
  4  5  1  0  0  0  0
  4  2  1  0  0  0  0
  6  5  2  0  0  0  0
  7  6  1  0  0  0  0
  8  7  2  0  0  0  0
  8  9  1  0  0  0  0
  9  4  2  0  0  0  0
 10 11  2  0  0  0  0
 13 12  1  0  0  0  0
 13 10  1  0  0  0  0
 14 13  2  0  0  0  0
M  END
>  <minimizedAffinity>
-5.79340982

$$$$

 OpenBabel09122218323D

 14 14  0  0  0  0  0  0  0  0999 V2000
   10.1590   -2.1870   -0.0190 C   0  0  0  0  0  2  0  0  0  0  0  0
    9.4780   -1.3950    0.8510 C   0  0  0  0  0  0  0  0  0  0  0  0
    8.6600   -1.6710    1.7740 O   0  0  0  0  0  0  0  0  0  0  0  0
    9.8070    0.0460    0.5850 C   0  0  0  0  0  0  0  0  0  0  0  0
   10.4700    0.4290   -0.5900 C   0  0  0  0  0  3  0  0  0  0  0  0
   10.7590    1.7720   -0.8390 C   0  0  0  0  0  3  0  0  0  0  0  0
   10.3920    2.7470    0.0890 C   0  0  0  0  0  3  0  0  0  0  0  0
    9.7410    2.3790    1.2670 C   0  0  0  0  0  3  0  0  0  0  0  0
    9.4510    1.0340    1.5120 C   0  0  0  0  0  3  0  0  0  0  0  0
   10.1780   -3.6890   -0.1720 C   0  0  0  0  0  0  0  0  0  0  0  0
   11.1770   -4.4040   -0.2220 O   0  0  0  0  0  0  0  0  0  0  0  0
    8.3440   -4.7200   -1.4290 O   0  0  0  0  0  0  0  0  0  0  0  0
    8.8040   -4.4310   -0.2700 C   0  0  0  0  0  0  0  0  0  0  0  0
    8.2120   -4.7140    0.8300 O   0  0  0  0  0  1  0  0  0  0  0  0
  1  2  1  0  0  0  0
  2  3  2  0  0  0  0
  4  2  1  0  0  0  0
  4  9  1  0  0  0  0
  5  4  2  0  0  0  0
  6  5  1  0  0  0  0
  6  7  2  0  0  0  0
  7  8  1  0  0  0  0
  8  9  2  0  0  0  0
 10  1  1  0  0  0  0
 11 10  2  0  0  0  0
 12 13  2  0  0  0  0
 13 10  1  0  0  0  0
 13 14  1  0  0  0  0
M  END
>  <minimizedAffinity>
-5.73741817

$$$$

 OpenBabel09122218323D

 14 14  0  0  0  0  0  0  0  0999 V2000
    9.4340   -2.5540    1.2240 C   0  0  0  0  0  2  0  0  0  0  0  0
    9.5020   -1.2330    0.9120 C   0  0  0  0  0  0  0  0  0  0  0  0
    9.0330   -0.2100    1.4860 O   0  0  0  0  0  0  0  0  0  0  0  0
   10.2790   -1.0560   -0.3610 C   0  0  0  0  0  0  0  0  0  0  0  0
   10.2820    0.1730   -1.0380 C   0  0  0  0  0  3  0  0  0  0  0  0
   11.0200    0.3360   -2.2120 C   0  0  0  0  0  3  0  0  0  0  0  0
   11.7580   -0.7300   -2.7260 C   0  0  0  0  0  3  0  0  0  0  0  0
   11.7560   -1.9610   -2.0670 C   0  0  0  0  0  3  0  0  0  0  0  0
   11.0190   -2.1210   -0.8910 C   0  0  0  0  0  3  0  0  0  0  0  0
    8.7740   -3.2570    2.3870 C   0  0  0  0  0  0  0  0  0  0  0  0
    7.8170   -4.0260    2.3250 O   0  0  0  0  0  0  0  0  0  0  0  0
    8.5800   -3.1470    4.8280 O   0  0  0  0  0  1  0  0  0  0  0  0
    9.3540   -3.0040    3.8180 C   0  0  0  0  0  0  0  0  0  0  0  0
   10.5870   -2.6670    3.8980 O   0  0  0  0  0  0  0  0  0  0  0  0
  1 10  1  0  0  0  0
  2  1  1  0  0  0  0
  2  3  2  0  0  0  0
  4  2  1  0  0  0  0
  5  4  2  0  0  0  0
  6  5  1  0  0  0  0
  7  6  2  0  0  0  0
  7  8  1  0  0  0  0
  8  9  2  0  0  0  0
  9  4  1  0  0  0  0
 10 13  1  0  0  0  0
 11 10  2  0  0  0  0
 13 14  2  0  0  0  0
 13 12  1  0  0  0  0
M  END
>  <minimizedAffinity>
-5.68344831

$$$$

 OpenBabel09122218323D

 14 14  0  0  0  0  0  0  0  0999 V2000
   11.0490   -1.5760   -1.2370 C   0  0  0  0  0  2  0  0  0  0  0  0
   11.0090   -2.9140   -0.9990 C   0  0  0  0  0  0  0  0  0  0  0  0
   11.6530   -3.8760   -1.5050 O   0  0  0  0  0  0  0  0  0  0  0  0
    9.9800   -3.2080    0.0550 C   0  0  0  0  0  0  0  0  0  0  0  0
    9.1100   -4.3010   -0.0730 C   0  0  0  0  0  3  0  0  0  0  0  0
    8.1660   -4.5790    0.9190 C   0  0  0  0  0  3  0  0  0  0  0  0
    8.0790   -3.7620    2.0460 C   0  0  0  0  0  3  0  0  0  0  0  0
    8.9320   -2.6650    2.1810 C   0  0  0  0  0  3  0  0  0  0  0  0
    9.8770   -2.3910    1.1880 C   0  0  0  0  0  3  0  0  0  0  0  0
   11.8980   -0.7720   -2.1930 C   0  0  0  0  0  0  0  0  0  0  0  0
   12.6670   -1.2220   -3.0400 O   0  0  0  0  0  0  0  0  0  0  0  0
   12.6870    1.4870   -2.7230 O   0  0  0  0  0  0  0  0  0  0  0  0
   11.7990    0.7880   -2.1230 C   0  0  0  0  0  0  0  0  0  0  0  0
   10.8190    1.2830   -1.4620 O   0  0  0  0  0  1  0  0  0  0  0  0
  1  2  1  0  0  0  0
  2  4  1  0  0  0  0
  3  2  2  0  0  0  0
  4  9  1  0  0  0  0
  5  4  2  0  0  0  0
  5  6  1  0  0  0  0
  6  7  2  0  0  0  0
  7  8  1  0  0  0  0
  9  8  2  0  0  0  0
 10 13  1  0  0  0  0
 10  1  1  0  0  0  0
 11 10  2  0  0  0  0
 12 13  2  0  0  0  0
 13 14  1  0  0  0  0
M  END
>  <minimizedAffinity>
-5.54871607

$$$$
