
 OpenBabel09122222393D

 14 14  0  0  0  0  0  0  0  0999 V2000
   10.1750   -2.6210    0.8360 C   0  0  0  0  0  2  0  0  0  0  0  0
   10.1340   -3.2540   -0.3660 C   0  0  0  0  0  0  0  0  0  0  0  0
    9.3820   -4.1680   -0.8090 O   0  0  0  0  0  0  0  0  0  0  0  0
   11.2180   -2.7160   -1.2570 C   0  0  0  0  0  0  0  0  0  0  0  0
   11.1820   -1.3910   -1.7150 C   0  0  0  0  0  3  0  0  0  0  0  0
   12.2010   -0.8920   -2.5290 C   0  0  0  0  0  3  0  0  0  0  0  0
   13.2650   -1.7160   -2.8980 C   0  0  0  0  0  3  0  0  0  0  0  0
   13.3080   -3.0390   -2.4560 C   0  0  0  0  0  3  0  0  0  0  0  0
   12.2880   -3.5350   -1.6400 C   0  0  0  0  0  3  0  0  0  0  0  0
    9.3160   -2.7920    2.0660 C   0  0  0  0  0  0  0  0  0  0  0  0
    8.3030   -3.4810    2.1580 O   0  0  0  0  0  0  0  0  0  0  0  0
    9.2520   -0.8720    3.5900 O   0  0  0  0  0  0  0  0  0  0  0  0
    9.7440   -2.0330    3.3670 C   0  0  0  0  0  0  0  0  0  0  0  0
   10.5700   -2.6260    4.1460 O   0  0  0  0  0  1  0  0  0  0  0  0
  1 10  1  0  0  0  0
  2  1  1  0  0  0  0
  3  2  2  0  0  0  0
  4  2  1  0  0  0  0
  5  4  2  0  0  0  0
  6  5  1  0  0  0  0
  7  6  2  0  0  0  0
  7  8  1  0  0  0  0
  8  9  2  0  0  0  0
  9  4  1  0  0  0  0
 10 11  2  0  0  0  0
 10 13  1  0  0  0  0
 13 12  2  0  0  0  0
 13 14  1  0  0  0  0
M  END
>  <minimizedAffinity>
-5.88677597

$$$$
