
 OpenBabel09122222393D

 14 14  0  0  0  0  0  0  0  0999 V2000
   10.2470   -2.1410   -0.0950 C   0  0  0  0  0  2  0  0  0  0  0  0
   10.4110   -1.1650   -1.0270 C   0  0  0  0  0  0  0  0  0  0  0  0
   10.6420   -1.2200   -2.2680 O   0  0  0  0  0  0  0  0  0  0  0  0
   10.2950    0.1820   -0.3730 C   0  0  0  0  0  0  0  0  0  0  0  0
    9.6120    0.3360    0.8430 C   0  0  0  0  0  3  0  0  0  0  0  0
    9.5230    1.5890    1.4540 C   0  0  0  0  0  3  0  0  0  0  0  0
   10.1100    2.7020    0.8520 C   0  0  0  0  0  3  0  0  0  0  0  0
   10.7830    2.5640   -0.3630 C   0  0  0  0  0  3  0  0  0  0  0  0
   10.8740    1.3090   -0.9710 C   0  0  0  0  0  3  0  0  0  0  0  0
   10.2730   -3.6450   -0.2310 C   0  0  0  0  0  0  0  0  0  0  0  0
   11.2760   -4.3510   -0.3170 O   0  0  0  0  0  0  0  0  0  0  0  0
    8.4440   -4.7990   -1.3840 O   0  0  0  0  0  0  0  0  0  0  0  0
    8.9030   -4.4000   -0.2580 C   0  0  0  0  0  0  0  0  0  0  0  0
    8.3130   -4.5820    0.8650 O   0  0  0  0  0  1  0  0  0  0  0  0
  2  4  1  0  0  0  0
  2  1  1  0  0  0  0
  3  2  2  0  0  0  0
  4  5  1  0  0  0  0
  5  6  2  0  0  0  0
  7  6  1  0  0  0  0
  8  7  2  0  0  0  0
  9  4  2  0  0  0  0
  9  8  1  0  0  0  0
 10  1  1  0  0  0  0
 11 10  2  0  0  0  0
 12 13  2  0  0  0  0
 13 10  1  0  0  0  0
 13 14  1  0  0  0  0
M  END
>  <minimizedAffinity>
-5.88096285

$$$$
