
 OpenBabel09122222393D

 14 14  0  0  0  0  0  0  0  0999 V2000
    9.6530   -2.2840    0.1100 C   0  0  0  0  0  2  0  0  0  0  0  0
    9.6390   -0.9470    0.3510 C   0  0  0  0  0  0  0  0  0  0  0  0
    9.0830   -0.2640    1.2570 O   0  0  0  0  0  0  0  0  0  0  0  0
   10.4400   -0.2360   -0.7020 C   0  0  0  0  0  0  0  0  0  0  0  0
   10.7900    1.1140   -0.5520 C   0  0  0  0  0  3  0  0  0  0  0  0
   11.5480    1.7650   -1.5280 C   0  0  0  0  0  3  0  0  0  0  0  0
   11.9600    1.0730   -2.6670 C   0  0  0  0  0  3  0  0  0  0  0  0
   11.6100   -0.2680   -2.8330 C   0  0  0  0  0  3  0  0  0  0  0  0
   10.8520   -0.9170   -1.8550 C   0  0  0  0  0  3  0  0  0  0  0  0
    9.0090   -3.4260    0.8600 C   0  0  0  0  0  0  0  0  0  0  0  0
    8.7700   -3.4630    2.0650 O   0  0  0  0  0  0  0  0  0  0  0  0
    8.0660   -5.6800    0.6660 O   0  0  0  0  0  1  0  0  0  0  0  0
    8.5880   -4.6920    0.0420 C   0  0  0  0  0  0  0  0  0  0  0  0
    8.7900   -4.6650   -1.2230 O   0  0  0  0  0  0  0  0  0  0  0  0
  1  2  1  0  0  0  0
  1 10  1  0  0  0  0
  2  3  2  0  0  0  0
  4  5  1  0  0  0  0
  4  2  1  0  0  0  0
  6  5  2  0  0  0  0
  7  6  1  0  0  0  0
  8  7  2  0  0  0  0
  8  9  1  0  0  0  0
  9  4  2  0  0  0  0
 10 11  2  0  0  0  0
 13 12  1  0  0  0  0
 13 10  1  0  0  0  0
 14 13  2  0  0  0  0
M  END
>  <minimizedAffinity>
-5.79340982

$$$$
