REMARK  Name = 
REMARK  4 active torsions:
REMARK  status: ('A' for Active; 'I' for Inactive)
REMARK    1  A    between atoms: C_1  and  N_2
REMARK    2  A    between atoms: C_3  and  C_4
REMARK    3  A    between atoms: C_9  and  C_10
REMARK    4  A    between atoms: C_18  and  C_19
REMARK                            x       y       z     vdW  Elec       q    Type
REMARK                         _______ _______ _______ _____ _____    ______ ____
ROOT
ATOM      1  C   UNL     1       0.681  -0.047   0.021  0.00  0.00    +0.149 C 
ATOM      2  N   UNL     1       0.543  -0.552  -1.332  0.00  0.00    -0.341 N 
ATOM      3  C   UNL     1       0.035   0.177  -2.394  0.00  0.00    +0.056 A 
ATOM      4  C   UNL     1      -0.276  -0.720  -3.412  0.00  0.00    -0.011 A 
ATOM      5  C   UNL     1       0.101  -2.028  -2.933  0.00  0.00    +0.005 A 
ATOM      6  C   UNL     1       0.018  -3.320  -3.495  0.00  0.00    +0.011 A 
ATOM      7  C   UNL     1       0.537  -4.419  -2.810  0.00  0.00    +0.012 A 
ATOM      8  C   UNL     1       1.169  -4.272  -1.570  0.00  0.00    +0.018 A 
ATOM      9  C   UNL     1       1.284  -2.994  -0.998  0.00  0.00    +0.074 A 
ATOM     10 CL   UNL     1       2.230  -2.748   0.433  0.00  0.00    -0.081 Cl
ATOM     11  C   UNL     1       0.700  -1.886  -1.676  0.00  0.00    +0.069 A 
ENDROOT
BRANCH   3  12
ATOM     12  C   UNL     1      -0.153   1.664  -2.410  0.00  0.00    +0.036 A 
ATOM     13  C   UNL     1      -1.152   2.433  -3.057  0.00  0.00    +0.051 A 
ATOM     14  C   UNL     1      -0.886   3.750  -2.759  0.00  0.00    +0.195 A 
ATOM     15  O   UNL     1       0.214   3.845  -1.972  0.00  0.00    -0.470 OA
ATOM     16  C   UNL     1       0.653   2.576  -1.762  0.00  0.00    +0.204 A 
ENDBRANCH   3  12
BRANCH   4  17
ATOM     17  C   UNL     1      -0.819  -0.419  -4.786  0.00  0.00    +0.022 C 
ATOM     18  C   UNL     1       0.090  -0.848  -5.946  0.00  0.00    +0.008 C 
ATOM     19  C   UNL     1      -0.877  -1.009  -7.109  0.00  0.00    +0.001 C 
ATOM     20  C   UNL     1      -2.084  -1.674  -6.468  0.00  0.00    +0.001 C 
ATOM     21  C   UNL     1      -2.192  -1.048  -5.079  0.00  0.00    +0.008 C 
ENDBRANCH   4  17
BRANCH   8  22
ATOM     22  C   UNL     1       1.694  -5.511  -0.902  0.00  0.00    +0.073 C 
ATOM     23  O   UNL     1       1.306  -5.743   0.284  0.00  0.00    -0.545 OA
ATOM     24  O   UNL     1       2.429  -6.266  -1.614  0.00  0.00    -0.545 OA
ENDBRANCH   8  22
TORSDOF 3
