
 OpenBabel09122222393D

 24 27  0  0  0  0  0  0  0  0999 V2000
    2.1240  -10.2980    1.3680 C   0  0  0  0  0  1  0  0  0  0  0  0
    1.9590   -9.0010    1.9960 N   0  0  0  0  0  0  0  0  0  0  0  0
    2.9670   -8.0620    2.1350 C   0  0  0  0  0  0  0  0  0  0  0  0
    2.5470   -7.1280    3.0780 C   0  0  0  0  0  0  0  0  0  0  0  0
    1.2180   -7.5220    3.4800 C   0  0  0  0  0  0  0  0  0  0  0  0
    0.2940   -6.9890    4.4030 C   0  0  0  0  0  3  0  0  0  0  0  0
   -0.9740   -7.5570    4.5360 C   0  0  0  0  0  3  0  0  0  0  0  0
   -1.3700   -8.6450    3.7490 C   0  0  0  0  0  0  0  0  0  0  0  0
   -0.4770   -9.1810    2.8070 C   0  0  0  0  0  0  0  0  0  0  0  0
   -0.9990  -10.3930    1.6840 Cl  0  0  0  0  0  0  0  0  0  0  0  0
    0.8350   -8.6330    2.7200 C   0  0  0  0  0  0  0  0  0  0  0  0
    4.2750   -8.0830    1.4030 C   0  0  0  0  0  0  0  0  0  0  0  0
    4.5330   -7.8750    0.0260 C   0  0  0  0  0  3  0  0  0  0  0  0
    5.8940   -7.9940   -0.1400 C   0  0  0  0  0  3  0  0  0  0  0  0
    6.4930   -8.2660    1.0450 O   0  0  0  0  0  0  0  0  0  0  0  0
    5.5060   -8.3170    1.9780 C   0  0  0  0  0  3  0  0  0  0  0  0
    3.2680   -5.8910    3.5500 C   0  0  0  0  0  3  0  0  0  0  0  0
    4.0870   -5.1710    2.4690 C   0  0  0  0  0  2  0  0  0  0  0  0
    4.1760   -3.7440    2.9880 C   0  0  0  0  0  2  0  0  0  0  0  0
    2.7840   -3.4880    3.5430 C   0  0  0  0  0  2  0  0  0  0  0  0
    2.3530   -4.8160    4.1630 C   0  0  0  0  0  2  0  0  0  0  0  0
   -2.7520   -9.1950    3.9630 C   0  0  0  0  0  0  0  0  0  0  0  0
   -2.8460  -10.3490    4.4810 O   0  0  0  0  0  1  0  0  0  0  0  0
   -3.7180   -8.4190    3.6730 O   0  0  0  0  0  0  0  0  0  0  0  0
  1  2  1  0  0  0  0
  2  3  1  0  0  0  0
  2 11  1  0  0  0  0
  3  4  2  0  0  0  0
  4  5  1  0  0  0  0
  4 17  1  0  0  0  0
  5  6  1  0  0  0  0
  6  7  2  0  0  0  0
  8 22  1  0  0  0  0
  8  7  1  0  0  0  0
  9  8  2  0  0  0  0
 10  9  1  0  0  0  0
 11  9  1  0  0  0  0
 11  5  2  0  0  0  0
 12 16  2  0  0  0  0
 12  3  1  0  0  0  0
 13 12  1  0  0  0  0
 14 13  2  0  0  0  0
 14 15  1  0  0  0  0
 15 16  1  0  0  0  0
 17 21  1  0  0  0  0
 18 19  1  0  0  0  0
 18 17  1  0  0  0  0
 19 20  1  0  0  0  0
 20 21  1  0  0  0  0
 22 23  1  0  0  0  0
 24 22  2  0  0  0  0
M  END
>  <minimizedAffinity>
12.0936947

$$$$
