
 OpenBabel09122222513D

 39 43  0  0  1  0  0  0  0  0999 V2000
    4.5090   -2.3510    7.2750 N   0  0  0  0  0  0  0  0  0  0  0  0
    3.8750   -2.5430    6.0610 C   0  0  0  0  0  0  0  0  0  0  0  0
    2.6880   -1.8040    6.0830 C   0  0  0  0  0  0  0  0  0  0  0  0
    2.5860   -1.1970    7.3770 C   0  0  0  0  0  0  0  0  0  0  0  0
    1.6290   -0.3710    8.0090 C   0  0  0  0  0  3  0  0  0  0  0  0
    1.8250    0.0530    9.3300 C   0  0  0  0  0  3  0  0  0  0  0  0
    2.9640   -0.3170   10.0480 C   0  0  0  0  0  0  0  0  0  0  0  0
    3.9310   -1.1150    9.4170 C   0  0  0  0  0  3  0  0  0  0  0  0
    3.7260   -1.5520    8.0940 C   0  0  0  0  0  0  0  0  0  0  0  0
    4.3670   -3.3850    4.9740 C   0  0  0  0  0  0  0  0  0  0  0  0
    5.7350   -3.5150    4.7210 C   0  0  0  0  0  3  0  0  0  0  0  0
    6.1760   -4.2300    3.6030 C   0  0  0  0  0  3  0  0  0  0  0  0
    5.2460   -4.8030    2.7360 C   0  0  0  0  0  0  0  0  0  0  0  0
    5.7810   -5.7010    1.3700 Cl  0  0  0  0  0  0  0  0  0  0  0  0
    3.8800   -4.6850    2.9810 C   0  0  0  0  0  3  0  0  0  0  0  0
    3.4430   -3.9800    4.1010 C   0  0  0  0  0  3  0  0  0  0  0  0
    1.6990   -1.6710    4.9410 C   0  0  0  0  0  3  0  0  0  0  0  0
    0.5230   -0.7420    5.2850 C   0  0  0  0  0  2  0  0  0  0  0  0
   -0.4750   -0.6500    4.1330 C   0  0  0  0  0  2  0  0  0  0  0  0
    0.2040   -0.2380    2.8300 C   0  0  0  0  0  2  0  0  0  0  0  0
    1.3620   -1.1680    2.4810 C   0  0  0  0  0  2  0  0  0  0  0  0
    2.3740   -1.2620    3.6210 C   0  0  0  0  0  2  0  0  0  0  0  0
    3.1650    0.1190   11.4880 C   0  0  0  0  0  0  0  0  0  0  0  0
    2.1130    0.2800   12.1870 O   0  0  0  0  0  1  0  0  0  0  0  0
    4.3590    0.3010   11.8790 O   0  0  0  0  0  0  0  0  0  0  0  0
    5.8350   -2.8030    7.6870 C   0  0  0  0  0  2  0  0  0  0  0  0
    5.7240   -4.7880    9.2600 N   0  0  0  0  0  0  0  0  0  0  0  0
    5.3450   -5.7340    8.2110 C   0  0  0  0  0  1  0  0  0  0  0  0
    5.9990   -3.4410    9.0490 C   0  0  0  0  0  0  0  0  0  0  0  0
    6.2740   -2.7170   10.0180 O   0  0  0  0  0  0  0  0  0  0  0  0
    5.6430   -5.2920   10.6330 C   0  0  0  0  0  2  0  0  0  0  0  0
    2.0580   -2.4990   12.7600 C   0  0  0  0  0  1  0  0  0  0  0  0
    2.3890   -3.8650   12.2160 N   0  0  0  0  0  4  0  0  0  0  0  0
    1.4430   -4.2640   11.1250 C   0  0  0  0  0  2  0  0  0  0  0  0
    1.7790   -5.6670   10.6570 C   0  0  0  0  0  2  0  0  0  0  0  0
    3.2190   -5.7460   10.1650 C   0  0  0  0  0  2  0  0  0  0  0  0
    4.2230   -5.3120   11.2460 C   0  0  2  0  0  3  0  0  0  0  0  0
    3.8490   -3.9340   11.8150 C   0  0  0  0  0  2  0  0  0  0  0  0
    2.2690   -4.5210   13.0000 H   0  0  0  0  0  0  0  0  0  0  0  0
  1 26  1  0  0  0  0
  1  9  1  0  0  0  0
  2  3  2  0  0  0  0
  2  1  1  0  0  0  0
  3  4  1  0  0  0  0
  4  5  2  0  0  0  0
  4  9  1  0  0  0  0
  5  6  1  0  0  0  0
  6  7  2  0  0  0  0
  7 23  1  0  0  0  0
  8  7  1  0  0  0  0
  9  8  2  0  0  0  0
 10  2  1  0  0  0  0
 11 10  1  0  0  0  0
 12 11  2  0  0  0  0
 13 15  2  0  0  0  0
 13 12  1  0  0  0  0
 14 13  1  0  0  0  0
 15 16  1  0  0  0  0
 16 10  2  0  0  0  0
 17 18  1  0  0  0  0
 17  3  1  0  0  0  0
 19 18  1  0  0  0  0
 20 19  1  0  0  0  0
 21 20  1  0  0  0  0
 21 22  1  0  0  0  0
 22 17  1  0  0  0  0
 23 25  2  0  0  0  0
 23 24  1  0  0  0  0
 26 29  1  0  0  0  0
 27 31  1  0  0  0  0
 28 27  1  0  0  0  0
 29 27  1  0  0  0  0
 29 30  2  0  0  0  0
 33 32  1  0  0  0  0
 33 39  1  0  0  0  0
 34 33  1  0  0  0  0
 35 34  1  0  0  0  0
 36 35  1  0  0  0  0
 36 37  1  0  0  0  0
 37 31  1  6  0  0  0
 37 38  1  0  0  0  0
 38 33  1  0  0  0  0
M  END
>  <minimizedAffinity>
3.38101912

$$$$

 OpenBabel09122222513D

 39 43  0  0  1  0  0  0  0  0999 V2000
    2.5450   -2.9250    7.4820 N   0  0  0  0  0  0  0  0  0  0  0  0
    3.3250   -2.4650    8.5260 C   0  0  0  0  0  0  0  0  0  0  0  0
    3.3630   -1.0700    8.4420 C   0  0  0  0  0  0  0  0  0  0  0  0
    2.6260   -0.6920    7.2730 C   0  0  0  0  0  0  0  0  0  0  0  0
    2.3270    0.5400    6.6480 C   0  0  0  0  0  3  0  0  0  0  0  0
    1.5690    0.5680    5.4700 C   0  0  0  0  0  3  0  0  0  0  0  0
    1.0860   -0.6080    4.8910 C   0  0  0  0  0  0  0  0  0  0  0  0
    1.3570   -1.8310    5.5220 C   0  0  0  0  0  3  0  0  0  0  0  0
    2.1300   -1.8600    6.6980 C   0  0  0  0  0  0  0  0  0  0  0  0
    3.9960   -3.3050    9.5150 C   0  0  0  0  0  0  0  0  0  0  0  0
    3.2960   -3.8470   10.5970 C   0  0  0  0  0  3  0  0  0  0  0  0
    3.9820   -4.5470   11.5950 C   0  0  0  0  0  3  0  0  0  0  0  0
    5.3660   -4.6930   11.5120 C   0  0  0  0  0  0  0  0  0  0  0  0
    6.2150   -5.5700   12.7240 Cl  0  0  0  0  0  0  0  0  0  0  0  0
    6.0730   -4.1620   10.4360 C   0  0  0  0  0  3  0  0  0  0  0  0
    5.3860   -3.4730    9.4380 C   0  0  0  0  0  3  0  0  0  0  0  0
    4.0570   -0.1360    9.4150 C   0  0  0  0  0  3  0  0  0  0  0  0
    3.5540   -0.3100   10.8580 C   0  0  0  0  0  2  0  0  0  0  0  0
    4.2440    0.6620   11.8130 C   0  0  0  0  0  2  0  0  0  0  0  0
    5.7640    0.5530   11.7300 C   0  0  0  0  0  2  0  0  0  0  0  0
    6.2630    0.7390   10.3010 C   0  0  0  0  0  2  0  0  0  0  0  0
    5.5900   -0.2350    9.3360 C   0  0  0  0  0  2  0  0  0  0  0  0
    0.2900   -0.5810    3.6000 C   0  0  0  0  0  0  0  0  0  0  0  0
   -0.9640   -0.3860    3.7060 O   0  0  0  0  0  1  0  0  0  0  0  0
    0.9290   -0.7670    2.5180 O   0  0  0  0  0  0  0  0  0  0  0  0
    2.0990   -4.2910    7.2160 C   0  0  0  0  0  2  0  0  0  0  0  0
    4.2630   -5.1290    6.1950 N   0  0  0  0  0  0  0  0  0  0  0  0
    5.1130   -4.4100    7.1420 C   0  0  0  0  0  1  0  0  0  0  0  0
    2.8720   -5.1320    6.2240 C   0  0  0  0  0  0  0  0  0  0  0  0
    2.2460   -5.7460    5.3470 O   0  0  0  0  0  0  0  0  0  0  0  0
    4.9530   -5.7450    5.0600 C   0  0  0  0  0  2  0  0  0  0  0  0
    5.2360   -5.4790    0.0570 C   0  0  0  0  0  1  0  0  0  0  0  0
    5.2430   -4.6740    1.3310 N   0  0  0  0  0  4  0  0  0  0  0  0
    4.1550   -3.6430    1.3340 C   0  0  0  0  0  2  0  0  0  0  0  0
    4.2440   -2.8230    2.6060 C   0  0  0  0  0  2  0  0  0  0  0  0
    4.1320   -3.7120    3.8370 C   0  0  0  0  0  2  0  0  0  0  0  0
    5.2120   -4.8080    3.8560 C   0  0  2  0  0  3  0  0  0  0  0  0
    5.2160   -5.5930    2.5360 C   0  0  0  0  0  2  0  0  0  0  0  0
    6.1480   -4.1850    1.3560 H   0  0  0  0  0  0  0  0  0  0  0  0
  1  2  1  0  0  0  0
  2 10  1  0  0  0  0
  3  2  2  0  0  0  0
  3 17  1  0  0  0  0
  4  3  1  0  0  0  0
  5  4  2  0  0  0  0
  6  5  1  0  0  0  0
  7  6  2  0  0  0  0
  7  8  1  0  0  0  0
  8  9  2  0  0  0  0
  9  4  1  0  0  0  0
  9  1  1  0  0  0  0
 10 11  1  0  0  0  0
 11 12  2  0  0  0  0
 13 12  1  0  0  0  0
 13 14  1  0  0  0  0
 15 13  2  0  0  0  0
 16 10  2  0  0  0  0
 16 15  1  0  0  0  0
 17 18  1  0  0  0  0
 18 19  1  0  0  0  0
 20 19  1  0  0  0  0
 21 20  1  0  0  0  0
 22 17  1  0  0  0  0
 22 21  1  0  0  0  0
 23 24  1  0  0  0  0
 23  7  1  0  0  0  0
 25 23  2  0  0  0  0
 26  1  1  0  0  0  0
 27 29  1  0  0  0  0
 27 28  1  0  0  0  0
 29 26  1  0  0  0  0
 30 29  2  0  0  0  0
 31 27  1  0  0  0  0
 32 33  1  0  0  0  0
 33 34  1  0  0  0  0
 33 39  1  0  0  0  0
 33 38  1  0  0  0  0
 34 35  1  0  0  0  0
 35 36  1  0  0  0  0
 36 37  1  0  0  0  0
 37 31  1  1  0  0  0
 38 37  1  0  0  0  0
M  END
>  <minimizedAffinity>
3.50434351

$$$$

 OpenBabel09122222513D

 39 43  0  0  1  0  0  0  0  0999 V2000
    3.5370   -0.9810    8.7030 N   0  0  0  0  0  0  0  0  0  0  0  0
    2.8760   -2.1830    8.8770 C   0  0  0  0  0  0  0  0  0  0  0  0
    2.6210   -2.3300   10.2440 C   0  0  0  0  0  0  0  0  0  0  0  0
    3.2010   -1.2030   10.9110 C   0  0  0  0  0  0  0  0  0  0  0  0
    3.3000   -0.7950   12.2610 C   0  0  0  0  0  3  0  0  0  0  0  0
    3.9650    0.3920   12.5930 C   0  0  0  0  0  3  0  0  0  0  0  0
    4.5360    1.2020   11.6090 C   0  0  0  0  0  0  0  0  0  0  0  0
    4.4180    0.8170   10.2660 C   0  0  0  0  0  3  0  0  0  0  0  0
    3.7610   -0.3840    9.9330 C   0  0  0  0  0  0  0  0  0  0  0  0
    2.5350   -3.1230    7.8120 C   0  0  0  0  0  0  0  0  0  0  0  0
    3.4200   -4.1320    7.4260 C   0  0  0  0  0  3  0  0  0  0  0  0
    3.1230   -4.9430    6.3260 C   0  0  0  0  0  3  0  0  0  0  0  0
    1.9450   -4.7330    5.6100 C   0  0  0  0  0  0  0  0  0  0  0  0
    1.5620   -5.7370    4.2670 Cl  0  0  0  0  0  0  0  0  0  0  0  0
    1.0520   -3.7330    5.9870 C   0  0  0  0  0  3  0  0  0  0  0  0
    1.3470   -2.9320    7.0910 C   0  0  0  0  0  3  0  0  0  0  0  0
    1.8660   -3.4750   10.8920 C   0  0  0  0  0  3  0  0  0  0  0  0
    0.8140   -2.9880   11.9030 C   0  0  0  0  0  2  0  0  0  0  0  0
    0.0890   -4.1580   12.5650 C   0  0  0  0  0  2  0  0  0  0  0  0
   -0.5180   -5.1030   11.5320 C   0  0  0  0  0  2  0  0  0  0  0  0
    0.5270   -5.5960   10.5380 C   0  0  0  0  0  2  0  0  0  0  0  0
    1.2530   -4.4360    9.8590 C   0  0  0  0  0  2  0  0  0  0  0  0
    5.2810    2.4740   11.9700 C   0  0  0  0  0  0  0  0  0  0  0  0
    4.8600    3.5520   11.4400 O   0  0  0  0  0  0  0  0  0  0  0  0
    6.2700    2.3640   12.7590 O   0  0  0  0  0  1  0  0  0  0  0  0
    3.9020   -0.3200    7.4520 C   0  0  0  0  0  2  0  0  0  0  0  0
    4.3570   -1.7560    5.4140 N   0  0  0  0  0  0  0  0  0  0  0  0
    5.6950   -2.1450    5.8540 C   0  0  0  0  0  1  0  0  0  0  0  0
    3.4860   -0.9520    6.1420 C   0  0  0  0  0  0  0  0  0  0  0  0
    2.3850   -0.6510    5.6570 O   0  0  0  0  0  0  0  0  0  0  0  0
    4.0050   -2.1240    4.0400 C   0  0  0  0  0  2  0  0  0  0  0  0
    4.3260   -5.3490    0.2100 C   0  0  0  0  0  1  0  0  0  0  0  0
    4.6080   -5.1550    1.6770 N   0  0  0  0  0  4  0  0  0  0  0  0
    6.0580   -5.3680    1.9900 C   0  0  0  0  0  2  0  0  0  0  0  0
    6.2750   -5.2230    3.4830 C   0  0  0  0  0  2  0  0  0  0  0  0
    5.8250   -3.8520    3.9690 C   0  0  0  0  0  2  0  0  0  0  0  0
    4.3480   -3.5780    3.6370 C   0  0  2  0  0  3  0  0  0  0  0  0
    4.0720   -3.8160    2.1450 C   0  0  0  0  0  2  0  0  0  0  0  0
    4.0630   -5.8760    2.1700 H   0  0  0  0  0  0  0  0  0  0  0  0
  1  2  1  0  0  0  0
  1  9  1  0  0  0  0
  2  3  2  0  0  0  0
  3 17  1  0  0  0  0
  3  4  1  0  0  0  0
  4  5  1  0  0  0  0
  5  6  2  0  0  0  0
  7 23  1  0  0  0  0
  7  6  1  0  0  0  0
  8  7  2  0  0  0  0
  9  8  1  0  0  0  0
  9  4  2  0  0  0  0
 10  2  1  0  0  0  0
 11 10  1  0  0  0  0
 12 11  2  0  0  0  0
 13 15  2  0  0  0  0
 13 12  1  0  0  0  0
 14 13  1  0  0  0  0
 15 16  1  0  0  0  0
 16 10  2  0  0  0  0
 17 18  1  0  0  0  0
 18 19  1  0  0  0  0
 20 19  1  0  0  0  0
 21 20  1  0  0  0  0
 22 21  1  0  0  0  0
 22 17  1  0  0  0  0
 23 25  1  0  0  0  0
 24 23  2  0  0  0  0
 26  1  1  0  0  0  0
 27 28  1  0  0  0  0
 27 29  1  0  0  0  0
 29 26  1  0  0  0  0
 30 29  2  0  0  0  0
 31 27  1  0  0  0  0
 32 33  1  0  0  0  0
 33 34  1  0  0  0  0
 33 38  1  0  0  0  0
 33 39  1  0  0  0  0
 34 35  1  0  0  0  0
 35 36  1  0  0  0  0
 37 36  1  0  0  0  0
 37 31  1  6  0  0  0
 38 37  1  0  0  0  0
M  END
>  <minimizedAffinity>
6.19339037

$$$$
