
 OpenBabel09132204463D

 39 43  0  0  1  0  0  0  0  0999 V2000
    3.5370   -0.9810    8.7030 N   0  0  0  0  0  0  0  0  0  0  0  0
    2.8760   -2.1830    8.8770 C   0  0  0  0  0  0  0  0  0  0  0  0
    2.6210   -2.3300   10.2440 C   0  0  0  0  0  0  0  0  0  0  0  0
    3.2010   -1.2030   10.9110 C   0  0  0  0  0  0  0  0  0  0  0  0
    3.3000   -0.7950   12.2610 C   0  0  0  0  0  3  0  0  0  0  0  0
    3.9650    0.3920   12.5930 C   0  0  0  0  0  3  0  0  0  0  0  0
    4.5360    1.2020   11.6090 C   0  0  0  0  0  0  0  0  0  0  0  0
    4.4180    0.8170   10.2660 C   0  0  0  0  0  3  0  0  0  0  0  0
    3.7610   -0.3840    9.9330 C   0  0  0  0  0  0  0  0  0  0  0  0
    2.5350   -3.1230    7.8120 C   0  0  0  0  0  0  0  0  0  0  0  0
    3.4200   -4.1320    7.4260 C   0  0  0  0  0  3  0  0  0  0  0  0
    3.1230   -4.9430    6.3260 C   0  0  0  0  0  3  0  0  0  0  0  0
    1.9450   -4.7330    5.6100 C   0  0  0  0  0  0  0  0  0  0  0  0
    1.5620   -5.7370    4.2670 Cl  0  0  0  0  0  0  0  0  0  0  0  0
    1.0520   -3.7330    5.9870 C   0  0  0  0  0  3  0  0  0  0  0  0
    1.3470   -2.9320    7.0910 C   0  0  0  0  0  3  0  0  0  0  0  0
    1.8660   -3.4750   10.8920 C   0  0  0  0  0  3  0  0  0  0  0  0
    0.8140   -2.9880   11.9030 C   0  0  0  0  0  2  0  0  0  0  0  0
    0.0890   -4.1580   12.5650 C   0  0  0  0  0  2  0  0  0  0  0  0
   -0.5180   -5.1030   11.5320 C   0  0  0  0  0  2  0  0  0  0  0  0
    0.5270   -5.5960   10.5380 C   0  0  0  0  0  2  0  0  0  0  0  0
    1.2530   -4.4360    9.8590 C   0  0  0  0  0  2  0  0  0  0  0  0
    5.2810    2.4740   11.9700 C   0  0  0  0  0  0  0  0  0  0  0  0
    4.8600    3.5520   11.4400 O   0  0  0  0  0  0  0  0  0  0  0  0
    6.2700    2.3640   12.7590 O   0  0  0  0  0  1  0  0  0  0  0  0
    3.9020   -0.3200    7.4520 C   0  0  0  0  0  2  0  0  0  0  0  0
    4.3570   -1.7560    5.4140 N   0  0  0  0  0  0  0  0  0  0  0  0
    5.6950   -2.1450    5.8540 C   0  0  0  0  0  1  0  0  0  0  0  0
    3.4860   -0.9520    6.1420 C   0  0  0  0  0  0  0  0  0  0  0  0
    2.3850   -0.6510    5.6570 O   0  0  0  0  0  0  0  0  0  0  0  0
    4.0050   -2.1240    4.0400 C   0  0  0  0  0  2  0  0  0  0  0  0
    4.3260   -5.3490    0.2100 C   0  0  0  0  0  1  0  0  0  0  0  0
    4.6080   -5.1550    1.6770 N   0  0  0  0  0  4  0  0  0  0  0  0
    6.0580   -5.3680    1.9900 C   0  0  0  0  0  2  0  0  0  0  0  0
    6.2750   -5.2230    3.4830 C   0  0  0  0  0  2  0  0  0  0  0  0
    5.8250   -3.8520    3.9690 C   0  0  0  0  0  2  0  0  0  0  0  0
    4.3480   -3.5780    3.6370 C   0  0  2  0  0  3  0  0  0  0  0  0
    4.0720   -3.8160    2.1450 C   0  0  0  0  0  2  0  0  0  0  0  0
    4.0630   -5.8760    2.1700 H   0  0  0  0  0  0  0  0  0  0  0  0
  1  2  1  0  0  0  0
  1  9  1  0  0  0  0
  2  3  2  0  0  0  0
  3 17  1  0  0  0  0
  3  4  1  0  0  0  0
  4  5  1  0  0  0  0
  5  6  2  0  0  0  0
  7 23  1  0  0  0  0
  7  6  1  0  0  0  0
  8  7  2  0  0  0  0
  9  8  1  0  0  0  0
  9  4  2  0  0  0  0
 10  2  1  0  0  0  0
 11 10  1  0  0  0  0
 12 11  2  0  0  0  0
 13 15  2  0  0  0  0
 13 12  1  0  0  0  0
 14 13  1  0  0  0  0
 15 16  1  0  0  0  0
 16 10  2  0  0  0  0
 17 18  1  0  0  0  0
 18 19  1  0  0  0  0
 20 19  1  0  0  0  0
 21 20  1  0  0  0  0
 22 21  1  0  0  0  0
 22 17  1  0  0  0  0
 23 25  1  0  0  0  0
 24 23  2  0  0  0  0
 26  1  1  0  0  0  0
 27 28  1  0  0  0  0
 27 29  1  0  0  0  0
 29 26  1  0  0  0  0
 30 29  2  0  0  0  0
 31 27  1  0  0  0  0
 32 33  1  0  0  0  0
 33 34  1  0  0  0  0
 33 38  1  0  0  0  0
 33 39  1  0  0  0  0
 34 35  1  0  0  0  0
 35 36  1  0  0  0  0
 37 36  1  0  0  0  0
 37 31  1  6  0  0  0
 38 37  1  0  0  0  0
M  END
>  <minimizedAffinity>
6.19339037

$$$$
