
 OpenBabel09132204463D

 39 43  0  0  1  0  0  0  0  0999 V2000
    2.5450   -2.9250    7.4820 N   0  0  0  0  0  0  0  0  0  0  0  0
    3.3250   -2.4650    8.5260 C   0  0  0  0  0  0  0  0  0  0  0  0
    3.3630   -1.0700    8.4420 C   0  0  0  0  0  0  0  0  0  0  0  0
    2.6260   -0.6920    7.2730 C   0  0  0  0  0  0  0  0  0  0  0  0
    2.3270    0.5400    6.6480 C   0  0  0  0  0  3  0  0  0  0  0  0
    1.5690    0.5680    5.4700 C   0  0  0  0  0  3  0  0  0  0  0  0
    1.0860   -0.6080    4.8910 C   0  0  0  0  0  0  0  0  0  0  0  0
    1.3570   -1.8310    5.5220 C   0  0  0  0  0  3  0  0  0  0  0  0
    2.1300   -1.8600    6.6980 C   0  0  0  0  0  0  0  0  0  0  0  0
    3.9960   -3.3050    9.5150 C   0  0  0  0  0  0  0  0  0  0  0  0
    3.2960   -3.8470   10.5970 C   0  0  0  0  0  3  0  0  0  0  0  0
    3.9820   -4.5470   11.5950 C   0  0  0  0  0  3  0  0  0  0  0  0
    5.3660   -4.6930   11.5120 C   0  0  0  0  0  0  0  0  0  0  0  0
    6.2150   -5.5700   12.7240 Cl  0  0  0  0  0  0  0  0  0  0  0  0
    6.0730   -4.1620   10.4360 C   0  0  0  0  0  3  0  0  0  0  0  0
    5.3860   -3.4730    9.4380 C   0  0  0  0  0  3  0  0  0  0  0  0
    4.0570   -0.1360    9.4150 C   0  0  0  0  0  3  0  0  0  0  0  0
    3.5540   -0.3100   10.8580 C   0  0  0  0  0  2  0  0  0  0  0  0
    4.2440    0.6620   11.8130 C   0  0  0  0  0  2  0  0  0  0  0  0
    5.7640    0.5530   11.7300 C   0  0  0  0  0  2  0  0  0  0  0  0
    6.2630    0.7390   10.3010 C   0  0  0  0  0  2  0  0  0  0  0  0
    5.5900   -0.2350    9.3360 C   0  0  0  0  0  2  0  0  0  0  0  0
    0.2900   -0.5810    3.6000 C   0  0  0  0  0  0  0  0  0  0  0  0
   -0.9640   -0.3860    3.7060 O   0  0  0  0  0  1  0  0  0  0  0  0
    0.9290   -0.7670    2.5180 O   0  0  0  0  0  0  0  0  0  0  0  0
    2.0990   -4.2910    7.2160 C   0  0  0  0  0  2  0  0  0  0  0  0
    4.2630   -5.1290    6.1950 N   0  0  0  0  0  0  0  0  0  0  0  0
    5.1130   -4.4100    7.1420 C   0  0  0  0  0  1  0  0  0  0  0  0
    2.8720   -5.1320    6.2240 C   0  0  0  0  0  0  0  0  0  0  0  0
    2.2460   -5.7460    5.3470 O   0  0  0  0  0  0  0  0  0  0  0  0
    4.9530   -5.7450    5.0600 C   0  0  0  0  0  2  0  0  0  0  0  0
    5.2360   -5.4790    0.0570 C   0  0  0  0  0  1  0  0  0  0  0  0
    5.2430   -4.6740    1.3310 N   0  0  0  0  0  4  0  0  0  0  0  0
    4.1550   -3.6430    1.3340 C   0  0  0  0  0  2  0  0  0  0  0  0
    4.2440   -2.8230    2.6060 C   0  0  0  0  0  2  0  0  0  0  0  0
    4.1320   -3.7120    3.8370 C   0  0  0  0  0  2  0  0  0  0  0  0
    5.2120   -4.8080    3.8560 C   0  0  2  0  0  3  0  0  0  0  0  0
    5.2160   -5.5930    2.5360 C   0  0  0  0  0  2  0  0  0  0  0  0
    6.1480   -4.1850    1.3560 H   0  0  0  0  0  0  0  0  0  0  0  0
  1  2  1  0  0  0  0
  2 10  1  0  0  0  0
  3  2  2  0  0  0  0
  3 17  1  0  0  0  0
  4  3  1  0  0  0  0
  5  4  2  0  0  0  0
  6  5  1  0  0  0  0
  7  6  2  0  0  0  0
  7  8  1  0  0  0  0
  8  9  2  0  0  0  0
  9  4  1  0  0  0  0
  9  1  1  0  0  0  0
 10 11  1  0  0  0  0
 11 12  2  0  0  0  0
 13 12  1  0  0  0  0
 13 14  1  0  0  0  0
 15 13  2  0  0  0  0
 16 10  2  0  0  0  0
 16 15  1  0  0  0  0
 17 18  1  0  0  0  0
 18 19  1  0  0  0  0
 20 19  1  0  0  0  0
 21 20  1  0  0  0  0
 22 17  1  0  0  0  0
 22 21  1  0  0  0  0
 23 24  1  0  0  0  0
 23  7  1  0  0  0  0
 25 23  2  0  0  0  0
 26  1  1  0  0  0  0
 27 29  1  0  0  0  0
 27 28  1  0  0  0  0
 29 26  1  0  0  0  0
 30 29  2  0  0  0  0
 31 27  1  0  0  0  0
 32 33  1  0  0  0  0
 33 34  1  0  0  0  0
 33 39  1  0  0  0  0
 33 38  1  0  0  0  0
 34 35  1  0  0  0  0
 35 36  1  0  0  0  0
 36 37  1  0  0  0  0
 37 31  1  1  0  0  0
 38 37  1  0  0  0  0
M  END
>  <minimizedAffinity>
3.50434351

$$$$
