REMARK  Name = 
REMARK  9 active torsions:
REMARK  status: ('A' for Active; 'I' for Inactive)
REMARK    1  A    between atoms: C_1  and  C_2
REMARK    2  A    between atoms: C_2  and  O_3
REMARK    3  A    between atoms: O_3  and  C_4
REMARK    4  A    between atoms: C_4  and  C_6
REMARK    5  A    between atoms: C_7  and  N_8
REMARK    6  A    between atoms: N_11  and  S_12
REMARK    7  A    between atoms: S_12  and  C_15
REMARK    8  A    between atoms: C_18  and  C_19
REMARK    9  A    between atoms: C_26  and  C_27
REMARK                            x       y       z     vdW  Elec       q    Type
REMARK                         _______ _______ _______ _____ _____    ______ ____
ROOT
ATOM      1  N   UNL     1       0.289   4.477  -1.180  0.00  0.00    -0.262 N 
ATOM      2  C   UNL     1       0.782   4.534   0.086  0.00  0.00    +0.323 C 
ATOM      3  O   UNL     1       0.112   4.964   1.014  0.00  0.00    -0.251 OA
ATOM      4  N   UNL     1       2.095   4.110   0.327  0.00  0.00    -0.169 N 
ATOM      5  H   UNL     1      -0.465   5.112  -1.404  0.00  0.00    +0.157 HD
ATOM      6  H   UNL     1       2.329   4.296   1.302  0.00  0.00    +0.178 HD
ENDROOT
BRANCH   1   8
ATOM      7  C   UNL     1       2.183   2.640  -2.149  0.00  0.00    +0.091 A 
ATOM      8  C   UNL     1       1.087   3.938  -2.148  0.00  0.00    +0.088 A 
ATOM      9  S   UNL     1       1.609   5.652  -3.556  0.00  0.00    -0.077 S 
ATOM     10  C   UNL     1       3.689   4.366  -4.178  0.00  0.00    -0.004 A 
ATOM     11  C   UNL     1       3.684   2.845  -3.250  0.00  0.00    -0.021 A 
ATOM     12  C   UNL     1       4.782   1.843  -3.395  0.00  0.00    +0.040 C 
ATOM     13  C   UNL     1       6.033   2.475  -4.030  0.00  0.00    -0.009 C 
ATOM     14  C   UNL     1       7.064   1.384  -4.324  0.00  0.00    +0.008 C 
ATOM     15  C   UNL     1       5.693   3.251  -5.321  0.00  0.00    +0.009 C 
ATOM     16  C   UNL     1       4.972   4.601  -5.075  0.00  0.00    +0.043 C 
BRANCH   7  17
ATOM     17  C   UNL     1       1.986   1.414  -1.363  0.00  0.00    +0.342 C 
ATOM     18  O   UNL     1       2.735   0.449  -1.439  0.00  0.00    -0.245 OA
BRANCH  17  19
ATOM     19  O   UNL     1       0.860   1.464  -0.600  0.00  0.00    -0.461 OA
BRANCH  19  21
ATOM     20  C   UNL     1      -0.214  -0.702  -0.538  0.00  0.00    +0.048 C 
ATOM     21  C   UNL     1       0.610   0.318   0.225  0.00  0.00    +0.229 C 
ENDBRANCH  19  21
ENDBRANCH  17  19
ENDBRANCH   7  17
ENDBRANCH   1   8
BRANCH   4  22
ATOM     22  S   UNL     1       3.447   4.486  -0.601  0.00  0.00    +0.076 S 
ATOM     23  O   UNL     1       3.811   5.812  -0.138  0.00  0.00    -0.150 OA
ATOM     24  O   UNL     1       4.395   3.403  -0.447  0.00  0.00    -0.150 OA
BRANCH  22  25
ATOM     25  C   UNL     1       3.044   4.671  -2.487  0.00  0.00    +0.109 A 
ATOM     26  C   UNL     1       3.851   6.184  -2.949  0.00  0.00    +0.029 A 
ATOM     27  C   UNL     1       3.640   6.754  -4.539  0.00  0.00    +0.005 A 
ATOM     28  C   UNL     1       2.763   5.926  -5.781  0.00  0.00    -0.050 A 
ATOM     29  C   UNL     1       2.650   6.616  -7.114  0.00  0.00    +0.044 C 
ATOM     30  C   UNL     1       1.989   4.431  -5.588  0.00  0.00    +0.005 A 
ATOM     31  C   UNL     1       2.002   3.712  -3.984  0.00  0.00    +0.029 A 
ENDBRANCH  22  25
ENDBRANCH   4  22
TORSDOF 6
