REMARK  Name = 
REMARK  7 active torsions:
REMARK  status: ('A' for Active; 'I' for Inactive)
REMARK    1  A    between atoms: C_1  and  C_2
REMARK    2  A    between atoms: C_2  and  C_3
REMARK    3  A    between atoms: C_3  and  C_4
REMARK    4  A    between atoms: C_3  and  N_6
REMARK    5  A    between atoms: C_4  and  C_5
REMARK    6  A    between atoms: C_7  and  C_8
REMARK    7  A    between atoms: C_17  and  C_18
REMARK                            x       y       z     vdW  Elec       q    Type
REMARK                         _______ _______ _______ _____ _____    ______ ____
ROOT
ATOM      1  N   UNL     1       0.664   1.056  -3.590  0.00  0.00    -0.319 N 
ATOM      2  C   UNL     1      -0.152   0.693  -4.651  0.00  0.00    +0.160 A 
ATOM      3  N   UNL     1      -0.403   1.742  -5.419  0.00  0.00    -0.226 NA
ATOM      4  C   UNL     1       0.313   2.788  -4.906  0.00  0.00    +0.090 A 
ATOM      5  C   UNL     1       0.398   4.116  -5.352  0.00  0.00    +0.039 A 
ATOM      6  C   UNL     1       1.184   5.045  -4.643  0.00  0.00    -0.001 A 
ATOM      7  C   UNL     1       1.876   4.611  -3.501  0.00  0.00    +0.012 A 
ATOM      8  C   UNL     1       1.803   3.289  -3.041  0.00  0.00    +0.028 A 
ATOM      9  C   UNL     1       1.008   2.393  -3.770  0.00  0.00    +0.069 A 
ENDROOT
BRANCH   2  10
ATOM     10  C   UNL     1      -0.735  -0.619  -4.921  0.00  0.00    +0.106 A 
ATOM     11  C   UNL     1      -2.112  -0.758  -5.063  0.00  0.00    +0.031 A 
ATOM     12  C   UNL     1      -2.625  -1.997  -5.438  0.00  0.00    +0.004 A 
ATOM     13  C   UNL     1      -1.749  -3.048  -5.683  0.00  0.00    +0.020 A 
ATOM     14  C   UNL     1      -0.391  -2.815  -5.540  0.00  0.00    +0.111 A 
ATOM     15  N   UNL     1       0.135  -1.630  -5.159  0.00  0.00    -0.252 NA
ENDBRANCH   2  10
BRANCH   6  16
ATOM     16  C   UNL     1       1.272   6.489  -5.095  0.00  0.00    +0.072 C 
ATOM     17  O   UNL     1       0.607   6.819  -6.127  0.00  0.00    -0.545 OA
ATOM     18  O   UNL     1       2.004   7.268  -4.404  0.00  0.00    -0.545 OA
ENDBRANCH   6  16
BRANCH   1  19
ATOM     19  C   UNL     1       0.950   0.337  -2.338  0.00  0.00    +0.089 C 
BRANCH  19  21
ATOM     20  C   UNL     1       0.221   0.373   0.110  0.00  0.00    +0.006 C 
ATOM     21  C   UNL     1      -0.219   0.500  -1.344  0.00  0.00    +0.022 C 
ENDBRANCH  19  21
BRANCH  19  22
ATOM     22  C   UNL     1       1.553  -1.080  -2.473  0.00  0.00    +0.022 C 
ATOM     23  C   UNL     1       0.639  -2.254  -2.138  0.00  0.00    +0.006 C 
ENDBRANCH  19  22
ENDBRANCH   1  19
TORSDOF 5
