
 OpenBabel09122218113D

 23 25  0  0  0  0  0  0  0  0999 V2000
   -1.3610    4.9790   -7.6550 N   0  0  0  0  0  0  0  0  0  0  0  0
    0.0060    5.2050   -7.5930 C   0  0  0  0  0  0  0  0  0  0  0  0
    0.2990    6.3940   -8.0970 N   0  0  0  0  0  0  0  0  0  0  0  0
   -0.8880    6.9890   -8.4230 C   0  0  0  0  0  0  0  0  0  0  0  0
   -1.1300    8.2530   -8.9840 C   0  0  0  0  0  3  0  0  0  0  0  0
   -2.4500    8.6530   -9.2680 C   0  0  0  0  0  0  0  0  0  0  0  0
   -3.5010    7.7720   -8.9710 C   0  0  0  0  0  3  0  0  0  0  0  0
   -3.2790    6.5070   -8.4100 C   0  0  0  0  0  3  0  0  0  0  0  0
   -1.9520    6.1400   -8.1450 C   0  0  0  0  0  0  0  0  0  0  0  0
    1.0410    4.2950   -7.1100 C   0  0  0  0  0  0  0  0  0  0  0  0
    0.7290    3.3110   -6.1770 C   0  0  0  0  0  3  0  0  0  0  0  0
    1.7080    2.3850   -5.8270 C   0  0  0  0  0  3  0  0  0  0  0  0
    2.9550    2.4540   -6.4360 C   0  0  0  0  0  3  0  0  0  0  0  0
    3.1730    3.4520   -7.3710 C   0  0  0  0  0  3  0  0  0  0  0  0
    2.2490    4.3760   -7.7170 N   0  0  0  0  0  0  0  0  0  0  0  0
   -2.7300   10.0050   -9.8950 C   0  0  0  0  0  0  0  0  0  0  0  0
   -3.9440   10.2960  -10.1330 O   0  0  0  0  0  0  0  0  0  0  0  0
   -1.7280   10.7520  -10.1320 O   0  0  0  0  0  1  0  0  0  0  0  0
   -2.1100    3.7200   -7.5140 C   0  0  0  0  0  3  0  0  0  0  0  0
   -4.2620    3.0090   -6.3350 C   0  0  0  0  0  1  0  0  0  0  0  0
   -3.6090    4.0080   -7.2840 C   0  0  0  0  0  2  0  0  0  0  0  0
   -1.7670    2.5910   -8.5130 C   0  0  0  0  0  2  0  0  0  0  0  0
   -1.6190    1.1850   -7.9420 C   0  0  0  0  0  1  0  0  0  0  0  0
  1  2  1  0  0  0  0
  1 19  1  0  0  0  0
  2 10  1  0  0  0  0
  3  2  2  0  0  0  0
  4  9  1  0  0  0  0
  4  3  1  0  0  0  0
  5  4  2  0  0  0  0
  6  5  1  0  0  0  0
  6  7  2  0  0  0  0
  7  8  1  0  0  0  0
  8  9  2  0  0  0  0
  9  1  1  0  0  0  0
 10 11  1  0  0  0  0
 11 12  2  0  0  0  0
 13 12  1  0  0  0  0
 14 13  2  0  0  0  0
 15 14  1  0  0  0  0
 15 10  2  0  0  0  0
 16  6  1  0  0  0  0
 17 16  2  0  0  0  0
 18 16  1  0  0  0  0
 19 21  1  0  0  0  0
 21 20  1  0  0  0  0
 22 23  1  0  0  0  0
 22 19  1  0  0  0  0
M  END
>  <minimizedAffinity>
44.141983

$$$$
