REMARK  Name = 
REMARK  7 active torsions:
REMARK  status: ('A' for Active; 'I' for Inactive)
REMARK    1  A    between atoms: C_1  and  N_2
REMARK    2  A    between atoms: N_2  and  C_3
REMARK    3  A    between atoms: C_4  and  C_6
REMARK    4  A    between atoms: C_6  and  N_7
REMARK    5  A    between atoms: C_8  and  C_9
REMARK    6  A    between atoms: C_15  and  C_16
REMARK    7  A    between atoms: C_24  and  C_25
REMARK                            x       y       z     vdW  Elec       q    Type
REMARK                         _______ _______ _______ _____ _____    ______ ____
ROOT
ATOM      1  N   UNL     1       0.631   0.621  -4.397  0.00  0.00    -0.325 N 
ATOM      2  C   UNL     1       1.387   0.827  -5.563  0.00  0.00    +0.054 A 
ATOM      3  C   UNL     1       1.490  -0.407  -6.243  0.00  0.00    -0.011 A 
ATOM      4  C   UNL     1       0.721  -1.285  -5.469  0.00  0.00    +0.012 A 
ATOM      5  C   UNL     1       0.369  -2.629  -5.593  0.00  0.00    +0.027 A 
ATOM      6  C   UNL     1      -0.459  -2.985  -4.526  0.00  0.00    +0.037 A 
ATOM      7  S   UNL     1      -0.740  -1.649  -3.449  0.00  0.00    -0.069 S 
ATOM      8  C   UNL     1       0.215  -0.670  -4.398  0.00  0.00    +0.089 A 
ENDROOT
BRANCH   2   9
ATOM      9  C   UNL     1       1.917   2.140  -5.929  0.00  0.00    -0.001 A 
ATOM     10  C   UNL     1       1.221   2.952  -6.832  0.00  0.00    +0.010 A 
ATOM     11  C   UNL     1       1.716   4.211  -7.176  0.00  0.00    +0.001 A 
ATOM     12  C   UNL     1       2.907   4.668  -6.614  0.00  0.00    +0.000 A 
ATOM     13  C   UNL     1       3.602   3.868  -5.708  0.00  0.00    +0.001 A 
ATOM     14  C   UNL     1       3.109   2.608  -5.367  0.00  0.00    +0.010 A 
ENDBRANCH   2   9
BRANCH   3  15
ATOM     15  C   UNL     1       2.215  -0.759  -7.518  0.00  0.00    +0.022 C 
ATOM     16  C   UNL     1       1.514  -0.210  -8.769  0.00  0.00    +0.008 C 
ATOM     17  C   UNL     1       2.224  -0.653 -10.048  0.00  0.00    +0.001 C 
ATOM     18  C   UNL     1       3.705  -0.285 -10.028  0.00  0.00    +0.000 C 
ATOM     19  C   UNL     1       4.405  -0.827  -8.785  0.00  0.00    +0.001 C 
ATOM     20  C   UNL     1       3.703  -0.374  -7.505  0.00  0.00    +0.008 C 
ENDBRANCH   3  15
BRANCH   6  21
ATOM     21  C   UNL     1      -1.038  -4.344  -4.338  0.00  0.00    +0.078 C 
ATOM     22  O   UNL     1      -0.742  -5.213  -5.218  0.00  0.00    -0.544 OA
ATOM     23  O   UNL     1      -1.778  -4.529  -3.322  0.00  0.00    -0.544 OA
ENDBRANCH   6  21
BRANCH   1  24
ATOM     24  C   UNL     1       0.261   1.617  -3.402  0.00  0.00    +0.218 C 
BRANCH  24  28
ATOM     25  C   UNL     1       1.646   0.998   0.144  0.00  0.00    +0.131 C 
ATOM     26  N   UNL     1       0.708   1.105  -0.964  0.00  0.00    -0.306 N 
ATOM     27  C   UNL     1      -0.626   0.589  -0.684  0.00  0.00    +0.131 C 
ATOM     28  C   UNL     1       1.176   1.581  -2.186  0.00  0.00    +0.235 C 
ATOM     29  O   UNL     1       2.335   2.005  -2.291  0.00  0.00    -0.274 OA
ENDBRANCH  24  28
ENDBRANCH   1  24
TORSDOF 5
