10120254
  -OEChem-09172222023D

 68 73  0     0  0  0  0  0  0999 V2000
   -0.9304    2.0196    1.0908 F   0  0  0  0  0  0  0  0  0  0  0  0
    6.9890    4.3551    1.9145 F   0  0  0  0  0  0  0  0  0  0  0  0
    6.7334   -4.2912   -1.6827 F   0  0  0  0  0  0  0  0  0  0  0  0
    2.9772    0.6923   -1.2561 O   0  0  0  0  0  0  0  0  0  0  0  0
   -8.3656    2.3797   -1.5783 O   0  0  0  0  0  0  0  0  0  0  0  0
   -9.4449    0.8485   -0.2909 O   0  0  0  0  0  0  0  0  0  0  0  0
   -3.2033   -0.4236    0.1766 N   0  0  0  0  0  0  0  0  0  0  0  0
   -3.4293    1.3240   -1.1740 N   0  0  0  0  0  0  0  0  0  0  0  0
   -2.5604   -1.4925    0.9520 C   0  0  0  0  0  0  0  0  0  0  0  0
   -2.9634   -2.8926    0.4601 C   0  0  0  0  0  0  0  0  0  0  0  0
   -2.7919   -1.3358    2.4642 C   0  0  0  0  0  0  0  0  0  0  0  0
   -2.2589   -3.9866    1.2603 C   0  0  0  0  0  0  0  0  0  0  0  0
   -2.0885   -2.4400    3.2511 C   0  0  0  0  0  0  0  0  0  0  0  0
   -2.4930   -3.8275    2.7601 C   0  0  0  0  0  0  0  0  0  0  0  0
   -4.5510   -0.1886    0.1094 C   0  0  0  0  0  0  0  0  0  0  0  0
   -2.5749    0.5034   -0.6050 C   0  0  0  0  0  0  0  0  0  0  0  0
   -4.6670    0.9079   -0.7405 C   0  0  0  0  0  0  0  0  0  0  0  0
   -1.1394    0.5544   -0.7705 C   0  0  0  0  0  0  0  0  0  0  0  0
   -5.6463   -0.8201    0.6999 C   0  0  0  0  0  0  0  0  0  0  0  0
   -5.9440    1.4178   -1.0301 C   0  0  0  0  0  0  0  0  0  0  0  0
   -6.9096   -0.2992    0.4009 C   0  0  0  0  0  0  0  0  0  0  0  0
   -7.0580    0.7998   -0.4485 C   0  0  0  0  0  0  0  0  0  0  0  0
   -0.3637    1.3219    0.0957 C   0  0  0  0  0  0  0  0  0  0  0  0
   -0.5373   -0.1664   -1.7995 C   0  0  0  0  0  0  0  0  0  0  0  0
    1.0208    1.3684   -0.0679 C   0  0  0  0  0  0  0  0  0  0  0  0
    0.8472   -0.1198   -1.9631 C   0  0  0  0  0  0  0  0  0  0  0  0
    1.6262    0.6477   -1.0973 C   0  0  0  0  0  0  0  0  0  0  0  0
   -8.3899    1.3089   -0.7385 C   0  0  0  0  0  0  0  0  0  0  0  0
    3.7748    0.2394   -0.1632 C   0  0  0  0  0  0  0  0  0  0  0  0
    4.6419    1.3497    0.3981 C   0  0  0  0  0  0  0  0  0  0  0  0
    4.5722   -0.9817   -0.5719 C   0  0  0  0  0  0  0  0  0  0  0  0
    4.9765    1.3296    1.7392 C   0  0  0  0  0  0  0  0  0  0  0  0
    4.8966   -1.9270    0.3844 C   0  0  0  0  0  0  0  0  0  0  0  0
    5.0759    2.3544   -0.4462 C   0  0  0  0  0  0  0  0  0  0  0  0
    4.9576   -1.1227   -1.8929 C   0  0  0  0  0  0  0  0  0  0  0  0
    5.7740    2.3512    2.2546 C   0  0  0  0  0  0  0  0  0  0  0  0
    5.6310   -3.0513    0.0070 C   0  0  0  0  0  0  0  0  0  0  0  0
    5.8734    3.3762    0.0692 C   0  0  0  0  0  0  0  0  0  0  0  0
    5.6921   -2.2469   -2.2703 C   0  0  0  0  0  0  0  0  0  0  0  0
    6.2224    3.3746    1.4196 C   0  0  0  0  0  0  0  0  0  0  0  0
    6.0288   -3.2112   -1.3203 C   0  0  0  0  0  0  0  0  0  0  0  0
   -1.4805   -1.4005    0.7886 H   0  0  0  0  0  0  0  0  0  0  0  0
   -2.7084   -3.0002   -0.6017 H   0  0  0  0  0  0  0  0  0  0  0  0
   -4.0429   -3.0533    0.5328 H   0  0  0  0  0  0  0  0  0  0  0  0
   -3.8557   -1.3568    2.7173 H   0  0  0  0  0  0  0  0  0  0  0  0
   -2.4172   -0.3598    2.7972 H   0  0  0  0  0  0  0  0  0  0  0  0
   -1.1821   -3.9532    1.0536 H   0  0  0  0  0  0  0  0  0  0  0  0
   -2.6155   -4.9698    0.9333 H   0  0  0  0  0  0  0  0  0  0  0  0
   -2.3259   -2.3418    4.3164 H   0  0  0  0  0  0  0  0  0  0  0  0
   -1.0023   -2.3212    3.1544 H   0  0  0  0  0  0  0  0  0  0  0  0
   -3.5534   -3.9983    2.9835 H   0  0  0  0  0  0  0  0  0  0  0  0
   -1.9248   -4.5904    3.3041 H   0  0  0  0  0  0  0  0  0  0  0  0
   -5.5568   -1.6732    1.3599 H   0  0  0  0  0  0  0  0  0  0  0  0
   -6.0215    2.2718   -1.6944 H   0  0  0  0  0  0  0  0  0  0  0  0
   -7.7796   -0.7752    0.8485 H   0  0  0  0  0  0  0  0  0  0  0  0
   -1.1312   -0.7699   -2.4817 H   0  0  0  0  0  0  0  0  0  0  0  0
    1.6115    1.9792    0.6090 H   0  0  0  0  0  0  0  0  0  0  0  0
    1.3136   -0.6842   -2.7659 H   0  0  0  0  0  0  0  0  0  0  0  0
    3.1037   -0.0898    0.6455 H   0  0  0  0  0  0  0  0  0  0  0  0
   -9.2677    2.7158   -1.7673 H   0  0  0  0  0  0  0  0  0  0  0  0
    4.6296    0.5418    2.4011 H   0  0  0  0  0  0  0  0  0  0  0  0
    4.5891   -1.8178    1.4200 H   0  0  0  0  0  0  0  0  0  0  0  0
    4.8243    2.3696   -1.5022 H   0  0  0  0  0  0  0  0  0  0  0  0
    4.7180   -0.3804   -2.6482 H   0  0  0  0  0  0  0  0  0  0  0  0
    6.0452    2.3509    3.3062 H   0  0  0  0  0  0  0  0  0  0  0  0
    5.8921   -3.8029    0.7461 H   0  0  0  0  0  0  0  0  0  0  0  0
    6.2248    4.1719   -0.5811 H   0  0  0  0  0  0  0  0  0  0  0  0
    6.0041   -2.3707   -3.3031 H   0  0  0  0  0  0  0  0  0  0  0  0
  1 23  1  0  0  0  0
  2 40  1  0  0  0  0
  3 41  1  0  0  0  0
  4 27  1  0  0  0  0
  4 29  1  0  0  0  0
  5 28  1  0  0  0  0
  5 60  1  0  0  0  0
  6 28  2  0  0  0  0
  7  9  1  0  0  0  0
  7 15  1  0  0  0  0
  7 16  1  0  0  0  0
  8 16  2  0  0  0  0
  8 17  1  0  0  0  0
  9 10  1  0  0  0  0
  9 11  1  0  0  0  0
  9 42  1  0  0  0  0
 10 12  1  0  0  0  0
 10 43  1  0  0  0  0
 10 44  1  0  0  0  0
 11 13  1  0  0  0  0
 11 45  1  0  0  0  0
 11 46  1  0  0  0  0
 12 14  1  0  0  0  0
 12 47  1  0  0  0  0
 12 48  1  0  0  0  0
 13 14  1  0  0  0  0
 13 49  1  0  0  0  0
 13 50  1  0  0  0  0
 14 51  1  0  0  0  0
 14 52  1  0  0  0  0
 15 17  2  0  0  0  0
 15 19  1  0  0  0  0
 16 18  1  0  0  0  0
 17 20  1  0  0  0  0
 18 23  2  0  0  0  0
 18 24  1  0  0  0  0
 19 21  2  0  0  0  0
 19 53  1  0  0  0  0
 20 22  2  0  0  0  0
 20 54  1  0  0  0  0
 21 22  1  0  0  0  0
 21 55  1  0  0  0  0
 22 28  1  0  0  0  0
 23 25  1  0  0  0  0
 24 26  2  0  0  0  0
 24 56  1  0  0  0  0
 25 27  2  0  0  0  0
 25 57  1  0  0  0  0
 26 27  1  0  0  0  0
 26 58  1  0  0  0  0
 29 30  1  0  0  0  0
 29 31  1  0  0  0  0
 29 59  1  0  0  0  0
 30 32  2  0  0  0  0
 30 34  1  0  0  0  0
 31 33  2  0  0  0  0
 31 35  1  0  0  0  0
 32 36  1  0  0  0  0
 32 61  1  0  0  0  0
 33 37  1  0  0  0  0
 33 62  1  0  0  0  0
 34 38  2  0  0  0  0
 34 63  1  0  0  0  0
 35 39  2  0  0  0  0
 35 64  1  0  0  0  0
 36 40  2  0  0  0  0
 36 65  1  0  0  0  0
 37 41  2  0  0  0  0
 37 66  1  0  0  0  0
 38 40  1  0  0  0  0
 38 67  1  0  0  0  0
 39 41  1  0  0  0  0
 39 68  1  0  0  0  0
M  END
> <PUBCHEM_COMPOUND_CID>
10120254

> <PUBCHEM_CONFORMER_RMSD>
1

> <PUBCHEM_CONFORMER_DIVERSEORDER>
1
34
17
25
46
27
31
4
43
40
47
45
36
44
37
32
7
24
29
12
30
33
16
42
21
15
26
6
19
41
5
38
48
28
35
22
9
18
8
39
23
2
20
3
11
14
10
13

> <PUBCHEM_MMFF94_PARTIAL_CHARGES>
51
1 -0.19
15 -0.15
16 0.13
17 0.23
18 0.05
19 -0.15
2 -0.19
20 -0.15
21 -0.15
22 0.09
23 0.19
24 -0.15
25 -0.15
26 -0.15
27 0.08
28 0.63
29 0.57
3 -0.19
30 -0.14
31 -0.14
32 -0.15
33 -0.15
34 -0.15
35 -0.15
36 -0.15
37 -0.15
38 -0.15
39 -0.15
4 -0.36
40 0.19
41 0.19
5 -0.65
53 0.15
54 0.15
55 0.15
56 0.15
57 0.15
58 0.15
6 -0.57
60 0.5
61 0.15
62 0.15
63 0.15
64 0.15
65 0.15
66 0.15
67 0.15
68 0.15
7 0.05
8 -0.57
9 0.26

> <PUBCHEM_EFFECTIVE_ROTOR_COUNT>
8.2

> <PUBCHEM_PHARMACOPHORE_FEATURES>
11
1 4 acceptor
1 5 acceptor
1 6 acceptor
3 5 6 28 anion
3 7 8 16 cation
5 7 8 15 16 17 rings
6 15 17 19 20 21 22 rings
6 18 23 24 25 26 27 rings
6 30 32 34 36 38 40 rings
6 31 33 35 37 39 41 rings
6 9 10 11 12 13 14 rings

> <PUBCHEM_HEAVY_ATOM_COUNT>
41

> <PUBCHEM_ATOM_DEF_STEREO_COUNT>
0

> <PUBCHEM_ATOM_UDEF_STEREO_COUNT>
0

> <PUBCHEM_BOND_DEF_STEREO_COUNT>
0

> <PUBCHEM_BOND_UDEF_STEREO_COUNT>
0

> <PUBCHEM_ISOTOPIC_ATOM_COUNT>
0

> <PUBCHEM_COMPONENT_COUNT>
1

> <PUBCHEM_CACTVS_TAUTO_COUNT>
1

> <PUBCHEM_CONFORMER_ID>
009A6C3E00000001

> <PUBCHEM_MMFF94_ENERGY>
109.5966

> <PUBCHEM_FEATURE_SELFOVERLAP>
55.989

> <PUBCHEM_SHAPE_FINGERPRINT>
10462674 125 16909754043822811302
11007060 377 18408045092219883841
11093857 5 17750808825292731498
117089 54 17768263314844335102
12373685 5 18270101535165587942
13533116 47 18272088280126349692
13636023 51 18411421730866860900
13811026 1 18408605881815297791
14347424 109 18272650126030576268
15131766 46 17701803596026692996
15183329 4 16225770705429601085
1577012 14 17346307233275757493
19315958 150 18409731785204542537
21130935 74 18343024402274102871
23559900 14 18261683614503883852
249057 25 16271938073113991122
32027 91 18339367366650243978
3383291 50 18339645542775832979
4073 2 18261677098722140088
4403749 210 17981318212535133840
4516262 110 17916862543413817160
5265222 85 17749967625724263031
58083652 198 17989490697617294657
6695519 79 17769950292139906098
6698420 124 18338808828017892361
9962374 69 17988633070168607518

> <PUBCHEM_SHAPE_MULTIPOLES>
794.37
23.66
4.76
2.4
18.75
2.77
1.11
-10.35
-3.15
-7.84
2.04
-2.02
1.15
8.9

> <PUBCHEM_SHAPE_SELFOVERLAP>
1768.655

> <PUBCHEM_SHAPE_VOLUME>
425.3

> <PUBCHEM_COORDINATE_TYPE>
2
5
10

$$$$
