REMARK  Name = 
REMARK  7 active torsions:
REMARK  status: ('A' for Active; 'I' for Inactive)
REMARK    1  A    between atoms: C_2  and  C_4
REMARK    2  A    between atoms: C_11  and  C_12
REMARK    3  A    between atoms: C_15  and  O_16
REMARK    4  A    between atoms: O_16  and  C_17
REMARK    5  A    between atoms: C_17  and  C_18
REMARK    6  A    between atoms: C_17  and  C_25
REMARK    7  A    between atoms: N_35  and  C_36
REMARK                            x       y       z     vdW  Elec       q    Type
REMARK                         _______ _______ _______ _____ _____    ______ ____
ROOT
ATOM      1  C   UNL     1       6.606  -4.214  -3.501  0.00  0.00    +0.053 A 
ATOM      2  C   UNL     1       7.903  -3.903  -3.919  0.00  0.00    +0.018 A 
ATOM      3  C   UNL     1       8.717  -4.896  -4.473  0.00  0.00    +0.046 A 
ATOM      4  C   UNL     1       8.262  -6.215  -4.582  0.00  0.00    +0.125 A 
ATOM      5  C   UNL     1       6.979  -6.530  -4.148  0.00  0.00    +0.084 A 
ATOM      6  C   UNL     1       6.162  -5.532  -3.615  0.00  0.00    +0.137 A 
ATOM      7  F   UNL     1       4.910  -5.861  -3.261  0.00  0.00    -0.205 F 
ENDROOT
BRANCH   1  15
ATOM      8  C   UNL     1       3.387   0.031  -0.772  0.00  0.00    -0.001 A 
ATOM      9  C   UNL     1       2.770   0.155  -2.027  0.00  0.00    +0.012 A 
ATOM     10  C   UNL     1       3.139  -0.635  -3.122  0.00  0.00    +0.028 A 
ATOM     11  C   UNL     1       4.161  -1.573  -2.928  0.00  0.00    +0.069 A 
ATOM     12  C   UNL     1       4.800  -1.722  -1.699  0.00  0.00    +0.090 A 
ATOM     13  C   UNL     1       4.415  -0.920  -0.613  0.00  0.00    +0.039 A 
ATOM     14  N   UNL     1       5.772  -2.691  -1.766  0.00  0.00    -0.227 NA
ATOM     15  C   UNL     1       5.731  -3.165  -2.994  0.00  0.00    +0.145 A 
ATOM     16  N   UNL     1       4.778  -2.496  -3.748  0.00  0.00    -0.320 N 
BRANCH  16  17
ATOM     17  C   UNL     1       4.526  -2.707  -5.171  0.00  0.00    +0.089 C 
ATOM     18  C   UNL     1       3.109  -3.223  -5.464  0.00  0.00    +0.025 C 
ATOM     19  C   UNL     1       2.914  -3.481  -6.958  0.00  0.00    +0.002 C 
ATOM     20  C   UNL     1       3.261  -2.253  -7.795  0.00  0.00    +0.000 C 
ATOM     21  C   UNL     1       4.675  -1.756  -7.511  0.00  0.00    +0.002 C 
ATOM     22  C   UNL     1       4.886  -1.479  -6.023  0.00  0.00    +0.025 C 
ENDBRANCH  16  17
BRANCH   8  24
ATOM     23  O   UNL     1       2.024   1.745   0.163  0.00  0.00    -0.545 OA
ATOM     24  C   UNL     1       2.956   0.908   0.387  0.00  0.00    +0.072 C 
ATOM     25  O   UNL     1       3.557   0.747   1.496  0.00  0.00    -0.545 OA
ENDBRANCH   8  24
ENDBRANCH   1  15
BRANCH   4  26
ATOM     26  O   UNL     1       9.122  -7.071  -5.209  0.00  0.00    -0.479 OA
BRANCH  26  27
ATOM     27  C   UNL     1       9.188  -8.463  -4.828  0.00  0.00    +0.234 C 
BRANCH  27  28
ATOM     28  C   UNL     1       9.497  -8.639  -3.338  0.00  0.00    -0.003 A 
ATOM     29  C   UNL     1      10.808  -8.382  -2.888  0.00  0.00    +0.010 A 
ATOM     30  C   UNL     1      11.143  -8.517  -1.540  0.00  0.00    +0.039 A 
ATOM     31  C   UNL     1      10.169  -8.897  -0.629  0.00  0.00    +0.123 A 
ATOM     32  F   UNL     1      10.492  -9.035   0.664  0.00  0.00    -0.205 F 
ATOM     33  C   UNL     1       8.864  -9.136  -1.039  0.00  0.00    +0.039 A 
ATOM     34  C   UNL     1       8.526  -9.002  -2.388  0.00  0.00    +0.010 A 
ENDBRANCH  27  28
BRANCH  27  35
ATOM     35  C   UNL     1       8.148  -9.380  -5.486  0.00  0.00    -0.003 A 
ATOM     36  C   UNL     1       8.061 -10.741  -5.129  0.00  0.00    +0.010 A 
ATOM     37  C   UNL     1       7.146 -11.592  -5.753  0.00  0.00    +0.039 A 
ATOM     38  C   UNL     1       6.327 -11.099  -6.759  0.00  0.00    +0.123 A 
ATOM     39  F   UNL     1       5.451 -11.916  -7.359  0.00  0.00    -0.205 F 
ATOM     40  C   UNL     1       6.417  -9.774  -7.163  0.00  0.00    +0.039 A 
ATOM     41  C   UNL     1       7.334  -8.924  -6.541  0.00  0.00    +0.010 A 
ENDBRANCH  27  35
ENDBRANCH  26  27
ENDBRANCH   4  26
TORSDOF 7
