
 OpenBabel09182209113D

 41 46  0  0  1  0  0  0  0  0999 V2000
    6.1680   -6.8430    0.8020 C   0  0  0  0  0  0  0  0  0  0  0  0
    7.4540   -6.9810    1.3320 C   0  0  0  0  0  3  0  0  0  0  0  0
    8.4930   -6.1690    0.8670 C   0  0  0  0  0  3  0  0  0  0  0  0
    8.2720   -5.2390   -0.1550 C   0  0  0  0  0  0  0  0  0  0  0  0
    6.9980   -5.1150   -0.6980 C   0  0  0  0  0  3  0  0  0  0  0  0
    5.9580   -5.9120   -0.2170 C   0  0  0  0  0  0  0  0  0  0  0  0
    4.7290   -5.7230   -0.7230 F   0  0  0  0  0  0  0  0  0  0  0  0
    1.8130  -10.5960    2.4700 C   0  0  0  0  0  0  0  0  0  0  0  0
    1.6030   -9.6550    3.4910 C   0  0  0  0  0  3  0  0  0  0  0  0
    2.3770   -8.4950    3.6080 C   0  0  0  0  0  3  0  0  0  0  0  0
    3.3870   -8.2920    2.6590 C   0  0  0  0  0  0  0  0  0  0  0  0
    3.6290   -9.2050    1.6350 C   0  0  0  0  0  0  0  0  0  0  0  0
    2.8410  -10.3620    1.5340 C   0  0  0  0  0  3  0  0  0  0  0  0
    4.6750   -8.7910    0.8460 N   0  0  0  0  0  0  0  0  0  0  0  0
    5.0680   -7.6340    1.3380 C   0  0  0  0  0  0  0  0  0  0  0  0
    4.3260   -7.3000    2.4610 N   0  0  0  0  0  0  0  0  0  0  0  0
    4.5500   -6.1280    3.3030 C   0  0  0  0  0  3  0  0  0  0  0  0
    4.1320   -4.8110    2.6310 C   0  0  0  0  0  2  0  0  0  0  0  0
    4.4380   -3.6130    3.5290 C   0  0  0  0  0  2  0  0  0  0  0  0
    3.8190   -3.7700    4.9150 C   0  0  0  0  0  2  0  0  0  0  0  0
    4.2520   -5.0720    5.5830 C   0  0  0  0  0  2  0  0  0  0  0  0
    3.9420   -6.2840    4.7060 C   0  0  0  0  0  2  0  0  0  0  0  0
    1.4020  -12.8070    1.6890 O   0  0  0  0  0  0  0  0  0  0  0  0
    0.9510  -11.8390    2.3810 C   0  0  0  0  0  0  0  0  0  0  0  0
   -0.1600  -11.8260    3.0000 O   0  0  0  0  0  1  0  0  0  0  0  0
    9.3480   -4.4570   -0.4650 O   0  0  0  0  0  0  0  0  0  0  0  0
    9.4310   -3.0940    0.0070 C   0  0  1  0  0  3  0  0  0  0  0  0
    9.3190   -3.0050    1.5330 C   0  0  0  0  0  0  0  0  0  0  0  0
   10.4970   -2.8170    2.2840 C   0  0  0  0  0  3  0  0  0  0  0  0
   10.4520   -2.7190    3.6750 C   0  0  0  0  0  3  0  0  0  0  0  0
    9.2300   -2.7950    4.3260 C   0  0  0  0  0  0  0  0  0  0  0  0
    9.1870   -2.7090    5.6630 F   0  0  0  0  0  0  0  0  0  0  0  0
    8.0500   -2.9580    3.6110 C   0  0  0  0  0  3  0  0  0  0  0  0
    8.0920   -3.0570    2.2180 C   0  0  0  0  0  3  0  0  0  0  0  0
   10.4490   -2.2030   -0.7180 C   0  0  0  0  0  0  0  0  0  0  0  0
   10.2240   -0.8170   -0.8510 C   0  0  0  0  0  3  0  0  0  0  0  0
   11.1240   -0.0060   -1.5460 C   0  0  0  0  0  3  0  0  0  0  0  0
   12.2430   -0.5740   -2.1380 C   0  0  0  0  0  0  0  0  0  0  0  0
   13.1050    0.2040   -2.8060 F   0  0  0  0  0  0  0  0  0  0  0  0
   12.4710   -1.9410   -2.0610 C   0  0  0  0  0  3  0  0  0  0  0  0
   11.5700   -2.7530   -1.3690 C   0  0  0  0  0  3  0  0  0  0  0  0
  1  2  1  0  0  0  0
  1 15  1  0  0  0  0
  3  2  2  0  0  0  0
  4  3  1  0  0  0  0
  5  6  1  0  0  0  0
  5  4  2  0  0  0  0
  6  1  2  0  0  0  0
  7  6  1  0  0  0  0
  8  9  1  0  0  0  0
  9 10  2  0  0  0  0
 11 10  1  0  0  0  0
 12 11  2  0  0  0  0
 13 12  1  0  0  0  0
 13  8  2  0  0  0  0
 14 15  2  0  0  0  0
 14 12  1  0  0  0  0
 15 16  1  0  0  0  0
 16 11  1  0  0  0  0
 16 17  1  0  0  0  0
 17 22  1  0  0  0  0
 18 17  1  0  0  0  0
 18 19  1  0  0  0  0
 19 20  1  0  0  0  0
 20 21  1  0  0  0  0
 22 21  1  0  0  0  0
 23 24  2  0  0  0  0
 24  8  1  0  0  0  0
 24 25  1  0  0  0  0
 26  4  1  0  0  0  0
 27 26  1  1  0  0  0
 27 28  1  0  0  0  0
 28 34  2  0  0  0  0
 28 29  1  0  0  0  0
 29 30  2  0  0  0  0
 30 31  1  0  0  0  0
 31 32  1  0  0  0  0
 33 31  2  0  0  0  0
 34 33  1  0  0  0  0
 35 27  1  0  0  0  0
 36 35  1  0  0  0  0
 37 36  2  0  0  0  0
 38 40  2  0  0  0  0
 38 37  1  0  0  0  0
 39 38  1  0  0  0  0
 40 41  1  0  0  0  0
 41 35  2  0  0  0  0
M  END
>  <minimizedAffinity>
-10.2229548

$$$$
