
 OpenBabel09182209113D

 41 46  0  0  1  0  0  0  0  0999 V2000
    5.8570   -6.7930    0.7080 C   0  0  0  0  0  0  0  0  0  0  0  0
    4.7460   -6.6970   -0.1350 C   0  0  0  0  0  3  0  0  0  0  0  0
    3.7310   -7.6570   -0.0670 C   0  0  0  0  0  3  0  0  0  0  0  0
    3.8290   -8.7410    0.8120 C   0  0  0  0  0  0  0  0  0  0  0  0
    4.9440   -8.8480    1.6370 C   0  0  0  0  0  3  0  0  0  0  0  0
    5.9440   -7.8770    1.5820 C   0  0  0  0  0  0  0  0  0  0  0  0
    6.9760   -7.9830    2.4330 F   0  0  0  0  0  0  0  0  0  0  0  0
   10.2410   -2.7860   -0.0340 C   0  0  0  0  0  0  0  0  0  0  0  0
    9.7900   -2.2910    1.2000 C   0  0  0  0  0  3  0  0  0  0  0  0
    8.7190   -2.8710    1.8900 C   0  0  0  0  0  3  0  0  0  0  0  0
    8.0970   -3.9820    1.3060 C   0  0  0  0  0  0  0  0  0  0  0  0
    8.5140   -4.4980    0.0810 C   0  0  0  0  0  0  0  0  0  0  0  0
    9.5900   -3.9030   -0.5960 C   0  0  0  0  0  3  0  0  0  0  0  0
    7.7400   -5.5730   -0.2870 N   0  0  0  0  0  0  0  0  0  0  0  0
    6.8770   -5.7530    0.6920 C   0  0  0  0  0  0  0  0  0  0  0  0
    7.0410   -4.7900    1.6760 N   0  0  0  0  0  0  0  0  0  0  0  0
    6.1990   -4.6400    2.8600 C   0  0  0  0  0  3  0  0  0  0  0  0
    6.7640   -3.6390    3.8800 C   0  0  0  0  0  2  0  0  0  0  0  0
    5.8780   -3.5600    5.1230 C   0  0  0  0  0  2  0  0  0  0  0  0
    4.4260   -3.2560    4.7660 C   0  0  0  0  0  2  0  0  0  0  0  0
    3.8670   -4.2620    3.7650 C   0  0  0  0  0  2  0  0  0  0  0  0
    4.7320   -4.3460    2.5080 C   0  0  0  0  0  2  0  0  0  0  0  0
   12.5070   -2.7630   -0.7660 O   0  0  0  0  0  1  0  0  0  0  0  0
   11.4050   -2.1270   -0.7480 C   0  0  0  0  0  0  0  0  0  0  0  0
   11.1980   -0.9870   -1.2720 O   0  0  0  0  0  0  0  0  0  0  0  0
    2.7390   -9.5640    0.8370 O   0  0  0  0  0  0  0  0  0  0  0  0
    2.7980  -10.8490    1.4930 C   0  0  1  0  0  3  0  0  0  0  0  0
    1.7680  -10.9690    2.6210 C   0  0  0  0  0  0  0  0  0  0  0  0
    1.3120   -9.7890    3.2430 C   0  0  0  0  0  3  0  0  0  0  0  0
    0.3670   -9.8380    4.2690 C   0  0  0  0  0  3  0  0  0  0  0  0
   -0.1390  -11.0640    4.6720 C   0  0  0  0  0  0  0  0  0  0  0  0
   -1.0400  -11.1130    5.6630 F   0  0  0  0  0  0  0  0  0  0  0  0
    0.2750  -12.2420    4.0640 C   0  0  0  0  0  3  0  0  0  0  0  0
    1.2210  -12.1950    3.0370 C   0  0  0  0  0  3  0  0  0  0  0  0
    3.0370  -12.0530    0.5720 C   0  0  0  0  0  0  0  0  0  0  0  0
    2.2670  -12.2290   -0.5960 C   0  0  0  0  0  3  0  0  0  0  0  0
    2.4490  -13.3440   -1.4170 C   0  0  0  0  0  3  0  0  0  0  0  0
    3.3830  -14.3090   -1.0670 C   0  0  0  0  0  0  0  0  0  0  0  0
    3.5550  -15.3790   -1.8530 F   0  0  0  0  0  0  0  0  0  0  0  0
    4.1270  -14.1870    0.0990 C   0  0  0  0  0  3  0  0  0  0  0  0
    3.9430  -13.0730    0.9220 C   0  0  0  0  0  3  0  0  0  0  0  0
  1  6  1  0  0  0  0
  2  3  1  0  0  0  0
  2  1  2  0  0  0  0
  3  4  2  0  0  0  0
  4 26  1  0  0  0  0
  4  5  1  0  0  0  0
  6  5  2  0  0  0  0
  6  7  1  0  0  0  0
  8  9  1  0  0  0  0
  9 10  2  0  0  0  0
 11 16  1  0  0  0  0
 11 10  1  0  0  0  0
 12 11  2  0  0  0  0
 13  8  2  0  0  0  0
 13 12  1  0  0  0  0
 14 12  1  0  0  0  0
 14 15  2  0  0  0  0
 15  1  1  0  0  0  0
 15 16  1  0  0  0  0
 16 17  1  0  0  0  0
 17 18  1  0  0  0  0
 18 19  1  0  0  0  0
 20 19  1  0  0  0  0
 21 20  1  0  0  0  0
 22 17  1  0  0  0  0
 22 21  1  0  0  0  0
 23 24  1  0  0  0  0
 24  8  1  0  0  0  0
 25 24  2  0  0  0  0
 27 26  1  6  0  0  0
 27 28  1  0  0  0  0
 28 34  2  0  0  0  0
 28 29  1  0  0  0  0
 29 30  2  0  0  0  0
 30 31  1  0  0  0  0
 31 32  1  0  0  0  0
 33 31  2  0  0  0  0
 34 33  1  0  0  0  0
 35 41  1  0  0  0  0
 35 27  1  0  0  0  0
 36 35  2  0  0  0  0
 37 38  2  0  0  0  0
 37 36  1  0  0  0  0
 38 40  1  0  0  0  0
 39 38  1  0  0  0  0
 40 41  2  0  0  0  0
M  END
>  <minimizedAffinity>
-8.724823

$$$$
