
 OpenBabel09182209113D

 41 46  0  0  1  0  0  0  0  0999 V2000
    4.8780   -8.0710    1.5740 C   0  0  0  0  0  0  0  0  0  0  0  0
    3.7460   -8.1080    0.7550 C   0  0  0  0  0  3  0  0  0  0  0  0
    2.8160   -9.1430    0.8920 C   0  0  0  0  0  3  0  0  0  0  0  0
    3.0220  -10.1710    1.8200 C   0  0  0  0  0  0  0  0  0  0  0  0
    4.1580  -10.1460    2.6210 C   0  0  0  0  0  3  0  0  0  0  0  0
    5.0740   -9.1000    2.4960 C   0  0  0  0  0  0  0  0  0  0  0  0
    6.1280   -9.0780    3.3260 F   0  0  0  0  0  0  0  0  0  0  0  0
    9.0600   -3.8820    0.6840 C   0  0  0  0  0  0  0  0  0  0  0  0
    8.3020   -3.1460    1.6090 C   0  0  0  0  0  3  0  0  0  0  0  0
    7.1370   -3.6560    2.1930 C   0  0  0  0  0  3  0  0  0  0  0  0
    6.7390   -4.9470    1.8230 C   0  0  0  0  0  0  0  0  0  0  0  0
    7.4620   -5.7060    0.9050 C   0  0  0  0  0  0  0  0  0  0  0  0
    8.6290   -5.1760    0.3310 C   0  0  0  0  0  3  0  0  0  0  0  0
    6.8640   -6.9250    0.6970 N   0  0  0  0  0  0  0  0  0  0  0  0
    5.8080   -6.9530    1.4840 C   0  0  0  0  0  0  0  0  0  0  0  0
    5.6770   -5.7570    2.1740 N   0  0  0  0  0  0  0  0  0  0  0  0
    4.5740   -5.4120    3.0660 C   0  0  0  0  0  3  0  0  0  0  0  0
    4.7450   -5.9760    4.4850 C   0  0  0  0  0  2  0  0  0  0  0  0
    3.5400   -5.6370    5.3620 C   0  0  0  0  0  2  0  0  0  0  0  0
    3.2500   -4.1390    5.3720 C   0  0  0  0  0  2  0  0  0  0  0  0
    3.0650   -3.5890    3.9610 C   0  0  0  0  0  2  0  0  0  0  0  0
    4.2660   -3.9060    3.0710 C   0  0  0  0  0  2  0  0  0  0  0  0
   11.0440   -2.5730    0.8350 O   0  0  0  0  0  1  0  0  0  0  0  0
   10.3160   -3.2900    0.0760 C   0  0  0  0  0  0  0  0  0  0  0  0
   10.5500   -3.5490   -1.1470 O   0  0  0  0  0  0  0  0  0  0  0  0
    2.0050  -11.0780    1.9090 O   0  0  0  0  0  0  0  0  0  0  0  0
    2.2810  -12.4960    1.9450 C   0  0  1  0  0  3  0  0  0  0  0  0
    2.2840  -13.1180    0.5450 C   0  0  0  0  0  0  0  0  0  0  0  0
    2.1340  -14.5150    0.4300 C   0  0  0  0  0  3  0  0  0  0  0  0
    2.1200  -15.1340   -0.8210 C   0  0  0  0  0  3  0  0  0  0  0  0
    2.2430  -14.3620   -1.9670 C   0  0  0  0  0  0  0  0  0  0  0  0
    2.2380  -14.9560   -3.1670 F   0  0  0  0  0  0  0  0  0  0  0  0
    2.3700  -12.9810   -1.8850 C   0  0  0  0  0  3  0  0  0  0  0  0
    2.3850  -12.3590   -0.6340 C   0  0  0  0  0  3  0  0  0  0  0  0
    3.3440  -12.9390    2.9590 C   0  0  0  0  0  0  0  0  0  0  0  0
    4.6310  -13.3230    2.5300 C   0  0  0  0  0  3  0  0  0  0  0  0
    5.5910  -13.7680    3.4420 C   0  0  0  0  0  3  0  0  0  0  0  0
    5.2680  -13.8590    4.7880 C   0  0  0  0  0  0  0  0  0  0  0  0
    6.1880  -14.2880    5.6620 F   0  0  0  0  0  0  0  0  0  0  0  0
    3.9970  -13.5280    5.2370 C   0  0  0  0  0  3  0  0  0  0  0  0
    3.0360  -13.0860    4.3250 C   0  0  0  0  0  3  0  0  0  0  0  0
  1  6  1  0  0  0  0
  2  3  1  0  0  0  0
  2  1  2  0  0  0  0
  3  4  2  0  0  0  0
  4 26  1  0  0  0  0
  4  5  1  0  0  0  0
  6  5  2  0  0  0  0
  6  7  1  0  0  0  0
  8  9  1  0  0  0  0
  9 10  2  0  0  0  0
 11 16  1  0  0  0  0
 11 10  1  0  0  0  0
 12 11  2  0  0  0  0
 13  8  2  0  0  0  0
 13 12  1  0  0  0  0
 14 12  1  0  0  0  0
 14 15  2  0  0  0  0
 15  1  1  0  0  0  0
 15 16  1  0  0  0  0
 16 17  1  0  0  0  0
 17 22  1  0  0  0  0
 17 18  1  0  0  0  0
 18 19  1  0  0  0  0
 19 20  1  0  0  0  0
 21 20  1  0  0  0  0
 22 21  1  0  0  0  0
 24  8  1  0  0  0  0
 24 23  1  0  0  0  0
 25 24  2  0  0  0  0
 27 26  1  6  0  0  0
 27 35  1  0  0  0  0
 28 27  1  0  0  0  0
 29 28  1  0  0  0  0
 30 29  2  0  0  0  0
 31 33  2  0  0  0  0
 31 30  1  0  0  0  0
 32 31  1  0  0  0  0
 33 34  1  0  0  0  0
 34 28  2  0  0  0  0
 35 41  1  0  0  0  0
 36 35  2  0  0  0  0
 36 37  1  0  0  0  0
 37 38  2  0  0  0  0
 38 40  1  0  0  0  0
 38 39  1  0  0  0  0
 41 40  2  0  0  0  0
M  END
>  <minimizedAffinity>
-8.94892883

$$$$
