
 OpenBabel09182209113D

 41 46  0  0  1  0  0  0  0  0999 V2000
    7.2410   -5.2350    1.2760 C   0  0  0  0  0  0  0  0  0  0  0  0
    7.5790   -4.4880    2.4080 C   0  0  0  0  0  3  0  0  0  0  0  0
    8.5090   -3.4480    2.3090 C   0  0  0  0  0  3  0  0  0  0  0  0
    9.1380   -3.1660    1.0910 C   0  0  0  0  0  0  0  0  0  0  0  0
    8.8170   -3.9210   -0.0320 C   0  0  0  0  0  3  0  0  0  0  0  0
    7.8730   -4.9450    0.0670 C   0  0  0  0  0  0  0  0  0  0  0  0
    7.5460   -5.6130   -1.0500 F   0  0  0  0  0  0  0  0  0  0  0  0
    3.4290   -9.8470    1.1070 C   0  0  0  0  0  0  0  0  0  0  0  0
    2.7770   -9.1480    2.1350 C   0  0  0  0  0  3  0  0  0  0  0  0
    3.2490   -7.9230    2.6210 C   0  0  0  0  0  3  0  0  0  0  0  0
    4.4120   -7.4020    2.0410 C   0  0  0  0  0  0  0  0  0  0  0  0
    5.0900   -8.0680    1.0220 C   0  0  0  0  0  0  0  0  0  0  0  0
    4.6000   -9.2960    0.5490 C   0  0  0  0  0  3  0  0  0  0  0  0
    6.2040   -7.3650    0.6330 N   0  0  0  0  0  0  0  0  0  0  0  0
    6.2170   -6.2690    1.3620 C   0  0  0  0  0  0  0  0  0  0  0  0
    5.1550   -6.2580    2.2540 N   0  0  0  0  0  0  0  0  0  0  0  0
    4.9140   -5.2360    3.2690 C   0  0  0  0  0  3  0  0  0  0  0  0
    4.0030   -4.1000    2.7790 C   0  0  0  0  0  2  0  0  0  0  0  0
    3.8280   -3.0300    3.8560 C   0  0  0  0  0  2  0  0  0  0  0  0
    3.3410   -3.6270    5.1740 C   0  0  0  0  0  2  0  0  0  0  0  0
    4.2590   -4.7430    5.6630 C   0  0  0  0  0  2  0  0  0  0  0  0
    4.4370   -5.8300    4.6040 C   0  0  0  0  0  2  0  0  0  0  0  0
    3.5650  -11.7830   -0.2730 O   0  0  0  0  0  0  0  0  0  0  0  0
    2.8840  -11.1720    0.6110 C   0  0  0  0  0  0  0  0  0  0  0  0
    1.7870  -11.5760    1.1110 O   0  0  0  0  0  1  0  0  0  0  0  0
    9.9650   -2.0790    1.1080 O   0  0  0  0  0  0  0  0  0  0  0  0
   10.1560   -1.2760   -0.0770 C   0  0  1  0  0  3  0  0  0  0  0  0
   10.0780    0.2240    0.2250 C   0  0  0  0  0  0  0  0  0  0  0  0
    9.4600    0.6380    1.4220 C   0  0  0  0  0  3  0  0  0  0  0  0
    9.3710    1.9920    1.7520 C   0  0  0  0  0  3  0  0  0  0  0  0
    9.9090    2.9400    0.8950 C   0  0  0  0  0  0  0  0  0  0  0  0
    9.8160    4.2400    1.2080 F   0  0  0  0  0  0  0  0  0  0  0  0
   10.5430    2.5610   -0.2800 C   0  0  0  0  0  3  0  0  0  0  0  0
   10.6340    1.2070   -0.6130 C   0  0  0  0  0  3  0  0  0  0  0  0
   11.2210   -1.7840   -1.0580 C   0  0  0  0  0  0  0  0  0  0  0  0
   12.1230   -2.7990   -0.6780 C   0  0  0  0  0  3  0  0  0  0  0  0
   13.1220   -3.2370   -1.5500 C   0  0  0  0  0  3  0  0  0  0  0  0
   13.2480   -2.6490   -2.8000 C   0  0  0  0  0  0  0  0  0  0  0  0
   14.2080   -3.0680   -3.6350 F   0  0  0  0  0  0  0  0  0  0  0  0
   12.4020   -1.6190   -3.1890 C   0  0  0  0  0  3  0  0  0  0  0  0
   11.4050   -1.1780   -2.3160 C   0  0  0  0  0  3  0  0  0  0  0  0
  1 15  1  0  0  0  0
  1  2  1  0  0  0  0
  3  2  2  0  0  0  0
  4 26  1  0  0  0  0
  4  3  1  0  0  0  0
  5  6  1  0  0  0  0
  5  4  2  0  0  0  0
  6  1  2  0  0  0  0
  7  6  1  0  0  0  0
  8  9  1  0  0  0  0
  9 10  2  0  0  0  0
 11 16  1  0  0  0  0
 11 10  1  0  0  0  0
 12 11  2  0  0  0  0
 13 12  1  0  0  0  0
 13  8  2  0  0  0  0
 14 12  1  0  0  0  0
 14 15  2  0  0  0  0
 15 16  1  0  0  0  0
 16 17  1  0  0  0  0
 17 22  1  0  0  0  0
 18 17  1  0  0  0  0
 18 19  1  0  0  0  0
 19 20  1  0  0  0  0
 20 21  1  0  0  0  0
 22 21  1  0  0  0  0
 23 24  2  0  0  0  0
 24  8  1  0  0  0  0
 24 25  1  0  0  0  0
 27 28  1  0  0  0  0
 27 26  1  1  0  0  0
 28 29  1  0  0  0  0
 29 30  2  0  0  0  0
 31 32  1  0  0  0  0
 31 30  1  0  0  0  0
 33 31  2  0  0  0  0
 34 33  1  0  0  0  0
 34 28  2  0  0  0  0
 35 36  1  0  0  0  0
 35 27  1  0  0  0  0
 37 36  2  0  0  0  0
 38 37  1  0  0  0  0
 39 38  1  0  0  0  0
 40 38  2  0  0  0  0
 40 41  1  0  0  0  0
 41 35  2  0  0  0  0
M  END
>  <minimizedAffinity>
-8.63503838

$$$$
