
 OpenBabel09182209113D

 41 46  0  0  1  0  0  0  0  0999 V2000
    3.4490  -10.5580    2.1860 C   0  0  0  0  0  0  0  0  0  0  0  0
    2.5110   -9.5610    2.4680 C   0  0  0  0  0  3  0  0  0  0  0  0
    2.8540   -8.4930    3.3030 C   0  0  0  0  0  3  0  0  0  0  0  0
    4.1200   -8.4260    3.8960 C   0  0  0  0  0  0  0  0  0  0  0  0
    5.0480   -9.4280    3.6320 C   0  0  0  0  0  3  0  0  0  0  0  0
    4.7090  -10.4810    2.7810 C   0  0  0  0  0  0  0  0  0  0  0  0
    5.6490  -11.3980    2.5040 F   0  0  0  0  0  0  0  0  0  0  0  0
    2.1190  -14.4400   -2.1720 C   0  0  0  0  0  0  0  0  0  0  0  0
    2.1530  -15.3830   -1.1320 C   0  0  0  0  0  3  0  0  0  0  0  0
    2.4330  -15.0260    0.1920 C   0  0  0  0  0  3  0  0  0  0  0  0
    2.6820  -13.6730    0.4580 C   0  0  0  0  0  0  0  0  0  0  0  0
    2.6610  -12.7090   -0.5470 C   0  0  0  0  0  0  0  0  0  0  0  0
    2.3780  -13.0880   -1.8690 C   0  0  0  0  0  3  0  0  0  0  0  0
    2.9500  -11.4650   -0.0390 N   0  0  0  0  0  0  0  0  0  0  0  0
    3.1190  -11.6300    1.2560 C   0  0  0  0  0  0  0  0  0  0  0  0
    2.9890  -12.9660    1.6030 N   0  0  0  0  0  0  0  0  0  0  0  0
    3.1980  -13.5160    2.9400 C   0  0  0  0  0  3  0  0  0  0  0  0
    1.9440  -14.1890    3.5200 C   0  0  0  0  0  2  0  0  0  0  0  0
    2.1980  -14.6970    4.9390 C   0  0  0  0  0  2  0  0  0  0  0  0
    3.4190  -15.6100    5.0040 C   0  0  0  0  0  2  0  0  0  0  0  0
    4.6640  -14.9300    4.4420 C   0  0  0  0  0  2  0  0  0  0  0  0
    4.4350  -14.4260    3.0180 C   0  0  0  0  0  2  0  0  0  0  0  0
    2.2150  -14.1090   -4.5280 O   0  0  0  0  0  0  0  0  0  0  0  0
    1.8110  -14.8710   -3.5920 C   0  0  0  0  0  0  0  0  0  0  0  0
    1.1720  -15.9590   -3.7460 O   0  0  0  0  0  1  0  0  0  0  0  0
    4.3550   -7.2970    4.6270 O   0  0  0  0  0  0  0  0  0  0  0  0
    4.6950   -6.0530    3.9760 C   0  0  1  0  0  3  0  0  0  0  0  0
    5.1270   -6.2620    2.5210 C   0  0  0  0  0  0  0  0  0  0  0  0
    4.2910   -5.7770    1.4950 C   0  0  0  0  0  3  0  0  0  0  0  0
    4.6400   -5.9320    0.1530 C   0  0  0  0  0  3  0  0  0  0  0  0
    5.8320   -6.5600   -0.1750 C   0  0  0  0  0  0  0  0  0  0  0  0
    6.1630   -6.7160   -1.4640 F   0  0  0  0  0  0  0  0  0  0  0  0
    6.6860   -7.0290    0.8140 C   0  0  0  0  0  3  0  0  0  0  0  0
    6.3390   -6.8760    2.1590 C   0  0  0  0  0  3  0  0  0  0  0  0
    3.7970   -4.8570    4.3210 C   0  0  0  0  0  0  0  0  0  0  0  0
    4.3520   -3.5810    4.5460 C   0  0  0  0  0  3  0  0  0  0  0  0
    3.5460   -2.4980    4.9020 C   0  0  0  0  0  3  0  0  0  0  0  0
    2.1810   -2.6830    5.0630 C   0  0  0  0  0  0  0  0  0  0  0  0
    1.4080   -1.6430    5.4070 F   0  0  0  0  0  0  0  0  0  0  0  0
    1.6080   -3.9350    4.8900 C   0  0  0  0  0  3  0  0  0  0  0  0
    2.4150   -5.0200    4.5370 C   0  0  0  0  0  3  0  0  0  0  0  0
  1  2  2  0  0  0  0
  1  6  1  0  0  0  0
  2  3  1  0  0  0  0
  3  4  2  0  0  0  0
  4 26  1  0  0  0  0
  5  4  1  0  0  0  0
  6  5  2  0  0  0  0
  7  6  1  0  0  0  0
  8 13  2  0  0  0  0
  8  9  1  0  0  0  0
  9 10  2  0  0  0  0
 10 11  1  0  0  0  0
 11 16  1  0  0  0  0
 12 14  1  0  0  0  0
 12 11  2  0  0  0  0
 13 12  1  0  0  0  0
 14 15  2  0  0  0  0
 15 16  1  0  0  0  0
 15  1  1  0  0  0  0
 16 17  1  0  0  0  0
 17 22  1  0  0  0  0
 17 18  1  0  0  0  0
 18 19  1  0  0  0  0
 19 20  1  0  0  0  0
 21 20  1  0  0  0  0
 22 21  1  0  0  0  0
 23 24  2  0  0  0  0
 24  8  1  0  0  0  0
 25 24  1  0  0  0  0
 27 35  1  0  0  0  0
 27 26  1  6  0  0  0
 28 27  1  0  0  0  0
 29 28  2  0  0  0  0
 30 29  1  0  0  0  0
 31 30  2  0  0  0  0
 31 33  1  0  0  0  0
 32 31  1  0  0  0  0
 33 34  2  0  0  0  0
 34 28  1  0  0  0  0
 35 41  2  0  0  0  0
 35 36  1  0  0  0  0
 36 37  2  0  0  0  0
 37 38  1  0  0  0  0
 38 39  1  0  0  0  0
 40 38  2  0  0  0  0
 41 40  1  0  0  0  0
M  END
>  <minimizedAffinity>
-8.60070419

$$$$
