
 OpenBabel09132214283D

 41 46  0  0  1  0  0  0  0  0999 V2000
    6.2620   -6.5590    0.4530 C   0  0  0  0  0  0  0  0  0  0  0  0
    6.0530   -5.7410   -0.6620 C   0  0  0  0  0  3  0  0  0  0  0  0
    7.0790   -4.9090   -1.1210 C   0  0  0  0  0  3  0  0  0  0  0  0
    8.3080   -4.8550   -0.4540 C   0  0  0  0  0  0  0  0  0  0  0  0
    8.5100   -5.6520    0.6670 C   0  0  0  0  0  3  0  0  0  0  0  0
    7.4910   -6.4970    1.1100 C   0  0  0  0  0  0  0  0  0  0  0  0
    7.7420   -7.2950    2.1600 F   0  0  0  0  0  0  0  0  0  0  0  0
    2.1830  -10.7730    1.6480 C   0  0  0  0  0  0  0  0  0  0  0  0
    1.9060   -9.9720    2.7670 C   0  0  0  0  0  3  0  0  0  0  0  0
    2.5960   -8.7810    3.0210 C   0  0  0  0  0  3  0  0  0  0  0  0
    3.5890   -8.4010    2.1100 C   0  0  0  0  0  0  0  0  0  0  0  0
    3.8960   -9.1730    0.9910 C   0  0  0  0  0  0  0  0  0  0  0  0
    3.1920  -10.3640    0.7540 C   0  0  0  0  0  3  0  0  0  0  0  0
    4.9110   -8.6000    0.2640 N   0  0  0  0  0  0  0  0  0  0  0  0
    5.2200   -7.4810    0.8860 C   0  0  0  0  0  0  0  0  0  0  0  0
    4.4550   -7.3290    2.0330 N   0  0  0  0  0  0  0  0  0  0  0  0
    4.5950   -6.2470    3.0050 C   0  0  0  0  0  3  0  0  0  0  0  0
    4.2980   -4.8610    2.4130 C   0  0  0  0  0  2  0  0  0  0  0  0
    4.5120   -3.7610    3.4520 C   0  0  0  0  0  2  0  0  0  0  0  0
    3.7150   -4.0220    4.7270 C   0  0  0  0  0  2  0  0  0  0  0  0
    4.0280   -5.3930    5.3180 C   0  0  0  0  0  2  0  0  0  0  0  0
    3.8060   -6.5090    4.2980 C   0  0  0  0  0  2  0  0  0  0  0  0
    1.6590  -12.6900    0.3360 O   0  0  0  0  0  0  0  0  0  0  0  0
    1.4110  -12.0570    1.4110 C   0  0  0  0  0  0  0  0  0  0  0  0
    0.5710  -12.4050    2.3000 O   0  0  0  0  0  1  0  0  0  0  0  0
    9.2500   -4.0620   -1.0460 O   0  0  0  0  0  0  0  0  0  0  0  0
   10.3690   -3.5520   -0.2870 C   0  0  1  0  0  3  0  0  0  0  0  0
   11.4710   -2.9920   -1.1920 C   0  0  0  0  0  0  0  0  0  0  0  0
   12.6170   -3.7800   -1.4230 C   0  0  0  0  0  3  0  0  0  0  0  0
   13.6470   -3.3230   -2.2460 C   0  0  0  0  0  3  0  0  0  0  0  0
   13.5360   -2.0820   -2.8550 C   0  0  0  0  0  0  0  0  0  0  0  0
   14.5280   -1.6390   -3.6380 F   0  0  0  0  0  0  0  0  0  0  0  0
   12.4100   -1.2920   -2.6630 C   0  0  0  0  0  3  0  0  0  0  0  0
   11.3770   -1.7470   -1.8390 C   0  0  0  0  0  3  0  0  0  0  0  0
   10.0090   -2.8000    1.0010 C   0  0  0  0  0  0  0  0  0  0  0  0
    9.1980   -1.6480    0.9580 C   0  0  0  0  0  3  0  0  0  0  0  0
    8.9000   -0.9330    2.1200 C   0  0  0  0  0  3  0  0  0  0  0  0
    9.4310   -1.3460    3.3340 C   0  0  0  0  0  0  0  0  0  0  0  0
    9.1470   -0.6580    4.4480 F   0  0  0  0  0  0  0  0  0  0  0  0
   10.2670   -2.4510    3.4040 C   0  0  0  0  0  3  0  0  0  0  0  0
   10.5670   -3.1640    2.2410 C   0  0  0  0  0  3  0  0  0  0  0  0
  1 15  1  0  0  0  0
  1  6  1  0  0  0  0
  2  1  2  0  0  0  0
  3  2  1  0  0  0  0
  3  4  2  0  0  0  0
  4  5  1  0  0  0  0
  5  6  2  0  0  0  0
  6  7  1  0  0  0  0
  8  9  1  0  0  0  0
  9 10  2  0  0  0  0
 11 10  1  0  0  0  0
 12 11  2  0  0  0  0
 13 12  1  0  0  0  0
 13  8  2  0  0  0  0
 14 15  2  0  0  0  0
 14 12  1  0  0  0  0
 15 16  1  0  0  0  0
 16 11  1  0  0  0  0
 16 17  1  0  0  0  0
 17 22  1  0  0  0  0
 18 17  1  0  0  0  0
 18 19  1  0  0  0  0
 19 20  1  0  0  0  0
 20 21  1  0  0  0  0
 22 21  1  0  0  0  0
 23 24  2  0  0  0  0
 24  8  1  0  0  0  0
 24 25  1  0  0  0  0
 26  4  1  0  0  0  0
 27 26  1  6  0  0  0
 27 35  1  0  0  0  0
 28 27  1  0  0  0  0
 29 28  1  0  0  0  0
 30 29  2  0  0  0  0
 31 33  2  0  0  0  0
 31 30  1  0  0  0  0
 32 31  1  0  0  0  0
 33 34  1  0  0  0  0
 34 28  2  0  0  0  0
 35 41  1  0  0  0  0
 36 35  2  0  0  0  0
 36 37  1  0  0  0  0
 37 38  2  0  0  0  0
 38 40  1  0  0  0  0
 38 39  1  0  0  0  0
 41 40  2  0  0  0  0
M  END
>  <minimizedAffinity>
-10.3896065

$$$$

 OpenBabel09132214283D

 41 46  0  0  1  0  0  0  0  0999 V2000
    6.1680   -6.8430    0.8020 C   0  0  0  0  0  0  0  0  0  0  0  0
    7.4540   -6.9810    1.3320 C   0  0  0  0  0  3  0  0  0  0  0  0
    8.4930   -6.1690    0.8670 C   0  0  0  0  0  3  0  0  0  0  0  0
    8.2720   -5.2390   -0.1550 C   0  0  0  0  0  0  0  0  0  0  0  0
    6.9980   -5.1150   -0.6980 C   0  0  0  0  0  3  0  0  0  0  0  0
    5.9580   -5.9120   -0.2170 C   0  0  0  0  0  0  0  0  0  0  0  0
    4.7290   -5.7230   -0.7230 F   0  0  0  0  0  0  0  0  0  0  0  0
    1.8130  -10.5960    2.4700 C   0  0  0  0  0  0  0  0  0  0  0  0
    1.6030   -9.6550    3.4910 C   0  0  0  0  0  3  0  0  0  0  0  0
    2.3770   -8.4950    3.6080 C   0  0  0  0  0  3  0  0  0  0  0  0
    3.3870   -8.2920    2.6590 C   0  0  0  0  0  0  0  0  0  0  0  0
    3.6290   -9.2050    1.6350 C   0  0  0  0  0  0  0  0  0  0  0  0
    2.8410  -10.3620    1.5340 C   0  0  0  0  0  3  0  0  0  0  0  0
    4.6750   -8.7910    0.8460 N   0  0  0  0  0  0  0  0  0  0  0  0
    5.0680   -7.6340    1.3380 C   0  0  0  0  0  0  0  0  0  0  0  0
    4.3260   -7.3000    2.4610 N   0  0  0  0  0  0  0  0  0  0  0  0
    4.5500   -6.1280    3.3030 C   0  0  0  0  0  3  0  0  0  0  0  0
    4.1320   -4.8110    2.6310 C   0  0  0  0  0  2  0  0  0  0  0  0
    4.4380   -3.6130    3.5290 C   0  0  0  0  0  2  0  0  0  0  0  0
    3.8190   -3.7700    4.9150 C   0  0  0  0  0  2  0  0  0  0  0  0
    4.2520   -5.0720    5.5830 C   0  0  0  0  0  2  0  0  0  0  0  0
    3.9420   -6.2840    4.7060 C   0  0  0  0  0  2  0  0  0  0  0  0
    1.4020  -12.8070    1.6890 O   0  0  0  0  0  0  0  0  0  0  0  0
    0.9510  -11.8390    2.3810 C   0  0  0  0  0  0  0  0  0  0  0  0
   -0.1600  -11.8260    3.0000 O   0  0  0  0  0  1  0  0  0  0  0  0
    9.3480   -4.4570   -0.4650 O   0  0  0  0  0  0  0  0  0  0  0  0
    9.4310   -3.0940    0.0070 C   0  0  1  0  0  3  0  0  0  0  0  0
    9.3190   -3.0050    1.5330 C   0  0  0  0  0  0  0  0  0  0  0  0
   10.4970   -2.8170    2.2840 C   0  0  0  0  0  3  0  0  0  0  0  0
   10.4520   -2.7190    3.6750 C   0  0  0  0  0  3  0  0  0  0  0  0
    9.2300   -2.7950    4.3260 C   0  0  0  0  0  0  0  0  0  0  0  0
    9.1870   -2.7090    5.6630 F   0  0  0  0  0  0  0  0  0  0  0  0
    8.0500   -2.9580    3.6110 C   0  0  0  0  0  3  0  0  0  0  0  0
    8.0920   -3.0570    2.2180 C   0  0  0  0  0  3  0  0  0  0  0  0
   10.4490   -2.2030   -0.7180 C   0  0  0  0  0  0  0  0  0  0  0  0
   10.2240   -0.8170   -0.8510 C   0  0  0  0  0  3  0  0  0  0  0  0
   11.1240   -0.0060   -1.5460 C   0  0  0  0  0  3  0  0  0  0  0  0
   12.2430   -0.5740   -2.1380 C   0  0  0  0  0  0  0  0  0  0  0  0
   13.1050    0.2040   -2.8060 F   0  0  0  0  0  0  0  0  0  0  0  0
   12.4710   -1.9410   -2.0610 C   0  0  0  0  0  3  0  0  0  0  0  0
   11.5700   -2.7530   -1.3690 C   0  0  0  0  0  3  0  0  0  0  0  0
  1  2  1  0  0  0  0
  1 15  1  0  0  0  0
  3  2  2  0  0  0  0
  4  3  1  0  0  0  0
  5  6  1  0  0  0  0
  5  4  2  0  0  0  0
  6  1  2  0  0  0  0
  7  6  1  0  0  0  0
  8  9  1  0  0  0  0
  9 10  2  0  0  0  0
 11 10  1  0  0  0  0
 12 11  2  0  0  0  0
 13 12  1  0  0  0  0
 13  8  2  0  0  0  0
 14 15  2  0  0  0  0
 14 12  1  0  0  0  0
 15 16  1  0  0  0  0
 16 11  1  0  0  0  0
 16 17  1  0  0  0  0
 17 22  1  0  0  0  0
 18 17  1  0  0  0  0
 18 19  1  0  0  0  0
 19 20  1  0  0  0  0
 20 21  1  0  0  0  0
 22 21  1  0  0  0  0
 23 24  2  0  0  0  0
 24  8  1  0  0  0  0
 24 25  1  0  0  0  0
 26  4  1  0  0  0  0
 27 26  1  1  0  0  0
 27 28  1  0  0  0  0
 28 34  2  0  0  0  0
 28 29  1  0  0  0  0
 29 30  2  0  0  0  0
 30 31  1  0  0  0  0
 31 32  1  0  0  0  0
 33 31  2  0  0  0  0
 34 33  1  0  0  0  0
 35 27  1  0  0  0  0
 36 35  1  0  0  0  0
 37 36  2  0  0  0  0
 38 40  2  0  0  0  0
 38 37  1  0  0  0  0
 39 38  1  0  0  0  0
 40 41  1  0  0  0  0
 41 35  2  0  0  0  0
M  END
>  <minimizedAffinity>
-10.2229548

$$$$

 OpenBabel09132214283D

 41 46  0  0  1  0  0  0  0  0999 V2000
    6.3840   -6.5320    0.6400 C   0  0  0  0  0  0  0  0  0  0  0  0
    7.6390   -6.3470    1.2260 C   0  0  0  0  0  3  0  0  0  0  0  0
    8.5480   -5.4450    0.6630 C   0  0  0  0  0  3  0  0  0  0  0  0
    8.2300   -4.7470   -0.5070 C   0  0  0  0  0  0  0  0  0  0  0  0
    6.9890   -4.9450   -1.1020 C   0  0  0  0  0  3  0  0  0  0  0  0
    6.0770   -5.8300   -0.5260 C   0  0  0  0  0  0  0  0  0  0  0  0
    4.8670   -5.9520   -1.0950 F   0  0  0  0  0  0  0  0  0  0  0  0
    2.5730  -10.6630    2.7010 C   0  0  0  0  0  0  0  0  0  0  0  0
    2.3010   -9.7000    3.6850 C   0  0  0  0  0  3  0  0  0  0  0  0
    2.9390   -8.4550    3.7090 C   0  0  0  0  0  3  0  0  0  0  0  0
    3.8760   -8.1890    2.7020 C   0  0  0  0  0  0  0  0  0  0  0  0
    4.1760   -9.1210    1.7100 C   0  0  0  0  0  0  0  0  0  0  0  0
    3.5240  -10.3640    1.7050 C   0  0  0  0  0  3  0  0  0  0  0  0
    5.1310   -8.6330    0.8520 N   0  0  0  0  0  0  0  0  0  0  0  0
    5.4080   -7.4140    1.2680 C   0  0  0  0  0  0  0  0  0  0  0  0
    4.6830   -7.1080    2.4100 N   0  0  0  0  0  0  0  0  0  0  0  0
    4.8070   -5.8750    3.1840 C   0  0  0  0  0  3  0  0  0  0  0  0
    4.1840   -4.6570    2.4840 C   0  0  0  0  0  2  0  0  0  0  0  0
    4.3880   -3.3850    3.3070 C   0  0  0  0  0  2  0  0  0  0  0  0
    3.8800   -3.5470    4.7370 C   0  0  0  0  0  2  0  0  0  0  0  0
    4.5150   -4.7480    5.4300 C   0  0  0  0  0  2  0  0  0  0  0  0
    4.3090   -6.0330    4.6300 C   0  0  0  0  0  2  0  0  0  0  0  0
    0.6010  -11.9850    2.5150 O   0  0  0  0  0  0  0  0  0  0  0  0
    1.8580  -12.0000    2.7140 C   0  0  0  0  0  0  0  0  0  0  0  0
    2.5630  -13.0370    2.9250 O   0  0  0  0  0  1  0  0  0  0  0  0
    9.1700   -3.8420   -0.9110 O   0  0  0  0  0  0  0  0  0  0  0  0
   10.2930   -3.5130   -0.0620 C   0  0  1  0  0  3  0  0  0  0  0  0
   11.5130   -3.0620   -0.8700 C   0  0  0  0  0  0  0  0  0  0  0  0
   11.3760   -1.9580   -1.7360 C   0  0  0  0  0  3  0  0  0  0  0  0
   12.4580   -1.4980   -2.4880 C   0  0  0  0  0  3  0  0  0  0  0  0
   13.6880   -2.1280   -2.3720 C   0  0  0  0  0  0  0  0  0  0  0  0
   14.7250   -1.6930   -3.1010 F   0  0  0  0  0  0  0  0  0  0  0  0
   13.8590   -3.2050   -1.5120 C   0  0  0  0  0  3  0  0  0  0  0  0
   12.7780   -3.6670   -0.7580 C   0  0  0  0  0  3  0  0  0  0  0  0
    9.9460   -2.7760    1.2380 C   0  0  0  0  0  0  0  0  0  0  0  0
    9.1810   -1.5930    1.2120 C   0  0  0  0  0  3  0  0  0  0  0  0
    8.8970   -0.8930    2.3870 C   0  0  0  0  0  3  0  0  0  0  0  0
    9.3970   -1.3520    3.5970 C   0  0  0  0  0  0  0  0  0  0  0  0
    9.1270   -0.6790    4.7230 F   0  0  0  0  0  0  0  0  0  0  0  0
   10.1890   -2.4910    3.6520 C   0  0  0  0  0  3  0  0  0  0  0  0
   10.4760   -3.1890    2.4770 C   0  0  0  0  0  3  0  0  0  0  0  0
  1  2  1  0  0  0  0
  1 15  1  0  0  0  0
  3  2  2  0  0  0  0
  4  3  1  0  0  0  0
  5  6  1  0  0  0  0
  5  4  2  0  0  0  0
  6  1  2  0  0  0  0
  7  6  1  0  0  0  0
  8 24  1  0  0  0  0
  8  9  1  0  0  0  0
  9 10  2  0  0  0  0
 11 10  1  0  0  0  0
 12 11  2  0  0  0  0
 13 12  1  0  0  0  0
 13  8  2  0  0  0  0
 14 15  2  0  0  0  0
 14 12  1  0  0  0  0
 15 16  1  0  0  0  0
 16 11  1  0  0  0  0
 16 17  1  0  0  0  0
 17 22  1  0  0  0  0
 18 17  1  0  0  0  0
 18 19  1  0  0  0  0
 19 20  1  0  0  0  0
 20 21  1  0  0  0  0
 22 21  1  0  0  0  0
 23 24  2  0  0  0  0
 24 25  1  0  0  0  0
 26  4  1  0  0  0  0
 27 26  1  6  0  0  0
 27 35  1  0  0  0  0
 28 34  1  0  0  0  0
 28 27  1  0  0  0  0
 29 28  2  0  0  0  0
 30 31  2  0  0  0  0
 30 29  1  0  0  0  0
 31 33  1  0  0  0  0
 32 31  1  0  0  0  0
 33 34  2  0  0  0  0
 35 41  1  0  0  0  0
 36 35  2  0  0  0  0
 36 37  1  0  0  0  0
 37 38  2  0  0  0  0
 38 40  1  0  0  0  0
 38 39  1  0  0  0  0
 41 40  2  0  0  0  0
M  END
>  <minimizedAffinity>
-9.90143681

$$$$

 OpenBabel09132214283D

 41 46  0  0  1  0  0  0  0  0999 V2000
    5.5930   -7.2520    1.4950 C   0  0  0  0  0  0  0  0  0  0  0  0
    5.8110   -8.2160    2.4840 C   0  0  0  0  0  3  0  0  0  0  0  0
    4.9350   -9.2990    2.6100 C   0  0  0  0  0  3  0  0  0  0  0  0
    3.8150   -9.4140    1.7790 C   0  0  0  0  0  0  0  0  0  0  0  0
    3.5860   -8.4450    0.8080 C   0  0  0  0  0  3  0  0  0  0  0  0
    4.4730   -7.3770    0.6720 C   0  0  0  0  0  0  0  0  0  0  0  0
    4.2520   -6.4930   -0.3140 F   0  0  0  0  0  0  0  0  0  0  0  0
    9.7380   -3.1530    0.1390 C   0  0  0  0  0  0  0  0  0  0  0  0
    9.2110   -2.4740    1.2490 C   0  0  0  0  0  3  0  0  0  0  0  0
    8.1540   -2.9910    2.0070 C   0  0  0  0  0  3  0  0  0  0  0  0
    7.6260   -4.2300    1.6210 C   0  0  0  0  0  0  0  0  0  0  0  0
    8.1200   -4.9310    0.5230 C   0  0  0  0  0  0  0  0  0  0  0  0
    9.1800   -4.3950   -0.2240 C   0  0  0  0  0  3  0  0  0  0  0  0
    7.4310   -6.1060    0.3410 N   0  0  0  0  0  0  0  0  0  0  0  0
    6.5450   -6.1640    1.3140 C   0  0  0  0  0  0  0  0  0  0  0  0
    6.6110   -5.0290    2.1080 N   0  0  0  0  0  0  0  0  0  0  0  0
    5.7170   -4.7240    3.2220 C   0  0  0  0  0  3  0  0  0  0  0  0
    6.3660   -3.8290    4.2890 C   0  0  0  0  0  2  0  0  0  0  0  0
    5.4120   -3.5870    5.4590 C   0  0  0  0  0  2  0  0  0  0  0  0
    4.0680   -3.0370    4.9900 C   0  0  0  0  0  2  0  0  0  0  0  0
    3.4220   -3.9390    3.9420 C   0  0  0  0  0  2  0  0  0  0  0  0
    4.3560   -4.1830    2.7570 C   0  0  0  0  0  2  0  0  0  0  0  0
   10.5770   -1.7840   -1.6200 O   0  0  0  0  0  0  0  0  0  0  0  0
   10.8830   -2.5550   -0.6550 C   0  0  0  0  0  0  0  0  0  0  0  0
   12.0640   -2.8690   -0.3030 O   0  0  0  0  0  1  0  0  0  0  0  0
    3.0840  -10.5550    1.9520 O   0  0  0  0  0  0  0  0  0  0  0  0
    3.0870  -11.2490    3.2190 C   0  0  1  0  0  3  0  0  0  0  0  0
    1.7130  -11.2180    3.8960 C   0  0  0  0  0  0  0  0  0  0  0  0
    0.9140  -10.0670    3.7450 C   0  0  0  0  0  3  0  0  0  0  0  0
   -0.3500   -9.9880    4.3320 C   0  0  0  0  0  3  0  0  0  0  0  0
   -0.8310  -11.0640    5.0630 C   0  0  0  0  0  0  0  0  0  0  0  0
   -2.0410  -10.9860    5.6330 F   0  0  0  0  0  0  0  0  0  0  0  0
   -0.0770  -12.2200    5.2110 C   0  0  0  0  0  3  0  0  0  0  0  0
    1.1890  -12.3010    4.6250 C   0  0  0  0  0  3  0  0  0  0  0  0
    3.9100  -12.5430    3.2640 C   0  0  0  0  0  0  0  0  0  0  0  0
    4.7700  -12.8110    4.3480 C   0  0  0  0  0  3  0  0  0  0  0  0
    5.5540  -13.9670    4.3770 C   0  0  0  0  0  3  0  0  0  0  0  0
    5.5080  -14.8530    3.3100 C   0  0  0  0  0  0  0  0  0  0  0  0
    6.2620  -15.9600    3.3360 F   0  0  0  0  0  0  0  0  0  0  0  0
    4.7030  -14.5980    2.2080 C   0  0  0  0  0  3  0  0  0  0  0  0
    3.9210  -13.4410    2.1790 C   0  0  0  0  0  3  0  0  0  0  0  0
  1  2  1  0  0  0  0
  2  3  2  0  0  0  0
  4 26  1  0  0  0  0
  4  3  1  0  0  0  0
  5  4  2  0  0  0  0
  6  5  1  0  0  0  0
  6  1  2  0  0  0  0
  7  6  1  0  0  0  0
  8  9  1  0  0  0  0
  9 10  2  0  0  0  0
 11 10  1  0  0  0  0
 11 16  1  0  0  0  0
 12 11  2  0  0  0  0
 13  8  2  0  0  0  0
 13 12  1  0  0  0  0
 14 12  1  0  0  0  0
 14 15  2  0  0  0  0
 15  1  1  0  0  0  0
 15 16  1  0  0  0  0
 16 17  1  0  0  0  0
 17 18  1  0  0  0  0
 18 19  1  0  0  0  0
 20 19  1  0  0  0  0
 21 20  1  0  0  0  0
 22 17  1  0  0  0  0
 22 21  1  0  0  0  0
 23 24  2  0  0  0  0
 24 25  1  0  0  0  0
 24  8  1  0  0  0  0
 27 26  1  6  0  0  0
 27 35  1  0  0  0  0
 27 28  1  0  0  0  0
 28 34  1  0  0  0  0
 29 28  2  0  0  0  0
 29 30  1  0  0  0  0
 30 31  2  0  0  0  0
 31 33  1  0  0  0  0
 31 32  1  0  0  0  0
 34 33  2  0  0  0  0
 35 36  1  0  0  0  0
 36 37  2  0  0  0  0
 38 39  1  0  0  0  0
 38 37  1  0  0  0  0
 40 38  2  0  0  0  0
 41 40  1  0  0  0  0
 41 35  2  0  0  0  0
M  END
>  <minimizedAffinity>
-9.05465889

$$$$

 OpenBabel09132214283D

 41 46  0  0  1  0  0  0  0  0999 V2000
    4.8780   -8.0710    1.5740 C   0  0  0  0  0  0  0  0  0  0  0  0
    3.7460   -8.1080    0.7550 C   0  0  0  0  0  3  0  0  0  0  0  0
    2.8160   -9.1430    0.8920 C   0  0  0  0  0  3  0  0  0  0  0  0
    3.0220  -10.1710    1.8200 C   0  0  0  0  0  0  0  0  0  0  0  0
    4.1580  -10.1460    2.6210 C   0  0  0  0  0  3  0  0  0  0  0  0
    5.0740   -9.1000    2.4960 C   0  0  0  0  0  0  0  0  0  0  0  0
    6.1280   -9.0780    3.3260 F   0  0  0  0  0  0  0  0  0  0  0  0
    9.0600   -3.8820    0.6840 C   0  0  0  0  0  0  0  0  0  0  0  0
    8.3020   -3.1460    1.6090 C   0  0  0  0  0  3  0  0  0  0  0  0
    7.1370   -3.6560    2.1930 C   0  0  0  0  0  3  0  0  0  0  0  0
    6.7390   -4.9470    1.8230 C   0  0  0  0  0  0  0  0  0  0  0  0
    7.4620   -5.7060    0.9050 C   0  0  0  0  0  0  0  0  0  0  0  0
    8.6290   -5.1760    0.3310 C   0  0  0  0  0  3  0  0  0  0  0  0
    6.8640   -6.9250    0.6970 N   0  0  0  0  0  0  0  0  0  0  0  0
    5.8080   -6.9530    1.4840 C   0  0  0  0  0  0  0  0  0  0  0  0
    5.6770   -5.7570    2.1740 N   0  0  0  0  0  0  0  0  0  0  0  0
    4.5740   -5.4120    3.0660 C   0  0  0  0  0  3  0  0  0  0  0  0
    4.7450   -5.9760    4.4850 C   0  0  0  0  0  2  0  0  0  0  0  0
    3.5400   -5.6370    5.3620 C   0  0  0  0  0  2  0  0  0  0  0  0
    3.2500   -4.1390    5.3720 C   0  0  0  0  0  2  0  0  0  0  0  0
    3.0650   -3.5890    3.9610 C   0  0  0  0  0  2  0  0  0  0  0  0
    4.2660   -3.9060    3.0710 C   0  0  0  0  0  2  0  0  0  0  0  0
   11.0440   -2.5730    0.8350 O   0  0  0  0  0  1  0  0  0  0  0  0
   10.3160   -3.2900    0.0760 C   0  0  0  0  0  0  0  0  0  0  0  0
   10.5500   -3.5490   -1.1470 O   0  0  0  0  0  0  0  0  0  0  0  0
    2.0050  -11.0780    1.9090 O   0  0  0  0  0  0  0  0  0  0  0  0
    2.2810  -12.4960    1.9450 C   0  0  1  0  0  3  0  0  0  0  0  0
    2.2840  -13.1180    0.5450 C   0  0  0  0  0  0  0  0  0  0  0  0
    2.1340  -14.5150    0.4300 C   0  0  0  0  0  3  0  0  0  0  0  0
    2.1200  -15.1340   -0.8210 C   0  0  0  0  0  3  0  0  0  0  0  0
    2.2430  -14.3620   -1.9670 C   0  0  0  0  0  0  0  0  0  0  0  0
    2.2380  -14.9560   -3.1670 F   0  0  0  0  0  0  0  0  0  0  0  0
    2.3700  -12.9810   -1.8850 C   0  0  0  0  0  3  0  0  0  0  0  0
    2.3850  -12.3590   -0.6340 C   0  0  0  0  0  3  0  0  0  0  0  0
    3.3440  -12.9390    2.9590 C   0  0  0  0  0  0  0  0  0  0  0  0
    4.6310  -13.3230    2.5300 C   0  0  0  0  0  3  0  0  0  0  0  0
    5.5910  -13.7680    3.4420 C   0  0  0  0  0  3  0  0  0  0  0  0
    5.2680  -13.8590    4.7880 C   0  0  0  0  0  0  0  0  0  0  0  0
    6.1880  -14.2880    5.6620 F   0  0  0  0  0  0  0  0  0  0  0  0
    3.9970  -13.5280    5.2370 C   0  0  0  0  0  3  0  0  0  0  0  0
    3.0360  -13.0860    4.3250 C   0  0  0  0  0  3  0  0  0  0  0  0
  1  6  1  0  0  0  0
  2  3  1  0  0  0  0
  2  1  2  0  0  0  0
  3  4  2  0  0  0  0
  4 26  1  0  0  0  0
  4  5  1  0  0  0  0
  6  5  2  0  0  0  0
  6  7  1  0  0  0  0
  8  9  1  0  0  0  0
  9 10  2  0  0  0  0
 11 16  1  0  0  0  0
 11 10  1  0  0  0  0
 12 11  2  0  0  0  0
 13  8  2  0  0  0  0
 13 12  1  0  0  0  0
 14 12  1  0  0  0  0
 14 15  2  0  0  0  0
 15  1  1  0  0  0  0
 15 16  1  0  0  0  0
 16 17  1  0  0  0  0
 17 22  1  0  0  0  0
 17 18  1  0  0  0  0
 18 19  1  0  0  0  0
 19 20  1  0  0  0  0
 21 20  1  0  0  0  0
 22 21  1  0  0  0  0
 24  8  1  0  0  0  0
 24 23  1  0  0  0  0
 25 24  2  0  0  0  0
 27 26  1  6  0  0  0
 27 35  1  0  0  0  0
 28 27  1  0  0  0  0
 29 28  1  0  0  0  0
 30 29  2  0  0  0  0
 31 33  2  0  0  0  0
 31 30  1  0  0  0  0
 32 31  1  0  0  0  0
 33 34  1  0  0  0  0
 34 28  2  0  0  0  0
 35 41  1  0  0  0  0
 36 35  2  0  0  0  0
 36 37  1  0  0  0  0
 37 38  2  0  0  0  0
 38 40  1  0  0  0  0
 38 39  1  0  0  0  0
 41 40  2  0  0  0  0
M  END
>  <minimizedAffinity>
-8.94892883

$$$$

 OpenBabel09132214283D

 41 46  0  0  1  0  0  0  0  0999 V2000
    5.9800   -7.3280    1.7340 C   0  0  0  0  0  0  0  0  0  0  0  0
    6.3810   -8.3010    2.6540 C   0  0  0  0  0  3  0  0  0  0  0  0
    5.6020   -9.4470    2.8450 C   0  0  0  0  0  3  0  0  0  0  0  0
    4.3990   -9.6180    2.1510 C   0  0  0  0  0  0  0  0  0  0  0  0
    3.9890   -8.6410    1.2500 C   0  0  0  0  0  3  0  0  0  0  0  0
    4.7790   -7.5090    1.0470 C   0  0  0  0  0  0  0  0  0  0  0  0
    4.3810   -6.6160    0.1270 F   0  0  0  0  0  0  0  0  0  0  0  0
    9.7480   -2.9700    0.1120 C   0  0  0  0  0  0  0  0  0  0  0  0
    9.1300   -2.2570    1.1520 C   0  0  0  0  0  3  0  0  0  0  0  0
    8.1080   -2.8110    1.9320 C   0  0  0  0  0  3  0  0  0  0  0  0
    7.7110   -4.1230    1.6420 C   0  0  0  0  0  0  0  0  0  0  0  0
    8.2980   -4.8600    0.6160 C   0  0  0  0  0  0  0  0  0  0  0  0
    9.3220   -4.2860   -0.1550 C   0  0  0  0  0  3  0  0  0  0  0  0
    7.7300   -6.1070    0.5210 N   0  0  0  0  0  0  0  0  0  0  0  0
    6.8280   -6.1720    1.4790 C   0  0  0  0  0  0  0  0  0  0  0  0
    6.7650   -4.9740    2.1760 N   0  0  0  0  0  0  0  0  0  0  0  0
    5.8180   -4.6680    3.2450 C   0  0  0  0  0  3  0  0  0  0  0  0
    6.4100   -3.7630    4.3360 C   0  0  0  0  0  2  0  0  0  0  0  0
    5.4000   -3.5180    5.4570 C   0  0  0  0  0  2  0  0  0  0  0  0
    4.0770   -2.9790    4.9210 C   0  0  0  0  0  2  0  0  0  0  0  0
    3.4870   -3.8910    3.8500 C   0  0  0  0  0  2  0  0  0  0  0  0
    4.4770   -4.1370    2.7120 C   0  0  0  0  0  2  0  0  0  0  0  0
   10.4950   -1.5370   -1.6370 O   0  0  0  0  0  0  0  0  0  0  0  0
   10.8510   -2.3300   -0.7080 C   0  0  0  0  0  0  0  0  0  0  0  0
   12.0500   -2.6340   -0.4120 O   0  0  0  0  0  1  0  0  0  0  0  0
    3.7720  -10.8110    2.3700 O   0  0  0  0  0  0  0  0  0  0  0  0
    2.4080  -11.0190    1.9430 C   0  0  1  0  0  3  0  0  0  0  0  0
    2.2500  -12.3000    1.1180 C   0  0  0  0  0  0  0  0  0  0  0  0
    2.2260  -12.1970   -0.2870 C   0  0  0  0  0  3  0  0  0  0  0  0
    2.0950  -13.3330   -1.0880 C   0  0  0  0  0  3  0  0  0  0  0  0
    1.9980  -14.5810   -0.4910 C   0  0  0  0  0  0  0  0  0  0  0  0
    1.8630  -15.6710   -1.2590 F   0  0  0  0  0  0  0  0  0  0  0  0
    2.0400  -14.7160    0.8900 C   0  0  0  0  0  3  0  0  0  0  0  0
    2.1710  -13.5810    1.6940 C   0  0  0  0  0  3  0  0  0  0  0  0
    1.3290  -10.6590    2.9730 C   0  0  0  0  0  0  0  0  0  0  0  0
    0.1640  -11.4420    3.0980 C   0  0  0  0  0  3  0  0  0  0  0  0
   -0.8420  -11.0980    4.0040 C   0  0  0  0  0  3  0  0  0  0  0  0
   -0.7070   -9.9520    4.7750 C   0  0  0  0  0  0  0  0  0  0  0  0
   -1.6730   -9.6210    5.6430 F   0  0  0  0  0  0  0  0  0  0  0  0
    0.4090   -9.1370    4.6470 C   0  0  0  0  0  3  0  0  0  0  0  0
    1.4130   -9.4800    3.7390 C   0  0  0  0  0  3  0  0  0  0  0  0
  1  2  1  0  0  0  0
  2  3  2  0  0  0  0
  4 26  1  0  0  0  0
  4  3  1  0  0  0  0
  5  4  2  0  0  0  0
  6  5  1  0  0  0  0
  6  1  2  0  0  0  0
  7  6  1  0  0  0  0
  8  9  1  0  0  0  0
  9 10  2  0  0  0  0
 11 10  1  0  0  0  0
 11 16  1  0  0  0  0
 12 11  2  0  0  0  0
 13  8  2  0  0  0  0
 13 12  1  0  0  0  0
 14 12  1  0  0  0  0
 14 15  2  0  0  0  0
 15  1  1  0  0  0  0
 15 16  1  0  0  0  0
 16 17  1  0  0  0  0
 17 18  1  0  0  0  0
 18 19  1  0  0  0  0
 20 19  1  0  0  0  0
 21 20  1  0  0  0  0
 22 17  1  0  0  0  0
 22 21  1  0  0  0  0
 23 24  2  0  0  0  0
 24 25  1  0  0  0  0
 24  8  1  0  0  0  0
 27 26  1  1  0  0  0
 27 35  1  0  0  0  0
 28 34  1  0  0  0  0
 28 27  1  0  0  0  0
 29 28  2  0  0  0  0
 30 31  2  0  0  0  0
 30 29  1  0  0  0  0
 31 33  1  0  0  0  0
 32 31  1  0  0  0  0
 33 34  2  0  0  0  0
 35 36  2  0  0  0  0
 35 41  1  0  0  0  0
 36 37  1  0  0  0  0
 37 38  2  0  0  0  0
 38 39  1  0  0  0  0
 40 38  1  0  0  0  0
 41 40  2  0  0  0  0
M  END
>  <minimizedAffinity>
-8.83751106

$$$$

 OpenBabel09132214283D

 41 46  0  0  1  0  0  0  0  0999 V2000
    5.8570   -6.7930    0.7080 C   0  0  0  0  0  0  0  0  0  0  0  0
    4.7460   -6.6970   -0.1350 C   0  0  0  0  0  3  0  0  0  0  0  0
    3.7310   -7.6570   -0.0670 C   0  0  0  0  0  3  0  0  0  0  0  0
    3.8290   -8.7410    0.8120 C   0  0  0  0  0  0  0  0  0  0  0  0
    4.9440   -8.8480    1.6370 C   0  0  0  0  0  3  0  0  0  0  0  0
    5.9440   -7.8770    1.5820 C   0  0  0  0  0  0  0  0  0  0  0  0
    6.9760   -7.9830    2.4330 F   0  0  0  0  0  0  0  0  0  0  0  0
   10.2410   -2.7860   -0.0340 C   0  0  0  0  0  0  0  0  0  0  0  0
    9.7900   -2.2910    1.2000 C   0  0  0  0  0  3  0  0  0  0  0  0
    8.7190   -2.8710    1.8900 C   0  0  0  0  0  3  0  0  0  0  0  0
    8.0970   -3.9820    1.3060 C   0  0  0  0  0  0  0  0  0  0  0  0
    8.5140   -4.4980    0.0810 C   0  0  0  0  0  0  0  0  0  0  0  0
    9.5900   -3.9030   -0.5960 C   0  0  0  0  0  3  0  0  0  0  0  0
    7.7400   -5.5730   -0.2870 N   0  0  0  0  0  0  0  0  0  0  0  0
    6.8770   -5.7530    0.6920 C   0  0  0  0  0  0  0  0  0  0  0  0
    7.0410   -4.7900    1.6760 N   0  0  0  0  0  0  0  0  0  0  0  0
    6.1990   -4.6400    2.8600 C   0  0  0  0  0  3  0  0  0  0  0  0
    6.7640   -3.6390    3.8800 C   0  0  0  0  0  2  0  0  0  0  0  0
    5.8780   -3.5600    5.1230 C   0  0  0  0  0  2  0  0  0  0  0  0
    4.4260   -3.2560    4.7660 C   0  0  0  0  0  2  0  0  0  0  0  0
    3.8670   -4.2620    3.7650 C   0  0  0  0  0  2  0  0  0  0  0  0
    4.7320   -4.3460    2.5080 C   0  0  0  0  0  2  0  0  0  0  0  0
   12.5070   -2.7630   -0.7660 O   0  0  0  0  0  1  0  0  0  0  0  0
   11.4050   -2.1270   -0.7480 C   0  0  0  0  0  0  0  0  0  0  0  0
   11.1980   -0.9870   -1.2720 O   0  0  0  0  0  0  0  0  0  0  0  0
    2.7390   -9.5640    0.8370 O   0  0  0  0  0  0  0  0  0  0  0  0
    2.7980  -10.8490    1.4930 C   0  0  1  0  0  3  0  0  0  0  0  0
    1.7680  -10.9690    2.6210 C   0  0  0  0  0  0  0  0  0  0  0  0
    1.3120   -9.7890    3.2430 C   0  0  0  0  0  3  0  0  0  0  0  0
    0.3670   -9.8380    4.2690 C   0  0  0  0  0  3  0  0  0  0  0  0
   -0.1390  -11.0640    4.6720 C   0  0  0  0  0  0  0  0  0  0  0  0
   -1.0400  -11.1130    5.6630 F   0  0  0  0  0  0  0  0  0  0  0  0
    0.2750  -12.2420    4.0640 C   0  0  0  0  0  3  0  0  0  0  0  0
    1.2210  -12.1950    3.0370 C   0  0  0  0  0  3  0  0  0  0  0  0
    3.0370  -12.0530    0.5720 C   0  0  0  0  0  0  0  0  0  0  0  0
    2.2670  -12.2290   -0.5960 C   0  0  0  0  0  3  0  0  0  0  0  0
    2.4490  -13.3440   -1.4170 C   0  0  0  0  0  3  0  0  0  0  0  0
    3.3830  -14.3090   -1.0670 C   0  0  0  0  0  0  0  0  0  0  0  0
    3.5550  -15.3790   -1.8530 F   0  0  0  0  0  0  0  0  0  0  0  0
    4.1270  -14.1870    0.0990 C   0  0  0  0  0  3  0  0  0  0  0  0
    3.9430  -13.0730    0.9220 C   0  0  0  0  0  3  0  0  0  0  0  0
  1  6  1  0  0  0  0
  2  3  1  0  0  0  0
  2  1  2  0  0  0  0
  3  4  2  0  0  0  0
  4 26  1  0  0  0  0
  4  5  1  0  0  0  0
  6  5  2  0  0  0  0
  6  7  1  0  0  0  0
  8  9  1  0  0  0  0
  9 10  2  0  0  0  0
 11 16  1  0  0  0  0
 11 10  1  0  0  0  0
 12 11  2  0  0  0  0
 13  8  2  0  0  0  0
 13 12  1  0  0  0  0
 14 12  1  0  0  0  0
 14 15  2  0  0  0  0
 15  1  1  0  0  0  0
 15 16  1  0  0  0  0
 16 17  1  0  0  0  0
 17 18  1  0  0  0  0
 18 19  1  0  0  0  0
 20 19  1  0  0  0  0
 21 20  1  0  0  0  0
 22 17  1  0  0  0  0
 22 21  1  0  0  0  0
 23 24  1  0  0  0  0
 24  8  1  0  0  0  0
 25 24  2  0  0  0  0
 27 26  1  6  0  0  0
 27 28  1  0  0  0  0
 28 34  2  0  0  0  0
 28 29  1  0  0  0  0
 29 30  2  0  0  0  0
 30 31  1  0  0  0  0
 31 32  1  0  0  0  0
 33 31  2  0  0  0  0
 34 33  1  0  0  0  0
 35 41  1  0  0  0  0
 35 27  1  0  0  0  0
 36 35  2  0  0  0  0
 37 38  2  0  0  0  0
 37 36  1  0  0  0  0
 38 40  1  0  0  0  0
 39 38  1  0  0  0  0
 40 41  2  0  0  0  0
M  END
>  <minimizedAffinity>
-8.724823

$$$$

 OpenBabel09132214283D

 41 46  0  0  1  0  0  0  0  0999 V2000
    5.8530   -7.2250    1.4490 C   0  0  0  0  0  0  0  0  0  0  0  0
    6.1780   -8.2550    2.3360 C   0  0  0  0  0  3  0  0  0  0  0  0
    5.3810   -9.4030    2.3980 C   0  0  0  0  0  3  0  0  0  0  0  0
    4.2330   -9.5200    1.6060 C   0  0  0  0  0  0  0  0  0  0  0  0
    3.8980   -8.4870    0.7370 C   0  0  0  0  0  3  0  0  0  0  0  0
    4.7080   -7.3520    0.6630 C   0  0  0  0  0  0  0  0  0  0  0  0
    4.3860   -6.4020   -0.2290 F   0  0  0  0  0  0  0  0  0  0  0  0
    9.7130   -2.7850    0.3450 C   0  0  0  0  0  0  0  0  0  0  0  0
    9.1000   -2.1810    1.4550 C   0  0  0  0  0  3  0  0  0  0  0  0
    8.0620   -2.7990    2.1630 C   0  0  0  0  0  3  0  0  0  0  0  0
    7.6440   -4.0630    1.7260 C   0  0  0  0  0  0  0  0  0  0  0  0
    8.2240   -4.6910    0.6260 C   0  0  0  0  0  0  0  0  0  0  0  0
    9.2640   -4.0550   -0.0700 C   0  0  0  0  0  3  0  0  0  0  0  0
    7.6340   -5.9090    0.3890 N   0  0  0  0  0  0  0  0  0  0  0  0
    6.7250   -6.0630    1.3290 C   0  0  0  0  0  0  0  0  0  0  0  0
    6.6780   -4.9500    2.1560 N   0  0  0  0  0  0  0  0  0  0  0  0
    5.7290   -4.7480    3.2470 C   0  0  0  0  0  3  0  0  0  0  0  0
    6.2800   -3.8550    4.3700 C   0  0  0  0  0  2  0  0  0  0  0  0
    5.2730   -3.7200    5.5120 C   0  0  0  0  0  2  0  0  0  0  0  0
    3.9130   -3.2400    5.0140 C   0  0  0  0  0  2  0  0  0  0  0  0
    3.3640   -4.1400    3.9110 C   0  0  0  0  0  2  0  0  0  0  0  0
    4.3510   -4.2770    2.7530 C   0  0  0  0  0  2  0  0  0  0  0  0
   11.9480   -2.6880   -0.4710 O   0  0  0  0  0  1  0  0  0  0  0  0
   10.8330   -2.0790   -0.3930 C   0  0  0  0  0  0  0  0  0  0  0  0
   10.5810   -0.9300   -0.8770 O   0  0  0  0  0  0  0  0  0  0  0  0
    3.5860  -10.7180    1.7030 O   0  0  0  0  0  0  0  0  0  0  0  0
    4.2370  -11.9450    1.3050 C   0  0  1  0  0  3  0  0  0  0  0  0
    4.7540  -12.7400    2.5080 C   0  0  0  0  0  0  0  0  0  0  0  0
    4.9160  -14.1340    2.3720 C   0  0  0  0  0  3  0  0  0  0  0  0
    5.3930  -14.9070    3.4320 C   0  0  0  0  0  3  0  0  0  0  0  0
    5.7230  -14.2920    4.6310 C   0  0  0  0  0  0  0  0  0  0  0  0
    6.1720  -15.0350    5.6520 F   0  0  0  0  0  0  0  0  0  0  0  0
    5.5940  -12.9190    4.7870 C   0  0  0  0  0  3  0  0  0  0  0  0
    5.1170  -12.1430    3.7280 C   0  0  0  0  0  3  0  0  0  0  0  0
    3.5770  -12.6980    0.1420 C   0  0  0  0  0  0  0  0  0  0  0  0
    4.0260  -13.9810   -0.2310 C   0  0  0  0  0  3  0  0  0  0  0  0
    3.4590  -14.6550   -1.3150 C   0  0  0  0  0  3  0  0  0  0  0  0
    2.4550  -14.0450   -2.0530 C   0  0  0  0  0  0  0  0  0  0  0  0
    1.9130  -14.6910   -3.0940 F   0  0  0  0  0  0  0  0  0  0  0  0
    2.0190  -12.7660   -1.7370 C   0  0  0  0  0  3  0  0  0  0  0  0
    2.5880  -12.0900   -0.6560 C   0  0  0  0  0  3  0  0  0  0  0  0
  1  2  1  0  0  0  0
  2  3  2  0  0  0  0
  4 26  1  0  0  0  0
  4  3  1  0  0  0  0
  5  4  2  0  0  0  0
  6  5  1  0  0  0  0
  6  1  2  0  0  0  0
  7  6  1  0  0  0  0
  8  9  1  0  0  0  0
  9 10  2  0  0  0  0
 11 16  1  0  0  0  0
 11 10  1  0  0  0  0
 12 11  2  0  0  0  0
 13  8  2  0  0  0  0
 13 12  1  0  0  0  0
 14 12  1  0  0  0  0
 14 15  2  0  0  0  0
 15  1  1  0  0  0  0
 15 16  1  0  0  0  0
 16 17  1  0  0  0  0
 17 18  1  0  0  0  0
 18 19  1  0  0  0  0
 20 19  1  0  0  0  0
 21 20  1  0  0  0  0
 22 17  1  0  0  0  0
 22 21  1  0  0  0  0
 23 24  1  0  0  0  0
 24  8  1  0  0  0  0
 25 24  2  0  0  0  0
 27 26  1  1  0  0  0
 27 28  1  0  0  0  0
 28 34  1  0  0  0  0
 29 28  2  0  0  0  0
 29 30  1  0  0  0  0
 30 31  2  0  0  0  0
 31 33  1  0  0  0  0
 31 32  1  0  0  0  0
 34 33  2  0  0  0  0
 35 27  1  0  0  0  0
 36 35  1  0  0  0  0
 37 36  2  0  0  0  0
 38 40  2  0  0  0  0
 38 37  1  0  0  0  0
 39 38  1  0  0  0  0
 40 41  1  0  0  0  0
 41 35  2  0  0  0  0
M  END
>  <minimizedAffinity>
-8.72349834

$$$$

 OpenBabel09132214283D

 41 46  0  0  1  0  0  0  0  0999 V2000
    7.2410   -5.2350    1.2760 C   0  0  0  0  0  0  0  0  0  0  0  0
    7.5790   -4.4880    2.4080 C   0  0  0  0  0  3  0  0  0  0  0  0
    8.5090   -3.4480    2.3090 C   0  0  0  0  0  3  0  0  0  0  0  0
    9.1380   -3.1660    1.0910 C   0  0  0  0  0  0  0  0  0  0  0  0
    8.8170   -3.9210   -0.0320 C   0  0  0  0  0  3  0  0  0  0  0  0
    7.8730   -4.9450    0.0670 C   0  0  0  0  0  0  0  0  0  0  0  0
    7.5460   -5.6130   -1.0500 F   0  0  0  0  0  0  0  0  0  0  0  0
    3.4290   -9.8470    1.1070 C   0  0  0  0  0  0  0  0  0  0  0  0
    2.7770   -9.1480    2.1350 C   0  0  0  0  0  3  0  0  0  0  0  0
    3.2490   -7.9230    2.6210 C   0  0  0  0  0  3  0  0  0  0  0  0
    4.4120   -7.4020    2.0410 C   0  0  0  0  0  0  0  0  0  0  0  0
    5.0900   -8.0680    1.0220 C   0  0  0  0  0  0  0  0  0  0  0  0
    4.6000   -9.2960    0.5490 C   0  0  0  0  0  3  0  0  0  0  0  0
    6.2040   -7.3650    0.6330 N   0  0  0  0  0  0  0  0  0  0  0  0
    6.2170   -6.2690    1.3620 C   0  0  0  0  0  0  0  0  0  0  0  0
    5.1550   -6.2580    2.2540 N   0  0  0  0  0  0  0  0  0  0  0  0
    4.9140   -5.2360    3.2690 C   0  0  0  0  0  3  0  0  0  0  0  0
    4.0030   -4.1000    2.7790 C   0  0  0  0  0  2  0  0  0  0  0  0
    3.8280   -3.0300    3.8560 C   0  0  0  0  0  2  0  0  0  0  0  0
    3.3410   -3.6270    5.1740 C   0  0  0  0  0  2  0  0  0  0  0  0
    4.2590   -4.7430    5.6630 C   0  0  0  0  0  2  0  0  0  0  0  0
    4.4370   -5.8300    4.6040 C   0  0  0  0  0  2  0  0  0  0  0  0
    3.5650  -11.7830   -0.2730 O   0  0  0  0  0  0  0  0  0  0  0  0
    2.8840  -11.1720    0.6110 C   0  0  0  0  0  0  0  0  0  0  0  0
    1.7870  -11.5760    1.1110 O   0  0  0  0  0  1  0  0  0  0  0  0
    9.9650   -2.0790    1.1080 O   0  0  0  0  0  0  0  0  0  0  0  0
   10.1560   -1.2760   -0.0770 C   0  0  1  0  0  3  0  0  0  0  0  0
   10.0780    0.2240    0.2250 C   0  0  0  0  0  0  0  0  0  0  0  0
    9.4600    0.6380    1.4220 C   0  0  0  0  0  3  0  0  0  0  0  0
    9.3710    1.9920    1.7520 C   0  0  0  0  0  3  0  0  0  0  0  0
    9.9090    2.9400    0.8950 C   0  0  0  0  0  0  0  0  0  0  0  0
    9.8160    4.2400    1.2080 F   0  0  0  0  0  0  0  0  0  0  0  0
   10.5430    2.5610   -0.2800 C   0  0  0  0  0  3  0  0  0  0  0  0
   10.6340    1.2070   -0.6130 C   0  0  0  0  0  3  0  0  0  0  0  0
   11.2210   -1.7840   -1.0580 C   0  0  0  0  0  0  0  0  0  0  0  0
   12.1230   -2.7990   -0.6780 C   0  0  0  0  0  3  0  0  0  0  0  0
   13.1220   -3.2370   -1.5500 C   0  0  0  0  0  3  0  0  0  0  0  0
   13.2480   -2.6490   -2.8000 C   0  0  0  0  0  0  0  0  0  0  0  0
   14.2080   -3.0680   -3.6350 F   0  0  0  0  0  0  0  0  0  0  0  0
   12.4020   -1.6190   -3.1890 C   0  0  0  0  0  3  0  0  0  0  0  0
   11.4050   -1.1780   -2.3160 C   0  0  0  0  0  3  0  0  0  0  0  0
  1 15  1  0  0  0  0
  1  2  1  0  0  0  0
  3  2  2  0  0  0  0
  4 26  1  0  0  0  0
  4  3  1  0  0  0  0
  5  6  1  0  0  0  0
  5  4  2  0  0  0  0
  6  1  2  0  0  0  0
  7  6  1  0  0  0  0
  8  9  1  0  0  0  0
  9 10  2  0  0  0  0
 11 16  1  0  0  0  0
 11 10  1  0  0  0  0
 12 11  2  0  0  0  0
 13 12  1  0  0  0  0
 13  8  2  0  0  0  0
 14 12  1  0  0  0  0
 14 15  2  0  0  0  0
 15 16  1  0  0  0  0
 16 17  1  0  0  0  0
 17 22  1  0  0  0  0
 18 17  1  0  0  0  0
 18 19  1  0  0  0  0
 19 20  1  0  0  0  0
 20 21  1  0  0  0  0
 22 21  1  0  0  0  0
 23 24  2  0  0  0  0
 24  8  1  0  0  0  0
 24 25  1  0  0  0  0
 27 28  1  0  0  0  0
 27 26  1  1  0  0  0
 28 29  1  0  0  0  0
 29 30  2  0  0  0  0
 31 32  1  0  0  0  0
 31 30  1  0  0  0  0
 33 31  2  0  0  0  0
 34 33  1  0  0  0  0
 34 28  2  0  0  0  0
 35 36  1  0  0  0  0
 35 27  1  0  0  0  0
 37 36  2  0  0  0  0
 38 37  1  0  0  0  0
 39 38  1  0  0  0  0
 40 38  2  0  0  0  0
 40 41  1  0  0  0  0
 41 35  2  0  0  0  0
M  END
>  <minimizedAffinity>
-8.63503838

$$$$

 OpenBabel09132214283D

 41 46  0  0  1  0  0  0  0  0999 V2000
    3.4490  -10.5580    2.1860 C   0  0  0  0  0  0  0  0  0  0  0  0
    2.5110   -9.5610    2.4680 C   0  0  0  0  0  3  0  0  0  0  0  0
    2.8540   -8.4930    3.3030 C   0  0  0  0  0  3  0  0  0  0  0  0
    4.1200   -8.4260    3.8960 C   0  0  0  0  0  0  0  0  0  0  0  0
    5.0480   -9.4280    3.6320 C   0  0  0  0  0  3  0  0  0  0  0  0
    4.7090  -10.4810    2.7810 C   0  0  0  0  0  0  0  0  0  0  0  0
    5.6490  -11.3980    2.5040 F   0  0  0  0  0  0  0  0  0  0  0  0
    2.1190  -14.4400   -2.1720 C   0  0  0  0  0  0  0  0  0  0  0  0
    2.1530  -15.3830   -1.1320 C   0  0  0  0  0  3  0  0  0  0  0  0
    2.4330  -15.0260    0.1920 C   0  0  0  0  0  3  0  0  0  0  0  0
    2.6820  -13.6730    0.4580 C   0  0  0  0  0  0  0  0  0  0  0  0
    2.6610  -12.7090   -0.5470 C   0  0  0  0  0  0  0  0  0  0  0  0
    2.3780  -13.0880   -1.8690 C   0  0  0  0  0  3  0  0  0  0  0  0
    2.9500  -11.4650   -0.0390 N   0  0  0  0  0  0  0  0  0  0  0  0
    3.1190  -11.6300    1.2560 C   0  0  0  0  0  0  0  0  0  0  0  0
    2.9890  -12.9660    1.6030 N   0  0  0  0  0  0  0  0  0  0  0  0
    3.1980  -13.5160    2.9400 C   0  0  0  0  0  3  0  0  0  0  0  0
    1.9440  -14.1890    3.5200 C   0  0  0  0  0  2  0  0  0  0  0  0
    2.1980  -14.6970    4.9390 C   0  0  0  0  0  2  0  0  0  0  0  0
    3.4190  -15.6100    5.0040 C   0  0  0  0  0  2  0  0  0  0  0  0
    4.6640  -14.9300    4.4420 C   0  0  0  0  0  2  0  0  0  0  0  0
    4.4350  -14.4260    3.0180 C   0  0  0  0  0  2  0  0  0  0  0  0
    2.2150  -14.1090   -4.5280 O   0  0  0  0  0  0  0  0  0  0  0  0
    1.8110  -14.8710   -3.5920 C   0  0  0  0  0  0  0  0  0  0  0  0
    1.1720  -15.9590   -3.7460 O   0  0  0  0  0  1  0  0  0  0  0  0
    4.3550   -7.2970    4.6270 O   0  0  0  0  0  0  0  0  0  0  0  0
    4.6950   -6.0530    3.9760 C   0  0  1  0  0  3  0  0  0  0  0  0
    5.1270   -6.2620    2.5210 C   0  0  0  0  0  0  0  0  0  0  0  0
    4.2910   -5.7770    1.4950 C   0  0  0  0  0  3  0  0  0  0  0  0
    4.6400   -5.9320    0.1530 C   0  0  0  0  0  3  0  0  0  0  0  0
    5.8320   -6.5600   -0.1750 C   0  0  0  0  0  0  0  0  0  0  0  0
    6.1630   -6.7160   -1.4640 F   0  0  0  0  0  0  0  0  0  0  0  0
    6.6860   -7.0290    0.8140 C   0  0  0  0  0  3  0  0  0  0  0  0
    6.3390   -6.8760    2.1590 C   0  0  0  0  0  3  0  0  0  0  0  0
    3.7970   -4.8570    4.3210 C   0  0  0  0  0  0  0  0  0  0  0  0
    4.3520   -3.5810    4.5460 C   0  0  0  0  0  3  0  0  0  0  0  0
    3.5460   -2.4980    4.9020 C   0  0  0  0  0  3  0  0  0  0  0  0
    2.1810   -2.6830    5.0630 C   0  0  0  0  0  0  0  0  0  0  0  0
    1.4080   -1.6430    5.4070 F   0  0  0  0  0  0  0  0  0  0  0  0
    1.6080   -3.9350    4.8900 C   0  0  0  0  0  3  0  0  0  0  0  0
    2.4150   -5.0200    4.5370 C   0  0  0  0  0  3  0  0  0  0  0  0
  1  2  2  0  0  0  0
  1  6  1  0  0  0  0
  2  3  1  0  0  0  0
  3  4  2  0  0  0  0
  4 26  1  0  0  0  0
  5  4  1  0  0  0  0
  6  5  2  0  0  0  0
  7  6  1  0  0  0  0
  8 13  2  0  0  0  0
  8  9  1  0  0  0  0
  9 10  2  0  0  0  0
 10 11  1  0  0  0  0
 11 16  1  0  0  0  0
 12 14  1  0  0  0  0
 12 11  2  0  0  0  0
 13 12  1  0  0  0  0
 14 15  2  0  0  0  0
 15 16  1  0  0  0  0
 15  1  1  0  0  0  0
 16 17  1  0  0  0  0
 17 22  1  0  0  0  0
 17 18  1  0  0  0  0
 18 19  1  0  0  0  0
 19 20  1  0  0  0  0
 21 20  1  0  0  0  0
 22 21  1  0  0  0  0
 23 24  2  0  0  0  0
 24  8  1  0  0  0  0
 25 24  1  0  0  0  0
 27 35  1  0  0  0  0
 27 26  1  6  0  0  0
 28 27  1  0  0  0  0
 29 28  2  0  0  0  0
 30 29  1  0  0  0  0
 31 30  2  0  0  0  0
 31 33  1  0  0  0  0
 32 31  1  0  0  0  0
 33 34  2  0  0  0  0
 34 28  1  0  0  0  0
 35 41  2  0  0  0  0
 35 36  1  0  0  0  0
 36 37  2  0  0  0  0
 37 38  1  0  0  0  0
 38 39  1  0  0  0  0
 40 38  2  0  0  0  0
 41 40  1  0  0  0  0
M  END
>  <minimizedAffinity>
-8.60070419

$$$$
