
 OpenBabel09132204463D

 30 32  0  0  0  0  0  0  0  0999 V2000
    2.7480   -5.9840    6.5790 C   0  0  0  0  0  0  0  0  0  0  0  0
    2.1590   -5.7400    7.7680 C   0  0  0  0  0  2  0  0  0  0  0  0
    2.7130   -4.9720    8.8880 C   0  0  0  0  0  0  0  0  0  0  0  0
    2.0430   -3.8310    9.3380 C   0  0  0  0  0  3  0  0  0  0  0  0
    2.5800   -3.0610   10.3740 C   0  0  0  0  0  3  0  0  0  0  0  0
    3.7880   -3.4280   10.9690 C   0  0  0  0  0  0  0  0  0  0  0  0
    4.4740   -4.5560   10.5100 C   0  0  0  0  0  3  0  0  0  0  0  0
    3.9340   -5.3250    9.4750 C   0  0  0  0  0  3  0  0  0  0  0  0
    4.2560   -2.5760   11.9490 O   0  0  0  0  0  0  0  0  0  0  0  0
    4.5070   -1.2760   11.5850 C   0  0  0  0  0  0  0  0  0  0  0  0
    5.5270   -0.9780   10.6810 C   0  0  0  0  0  0  0  0  0  0  0  0
    6.2640   -1.9580   10.1390 F   0  0  0  0  0  0  0  0  0  0  0  0
    5.8130    0.3400   10.3330 C   0  0  0  0  0  3  0  0  0  0  0  0
    5.0850    1.3810   10.9080 C   0  0  0  0  0  3  0  0  0  0  0  0
    4.0810    1.0960   11.8370 C   0  0  0  0  0  3  0  0  0  0  0  0
    3.7980   -0.2300   12.1820 C   0  0  0  0  0  0  0  0  0  0  0  0
    2.5590   -0.5290   13.3450 Cl  0  0  0  0  0  0  0  0  0  0  0  0
    4.0500   -5.5830    6.3160 N   0  0  0  0  0  4  0  0  0  0  0  0
    4.5670   -4.3570    5.9620 C   0  0  0  0  0  0  0  0  0  0  0  0
    5.7180   -4.2850    5.5180 O   0  0  0  0  0  0  0  0  0  0  0  0
    4.7440   -6.3180    6.2780 H   0  0  0  0  0  0  0  0  0  0  0  0
    3.8360   -3.0930    6.1990 C   0  0  0  0  0  0  0  0  0  0  0  0
    4.3270   -2.2060    7.1640 C   0  0  0  0  0  3  0  0  0  0  0  0
    3.6200   -1.0400    7.4660 C   0  0  0  0  0  3  0  0  0  0  0  0
    2.4150   -0.7690    6.8170 C   0  0  0  0  0  3  0  0  0  0  0  0
    1.9120   -1.6640    5.8730 C   0  0  0  0  0  3  0  0  0  0  0  0
    2.6140   -2.8340    5.5730 C   0  0  0  0  0  3  0  0  0  0  0  0
    2.5010   -7.4680    4.7180 O   0  0  0  0  0  0  0  0  0  0  0  0
    1.8630   -6.8520    5.6230 C   0  0  0  0  0  0  0  0  0  0  0  0
    0.6210   -6.7930    5.8500 O   0  0  0  0  0  1  0  0  0  0  0  0
  1  2  1  0  0  0  0
  2  3  1  0  0  0  0
  3  4  2  0  0  0  0
  3  8  1  0  0  0  0
  4  5  1  0  0  0  0
  5  6  2  0  0  0  0
  6  9  1  0  0  0  0
  7  6  1  0  0  0  0
  8  7  2  0  0  0  0
 10  9  1  0  0  0  0
 10 16  1  0  0  0  0
 11 10  2  0  0  0  0
 12 11  1  0  0  0  0
 13 11  1  0  0  0  0
 13 14  2  0  0  0  0
 14 15  1  0  0  0  0
 15 16  2  0  0  0  0
 16 17  1  0  0  0  0
 18  1  2  0  0  0  0
 19 22  1  0  0  0  0
 19 18  1  0  0  0  0
 20 19  2  0  0  0  0
 21 18  1  0  0  0  0
 22 23  1  0  0  0  0
 23 24  2  0  0  0  0
 25 24  1  0  0  0  0
 26 25  2  0  0  0  0
 27 26  1  0  0  0  0
 27 22  2  0  0  0  0
 28 29  2  0  0  0  0
 29 30  1  0  0  0  0
 29  1  1  0  0  0  0
M  END
>  <minimizedAffinity>
-5.97941732

$$$$
