
 OpenBabel09132204463D

 30 32  0  0  0  0  0  0  0  0999 V2000
    3.2270   -0.6100   10.0190 C   0  0  0  0  0  0  0  0  0  0  0  0
    3.8890   -0.5240    8.8470 C   0  0  0  0  0  2  0  0  0  0  0  0
    3.6190   -1.2850    7.6220 C   0  0  0  0  0  0  0  0  0  0  0  0
    4.6280   -2.0790    7.0700 C   0  0  0  0  0  3  0  0  0  0  0  0
    4.4050   -2.7750    5.8790 C   0  0  0  0  0  3  0  0  0  0  0  0
    3.1710   -2.6840    5.2320 C   0  0  0  0  0  0  0  0  0  0  0  0
    2.1650   -1.8750    5.7670 C   0  0  0  0  0  3  0  0  0  0  0  0
    2.3900   -1.1810    6.9600 C   0  0  0  0  0  3  0  0  0  0  0  0
    3.0670   -3.3700    4.0390 O   0  0  0  0  0  0  0  0  0  0  0  0
    3.2590   -4.7290    4.0750 C   0  0  0  0  0  0  0  0  0  0  0  0
    2.3450   -5.5550    4.7310 C   0  0  0  0  0  0  0  0  0  0  0  0
    1.2580   -5.0360    5.3170 F   0  0  0  0  0  0  0  0  0  0  0  0
    2.5500   -6.9310    4.8040 C   0  0  0  0  0  3  0  0  0  0  0  0
    3.6910   -7.4940    4.2330 C   0  0  0  0  0  3  0  0  0  0  0  0
    4.6270   -6.6720    3.5990 C   0  0  0  0  0  3  0  0  0  0  0  0
    4.4160   -5.2910    3.5280 C   0  0  0  0  0  0  0  0  0  0  0  0
    5.6090   -4.3170    2.7490 Cl  0  0  0  0  0  0  0  0  0  0  0  0
    2.2200   -1.5450   10.2200 N   0  0  0  0  0  4  0  0  0  0  0  0
    2.2470   -2.9210   10.2090 C   0  0  0  0  0  0  0  0  0  0  0  0
    1.1860   -3.5510   10.1480 O   0  0  0  0  0  0  0  0  0  0  0  0
    1.2800   -1.1790   10.2930 H   0  0  0  0  0  0  0  0  0  0  0  0
    3.4990   -3.6890   10.3860 C   0  0  0  0  0  0  0  0  0  0  0  0
    4.3210   -3.3890   11.4780 C   0  0  0  0  0  3  0  0  0  0  0  0
    5.5460   -4.0420   11.6310 C   0  0  0  0  0  3  0  0  0  0  0  0
    5.9570   -4.9820   10.6850 C   0  0  0  0  0  3  0  0  0  0  0  0
    5.1500   -5.2640    9.5820 C   0  0  0  0  0  3  0  0  0  0  0  0
    3.9270   -4.6090    9.4230 C   0  0  0  0  0  3  0  0  0  0  0  0
    3.6580   -0.0620   12.3080 O   0  0  0  0  0  1  0  0  0  0  0  0
    3.7980    0.3490   11.1170 C   0  0  0  0  0  0  0  0  0  0  0  0
    4.2870    1.4280   10.6780 O   0  0  0  0  0  0  0  0  0  0  0  0
  1 18  2  0  0  0  0
  1 29  1  0  0  0  0
  2  1  1  0  0  0  0
  3  2  1  0  0  0  0
  4  3  1  0  0  0  0
  5  4  2  0  0  0  0
  6  7  2  0  0  0  0
  6  5  1  0  0  0  0
  7  8  1  0  0  0  0
  8  3  2  0  0  0  0
  9 10  1  0  0  0  0
  9  6  1  0  0  0  0
 10 11  1  0  0  0  0
 11 13  2  0  0  0  0
 11 12  1  0  0  0  0
 14 13  1  0  0  0  0
 15 14  2  0  0  0  0
 16 15  1  0  0  0  0
 16 10  2  0  0  0  0
 17 16  1  0  0  0  0
 18 21  1  0  0  0  0
 19 18  1  0  0  0  0
 19 22  1  0  0  0  0
 20 19  2  0  0  0  0
 22 23  1  0  0  0  0
 23 24  2  0  0  0  0
 25 24  1  0  0  0  0
 26 25  2  0  0  0  0
 27 26  1  0  0  0  0
 27 22  2  0  0  0  0
 29 28  1  0  0  0  0
 30 29  2  0  0  0  0
M  END
>  <minimizedAffinity>
-6.01112795

$$$$
