
 OpenBabel09132204463D

 30 32  0  0  0  0  0  0  0  0999 V2000
    4.3520    0.0510    9.6780 C   0  0  0  0  0  0  0  0  0  0  0  0
    3.2650   -0.7040    9.4140 C   0  0  0  0  0  2  0  0  0  0  0  0
    3.0210   -1.5150    8.2170 C   0  0  0  0  0  0  0  0  0  0  0  0
    2.3700   -0.9450    7.1200 C   0  0  0  0  0  3  0  0  0  0  0  0
    2.0880   -1.7150    5.9880 C   0  0  0  0  0  3  0  0  0  0  0  0
    2.4580   -3.0600    5.9440 C   0  0  0  0  0  0  0  0  0  0  0  0
    3.0910   -3.6430    7.0450 C   0  0  0  0  0  3  0  0  0  0  0  0
    3.3730   -2.8700    8.1760 C   0  0  0  0  0  3  0  0  0  0  0  0
    2.0920   -3.7450    4.8030 O   0  0  0  0  0  0  0  0  0  0  0  0
    3.0310   -4.5740    4.2380 C   0  0  0  0  0  0  0  0  0  0  0  0
    4.0100   -4.0580    3.3890 C   0  0  0  0  0  0  0  0  0  0  0  0
    4.0610   -2.7440    3.1270 F   0  0  0  0  0  0  0  0  0  0  0  0
    4.9440   -4.8950    2.7820 C   0  0  0  0  0  3  0  0  0  0  0  0
    4.8930   -6.2700    3.0090 C   0  0  0  0  0  3  0  0  0  0  0  0
    3.8980   -6.8000    3.8350 C   0  0  0  0  0  3  0  0  0  0  0  0
    2.9630   -5.9550    4.4420 C   0  0  0  0  0  0  0  0  0  0  0  0
    1.7450   -6.6600    5.4400 Cl  0  0  0  0  0  0  0  0  0  0  0  0
    5.3690    0.2120    8.7460 N   0  0  0  0  0  4  0  0  0  0  0  0
    6.5620   -0.4550    8.5830 C   0  0  0  0  0  0  0  0  0  0  0  0
    7.4350    0.0270    7.8540 O   0  0  0  0  0  0  0  0  0  0  0  0
    5.2880    1.0110    8.1320 H   0  0  0  0  0  0  0  0  0  0  0  0
    6.8030   -1.7970    9.1580 C   0  0  0  0  0  0  0  0  0  0  0  0
    6.9650   -1.9130   10.5430 C   0  0  0  0  0  3  0  0  0  0  0  0
    7.2690   -3.1530   11.1100 C   0  0  0  0  0  3  0  0  0  0  0  0
    7.4280   -4.2720   10.2910 C   0  0  0  0  0  3  0  0  0  0  0  0
    7.2910   -4.1530    8.9080 C   0  0  0  0  0  3  0  0  0  0  0  0
    6.9930   -2.9130    8.3380 C   0  0  0  0  0  3  0  0  0  0  0  0
    4.5450    2.0270   11.0130 O   0  0  0  0  0  0  0  0  0  0  0  0
    4.2650    0.7920   11.0540 C   0  0  0  0  0  0  0  0  0  0  0  0
    3.9680    0.0550   12.0360 O   0  0  0  0  0  1  0  0  0  0  0  0
  1 29  1  0  0  0  0
  2  1  1  0  0  0  0
  3  2  1  0  0  0  0
  4  3  2  0  0  0  0
  5  4  1  0  0  0  0
  6  5  2  0  0  0  0
  6  7  1  0  0  0  0
  7  8  2  0  0  0  0
  8  3  1  0  0  0  0
  9  6  1  0  0  0  0
 10 16  1  0  0  0  0
 10  9  1  0  0  0  0
 11 10  2  0  0  0  0
 12 11  1  0  0  0  0
 13 14  2  0  0  0  0
 13 11  1  0  0  0  0
 14 15  1  0  0  0  0
 15 16  2  0  0  0  0
 16 17  1  0  0  0  0
 18  1  2  3  0  0  0
 19 18  1  0  0  0  0
 19 22  1  0  0  0  0
 20 19  2  0  0  0  0
 21 18  1  0  0  0  0
 22 23  1  0  0  0  0
 23 24  2  0  0  0  0
 25 24  1  0  0  0  0
 26 25  2  0  0  0  0
 27 26  1  0  0  0  0
 27 22  2  0  0  0  0
 28 29  2  0  0  0  0
 29 30  1  0  0  0  0
M  END
>  <minimizedAffinity>
-6.10471487

$$$$
