
 OpenBabel09132204463D

 30 32  0  0  0  0  0  0  0  0999 V2000
    4.7530   -0.5940   10.6050 C   0  0  0  0  0  0  0  0  0  0  0  0
    4.0010   -0.1260    9.5880 C   0  0  0  0  0  2  0  0  0  0  0  0
    3.6060   -0.8490    8.3740 C   0  0  0  0  0  0  0  0  0  0  0  0
    2.2490   -1.0200    8.0870 C   0  0  0  0  0  3  0  0  0  0  0  0
    1.8530   -1.7460    6.9600 C   0  0  0  0  0  3  0  0  0  0  0  0
    2.8100   -2.3030    6.1100 C   0  0  0  0  0  0  0  0  0  0  0  0
    4.1680   -2.1540    6.4030 C   0  0  0  0  0  3  0  0  0  0  0  0
    4.5620   -1.4260    7.5300 C   0  0  0  0  0  3  0  0  0  0  0  0
    2.3170   -3.0400    5.0530 O   0  0  0  0  0  0  0  0  0  0  0  0
    3.1250   -4.0260    4.5420 C   0  0  0  0  0  0  0  0  0  0  0  0
    3.9730   -3.7600    3.4670 C   0  0  0  0  0  0  0  0  0  0  0  0
    4.0250   -2.5330    2.9290 F   0  0  0  0  0  0  0  0  0  0  0  0
    4.7700   -4.7620    2.9190 C   0  0  0  0  0  3  0  0  0  0  0  0
    4.7100   -6.0560    3.4360 C   0  0  0  0  0  3  0  0  0  0  0  0
    3.8430   -6.3400    4.4940 C   0  0  0  0  0  3  0  0  0  0  0  0
    3.0450   -5.3290    5.0410 C   0  0  0  0  0  0  0  0  0  0  0  0
    1.9800   -5.7350    6.3370 Cl  0  0  0  0  0  0  0  0  0  0  0  0
    5.3340   -1.8540   10.5600 N   0  0  0  0  0  4  0  0  0  0  0  0
    4.8490   -3.0900   10.9250 C   0  0  0  0  0  0  0  0  0  0  0  0
    5.6300   -4.0390   11.0480 O   0  0  0  0  0  0  0  0  0  0  0  0
    6.3140   -1.8850   10.3110 H   0  0  0  0  0  0  0  0  0  0  0  0
    3.4010   -3.3610   11.0660 C   0  0  0  0  0  0  0  0  0  0  0  0
    2.7360   -4.0120   10.0210 C   0  0  0  0  0  3  0  0  0  0  0  0
    1.3570   -4.2150   10.0890 C   0  0  0  0  0  3  0  0  0  0  0  0
    0.6380   -3.7530   11.1930 C   0  0  0  0  0  3  0  0  0  0  0  0
    1.2960   -3.0800   12.2240 C   0  0  0  0  0  3  0  0  0  0  0  0
    2.6750   -2.8710   12.1550 C   0  0  0  0  0  3  0  0  0  0  0  0
    4.3000    0.2790   12.7860 O   0  0  0  0  0  1  0  0  0  0  0  0
    4.9840    0.4640   11.7350 C   0  0  0  0  0  0  0  0  0  0  0  0
    5.7900    1.3910   11.4380 O   0  0  0  0  0  0  0  0  0  0  0  0
  1 29  1  0  0  0  0
  2  1  1  0  0  0  0
  3  2  1  0  0  0  0
  4  3  1  0  0  0  0
  5  4  2  0  0  0  0
  6  7  2  0  0  0  0
  6  5  1  0  0  0  0
  7  8  1  0  0  0  0
  8  3  2  0  0  0  0
  9  6  1  0  0  0  0
 10 16  1  0  0  0  0
 10  9  1  0  0  0  0
 11 10  2  0  0  0  0
 12 11  1  0  0  0  0
 13 14  2  0  0  0  0
 13 11  1  0  0  0  0
 14 15  1  0  0  0  0
 15 16  2  0  0  0  0
 16 17  1  0  0  0  0
 18  1  2  0  0  0  0
 18 19  1  0  0  0  0
 19 20  2  0  0  0  0
 19 22  1  0  0  0  0
 21 18  1  0  0  0  0
 22 27  1  0  0  0  0
 23 24  1  0  0  0  0
 23 22  2  0  0  0  0
 24 25  2  0  0  0  0
 25 26  1  0  0  0  0
 27 26  2  0  0  0  0
 29 28  1  0  0  0  0
 30 29  2  0  0  0  0
M  END
>  <minimizedAffinity>
-6.31124115

$$$$
