
 OpenBabel09132204463D

 30 32  0  0  0  0  0  0  0  0999 V2000
    3.2940   -0.4780   10.1900 C   0  0  0  0  0  0  0  0  0  0  0  0
    3.8860   -0.3590    8.9840 C   0  0  0  0  0  2  0  0  0  0  0  0
    3.5780   -1.1200    7.7690 C   0  0  0  0  0  0  0  0  0  0  0  0
    2.3210   -0.9840    7.1720 C   0  0  0  0  0  3  0  0  0  0  0  0
    1.9930   -1.7350    6.0400 C   0  0  0  0  0  3  0  0  0  0  0  0
    2.9200   -2.6260    5.4940 C   0  0  0  0  0  0  0  0  0  0  0  0
    4.1700   -2.7820    6.0980 C   0  0  0  0  0  3  0  0  0  0  0  0
    4.4960   -2.0280    7.2300 C   0  0  0  0  0  3  0  0  0  0  0  0
    2.4820   -3.3540    4.4070 O   0  0  0  0  0  0  0  0  0  0  0  0
    3.2250   -4.4510    4.0450 C   0  0  0  0  0  0  0  0  0  0  0  0
    4.2930   -4.3210    3.1560 C   0  0  0  0  0  0  0  0  0  0  0  0
    4.6210   -3.1210    2.6580 F   0  0  0  0  0  0  0  0  0  0  0  0
    5.0290   -5.4330    2.7550 C   0  0  0  0  0  3  0  0  0  0  0  0
    4.6880   -6.6980    3.2300 C   0  0  0  0  0  3  0  0  0  0  0  0
    3.6030   -6.8440    4.0980 C   0  0  0  0  0  3  0  0  0  0  0  0
    2.8670   -5.7240    4.4980 C   0  0  0  0  0  0  0  0  0  0  0  0
    1.5260   -5.9590    5.5590 Cl  0  0  0  0  0  0  0  0  0  0  0  0
    2.3370   -1.4530   10.4380 N   0  0  0  0  0  4  0  0  0  0  0  0
    2.4200   -2.8270   10.4340 C   0  0  0  0  0  0  0  0  0  0  0  0
    1.3850   -3.5010   10.4200 O   0  0  0  0  0  0  0  0  0  0  0  0
    1.3860   -1.1260   10.5470 H   0  0  0  0  0  0  0  0  0  0  0  0
    3.7100   -3.5410   10.5620 C   0  0  0  0  0  0  0  0  0  0  0  0
    3.9730   -4.6100    9.6980 C   0  0  0  0  0  3  0  0  0  0  0  0
    5.1470   -5.3520    9.8420 C   0  0  0  0  0  3  0  0  0  0  0  0
    6.0490   -5.0380   10.8600 C   0  0  0  0  0  3  0  0  0  0  0  0
    5.7750   -3.9890   11.7380 C   0  0  0  0  0  3  0  0  0  0  0  0
    4.6000   -3.2480   11.6000 C   0  0  0  0  0  3  0  0  0  0  0  0
    3.7670    0.1020   12.4630 O   0  0  0  0  0  1  0  0  0  0  0  0
    3.8890    0.4930   11.2640 C   0  0  0  0  0  0  0  0  0  0  0  0
    4.3770    1.5630   10.8010 O   0  0  0  0  0  0  0  0  0  0  0  0
  1 18  2  0  0  0  0
  1 29  1  0  0  0  0
  2  1  1  0  0  0  0
  3  2  1  0  0  0  0
  4  3  2  0  0  0  0
  5  4  1  0  0  0  0
  6  5  2  0  0  0  0
  6  7  1  0  0  0  0
  7  8  2  0  0  0  0
  8  3  1  0  0  0  0
  9  6  1  0  0  0  0
 10  9  1  0  0  0  0
 10 16  1  0  0  0  0
 11 10  2  0  0  0  0
 12 11  1  0  0  0  0
 13 11  1  0  0  0  0
 13 14  2  0  0  0  0
 14 15  1  0  0  0  0
 15 16  2  0  0  0  0
 16 17  1  0  0  0  0
 18 21  1  0  0  0  0
 19 18  1  0  0  0  0
 19 22  1  0  0  0  0
 20 19  2  0  0  0  0
 22 27  1  0  0  0  0
 23 24  1  0  0  0  0
 23 22  2  0  0  0  0
 24 25  2  0  0  0  0
 25 26  1  0  0  0  0
 27 26  2  0  0  0  0
 29 28  1  0  0  0  0
 30 29  2  0  0  0  0
M  END
>  <minimizedAffinity>
-6.3297267

$$$$
