
 OpenBabel09132204463D

 30 32  0  0  0  0  0  0  0  0999 V2000
    3.2920   -2.0970    6.4170 C   0  0  0  0  0  0  0  0  0  0  0  0
    2.7660   -3.0110    5.5760 C   0  0  0  0  0  2  0  0  0  0  0  0
    3.4980   -3.9180    4.6850 C   0  0  0  0  0  0  0  0  0  0  0  0
    3.8160   -5.2060    5.1260 C   0  0  0  0  0  3  0  0  0  0  0  0
    4.5530   -6.0680    4.3090 C   0  0  0  0  0  3  0  0  0  0  0  0
    4.9740   -5.6510    3.0450 C   0  0  0  0  0  0  0  0  0  0  0  0
    4.6770   -4.3580    2.6070 C   0  0  0  0  0  3  0  0  0  0  0  0
    3.9390   -3.4980    3.4250 C   0  0  0  0  0  3  0  0  0  0  0  0
    5.7350   -6.5590    2.3380 O   0  0  0  0  0  0  0  0  0  0  0  0
    6.3250   -6.1170    1.1780 C   0  0  0  0  0  0  0  0  0  0  0  0
    7.4750   -5.3290    1.2250 C   0  0  0  0  0  0  0  0  0  0  0  0
    8.0320   -5.0070    2.4010 F   0  0  0  0  0  0  0  0  0  0  0  0
    8.0590   -4.8460    0.0570 C   0  0  0  0  0  3  0  0  0  0  0  0
    7.4810   -5.1360   -1.1780 C   0  0  0  0  0  3  0  0  0  0  0  0
    6.3130   -5.9000   -1.2350 C   0  0  0  0  0  3  0  0  0  0  0  0
    5.7300   -6.3830   -0.0580 C   0  0  0  0  0  0  0  0  0  0  0  0
    4.2790   -7.3090   -0.1800 Cl  0  0  0  0  0  0  0  0  0  0  0  0
    4.6580   -1.8490    6.4600 N   0  0  0  0  0  4  0  0  0  0  0  0
    5.6100   -2.1800    7.3980 C   0  0  0  0  0  0  0  0  0  0  0  0
    6.7150   -1.6300    7.3650 O   0  0  0  0  0  0  0  0  0  0  0  0
    5.0240   -1.2410    5.7400 H   0  0  0  0  0  0  0  0  0  0  0  0
    5.4030   -3.2620    8.3860 C   0  0  0  0  0  0  0  0  0  0  0  0
    5.6350   -4.5840    7.9900 C   0  0  0  0  0  3  0  0  0  0  0  0
    5.3780   -5.6340    8.8740 C   0  0  0  0  0  3  0  0  0  0  0  0
    4.8720   -5.3640   10.1470 C   0  0  0  0  0  3  0  0  0  0  0  0
    4.6160   -4.0480   10.5340 C   0  0  0  0  0  3  0  0  0  0  0  0
    4.8680   -2.9970    9.6500 C   0  0  0  0  0  3  0  0  0  0  0  0
    1.9080   -1.7770    8.3420 O   0  0  0  0  0  1  0  0  0  0  0  0
    2.2060   -1.2950    7.2080 C   0  0  0  0  0  0  0  0  0  0  0  0
    1.7360   -0.2930    6.5990 O   0  0  0  0  0  0  0  0  0  0  0  0
  1 18  2  0  0  0  0
  1 29  1  0  0  0  0
  2  1  1  0  0  0  0
  3  4  1  0  0  0  0
  3  2  1  0  0  0  0
  5  4  2  0  0  0  0
  6  5  1  0  0  0  0
  7  6  2  0  0  0  0
  7  8  1  0  0  0  0
  8  3  2  0  0  0  0
  9  6  1  0  0  0  0
 10 11  1  0  0  0  0
 10  9  1  0  0  0  0
 11 12  1  0  0  0  0
 13 11  2  0  0  0  0
 14 13  1  0  0  0  0
 15 14  2  0  0  0  0
 15 16  1  0  0  0  0
 16 10  2  0  0  0  0
 17 16  1  0  0  0  0
 18 19  1  0  0  0  0
 19 22  1  0  0  0  0
 20 19  2  0  0  0  0
 21 18  1  0  0  0  0
 22 27  1  0  0  0  0
 23 22  2  0  0  0  0
 23 24  1  0  0  0  0
 24 25  2  0  0  0  0
 25 26  1  0  0  0  0
 27 26  2  0  0  0  0
 29 28  1  0  0  0  0
 30 29  2  0  0  0  0
M  END
>  <minimizedAffinity>
-6.17457867

$$$$
