REMARK  Name = 
REMARK  7 active torsions:
REMARK  status: ('A' for Active; 'I' for Inactive)
REMARK    1  A    between atoms: C_2  and  C_4
REMARK    2  A    between atoms: C_11  and  C_12
REMARK    3  A    between atoms: C_15  and  O_16
REMARK    4  A    between atoms: O_16  and  C_17
REMARK    5  A    between atoms: C_17  and  C_18
REMARK    6  A    between atoms: C_23  and  C_24
REMARK    7  A    between atoms: N_33  and  C_34
REMARK                            x       y       z     vdW  Elec       q    Type
REMARK                         _______ _______ _______ _____ _____    ______ ____
ROOT
ATOM      1  C   UNL     1       6.738   0.885  -5.758  0.00  0.00    +0.053 A 
ATOM      2  C   UNL     1       8.095   1.033  -5.451  0.00  0.00    +0.018 A 
ATOM      3  C   UNL     1       9.057   0.989  -6.464  0.00  0.00    +0.046 A 
ATOM      4  C   UNL     1       8.683   0.759  -7.790  0.00  0.00    +0.124 A 
ATOM      5  C   UNL     1       7.335   0.603  -8.104  0.00  0.00    +0.084 A 
ATOM      6  C   UNL     1       6.379   0.660  -7.089  0.00  0.00    +0.137 A 
ATOM      7  F   UNL     1       5.088   0.523  -7.430  0.00  0.00    -0.205 F 
ENDROOT
BRANCH   1  15
ATOM      8  C   UNL     1       3.146   0.504  -0.979  0.00  0.00    -0.001 A 
ATOM      9  C   UNL     1       2.490   1.597  -1.567  0.00  0.00    +0.012 A 
ATOM     10  C   UNL     1       2.913   2.160  -2.778  0.00  0.00    +0.028 A 
ATOM     11  C   UNL     1       4.030   1.590  -3.403  0.00  0.00    +0.069 A 
ATOM     12  C   UNL     1       4.705   0.505  -2.851  0.00  0.00    +0.090 A 
ATOM     13  C   UNL     1       4.266  -0.045  -1.635  0.00  0.00    +0.039 A 
ATOM     14  N   UNL     1       5.766   0.138  -3.639  0.00  0.00    -0.227 NA
ATOM     15  C   UNL     1       5.750   0.944  -4.683  0.00  0.00    +0.145 A 
ATOM     16  N   UNL     1       4.729   1.877  -4.560  0.00  0.00    -0.320 N 
BRANCH  16  17
ATOM     17  C   UNL     1       4.501   3.015  -5.447  0.00  0.00    +0.089 C 
ATOM     18  C   UNL     1       3.149   2.950  -6.174  0.00  0.00    +0.025 C 
ATOM     19  C   UNL     1       2.979   4.127  -7.134  0.00  0.00    +0.002 C 
ATOM     20  C   UNL     1       3.183   5.465  -6.429  0.00  0.00    +0.000 C 
ATOM     21  C   UNL     1       4.534   5.531  -5.721  0.00  0.00    +0.002 C 
ATOM     22  C   UNL     1       4.717   4.368  -4.747  0.00  0.00    +0.025 C 
ENDBRANCH  16  17
BRANCH   8  24
ATOM     23  O   UNL     1       1.644   0.480   0.867  0.00  0.00    -0.545 OA
ATOM     24  C   UNL     1       2.660  -0.071   0.337  0.00  0.00    +0.072 C 
ATOM     25  O   UNL     1       3.303  -1.058   0.816  0.00  0.00    -0.545 OA
ENDBRANCH   8  24
ENDBRANCH   1  15
BRANCH   4  26
ATOM     26  O   UNL     1       9.707   0.767  -8.696  0.00  0.00    -0.487 OA
BRANCH  26  27
ATOM     27  C   UNL     1       9.600  -0.144  -9.801  0.00  0.00    +0.265 C 
BRANCH  27  28
ATOM     28  C   UNL     1       9.899  -1.578  -9.404  0.00  0.00    -0.003 A 
ATOM     29  C   UNL     1      10.994  -1.830  -8.554  0.00  0.00    +0.007 A 
ATOM     30  C   UNL     1      11.323  -3.127  -8.166  0.00  0.00    +0.000 A 
ATOM     31  C   UNL     1      10.570  -4.199  -8.629  0.00  0.00    +0.001 A 
ATOM     32  C   UNL     1       9.492  -3.971  -9.484  0.00  0.00    +0.009 A 
ATOM     33  C   UNL     1       9.142  -2.668  -9.890  0.00  0.00    -0.011 A 
BRANCH  33  34
ATOM     34  C   UNL     1       8.003  -2.500 -10.800  0.00  0.00    -0.018 A 
ATOM     35  C   UNL     1       8.205  -2.335 -12.179  0.00  0.00    +0.008 A 
ATOM     36  C   UNL     1       7.120  -2.174 -13.044  0.00  0.00    +0.001 A 
ATOM     37  C   UNL     1       5.820  -2.180 -12.540  0.00  0.00    +0.000 A 
ATOM     38  C   UNL     1       5.604  -2.348 -11.173  0.00  0.00    +0.001 A 
ATOM     39  C   UNL     1       6.689  -2.509 -10.309  0.00  0.00    +0.008 A 
ENDBRANCH  33  34
ENDBRANCH  27  28
ENDBRANCH  26  27
ENDBRANCH   4  26
TORSDOF 7
