
 OpenBabel09122222393D

 39 44  0  0  0  0  0  0  0  0999 V2000
    9.6540    0.3680    1.9750 C   0  0  0  0  0  0  0  0  0  0  0  0
    9.6540    1.3520    0.9800 C   0  0  0  0  0  3  0  0  0  0  0  0
    9.9850    2.6730    1.2940 C   0  0  0  0  0  3  0  0  0  0  0  0
   10.2820    3.0380    2.6090 C   0  0  0  0  0  0  0  0  0  0  0  0
   10.2780    2.0660    3.6070 C   0  0  0  0  0  3  0  0  0  0  0  0
    9.9590    0.7470    3.2840 C   0  0  0  0  0  0  0  0  0  0  0  0
    9.9810   -0.1660    4.2670 F   0  0  0  0  0  0  0  0  0  0  0  0
    7.6680   -5.2220    1.1410 C   0  0  0  0  0  0  0  0  0  0  0  0
    8.5710   -5.2270    0.0660 C   0  0  0  0  0  3  0  0  0  0  0  0
    9.3670   -4.1180   -0.2480 C   0  0  0  0  0  3  0  0  0  0  0  0
    9.2380   -2.9790    0.5590 C   0  0  0  0  0  0  0  0  0  0  0  0
    8.3550   -2.9380    1.6340 C   0  0  0  0  0  0  0  0  0  0  0  0
    7.5650   -4.0600    1.9320 C   0  0  0  0  0  3  0  0  0  0  0  0
    8.4020   -1.7170    2.2580 N   0  0  0  0  0  0  0  0  0  0  0  0
    9.3140   -1.0090    1.6200 C   0  0  0  0  0  0  0  0  0  0  0  0
    9.8230   -1.7270    0.5460 N   0  0  0  0  0  0  0  0  0  0  0  0
   10.7380   -1.2110   -0.4690 C   0  0  0  0  0  3  0  0  0  0  0  0
   11.8540   -2.2020   -0.8320 C   0  0  0  0  0  2  0  0  0  0  0  0
   12.8200   -1.5990   -1.8510 C   0  0  0  0  0  2  0  0  0  0  0  0
   12.0890   -1.0870   -3.0890 C   0  0  0  0  0  2  0  0  0  0  0  0
   10.9900   -0.0910   -2.7250 C   0  0  0  0  0  2  0  0  0  0  0  0
   10.0070   -0.6810   -1.7150 C   0  0  0  0  0  2  0  0  0  0  0  0
    7.4220   -7.4650    1.8980 O   0  0  0  0  0  1  0  0  0  0  0  0
    6.8200   -6.4430    1.4420 C   0  0  0  0  0  0  0  0  0  0  0  0
    5.5720   -6.3570    1.2150 O   0  0  0  0  0  0  0  0  0  0  0  0
   10.6190    4.3510    2.7890 O   0  0  0  0  0  0  0  0  0  0  0  0
   11.3720    4.9750    1.7380 C   0  0  0  0  0  2  0  0  0  0  0  0
   10.6650    6.1860    1.1570 C   0  0  0  0  0  0  0  0  0  0  0  0
    9.7240    5.9900    0.1260 C   0  0  0  0  0  3  0  0  0  0  0  0
    9.0540    7.0660   -0.4530 C   0  0  0  0  0  3  0  0  0  0  0  0
    9.3190    8.3590   -0.0210 C   0  0  0  0  0  3  0  0  0  0  0  0
   10.2580    8.5750    0.9870 C   0  0  0  0  0  3  0  0  0  0  0  0
   10.9490    7.5030    1.5860 C   0  0  0  0  0  0  0  0  0  0  0  0
   11.9330    7.8010    2.6330 C   0  0  0  0  0  0  0  0  0  0  0  0
   13.2840    8.0000    2.3120 C   0  0  0  0  0  3  0  0  0  0  0  0
   14.2200    8.2820    3.3100 C   0  0  0  0  0  3  0  0  0  0  0  0
   13.8140    8.3730    4.6400 C   0  0  0  0  0  3  0  0  0  0  0  0
   12.4740    8.1830    4.9740 C   0  0  0  0  0  3  0  0  0  0  0  0
   11.5390    7.9000    3.9760 C   0  0  0  0  0  3  0  0  0  0  0  0
  1  6  1  0  0  0  0
  2  3  1  0  0  0  0
  2  1  2  0  0  0  0
  3  4  2  0  0  0  0
  4 26  1  0  0  0  0
  4  5  1  0  0  0  0
  6  5  2  0  0  0  0
  6  7  1  0  0  0  0
  8 24  1  0  0  0  0
  8 13  1  0  0  0  0
  9  8  2  0  0  0  0
 10  9  1  0  0  0  0
 10 11  2  0  0  0  0
 11 12  1  0  0  0  0
 12 13  2  0  0  0  0
 12 14  1  0  0  0  0
 15  1  1  0  0  0  0
 15 14  2  0  0  0  0
 16 11  1  0  0  0  0
 16 15  1  0  0  0  0
 17 16  1  0  0  0  0
 18 17  1  0  0  0  0
 19 18  1  0  0  0  0
 20 21  1  0  0  0  0
 20 19  1  0  0  0  0
 21 22  1  0  0  0  0
 22 17  1  0  0  0  0
 24 23  1  0  0  0  0
 25 24  2  0  0  0  0
 27 26  1  0  0  0  0
 28 33  1  0  0  0  0
 28 27  1  0  0  0  0
 29 28  2  0  0  0  0
 30 31  2  0  0  0  0
 30 29  1  0  0  0  0
 31 32  1  0  0  0  0
 32 33  2  0  0  0  0
 33 34  1  0  0  0  0
 34 39  1  0  0  0  0
 35 34  2  0  0  0  0
 35 36  1  0  0  0  0
 36 37  2  0  0  0  0
 37 38  1  0  0  0  0
 39 38  2  0  0  0  0
M  END
>  <minimizedAffinity>
-6.50926971

$$$$
