
 OpenBabel09122222393D

 39 44  0  0  0  0  0  0  0  0999 V2000
   10.8410   -0.5040  -14.1280 C   0  0  0  0  0  0  0  0  0  0  0  0
   11.8870   -0.9270  -14.9550 C   0  0  0  0  0  3  0  0  0  0  0  0
   12.9330   -1.6930  -14.4340 C   0  0  0  0  0  3  0  0  0  0  0  0
   12.9690   -2.0160  -13.0750 C   0  0  0  0  0  0  0  0  0  0  0  0
   11.9360   -1.5930  -12.2430 C   0  0  0  0  0  3  0  0  0  0  0  0
   10.8890   -0.8380  -12.7730 C   0  0  0  0  0  0  0  0  0  0  0  0
    9.9000   -0.4620  -11.9450 F   0  0  0  0  0  0  0  0  0  0  0  0
    6.9300    3.4080  -16.4280 C   0  0  0  0  0  0  0  0  0  0  0  0
    6.1080    2.2790  -16.5730 C   0  0  0  0  0  3  0  0  0  0  0  0
    6.5200    0.9980  -16.1810 C   0  0  0  0  0  3  0  0  0  0  0  0
    7.8010    0.8710  -15.6260 C   0  0  0  0  0  0  0  0  0  0  0  0
    8.6430    1.9680  -15.4660 C   0  0  0  0  0  0  0  0  0  0  0  0
    8.2110    3.2430  -15.8660 C   0  0  0  0  0  3  0  0  0  0  0  0
    9.8400    1.5870  -14.9150 N   0  0  0  0  0  0  0  0  0  0  0  0
    9.7530    0.2890  -14.6980 C   0  0  0  0  0  0  0  0  0  0  0  0
    8.5370   -0.2000  -15.1570 N   0  0  0  0  0  0  0  0  0  0  0  0
    8.1520   -1.6070  -15.2200 C   0  0  0  0  0  3  0  0  0  0  0  0
    7.1350   -2.0020  -14.1370 C   0  0  0  0  0  2  0  0  0  0  0  0
    6.8070   -3.4930  -14.2030 C   0  0  0  0  0  2  0  0  0  0  0  0
    6.3450   -3.9090  -15.5970 C   0  0  0  0  0  2  0  0  0  0  0  0
    7.3650   -3.5290  -16.6670 C   0  0  0  0  0  2  0  0  0  0  0  0
    7.6970   -2.0380  -16.6250 C   0  0  0  0  0  2  0  0  0  0  0  0
    7.3390    5.6420  -17.1390 O   0  0  0  0  0  0  0  0  0  0  0  0
    6.4480    4.7750  -16.8720 C   0  0  0  0  0  0  0  0  0  0  0  0
    5.1910    4.9570  -16.9420 O   0  0  0  0  0  1  0  0  0  0  0  0
   14.0240   -2.7950  -12.6870 O   0  0  0  0  0  0  0  0  0  0  0  0
   13.8390   -4.2170  -12.7590 C   0  0  0  0  0  2  0  0  0  0  0  0
   12.9360   -4.7430  -11.6590 C   0  0  0  0  0  0  0  0  0  0  0  0
   13.3410   -4.5890  -10.3190 C   0  0  0  0  0  3  0  0  0  0  0  0
   12.5580   -5.0620   -9.2690 C   0  0  0  0  0  3  0  0  0  0  0  0
   11.3580   -5.7090   -9.5380 C   0  0  0  0  0  3  0  0  0  0  0  0
   10.9470   -5.8850  -10.8590 C   0  0  0  0  0  3  0  0  0  0  0  0
   11.7240   -5.4160  -11.9370 C   0  0  0  0  0  0  0  0  0  0  0  0
   11.2380   -5.6450  -13.3030 C   0  0  0  0  0  0  0  0  0  0  0  0
   10.5230   -4.6490  -13.9860 C   0  0  0  0  0  3  0  0  0  0  0  0
   10.0600   -4.8680  -15.2850 C   0  0  0  0  0  3  0  0  0  0  0  0
   10.3110   -6.0850  -15.9180 C   0  0  0  0  0  3  0  0  0  0  0  0
   11.0240   -7.0820  -15.2540 C   0  0  0  0  0  3  0  0  0  0  0  0
   11.4870   -6.8610  -13.9550 C   0  0  0  0  0  3  0  0  0  0  0  0
  1  6  1  0  0  0  0
  2  3  1  0  0  0  0
  2  1  2  0  0  0  0
  3  4  2  0  0  0  0
  4 26  1  0  0  0  0
  4  5  1  0  0  0  0
  6  5  2  0  0  0  0
  6  7  1  0  0  0  0
  8 13  1  0  0  0  0
  9  8  2  0  0  0  0
  9 10  1  0  0  0  0
 10 11  2  0  0  0  0
 11 12  1  0  0  0  0
 11 16  1  0  0  0  0
 12 14  1  0  0  0  0
 13 12  2  0  0  0  0
 14 15  2  0  0  0  0
 15  1  1  0  0  0  0
 16 15  1  0  0  0  0
 17 16  1  0  0  0  0
 17 18  1  0  0  0  0
 19 18  1  0  0  0  0
 20 19  1  0  0  0  0
 21 22  1  0  0  0  0
 21 20  1  0  0  0  0
 22 17  1  0  0  0  0
 23 24  2  0  0  0  0
 24  8  1  0  0  0  0
 25 24  1  0  0  0  0
 27 26  1  0  0  0  0
 27 28  1  0  0  0  0
 28 29  1  0  0  0  0
 29 30  2  0  0  0  0
 31 30  1  0  0  0  0
 32 31  2  0  0  0  0
 33 28  2  0  0  0  0
 33 32  1  0  0  0  0
 34 33  1  0  0  0  0
 35 34  2  0  0  0  0
 36 35  1  0  0  0  0
 37 36  2  0  0  0  0
 37 38  1  0  0  0  0
 38 39  2  0  0  0  0
 39 34  1  0  0  0  0
M  END
>  <minimizedAffinity>
-6.49926233

$$$$
