REMARK  Name = 
REMARK  5 active torsions:
REMARK  status: ('A' for Active; 'I' for Inactive)
REMARK    1  A    between atoms: C_3  and  C_4
REMARK    2  A    between atoms: C_16  and  O_17
REMARK    3  A    between atoms: N_24  and  C_25
REMARK    4  A    between atoms: C_25  and  C_26
REMARK    5  A    between atoms: C_26  and  C_27
REMARK                            x       y       z     vdW  Elec       q    Type
REMARK                         _______ _______ _______ _____ _____    ______ ____
ROOT
ATOM      1  O   UNL     1       2.465   2.621   0.493  0.00  0.00    -0.267 OA
ATOM      2  C   UNL     1       3.428   1.862   0.336  0.00  0.00    +0.270 A 
ATOM      3  C   UNL     1       3.234   0.669  -0.545  0.00  0.00    +0.169 A 
ATOM      4  C   UNL     1       4.258  -0.187  -0.709  0.00  0.00    +0.146 A 
ATOM      5  C   UNL     1       5.581   0.057  -0.103  0.00  0.00    +0.041 A 
ATOM      6  C   UNL     1       6.691  -0.765  -0.383  0.00  0.00    +0.013 A 
ATOM      7  C   UNL     1       7.924  -0.545   0.230  0.00  0.00    +0.001 A 
ATOM      8  C   UNL     1       8.069   0.505   1.124  0.00  0.00    +0.002 A 
ATOM      9  C   UNL     1       6.992   1.353   1.382  0.00  0.00    +0.026 A 
ATOM     10  C   UNL     1       5.746   1.157   0.760  0.00  0.00    +0.056 A 
ATOM     11  N   UNL     1       4.653   2.055   0.955  0.00  0.00    -0.307 N 
ENDROOT
BRANCH   3  12
ATOM     12  C   UNL     1       1.870   0.492  -1.180  0.00  0.00    +0.308 C 
ATOM     13  N   UNL     1       0.914   1.358  -0.949  0.00  0.00    -0.131 N 
ATOM     14  S   UNL     1      -0.578   1.314  -1.534  0.00  0.00    +0.141 S 
ATOM     15  O   UNL     1      -1.507   1.065  -0.449  0.00  0.00    -0.129 OA
ATOM     16  O   UNL     1      -0.782   2.458  -2.401  0.00  0.00    -0.129 OA
ATOM     17  C   UNL     1      -0.677  -0.100  -2.579  0.00  0.00    +0.175 A 
ATOM     18  C   UNL     1      -1.874  -0.379  -3.248  0.00  0.00    +0.035 A 
ATOM     19  C   UNL     1      -1.945  -1.499  -4.072  0.00  0.00    +0.002 A 
ATOM     20  C   UNL     1      -0.828  -2.322  -4.217  0.00  0.00    +0.004 A 
ATOM     21  C   UNL     1       0.360  -2.026  -3.540  0.00  0.00    +0.051 A 
ATOM     22  C   UNL     1       0.447  -0.905  -2.711  0.00  0.00    +0.147 A 
ATOM     23  N   UNL     1       1.623  -0.605  -2.036  0.00  0.00    -0.200 N 
ATOM     24  H   UNL     1       1.125   2.139  -0.336  0.00  0.00    +0.339 HD
ATOM     25  H   UNL     1       2.426  -1.222  -2.174  0.00  0.00    +0.298 HD
ENDBRANCH   3  12
BRANCH   4  26
ATOM     26  O   UNL     1       4.087  -1.363  -1.427  0.00  0.00    -0.505 OA
ATOM     27  H   UNL     1       4.664  -2.047  -1.038  0.00  0.00    +0.292 HD
ENDBRANCH   4  26
BRANCH  11  28
ATOM     28  C   UNL     1       4.790   3.230   1.827  0.00  0.00    +0.126 C 
BRANCH  28  29
ATOM     29  C   UNL     1       4.499   2.893   3.293  0.00  0.00    +0.025 C 
BRANCH  29  30
ATOM     30  C   UNL     1       4.569   4.036   4.266  0.00  0.00    -0.009 C 
ATOM     31  C   UNL     1       5.231   5.361   3.979  0.00  0.00    +0.004 C 
ATOM     32  C   UNL     1       3.732   5.275   4.071  0.00  0.00    +0.004 C 
ENDBRANCH  29  30
ENDBRANCH  28  29
ENDBRANCH  11  28
TORSDOF 5
