
 OpenBabel09132204463D

 32 36  0  0  1  0  0  0  0  0999 V2000
   11.8750    3.1320    2.4200 O   0  0  0  0  0  0  0  0  0  0  0  0
   11.2370    4.0410    1.8760 C   0  0  0  0  0  0  0  0  0  0  0  0
   10.3390    3.6730    0.7380 C   0  0  0  0  0  0  0  0  0  0  0  0
    9.6560    4.6470    0.1120 C   0  0  0  0  0  0  0  0  0  0  0  0
    9.7150    6.0510    0.5620 C   0  0  0  0  0  0  0  0  0  0  0  0
    8.8990    7.0500   -0.0050 C   0  0  0  0  0  3  0  0  0  0  0  0
    8.9970    8.3800    0.4030 C   0  0  0  0  0  3  0  0  0  0  0  0
    9.9050    8.7300    1.3900 C   0  0  0  0  0  3  0  0  0  0  0  0
   10.6920    7.7480    1.9910 C   0  0  0  0  0  3  0  0  0  0  0  0
   10.5950    6.3990    1.6050 C   0  0  0  0  0  0  0  0  0  0  0  0
   11.3390    5.3700    2.2560 N   0  0  0  0  0  0  0  0  0  0  0  0
   10.2790    2.2100    0.3490 C   0  0  1  0  0  3  0  0  0  0  0  0
   10.7720    1.8090   -0.7970 N   0  0  0  0  0  0  0  0  0  0  0  0
   10.7850    0.3080   -1.3600 S   0  0  0  0  0  0  0  0  0  0  0  0
    9.9090    0.2250   -2.5130 O   0  0  0  0  0  0  0  0  0  0  0  0
   12.1570   -0.1470   -1.4710 O   0  0  0  0  0  0  0  0  0  0  0  0
   10.0440   -0.7080   -0.1270 C   0  0  0  0  0  0  0  0  0  0  0  0
    9.9380   -2.0860   -0.3430 C   0  0  0  0  0  3  0  0  0  0  0  0
    9.3500   -2.8830    0.6360 C   0  0  0  0  0  3  0  0  0  0  0  0
    8.8780   -2.2980    1.8110 C   0  0  0  0  0  3  0  0  0  0  0  0
    8.9940   -0.9180    2.0090 C   0  0  0  0  0  3  0  0  0  0  0  0
    9.5820   -0.1060    1.0360 C   0  0  0  0  0  0  0  0  0  0  0  0
    9.7000    1.2650    1.2250 N   0  0  0  0  0  0  0  0  0  0  0  0
   11.1880    2.5100   -1.4020 H   0  0  0  0  0  0  0  0  0  0  0  0
    9.3550    1.6590    2.1030 H   0  0  0  0  0  0  0  0  0  0  0  0
    8.8990    4.3660   -1.0170 O   0  0  0  0  0  0  0  0  0  0  0  0
    8.9200    5.1450   -1.6030 H   0  0  0  0  0  0  0  0  0  0  0  0
   12.2490    5.6850    3.3660 C   0  0  0  0  0  2  0  0  0  0  0  0
   11.4960    5.8920    4.6840 C   0  0  0  0  0  2  0  0  0  0  0  0
   11.2350    4.6600    5.5030 C   0  0  0  0  0  3  0  0  0  0  0  0
   10.2800    4.5970    6.6690 C   0  0  0  0  0  2  0  0  0  0  0  0
    9.9350    3.9050    5.3790 C   0  0  0  0  0  2  0  0  0  0  0  0
  2 11  1  0  0  0  0
  2  1  2  0  0  0  0
  3  2  1  0  0  0  0
  4  5  1  0  0  0  0
  4  3  2  0  0  0  0
  5 10  1  0  0  0  0
  6  7  1  0  0  0  0
  6  5  2  0  0  0  0
  7  8  2  0  0  0  0
  8  9  1  0  0  0  0
 10  9  2  0  0  0  0
 10 11  1  0  0  0  0
 11 28  1  0  0  0  0
 12  3  1  1  0  0  0
 12 23  1  0  0  0  0
 13 12  1  0  0  0  0
 14 13  1  0  0  0  0
 14 17  1  0  0  0  0
 15 14  2  0  0  0  0
 16 14  2  0  0  0  0
 17 22  1  0  0  0  0
 18 17  2  0  0  0  0
 18 19  1  0  0  0  0
 19 20  2  0  0  0  0
 20 21  1  0  0  0  0
 22 23  1  0  0  0  0
 22 21  2  0  0  0  0
 23 25  1  0  0  0  0
 24 13  1  0  0  0  0
 26  4  1  0  0  0  0
 27 26  1  0  0  0  0
 28 29  1  0  0  0  0
 29 30  1  0  0  0  0
 30 31  1  0  0  0  0
 32 30  1  0  0  0  0
 32 31  1  0  0  0  0
M  END
>  <minimizedAffinity>
-6.59050274

$$$$
