
 OpenBabel09132204463D

 32 36  0  0  1  0  0  0  0  0999 V2000
    6.8600   -3.8180    2.3890 O   0  0  0  0  0  0  0  0  0  0  0  0
    7.3440   -3.3710    3.4350 C   0  0  0  0  0  0  0  0  0  0  0  0
    8.6530   -2.6530    3.3420 C   0  0  0  0  0  0  0  0  0  0  0  0
    9.2140   -2.1830    4.4690 C   0  0  0  0  0  0  0  0  0  0  0  0
    8.5420   -2.2940    5.7780 C   0  0  0  0  0  0  0  0  0  0  0  0
    9.0630   -1.6850    6.9370 C   0  0  0  0  0  3  0  0  0  0  0  0
    8.4380   -1.8340    8.1740 C   0  0  0  0  0  3  0  0  0  0  0  0
    7.2770   -2.5870    8.2700 C   0  0  0  0  0  3  0  0  0  0  0  0
    6.7250   -3.1640    7.1270 C   0  0  0  0  0  3  0  0  0  0  0  0
    7.3320   -3.0090    5.8680 C   0  0  0  0  0  0  0  0  0  0  0  0
    6.7450   -3.5300    4.6750 N   0  0  0  0  0  0  0  0  0  0  0  0
    9.2760   -2.5250    1.9670 C   0  0  1  0  0  3  0  0  0  0  0  0
    9.6120   -3.5960    1.2900 N   0  0  0  0  0  0  0  0  0  0  0  0
   10.2830   -3.6350   -0.1660 S   0  0  0  0  0  0  0  0  0  0  0  0
   11.6360   -4.1430   -0.0520 O   0  0  0  0  0  0  0  0  0  0  0  0
    9.3620   -4.2570   -1.0960 O   0  0  0  0  0  0  0  0  0  0  0  0
   10.4450   -1.9650   -0.7000 C   0  0  0  0  0  0  0  0  0  0  0  0
   10.9890   -1.6960   -1.9610 C   0  0  0  0  0  3  0  0  0  0  0  0
   11.1150   -0.3730   -2.3770 C   0  0  0  0  0  3  0  0  0  0  0  0
   10.7000    0.6590   -1.5340 C   0  0  0  0  0  3  0  0  0  0  0  0
   10.1590    0.3690   -0.2770 C   0  0  0  0  0  3  0  0  0  0  0  0
   10.0240   -0.9530    0.1530 C   0  0  0  0  0  0  0  0  0  0  0  0
    9.4880   -1.2480    1.4000 N   0  0  0  0  0  0  0  0  0  0  0  0
    9.4400   -4.4980    1.7210 H   0  0  0  0  0  0  0  0  0  0  0  0
    9.1830   -0.4700    1.9870 H   0  0  0  0  0  0  0  0  0  0  0  0
   10.4780   -1.6090    4.4430 O   0  0  0  0  0  0  0  0  0  0  0  0
   10.9220   -1.8040    5.2900 H   0  0  0  0  0  0  0  0  0  0  0  0
    5.4710   -4.2600    4.7200 C   0  0  0  0  0  2  0  0  0  0  0  0
    4.2740   -3.3410    4.4560 C   0  0  0  0  0  2  0  0  0  0  0  0
    3.3350   -3.1230    5.6080 C   0  0  0  0  0  3  0  0  0  0  0  0
    3.2650   -1.8550    6.4230 C   0  0  0  0  0  2  0  0  0  0  0  0
    2.1470   -2.2030    5.4790 C   0  0  0  0  0  2  0  0  0  0  0  0
  1  2  2  0  0  0  0
  2 11  1  0  0  0  0
  3  2  1  0  0  0  0
  3  4  2  0  0  0  0
  4  5  1  0  0  0  0
  5 10  2  0  0  0  0
  5  6  1  0  0  0  0
  6  7  2  0  0  0  0
  7  8  1  0  0  0  0
  9  8  2  0  0  0  0
 10  9  1  0  0  0  0
 11 28  1  0  0  0  0
 11 10  1  0  0  0  0
 12  3  1  6  0  0  0
 13 24  1  0  0  0  0
 13 12  1  0  0  0  0
 14 15  2  0  0  0  0
 14 13  1  0  0  0  0
 16 14  2  0  0  0  0
 17 14  1  0  0  0  0
 17 22  1  0  0  0  0
 18 17  2  0  0  0  0
 19 18  1  0  0  0  0
 19 20  2  0  0  0  0
 20 21  1  0  0  0  0
 21 22  2  0  0  0  0
 22 23  1  0  0  0  0
 23 12  1  0  0  0  0
 23 25  1  0  0  0  0
 26  4  1  0  0  0  0
 26 27  1  0  0  0  0
 29 28  1  0  0  0  0
 29 30  1  0  0  0  0
 30 31  1  0  0  0  0
 32 30  1  0  0  0  0
 32 31  1  0  0  0  0
M  END
>  <minimizedAffinity>
-8.05271244

$$$$
