
 OpenBabel09132204463D

 32 36  0  0  1  0  0  0  0  0999 V2000
   10.8040   -2.0250    4.3870 O   0  0  0  0  0  0  0  0  0  0  0  0
    9.6630   -2.4070    4.6720 C   0  0  0  0  0  0  0  0  0  0  0  0
    8.7410   -2.7410    3.5440 C   0  0  0  0  0  0  0  0  0  0  0  0
    7.4850   -3.1310    3.8280 C   0  0  0  0  0  0  0  0  0  0  0  0
    7.0200   -3.3050    5.2170 C   0  0  0  0  0  0  0  0  0  0  0  0
    5.7520   -3.8420    5.5160 C   0  0  0  0  0  3  0  0  0  0  0  0
    5.3120   -3.9620    6.8340 C   0  0  0  0  0  3  0  0  0  0  0  0
    6.1360   -3.5550    7.8730 C   0  0  0  0  0  3  0  0  0  0  0  0
    7.4100   -3.0590    7.5970 C   0  0  0  0  0  3  0  0  0  0  0  0
    7.8780   -2.9480    6.2760 C   0  0  0  0  0  0  0  0  0  0  0  0
    9.2030   -2.5100    5.9760 N   0  0  0  0  0  0  0  0  0  0  0  0
    9.2840   -2.5900    2.1380 C   0  0  1  0  0  3  0  0  0  0  0  0
    9.5420   -3.6490    1.4100 N   0  0  0  0  0  0  0  0  0  0  0  0
   10.1220   -3.6640   -0.0850 S   0  0  0  0  0  0  0  0  0  0  0  0
   11.4610   -4.2210   -0.0690 O   0  0  0  0  0  0  0  0  0  0  0  0
    9.1250   -4.2240   -0.9760 O   0  0  0  0  0  0  0  0  0  0  0  0
   10.3120   -1.9840   -0.5770 C   0  0  0  0  0  0  0  0  0  0  0  0
   10.7880   -1.6920   -1.8600 C   0  0  0  0  0  3  0  0  0  0  0  0
   10.9360   -0.3620   -2.2430 C   0  0  0  0  0  3  0  0  0  0  0  0
   10.6090    0.6550   -1.3450 C   0  0  0  0  0  3  0  0  0  0  0  0
   10.1340    0.3440   -0.0670 C   0  0  0  0  0  3  0  0  0  0  0  0
    9.9790   -0.9870    0.3300 C   0  0  0  0  0  0  0  0  0  0  0  0
    9.5080   -1.3040    1.5980 N   0  0  0  0  0  0  0  0  0  0  0  0
    9.3640   -4.5590    1.8230 H   0  0  0  0  0  0  0  0  0  0  0  0
    9.2660   -0.5340    2.2260 H   0  0  0  0  0  0  0  0  0  0  0  0
    6.5650   -3.3430    2.8110 O   0  0  0  0  0  0  0  0  0  0  0  0
    5.6790   -3.1040    3.1430 H   0  0  0  0  0  0  0  0  0  0  0  0
   10.1390   -2.1520    7.0510 C   0  0  0  0  0  2  0  0  0  0  0  0
   10.0660   -0.6630    7.4030 C   0  0  0  0  0  2  0  0  0  0  0  0
   11.2320    0.1820    6.9720 C   0  0  0  0  0  3  0  0  0  0  0  0
   11.1900    1.1810    5.8430 C   0  0  0  0  0  2  0  0  0  0  0  0
   11.2720    1.6600    7.2670 C   0  0  0  0  0  2  0  0  0  0  0  0
  1  2  2  0  0  0  0
  2 11  1  0  0  0  0
  3  4  2  0  0  0  0
  3  2  1  0  0  0  0
  4  5  1  0  0  0  0
  5  6  2  0  0  0  0
  5 10  1  0  0  0  0
  6  7  1  0  0  0  0
  7  8  2  0  0  0  0
  9  8  1  0  0  0  0
 10  9  2  0  0  0  0
 11 10  1  0  0  0  0
 11 28  1  0  0  0  0
 12  3  1  6  0  0  0
 13 24  1  0  0  0  0
 13 12  1  0  0  0  0
 14 15  2  0  0  0  0
 14 13  1  0  0  0  0
 16 14  2  0  0  0  0
 17 14  1  0  0  0  0
 17 22  1  0  0  0  0
 18 17  2  0  0  0  0
 19 18  1  0  0  0  0
 19 20  2  0  0  0  0
 20 21  1  0  0  0  0
 21 22  2  0  0  0  0
 22 23  1  0  0  0  0
 23 12  1  0  0  0  0
 23 25  1  0  0  0  0
 26 27  1  0  0  0  0
 26  4  1  0  0  0  0
 28 29  1  0  0  0  0
 30 32  1  0  0  0  0
 30 29  1  0  0  0  0
 31 30  1  0  0  0  0
 31 32  1  0  0  0  0
M  END
>  <minimizedAffinity>
-7.33578396

$$$$
