
 OpenBabel09132204463D

 32 36  0  0  1  0  0  0  0  0999 V2000
   10.2900   -2.1880    2.4360 O   0  0  0  0  0  0  0  0  0  0  0  0
    9.3580   -2.9210    2.0870 C   0  0  0  0  0  0  0  0  0  0  0  0
    8.2830   -3.2010    3.0880 C   0  0  0  0  0  0  0  0  0  0  0  0
    7.2730   -4.0180    2.7410 C   0  0  1  0  0  3  0  0  0  0  0  0
    7.1620   -4.5850    1.3840 C   0  0  0  0  0  0  0  0  0  0  0  0
    6.0360   -5.3300    0.9780 C   0  0  0  0  0  3  0  0  0  0  0  0
    5.9660   -5.8940   -0.2950 C   0  0  0  0  0  3  0  0  0  0  0  0
    7.0130   -5.7140   -1.1850 C   0  0  0  0  0  3  0  0  0  0  0  0
    8.1170   -4.9460   -0.8150 C   0  0  0  0  0  3  0  0  0  0  0  0
    8.1980   -4.3550    0.4590 C   0  0  0  0  0  0  0  0  0  0  0  0
    9.2840   -3.5060    0.8320 N   0  0  0  0  0  0  0  0  0  0  0  0
    8.4220   -2.5540    4.4510 C   0  0  0  0  0  0  0  0  0  0  0  0
    7.6230   -2.8970    5.4320 N   0  0  0  0  0  0  0  0  0  0  0  0
    7.6330   -2.3100    6.9230 S   0  0  0  0  0  0  0  0  0  0  0  0
    6.4190   -1.5470    7.1420 O   0  0  0  0  0  0  0  0  0  0  0  0
    7.9880   -3.3680    7.8480 O   0  0  0  0  0  0  0  0  0  0  0  0
    8.9490   -1.1430    7.0050 C   0  0  0  0  0  0  0  0  0  0  0  0
    9.2070   -0.4800    8.2110 C   0  0  0  0  0  3  0  0  0  0  0  0
   10.2490    0.4420    8.2680 C   0  0  0  0  0  3  0  0  0  0  0  0
   11.0150    0.6900    7.1290 C   0  0  0  0  0  3  0  0  0  0  0  0
   10.7420    0.0170    5.9330 C   0  0  0  0  0  3  0  0  0  0  0  0
    9.7010   -0.9120    5.8610 C   0  0  0  0  0  0  0  0  0  0  0  0
    9.4240   -1.5840    4.6770 N   0  0  0  0  0  0  0  0  0  0  0  0
    6.9190   -3.6030    5.2400 H   0  0  0  0  0  0  0  0  0  0  0  0
   10.0120   -1.3870    3.8650 H   0  0  0  0  0  0  0  0  0  0  0  0
    6.3150   -4.3920    3.6740 O   0  0  0  0  0  0  0  0  0  0  0  0
    6.0180   -5.2970    3.4640 H   0  0  0  0  0  0  0  0  0  0  0  0
   10.3740   -3.2190   -0.1110 C   0  0  0  0  0  2  0  0  0  0  0  0
   10.3230   -1.7750   -0.6230 C   0  0  0  0  0  2  0  0  0  0  0  0
   11.1090   -1.4820   -1.8690 C   0  0  0  0  0  3  0  0  0  0  0  0
   10.7530   -0.4090   -2.8690 C   0  0  0  0  0  2  0  0  0  0  0  0
   11.9550   -0.2390   -1.9800 C   0  0  0  0  0  2  0  0  0  0  0  0
  2  1  2  0  0  0  0
  2  3  1  0  0  0  0
  3 12  2  0  0  0  0
  4  3  1  0  0  0  0
  4 26  1  1  0  0  0
  5  4  1  0  0  0  0
  6  5  1  0  0  0  0
  7  6  2  0  0  0  0
  8  9  2  0  0  0  0
  8  7  1  0  0  0  0
  9 10  1  0  0  0  0
 10 11  1  0  0  0  0
 10  5  2  0  0  0  0
 11  2  1  0  0  0  0
 12 23  1  0  0  0  0
 12 13  1  0  0  0  0
 13 14  1  0  0  0  0
 14 17  1  0  0  0  0
 14 15  2  0  0  0  0
 14 16  2  0  0  0  0
 17 18  1  0  0  0  0
 18 19  2  0  0  0  0
 20 19  1  0  0  0  0
 21 20  2  0  0  0  0
 22 21  1  0  0  0  0
 22 17  2  0  0  0  0
 23 22  1  0  0  0  0
 24 13  1  0  0  0  0
 25 23  1  0  0  0  0
 27 26  1  0  0  0  0
 28 11  1  0  0  0  0
 29 28  1  0  0  0  0
 30 29  1  0  0  0  0
 31 32  1  0  0  0  0
 31 30  1  0  0  0  0
 32 30  1  0  0  0  0
M  END
>  <minimizedAffinity>
-6.58246326

$$$$
