
 OpenBabel09132200093D

 32 36  0  0  1  0  0  0  0  0999 V2000
    6.8600   -3.8180    2.3890 O   0  0  0  0  0  0  0  0  0  0  0  0
    7.3440   -3.3710    3.4350 C   0  0  0  0  0  0  0  0  0  0  0  0
    8.6530   -2.6530    3.3420 C   0  0  0  0  0  0  0  0  0  0  0  0
    9.2140   -2.1830    4.4690 C   0  0  0  0  0  0  0  0  0  0  0  0
    8.5420   -2.2940    5.7780 C   0  0  0  0  0  0  0  0  0  0  0  0
    9.0630   -1.6850    6.9370 C   0  0  0  0  0  3  0  0  0  0  0  0
    8.4380   -1.8340    8.1740 C   0  0  0  0  0  3  0  0  0  0  0  0
    7.2770   -2.5870    8.2700 C   0  0  0  0  0  3  0  0  0  0  0  0
    6.7250   -3.1640    7.1270 C   0  0  0  0  0  3  0  0  0  0  0  0
    7.3320   -3.0090    5.8680 C   0  0  0  0  0  0  0  0  0  0  0  0
    6.7450   -3.5300    4.6750 N   0  0  0  0  0  0  0  0  0  0  0  0
    9.2760   -2.5250    1.9670 C   0  0  1  0  0  3  0  0  0  0  0  0
    9.6120   -3.5960    1.2900 N   0  0  0  0  0  0  0  0  0  0  0  0
   10.2830   -3.6350   -0.1660 S   0  0  0  0  0  0  0  0  0  0  0  0
   11.6360   -4.1430   -0.0520 O   0  0  0  0  0  0  0  0  0  0  0  0
    9.3620   -4.2570   -1.0960 O   0  0  0  0  0  0  0  0  0  0  0  0
   10.4450   -1.9650   -0.7000 C   0  0  0  0  0  0  0  0  0  0  0  0
   10.9890   -1.6960   -1.9610 C   0  0  0  0  0  3  0  0  0  0  0  0
   11.1150   -0.3730   -2.3770 C   0  0  0  0  0  3  0  0  0  0  0  0
   10.7000    0.6590   -1.5340 C   0  0  0  0  0  3  0  0  0  0  0  0
   10.1590    0.3690   -0.2770 C   0  0  0  0  0  3  0  0  0  0  0  0
   10.0240   -0.9530    0.1530 C   0  0  0  0  0  0  0  0  0  0  0  0
    9.4880   -1.2480    1.4000 N   0  0  0  0  0  0  0  0  0  0  0  0
    9.4400   -4.4980    1.7210 H   0  0  0  0  0  0  0  0  0  0  0  0
    9.1830   -0.4700    1.9870 H   0  0  0  0  0  0  0  0  0  0  0  0
   10.4780   -1.6090    4.4430 O   0  0  0  0  0  0  0  0  0  0  0  0
   10.9220   -1.8040    5.2900 H   0  0  0  0  0  0  0  0  0  0  0  0
    5.4710   -4.2600    4.7200 C   0  0  0  0  0  2  0  0  0  0  0  0
    4.2740   -3.3410    4.4560 C   0  0  0  0  0  2  0  0  0  0  0  0
    3.3350   -3.1230    5.6080 C   0  0  0  0  0  3  0  0  0  0  0  0
    3.2650   -1.8550    6.4230 C   0  0  0  0  0  2  0  0  0  0  0  0
    2.1470   -2.2030    5.4790 C   0  0  0  0  0  2  0  0  0  0  0  0
  1  2  2  0  0  0  0
  2 11  1  0  0  0  0
  3  2  1  0  0  0  0
  3  4  2  0  0  0  0
  4  5  1  0  0  0  0
  5 10  2  0  0  0  0
  5  6  1  0  0  0  0
  6  7  2  0  0  0  0
  7  8  1  0  0  0  0
  9  8  2  0  0  0  0
 10  9  1  0  0  0  0
 11 28  1  0  0  0  0
 11 10  1  0  0  0  0
 12  3  1  6  0  0  0
 13 24  1  0  0  0  0
 13 12  1  0  0  0  0
 14 15  2  0  0  0  0
 14 13  1  0  0  0  0
 16 14  2  0  0  0  0
 17 14  1  0  0  0  0
 17 22  1  0  0  0  0
 18 17  2  0  0  0  0
 19 18  1  0  0  0  0
 19 20  2  0  0  0  0
 20 21  1  0  0  0  0
 21 22  2  0  0  0  0
 22 23  1  0  0  0  0
 23 12  1  0  0  0  0
 23 25  1  0  0  0  0
 26  4  1  0  0  0  0
 26 27  1  0  0  0  0
 29 28  1  0  0  0  0
 29 30  1  0  0  0  0
 30 31  1  0  0  0  0
 32 30  1  0  0  0  0
 32 31  1  0  0  0  0
M  END
>  <minimizedAffinity>
-8.05271244

$$$$

 OpenBabel09132200093D

 32 36  0  0  1  0  0  0  0  0999 V2000
   10.8040   -2.0250    4.3870 O   0  0  0  0  0  0  0  0  0  0  0  0
    9.6630   -2.4070    4.6720 C   0  0  0  0  0  0  0  0  0  0  0  0
    8.7410   -2.7410    3.5440 C   0  0  0  0  0  0  0  0  0  0  0  0
    7.4850   -3.1310    3.8280 C   0  0  0  0  0  0  0  0  0  0  0  0
    7.0200   -3.3050    5.2170 C   0  0  0  0  0  0  0  0  0  0  0  0
    5.7520   -3.8420    5.5160 C   0  0  0  0  0  3  0  0  0  0  0  0
    5.3120   -3.9620    6.8340 C   0  0  0  0  0  3  0  0  0  0  0  0
    6.1360   -3.5550    7.8730 C   0  0  0  0  0  3  0  0  0  0  0  0
    7.4100   -3.0590    7.5970 C   0  0  0  0  0  3  0  0  0  0  0  0
    7.8780   -2.9480    6.2760 C   0  0  0  0  0  0  0  0  0  0  0  0
    9.2030   -2.5100    5.9760 N   0  0  0  0  0  0  0  0  0  0  0  0
    9.2840   -2.5900    2.1380 C   0  0  1  0  0  3  0  0  0  0  0  0
    9.5420   -3.6490    1.4100 N   0  0  0  0  0  0  0  0  0  0  0  0
   10.1220   -3.6640   -0.0850 S   0  0  0  0  0  0  0  0  0  0  0  0
   11.4610   -4.2210   -0.0690 O   0  0  0  0  0  0  0  0  0  0  0  0
    9.1250   -4.2240   -0.9760 O   0  0  0  0  0  0  0  0  0  0  0  0
   10.3120   -1.9840   -0.5770 C   0  0  0  0  0  0  0  0  0  0  0  0
   10.7880   -1.6920   -1.8600 C   0  0  0  0  0  3  0  0  0  0  0  0
   10.9360   -0.3620   -2.2430 C   0  0  0  0  0  3  0  0  0  0  0  0
   10.6090    0.6550   -1.3450 C   0  0  0  0  0  3  0  0  0  0  0  0
   10.1340    0.3440   -0.0670 C   0  0  0  0  0  3  0  0  0  0  0  0
    9.9790   -0.9870    0.3300 C   0  0  0  0  0  0  0  0  0  0  0  0
    9.5080   -1.3040    1.5980 N   0  0  0  0  0  0  0  0  0  0  0  0
    9.3640   -4.5590    1.8230 H   0  0  0  0  0  0  0  0  0  0  0  0
    9.2660   -0.5340    2.2260 H   0  0  0  0  0  0  0  0  0  0  0  0
    6.5650   -3.3430    2.8110 O   0  0  0  0  0  0  0  0  0  0  0  0
    5.6790   -3.1040    3.1430 H   0  0  0  0  0  0  0  0  0  0  0  0
   10.1390   -2.1520    7.0510 C   0  0  0  0  0  2  0  0  0  0  0  0
   10.0660   -0.6630    7.4030 C   0  0  0  0  0  2  0  0  0  0  0  0
   11.2320    0.1820    6.9720 C   0  0  0  0  0  3  0  0  0  0  0  0
   11.1900    1.1810    5.8430 C   0  0  0  0  0  2  0  0  0  0  0  0
   11.2720    1.6600    7.2670 C   0  0  0  0  0  2  0  0  0  0  0  0
  1  2  2  0  0  0  0
  2 11  1  0  0  0  0
  3  4  2  0  0  0  0
  3  2  1  0  0  0  0
  4  5  1  0  0  0  0
  5  6  2  0  0  0  0
  5 10  1  0  0  0  0
  6  7  1  0  0  0  0
  7  8  2  0  0  0  0
  9  8  1  0  0  0  0
 10  9  2  0  0  0  0
 11 10  1  0  0  0  0
 11 28  1  0  0  0  0
 12  3  1  6  0  0  0
 13 24  1  0  0  0  0
 13 12  1  0  0  0  0
 14 15  2  0  0  0  0
 14 13  1  0  0  0  0
 16 14  2  0  0  0  0
 17 14  1  0  0  0  0
 17 22  1  0  0  0  0
 18 17  2  0  0  0  0
 19 18  1  0  0  0  0
 19 20  2  0  0  0  0
 20 21  1  0  0  0  0
 21 22  2  0  0  0  0
 22 23  1  0  0  0  0
 23 12  1  0  0  0  0
 23 25  1  0  0  0  0
 26 27  1  0  0  0  0
 26  4  1  0  0  0  0
 28 29  1  0  0  0  0
 30 32  1  0  0  0  0
 30 29  1  0  0  0  0
 31 30  1  0  0  0  0
 31 32  1  0  0  0  0
M  END
>  <minimizedAffinity>
-7.33578396

$$$$

 OpenBabel09132200093D

 32 36  0  0  1  0  0  0  0  0999 V2000
    9.0500   -4.0180    2.3730 O   0  0  0  0  0  0  0  0  0  0  0  0
    9.2910   -2.9340    1.8300 C   0  0  0  0  0  0  0  0  0  0  0  0
    9.1640   -1.6980    2.6630 C   0  0  0  0  0  0  0  0  0  0  0  0
    9.3940   -0.5040    2.0880 C   0  0  0  0  0  0  0  0  0  0  0  0
    9.8350   -0.3890    0.6850 C   0  0  0  0  0  0  0  0  0  0  0  0
   10.2060    0.8480    0.1210 C   0  0  0  0  0  3  0  0  0  0  0  0
   10.5810    0.9470   -1.2190 C   0  0  0  0  0  3  0  0  0  0  0  0
   10.6000   -0.1900   -2.0120 C   0  0  0  0  0  3  0  0  0  0  0  0
   10.2750   -1.4290   -1.4600 C   0  0  0  0  0  3  0  0  0  0  0  0
    9.9110   -1.5500   -0.1070 C   0  0  0  0  0  0  0  0  0  0  0  0
    9.6440   -2.8180    0.4950 N   0  0  0  0  0  0  0  0  0  0  0  0
    8.7540   -1.8780    4.1110 C   0  0  1  0  0  3  0  0  0  0  0  0
    9.3880   -1.2380    5.0630 N   0  0  0  0  0  0  0  0  0  0  0  0
    9.0860   -1.3210    6.6350 S   0  0  0  0  0  0  0  0  0  0  0  0
   10.1990   -1.9700    7.3000 O   0  0  0  0  0  0  0  0  0  0  0  0
    8.6330   -0.0250    7.1010 O   0  0  0  0  0  0  0  0  0  0  0  0
    7.7140   -2.4060    6.8370 C   0  0  0  0  0  0  0  0  0  0  0  0
    7.2140   -2.6520    8.1200 C   0  0  0  0  0  3  0  0  0  0  0  0
    6.1290   -3.5120    8.2720 C   0  0  0  0  0  3  0  0  0  0  0  0
    5.5610   -4.1120    7.1480 C   0  0  0  0  0  3  0  0  0  0  0  0
    6.0750   -3.8530    5.8730 C   0  0  0  0  0  3  0  0  0  0  0  0
    7.1620   -2.9920    5.7050 C   0  0  0  0  0  0  0  0  0  0  0  0
    7.6770   -2.7300    4.4420 N   0  0  0  0  0  0  0  0  0  0  0  0
   10.1520   -0.6280    4.7920 H   0  0  0  0  0  0  0  0  0  0  0  0
    7.2290   -3.1770    3.6390 H   0  0  0  0  0  0  0  0  0  0  0  0
    9.1800    0.6720    2.7940 O   0  0  0  0  0  0  0  0  0  0  0  0
    8.8860    1.3580    2.1650 H   0  0  0  0  0  0  0  0  0  0  0  0
    9.7370   -4.0580   -0.2880 C   0  0  0  0  0  2  0  0  0  0  0  0
    8.3910   -4.4450   -0.9100 C   0  0  0  0  0  2  0  0  0  0  0  0
    7.7280   -5.6720   -0.3520 C   0  0  0  0  0  3  0  0  0  0  0  0
    6.6380   -5.6530    0.6910 C   0  0  0  0  0  2  0  0  0  0  0  0
    6.3120   -6.0290   -0.7280 C   0  0  0  0  0  2  0  0  0  0  0  0
  2  1  2  0  0  0  0
  2  3  1  0  0  0  0
  4  3  2  0  0  0  0
  4 26  1  0  0  0  0
  5  4  1  0  0  0  0
  6  5  1  0  0  0  0
  7  6  2  0  0  0  0
  8  9  2  0  0  0  0
  8  7  1  0  0  0  0
  9 10  1  0  0  0  0
 10 11  1  0  0  0  0
 10  5  2  0  0  0  0
 11  2  1  0  0  0  0
 12  3  1  6  0  0  0
 12 23  1  0  0  0  0
 12 13  1  0  0  0  0
 13 14  1  0  0  0  0
 14 17  1  0  0  0  0
 14 16  2  0  0  0  0
 14 15  2  0  0  0  0
 17 18  1  0  0  0  0
 18 19  2  0  0  0  0
 20 19  1  0  0  0  0
 21 20  2  0  0  0  0
 22 21  1  0  0  0  0
 22 17  2  0  0  0  0
 23 22  1  0  0  0  0
 24 13  1  0  0  0  0
 25 23  1  0  0  0  0
 27 26  1  0  0  0  0
 28 11  1  0  0  0  0
 29 30  1  0  0  0  0
 29 28  1  0  0  0  0
 30 31  1  0  0  0  0
 32 30  1  0  0  0  0
 32 31  1  0  0  0  0
M  END
>  <minimizedAffinity>
-7.12868452

$$$$

 OpenBabel09132200093D

 32 36  0  0  1  0  0  0  0  0999 V2000
    9.3090    1.5610    2.7350 O   0  0  0  0  0  0  0  0  0  0  0  0
    9.8520    1.4880    1.6270 C   0  0  0  0  0  0  0  0  0  0  0  0
   10.7160    2.6330    1.2030 C   0  0  0  0  0  0  0  0  0  0  0  0
   11.2950    2.5900   -0.0100 C   0  0  0  0  0  0  0  0  0  0  0  0
   11.1580    1.4190   -0.8970 C   0  0  0  0  0  0  0  0  0  0  0  0
   11.8720    1.3150   -2.1080 C   0  0  0  0  0  3  0  0  0  0  0  0
   11.7000    0.2210   -2.9550 C   0  0  0  0  0  3  0  0  0  0  0  0
   10.8200   -0.7900   -2.6000 C   0  0  0  0  0  3  0  0  0  0  0  0
   10.1360   -0.7230   -1.3870 C   0  0  0  0  0  3  0  0  0  0  0  0
   10.3090    0.3640   -0.5120 C   0  0  0  0  0  0  0  0  0  0  0  0
    9.6740    0.4170    0.7660 N   0  0  0  0  0  0  0  0  0  0  0  0
   10.8590    3.7880    2.1720 C   0  0  1  0  0  3  0  0  0  0  0  0
   10.8700    3.5720    3.4640 N   0  0  0  0  0  0  0  0  0  0  0  0
   11.0070    4.6770    4.6180 S   0  0  0  0  0  0  0  0  0  0  0  0
    9.7610    4.7530    5.3540 O   0  0  0  0  0  0  0  0  0  0  0  0
   12.2490    4.4630    5.3340 O   0  0  0  0  0  0  0  0  0  0  0  0
   11.1810    6.2350    3.8160 C   0  0  0  0  0  0  0  0  0  0  0  0
   11.3420    7.3920    4.5870 C   0  0  0  0  0  3  0  0  0  0  0  0
   11.4790    8.6200    3.9470 C   0  0  0  0  0  3  0  0  0  0  0  0
   11.4530    8.6790    2.5530 C   0  0  0  0  0  3  0  0  0  0  0  0
   11.2920    7.5120    1.8000 C   0  0  0  0  0  3  0  0  0  0  0  0
   11.1550    6.2720    2.4280 C   0  0  0  0  0  0  0  0  0  0  0  0
   10.9950    5.1090    1.6860 N   0  0  0  0  0  0  0  0  0  0  0  0
   10.7780    2.6120    3.7810 H   0  0  0  0  0  0  0  0  0  0  0  0
   10.9920    5.1860    0.6670 H   0  0  0  0  0  0  0  0  0  0  0  0
   12.0120    3.6790   -0.4880 O   0  0  0  0  0  0  0  0  0  0  0  0
   11.9060    3.7150   -1.4580 H   0  0  0  0  0  0  0  0  0  0  0  0
    8.8000   -0.6750    1.2180 C   0  0  0  0  0  2  0  0  0  0  0  0
    9.5960   -1.8180    1.8560 C   0  0  0  0  0  2  0  0  0  0  0  0
    9.1090   -2.3050    3.1920 C   0  0  0  0  0  3  0  0  0  0  0  0
    9.9960   -2.8920    4.2610 C   0  0  0  0  0  2  0  0  0  0  0  0
    9.3920   -1.5280    4.4530 C   0  0  0  0  0  2  0  0  0  0  0  0
  2  1  2  0  0  0  0
  3  2  1  0  0  0  0
  4  3  2  0  0  0  0
  5 10  1  0  0  0  0
  5  4  1  0  0  0  0
  6  5  2  0  0  0  0
  7  8  2  0  0  0  0
  7  6  1  0  0  0  0
  8  9  1  0  0  0  0
  9 10  2  0  0  0  0
 10 11  1  0  0  0  0
 11 28  1  0  0  0  0
 11  2  1  0  0  0  0
 12  3  1  6  0  0  0
 12 13  1  0  0  0  0
 13 24  1  0  0  0  0
 13 14  1  0  0  0  0
 14 16  2  0  0  0  0
 14 15  2  0  0  0  0
 17 18  1  0  0  0  0
 17 14  1  0  0  0  0
 19 18  2  0  0  0  0
 20 19  1  0  0  0  0
 21 22  1  0  0  0  0
 21 20  2  0  0  0  0
 22 17  2  0  0  0  0
 23 12  1  0  0  0  0
 23 22  1  0  0  0  0
 25 23  1  0  0  0  0
 26  4  1  0  0  0  0
 27 26  1  0  0  0  0
 28 29  1  0  0  0  0
 29 30  1  0  0  0  0
 30 31  1  0  0  0  0
 30 32  1  0  0  0  0
 31 32  1  0  0  0  0
M  END
>  <minimizedAffinity>
-6.80309057

$$$$

 OpenBabel09132200093D

 32 36  0  0  1  0  0  0  0  0999 V2000
    8.9270    1.2530    2.4930 O   0  0  0  0  0  0  0  0  0  0  0  0
    9.4930    0.6980    1.5450 C   0  0  0  0  0  0  0  0  0  0  0  0
   10.2810    1.5580    0.6080 C   0  0  0  0  0  0  0  0  0  0  0  0
   10.8820    0.9810   -0.4480 C   0  0  0  0  0  0  0  0  0  0  0  0
   10.8430   -0.4780   -0.6650 C   0  0  0  0  0  0  0  0  0  0  0  0
   11.5830   -1.0980   -1.6910 C   0  0  0  0  0  3  0  0  0  0  0  0
   11.5030   -2.4730   -1.9090 C   0  0  0  0  0  3  0  0  0  0  0  0
   10.6900   -3.2500   -1.0970 C   0  0  0  0  0  3  0  0  0  0  0  0
    9.9820   -2.6590   -0.0510 C   0  0  0  0  0  3  0  0  0  0  0  0
   10.0640   -1.2770    0.1940 C   0  0  0  0  0  0  0  0  0  0  0  0
    9.4050   -0.6640    1.3030 N   0  0  0  0  0  0  0  0  0  0  0  0
   10.3270    3.0430    0.9040 C   0  0  1  0  0  3  0  0  0  0  0  0
   10.1060    3.9150   -0.0480 N   0  0  0  0  0  0  0  0  0  0  0  0
   10.1230    5.5120    0.0960 S   0  0  0  0  0  0  0  0  0  0  0  0
   11.2480    6.0440   -0.6470 O   0  0  0  0  0  0  0  0  0  0  0  0
    8.7910    6.0260   -0.1580 O   0  0  0  0  0  0  0  0  0  0  0  0
   10.4570    5.8710    1.7870 C   0  0  0  0  0  0  0  0  0  0  0  0
   10.5110    7.2030    2.2110 C   0  0  0  0  0  3  0  0  0  0  0  0
   10.7770    7.4790    3.5490 C   0  0  0  0  0  3  0  0  0  0  0  0
   10.9850    6.4290    4.4430 C   0  0  0  0  0  3  0  0  0  0  0  0
   10.9260    5.1030    4.0010 C   0  0  0  0  0  3  0  0  0  0  0  0
   10.6590    4.8100    2.6610 C   0  0  0  0  0  0  0  0  0  0  0  0
   10.5990    3.4960    2.2150 N   0  0  0  0  0  0  0  0  0  0  0  0
    9.9060    3.5580   -0.9760 H   0  0  0  0  0  0  0  0  0  0  0  0
   10.7440    2.7510    2.8980 H   0  0  0  0  0  0  0  0  0  0  0  0
   11.5300    1.7550   -1.4010 O   0  0  0  0  0  0  0  0  0  0  0  0
   11.4380    1.3160   -2.2670 H   0  0  0  0  0  0  0  0  0  0  0  0
    8.6030   -1.4640    2.2390 C   0  0  0  0  0  2  0  0  0  0  0  0
    9.4790   -2.2140    3.2480 C   0  0  0  0  0  2  0  0  0  0  0  0
    9.3570   -1.7860    4.6830 C   0  0  0  0  0  3  0  0  0  0  0  0
   10.4510   -1.9270    5.7120 C   0  0  0  0  0  2  0  0  0  0  0  0
   10.0790   -0.5650    5.1940 C   0  0  0  0  0  2  0  0  0  0  0  0
  2  1  2  0  0  0  0
  3  2  1  0  0  0  0
  4  3  2  0  0  0  0
  5  4  1  0  0  0  0
  5 10  1  0  0  0  0
  6  5  2  0  0  0  0
  7  6  1  0  0  0  0
  7  8  2  0  0  0  0
  8  9  1  0  0  0  0
  9 10  2  0  0  0  0
 10 11  1  0  0  0  0
 11  2  1  0  0  0  0
 11 28  1  0  0  0  0
 12  3  1  1  0  0  0
 12 23  1  0  0  0  0
 13 14  1  0  0  0  0
 13 12  1  0  0  0  0
 14 17  1  0  0  0  0
 15 14  2  0  0  0  0
 16 14  2  0  0  0  0
 17 18  2  0  0  0  0
 17 22  1  0  0  0  0
 18 19  1  0  0  0  0
 19 20  2  0  0  0  0
 21 20  1  0  0  0  0
 22 21  2  0  0  0  0
 23 22  1  0  0  0  0
 23 25  1  0  0  0  0
 24 13  1  0  0  0  0
 26  4  1  0  0  0  0
 27 26  1  0  0  0  0
 28 29  1  0  0  0  0
 29 30  1  0  0  0  0
 30 32  1  0  0  0  0
 30 31  1  0  0  0  0
 32 31  1  0  0  0  0
M  END
>  <minimizedAffinity>
-6.78759003

$$$$

 OpenBabel09132200093D

 32 36  0  0  1  0  0  0  0  0999 V2000
   11.8750    3.1320    2.4200 O   0  0  0  0  0  0  0  0  0  0  0  0
   11.2370    4.0410    1.8760 C   0  0  0  0  0  0  0  0  0  0  0  0
   10.3390    3.6730    0.7380 C   0  0  0  0  0  0  0  0  0  0  0  0
    9.6560    4.6470    0.1120 C   0  0  0  0  0  0  0  0  0  0  0  0
    9.7150    6.0510    0.5620 C   0  0  0  0  0  0  0  0  0  0  0  0
    8.8990    7.0500   -0.0050 C   0  0  0  0  0  3  0  0  0  0  0  0
    8.9970    8.3800    0.4030 C   0  0  0  0  0  3  0  0  0  0  0  0
    9.9050    8.7300    1.3900 C   0  0  0  0  0  3  0  0  0  0  0  0
   10.6920    7.7480    1.9910 C   0  0  0  0  0  3  0  0  0  0  0  0
   10.5950    6.3990    1.6050 C   0  0  0  0  0  0  0  0  0  0  0  0
   11.3390    5.3700    2.2560 N   0  0  0  0  0  0  0  0  0  0  0  0
   10.2790    2.2100    0.3490 C   0  0  1  0  0  3  0  0  0  0  0  0
   10.7720    1.8090   -0.7970 N   0  0  0  0  0  0  0  0  0  0  0  0
   10.7850    0.3080   -1.3600 S   0  0  0  0  0  0  0  0  0  0  0  0
    9.9090    0.2250   -2.5130 O   0  0  0  0  0  0  0  0  0  0  0  0
   12.1570   -0.1470   -1.4710 O   0  0  0  0  0  0  0  0  0  0  0  0
   10.0440   -0.7080   -0.1270 C   0  0  0  0  0  0  0  0  0  0  0  0
    9.9380   -2.0860   -0.3430 C   0  0  0  0  0  3  0  0  0  0  0  0
    9.3500   -2.8830    0.6360 C   0  0  0  0  0  3  0  0  0  0  0  0
    8.8780   -2.2980    1.8110 C   0  0  0  0  0  3  0  0  0  0  0  0
    8.9940   -0.9180    2.0090 C   0  0  0  0  0  3  0  0  0  0  0  0
    9.5820   -0.1060    1.0360 C   0  0  0  0  0  0  0  0  0  0  0  0
    9.7000    1.2650    1.2250 N   0  0  0  0  0  0  0  0  0  0  0  0
   11.1880    2.5100   -1.4020 H   0  0  0  0  0  0  0  0  0  0  0  0
    9.3550    1.6590    2.1030 H   0  0  0  0  0  0  0  0  0  0  0  0
    8.8990    4.3660   -1.0170 O   0  0  0  0  0  0  0  0  0  0  0  0
    8.9200    5.1450   -1.6030 H   0  0  0  0  0  0  0  0  0  0  0  0
   12.2490    5.6850    3.3660 C   0  0  0  0  0  2  0  0  0  0  0  0
   11.4960    5.8920    4.6840 C   0  0  0  0  0  2  0  0  0  0  0  0
   11.2350    4.6600    5.5030 C   0  0  0  0  0  3  0  0  0  0  0  0
   10.2800    4.5970    6.6690 C   0  0  0  0  0  2  0  0  0  0  0  0
    9.9350    3.9050    5.3790 C   0  0  0  0  0  2  0  0  0  0  0  0
  2 11  1  0  0  0  0
  2  1  2  0  0  0  0
  3  2  1  0  0  0  0
  4  5  1  0  0  0  0
  4  3  2  0  0  0  0
  5 10  1  0  0  0  0
  6  7  1  0  0  0  0
  6  5  2  0  0  0  0
  7  8  2  0  0  0  0
  8  9  1  0  0  0  0
 10  9  2  0  0  0  0
 10 11  1  0  0  0  0
 11 28  1  0  0  0  0
 12  3  1  1  0  0  0
 12 23  1  0  0  0  0
 13 12  1  0  0  0  0
 14 13  1  0  0  0  0
 14 17  1  0  0  0  0
 15 14  2  0  0  0  0
 16 14  2  0  0  0  0
 17 22  1  0  0  0  0
 18 17  2  0  0  0  0
 18 19  1  0  0  0  0
 19 20  2  0  0  0  0
 20 21  1  0  0  0  0
 22 23  1  0  0  0  0
 22 21  2  0  0  0  0
 23 25  1  0  0  0  0
 24 13  1  0  0  0  0
 26  4  1  0  0  0  0
 27 26  1  0  0  0  0
 28 29  1  0  0  0  0
 29 30  1  0  0  0  0
 30 31  1  0  0  0  0
 32 30  1  0  0  0  0
 32 31  1  0  0  0  0
M  END
>  <minimizedAffinity>
-6.59050274

$$$$

 OpenBabel09132200093D

 32 36  0  0  1  0  0  0  0  0999 V2000
   10.2900   -2.1880    2.4360 O   0  0  0  0  0  0  0  0  0  0  0  0
    9.3580   -2.9210    2.0870 C   0  0  0  0  0  0  0  0  0  0  0  0
    8.2830   -3.2010    3.0880 C   0  0  0  0  0  0  0  0  0  0  0  0
    7.2730   -4.0180    2.7410 C   0  0  1  0  0  3  0  0  0  0  0  0
    7.1620   -4.5850    1.3840 C   0  0  0  0  0  0  0  0  0  0  0  0
    6.0360   -5.3300    0.9780 C   0  0  0  0  0  3  0  0  0  0  0  0
    5.9660   -5.8940   -0.2950 C   0  0  0  0  0  3  0  0  0  0  0  0
    7.0130   -5.7140   -1.1850 C   0  0  0  0  0  3  0  0  0  0  0  0
    8.1170   -4.9460   -0.8150 C   0  0  0  0  0  3  0  0  0  0  0  0
    8.1980   -4.3550    0.4590 C   0  0  0  0  0  0  0  0  0  0  0  0
    9.2840   -3.5060    0.8320 N   0  0  0  0  0  0  0  0  0  0  0  0
    8.4220   -2.5540    4.4510 C   0  0  0  0  0  0  0  0  0  0  0  0
    7.6230   -2.8970    5.4320 N   0  0  0  0  0  0  0  0  0  0  0  0
    7.6330   -2.3100    6.9230 S   0  0  0  0  0  0  0  0  0  0  0  0
    6.4190   -1.5470    7.1420 O   0  0  0  0  0  0  0  0  0  0  0  0
    7.9880   -3.3680    7.8480 O   0  0  0  0  0  0  0  0  0  0  0  0
    8.9490   -1.1430    7.0050 C   0  0  0  0  0  0  0  0  0  0  0  0
    9.2070   -0.4800    8.2110 C   0  0  0  0  0  3  0  0  0  0  0  0
   10.2490    0.4420    8.2680 C   0  0  0  0  0  3  0  0  0  0  0  0
   11.0150    0.6900    7.1290 C   0  0  0  0  0  3  0  0  0  0  0  0
   10.7420    0.0170    5.9330 C   0  0  0  0  0  3  0  0  0  0  0  0
    9.7010   -0.9120    5.8610 C   0  0  0  0  0  0  0  0  0  0  0  0
    9.4240   -1.5840    4.6770 N   0  0  0  0  0  0  0  0  0  0  0  0
    6.9190   -3.6030    5.2400 H   0  0  0  0  0  0  0  0  0  0  0  0
   10.0120   -1.3870    3.8650 H   0  0  0  0  0  0  0  0  0  0  0  0
    6.3150   -4.3920    3.6740 O   0  0  0  0  0  0  0  0  0  0  0  0
    6.0180   -5.2970    3.4640 H   0  0  0  0  0  0  0  0  0  0  0  0
   10.3740   -3.2190   -0.1110 C   0  0  0  0  0  2  0  0  0  0  0  0
   10.3230   -1.7750   -0.6230 C   0  0  0  0  0  2  0  0  0  0  0  0
   11.1090   -1.4820   -1.8690 C   0  0  0  0  0  3  0  0  0  0  0  0
   10.7530   -0.4090   -2.8690 C   0  0  0  0  0  2  0  0  0  0  0  0
   11.9550   -0.2390   -1.9800 C   0  0  0  0  0  2  0  0  0  0  0  0
  2  1  2  0  0  0  0
  2  3  1  0  0  0  0
  3 12  2  0  0  0  0
  4  3  1  0  0  0  0
  4 26  1  1  0  0  0
  5  4  1  0  0  0  0
  6  5  1  0  0  0  0
  7  6  2  0  0  0  0
  8  9  2  0  0  0  0
  8  7  1  0  0  0  0
  9 10  1  0  0  0  0
 10 11  1  0  0  0  0
 10  5  2  0  0  0  0
 11  2  1  0  0  0  0
 12 23  1  0  0  0  0
 12 13  1  0  0  0  0
 13 14  1  0  0  0  0
 14 17  1  0  0  0  0
 14 15  2  0  0  0  0
 14 16  2  0  0  0  0
 17 18  1  0  0  0  0
 18 19  2  0  0  0  0
 20 19  1  0  0  0  0
 21 20  2  0  0  0  0
 22 21  1  0  0  0  0
 22 17  2  0  0  0  0
 23 22  1  0  0  0  0
 24 13  1  0  0  0  0
 25 23  1  0  0  0  0
 27 26  1  0  0  0  0
 28 11  1  0  0  0  0
 29 28  1  0  0  0  0
 30 29  1  0  0  0  0
 31 32  1  0  0  0  0
 31 30  1  0  0  0  0
 32 30  1  0  0  0  0
M  END
>  <minimizedAffinity>
-6.58246326

$$$$

 OpenBabel09132200093D

 32 36  0  0  1  0  0  0  0  0999 V2000
    9.2410    1.2060    3.2530 O   0  0  0  0  0  0  0  0  0  0  0  0
    9.5460    0.4670    2.3090 C   0  0  0  0  0  0  0  0  0  0  0  0
    9.6780   -0.9960    2.5890 C   0  0  0  0  0  0  0  0  0  0  0  0
   10.0360   -1.8160    1.5850 C   0  0  0  0  0  0  0  0  0  0  0  0
   10.2330   -1.3220    0.2090 C   0  0  0  0  0  0  0  0  0  0  0  0
   10.4750   -2.1970   -0.8690 C   0  0  0  0  0  3  0  0  0  0  0  0
   10.6990   -1.7110   -2.1560 C   0  0  0  0  0  3  0  0  0  0  0  0
   10.6750   -0.3440   -2.3880 C   0  0  0  0  0  3  0  0  0  0  0  0
   10.3960    0.5340   -1.3410 C   0  0  0  0  0  3  0  0  0  0  0  0
   10.1510    0.0610   -0.0400 C   0  0  0  0  0  0  0  0  0  0  0  0
    9.7930    0.9380    1.0290 N   0  0  0  0  0  0  0  0  0  0  0  0
    9.4190   -1.4560    4.0090 C   0  0  1  0  0  3  0  0  0  0  0  0
   10.2750   -1.1800    4.9610 N   0  0  0  0  0  0  0  0  0  0  0  0
   10.1550   -1.5950    6.5050 S   0  0  0  0  0  0  0  0  0  0  0  0
   11.1920   -2.5590    6.8210 O   0  0  0  0  0  0  0  0  0  0  0  0
   10.0250   -0.3970    7.3100 O   0  0  0  0  0  0  0  0  0  0  0  0
    8.6320   -2.4600    6.6860 C   0  0  0  0  0  0  0  0  0  0  0  0
    8.2520   -2.9280    7.9490 C   0  0  0  0  0  3  0  0  0  0  0  0
    7.0460   -3.6110    8.0840 C   0  0  0  0  0  3  0  0  0  0  0  0
    6.2400   -3.8180    6.9650 C   0  0  0  0  0  3  0  0  0  0  0  0
    6.6370   -3.3410    5.7110 C   0  0  0  0  0  3  0  0  0  0  0  0
    7.8430   -2.6530    5.5590 C   0  0  0  0  0  0  0  0  0  0  0  0
    8.2430   -2.1770    4.3180 N   0  0  0  0  0  0  0  0  0  0  0  0
   11.1060   -0.6540    4.7090 H   0  0  0  0  0  0  0  0  0  0  0  0
    7.6230   -2.3350    3.5210 H   0  0  0  0  0  0  0  0  0  0  0  0
   10.2770   -3.1620    1.8250 O   0  0  0  0  0  0  0  0  0  0  0  0
   10.9740   -3.4640    1.2120 H   0  0  0  0  0  0  0  0  0  0  0  0
    9.6710    2.3850    0.8080 C   0  0  0  0  0  2  0  0  0  0  0  0
   10.9980    3.1150    1.0430 C   0  0  0  0  0  2  0  0  0  0  0  0
   10.9280    4.6140    1.1250 C   0  0  0  0  0  3  0  0  0  0  0  0
   11.3440    5.5490    0.0170 C   0  0  0  0  0  2  0  0  0  0  0  0
    9.8880    5.3870    0.3560 C   0  0  0  0  0  2  0  0  0  0  0  0
  2  3  1  0  0  0  0
  2  1  2  0  0  0  0
  4 26  1  0  0  0  0
  4  3  2  0  0  0  0
  5  4  1  0  0  0  0
  6  5  2  0  0  0  0
  7  6  1  0  0  0  0
  8  7  2  0  0  0  0
  8  9  1  0  0  0  0
  9 10  2  0  0  0  0
 10  5  1  0  0  0  0
 10 11  1  0  0  0  0
 11  2  1  0  0  0  0
 12  3  1  1  0  0  0
 12 23  1  0  0  0  0
 12 13  1  0  0  0  0
 13 14  1  0  0  0  0
 14 17  1  0  0  0  0
 14 15  2  0  0  0  0
 14 16  2  0  0  0  0
 17 18  1  0  0  0  0
 18 19  2  0  0  0  0
 20 19  1  0  0  0  0
 21 20  2  0  0  0  0
 22 21  1  0  0  0  0
 22 17  2  0  0  0  0
 23 22  1  0  0  0  0
 24 13  1  0  0  0  0
 25 23  1  0  0  0  0
 27 26  1  0  0  0  0
 28 11  1  0  0  0  0
 28 29  1  0  0  0  0
 29 30  1  0  0  0  0
 31 32  1  0  0  0  0
 31 30  1  0  0  0  0
 32 30  1  0  0  0  0
M  END
>  <minimizedAffinity>
-6.55408907

$$$$

 OpenBabel09132200093D

 32 36  0  0  1  0  0  0  0  0999 V2000
    9.4240    2.0510    1.3110 O   0  0  0  0  0  0  0  0  0  0  0  0
    9.7610    1.5910    2.4080 C   0  0  0  0  0  0  0  0  0  0  0  0
   10.5060    2.4930    3.3400 C   0  0  0  0  0  0  0  0  0  0  0  0
   10.9080    2.0070    4.5270 C   0  0  0  0  0  0  0  0  0  0  0  0
   10.5730    0.6370    4.9610 C   0  0  0  0  0  0  0  0  0  0  0  0
   10.8760    0.1720    6.2560 C   0  0  0  0  0  3  0  0  0  0  0  0
   10.5900   -1.1390    6.6360 C   0  0  0  0  0  3  0  0  0  0  0  0
    9.9890   -2.0010    5.7310 C   0  0  0  0  0  3  0  0  0  0  0  0
    9.6460   -1.5450    4.4590 C   0  0  0  0  0  3  0  0  0  0  0  0
    9.9110   -0.2220    4.0630 C   0  0  0  0  0  0  0  0  0  0  0  0
    9.5030    0.2840    2.7920 N   0  0  0  0  0  0  0  0  0  0  0  0
   10.7810    3.9050    2.8630 C   0  0  1  0  0  3  0  0  0  0  0  0
   10.6400    4.9200    3.6810 N   0  0  0  0  0  0  0  0  0  0  0  0
   10.8840    6.4660    3.3360 S   0  0  0  0  0  0  0  0  0  0  0  0
    9.6150    7.1680    3.3750 O   0  0  0  0  0  0  0  0  0  0  0  0
   11.9970    6.9580    4.1230 O   0  0  0  0  0  0  0  0  0  0  0  0
   11.4160    6.5400    1.6590 C   0  0  0  0  0  0  0  0  0  0  0  0
   11.7250    7.7790    1.0880 C   0  0  0  0  0  3  0  0  0  0  0  0
   12.1440    7.8300   -0.2380 C   0  0  0  0  0  3  0  0  0  0  0  0
   12.2490    6.6500   -0.9750 C   0  0  0  0  0  3  0  0  0  0  0  0
   11.9360    5.4200   -0.3860 C   0  0  0  0  0  3  0  0  0  0  0  0
   11.5150    5.3530    0.9440 C   0  0  0  0  0  0  0  0  0  0  0  0
   11.2030    4.1360    1.5350 N   0  0  0  0  0  0  0  0  0  0  0  0
   10.3430    4.7200    4.6310 H   0  0  0  0  0  0  0  0  0  0  0  0
   11.3030    3.2890    0.9700 H   0  0  0  0  0  0  0  0  0  0  0  0
   11.6960    2.7750    5.3740 O   0  0  0  0  0  0  0  0  0  0  0  0
   12.2920    2.1770    5.8640 H   0  0  0  0  0  0  0  0  0  0  0  0
    8.7860   -0.5710    1.8350 C   0  0  0  0  0  2  0  0  0  0  0  0
    9.7300   -1.1850    0.7970 C   0  0  0  0  0  2  0  0  0  0  0  0
    9.9530   -2.6680    0.8950 C   0  0  0  0  0  3  0  0  0  0  0  0
    9.2440   -3.6950    0.0470 C   0  0  0  0  0  2  0  0  0  0  0  0
   10.7040   -3.4140   -0.1800 C   0  0  0  0  0  2  0  0  0  0  0  0
  1  2  2  0  0  0  0
  2 11  1  0  0  0  0
  2  3  1  0  0  0  0
  3  4  2  0  0  0  0
  4  5  1  0  0  0  0
  4 26  1  0  0  0  0
  5  6  1  0  0  0  0
  6  7  2  0  0  0  0
  8  7  1  0  0  0  0
  9  8  2  0  0  0  0
 10  9  1  0  0  0  0
 10  5  2  0  0  0  0
 11 10  1  0  0  0  0
 12  3  1  1  0  0  0
 12 13  1  0  0  0  0
 13 24  1  0  0  0  0
 14 15  2  0  0  0  0
 14 13  1  0  0  0  0
 14 16  2  0  0  0  0
 17 14  1  0  0  0  0
 18 17  1  0  0  0  0
 19 18  2  0  0  0  0
 20 21  2  0  0  0  0
 20 19  1  0  0  0  0
 21 22  1  0  0  0  0
 22 23  1  0  0  0  0
 22 17  2  0  0  0  0
 23 12  1  0  0  0  0
 25 23  1  0  0  0  0
 26 27  1  0  0  0  0
 28 11  1  0  0  0  0
 29 30  1  0  0  0  0
 29 28  1  0  0  0  0
 31 30  1  0  0  0  0
 32 31  1  0  0  0  0
 32 30  1  0  0  0  0
M  END
>  <minimizedAffinity>
-6.48492956

$$$$

 OpenBabel09132200093D

 32 36  0  0  1  0  0  0  0  0999 V2000
    9.1980    0.7570    1.6550 O   0  0  0  0  0  0  0  0  0  0  0  0
    9.6100    0.5810    2.8070 C   0  0  0  0  0  0  0  0  0  0  0  0
   10.2510    1.7420    3.5000 C   0  0  0  0  0  0  0  0  0  0  0  0
   10.7320    1.5670    4.7430 C   0  0  0  0  0  0  0  0  0  0  0  0
   10.5810    0.2890    5.4640 C   0  0  0  0  0  0  0  0  0  0  0  0
   10.9620    0.1450    6.8130 C   0  0  0  0  0  3  0  0  0  0  0  0
   10.8500   -1.0810    7.4670 C   0  0  0  0  0  3  0  0  0  0  0  0
   10.3470   -2.1790    6.7870 C   0  0  0  0  0  3  0  0  0  0  0  0
    9.9270   -2.0450    5.4640 C   0  0  0  0  0  3  0  0  0  0  0  0
   10.0160   -0.8120    4.7930 C   0  0  0  0  0  0  0  0  0  0  0  0
    9.5250   -0.6370    3.4630 N   0  0  0  0  0  0  0  0  0  0  0  0
   10.3380    3.0440    2.7310 C   0  0  1  0  0  3  0  0  0  0  0  0
   10.2090    3.0540    1.4270 N   0  0  0  0  0  0  0  0  0  0  0  0
   10.2810    4.3370    0.4690 S   0  0  0  0  0  0  0  0  0  0  0  0
   11.4690    4.2480   -0.3570 O   0  0  0  0  0  0  0  0  0  0  0  0
    8.9880    4.5350   -0.1580 O   0  0  0  0  0  0  0  0  0  0  0  0
   10.5270    5.7390    1.5060 C   0  0  0  0  0  0  0  0  0  0  0  0
   10.6080    7.0130    0.9340 C   0  0  0  0  0  3  0  0  0  0  0  0
   10.8030    8.1160    1.7610 C   0  0  0  0  0  3  0  0  0  0  0  0
   10.9150    7.9350    3.1400 C   0  0  0  0  0  3  0  0  0  0  0  0
   10.8300    6.6530    3.6930 C   0  0  0  0  0  3  0  0  0  0  0  0
   10.6330    5.5370    2.8760 C   0  0  0  0  0  0  0  0  0  0  0  0
   10.5480    4.2610    3.4180 N   0  0  0  0  0  0  0  0  0  0  0  0
   10.0520    2.1650    0.9630 H   0  0  0  0  0  0  0  0  0  0  0  0
   10.6220    4.1650    4.4330 H   0  0  0  0  0  0  0  0  0  0  0  0
   11.4330    2.5840    5.3780 O   0  0  0  0  0  0  0  0  0  0  0  0
   12.1070    2.1780    5.9550 H   0  0  0  0  0  0  0  0  0  0  0  0
    8.9050   -1.7530    2.7360 C   0  0  0  0  0  2  0  0  0  0  0  0
    9.9250   -2.5260    1.8950 C   0  0  0  0  0  2  0  0  0  0  0  0
    9.6080   -2.6760    0.4330 C   0  0  0  0  0  3  0  0  0  0  0  0
   10.4880   -3.3910   -0.5620 C   0  0  0  0  0  2  0  0  0  0  0  0
    9.1810   -4.0050   -0.1370 C   0  0  0  0  0  2  0  0  0  0  0  0
  1  2  2  0  0  0  0
  2 11  1  0  0  0  0
  2  3  1  0  0  0  0
  3  4  2  0  0  0  0
  4 26  1  0  0  0  0
  4  5  1  0  0  0  0
  5  6  1  0  0  0  0
  6  7  2  0  0  0  0
  8  7  1  0  0  0  0
  9  8  2  0  0  0  0
 10  5  2  0  0  0  0
 10  9  1  0  0  0  0
 11 10  1  0  0  0  0
 12 23  1  0  0  0  0
 12  3  1  1  0  0  0
 13 12  1  0  0  0  0
 14 13  1  0  0  0  0
 14 17  1  0  0  0  0
 15 14  2  0  0  0  0
 16 14  2  0  0  0  0
 17 22  1  0  0  0  0
 18 17  2  0  0  0  0
 18 19  1  0  0  0  0
 19 20  2  0  0  0  0
 20 21  1  0  0  0  0
 22 23  1  0  0  0  0
 22 21  2  0  0  0  0
 23 25  1  0  0  0  0
 24 13  1  0  0  0  0
 26 27  1  0  0  0  0
 28 11  1  0  0  0  0
 29 28  1  0  0  0  0
 30 29  1  0  0  0  0
 31 32  1  0  0  0  0
 31 30  1  0  0  0  0
 32 30  1  0  0  0  0
M  END
>  <minimizedAffinity>
-6.43652678

$$$$
