
 OpenBabel09132204463D

 32 36  0  0  1  0  0  0  0  0999 V2000
    9.3090    1.5610    2.7350 O   0  0  0  0  0  0  0  0  0  0  0  0
    9.8520    1.4880    1.6270 C   0  0  0  0  0  0  0  0  0  0  0  0
   10.7160    2.6330    1.2030 C   0  0  0  0  0  0  0  0  0  0  0  0
   11.2950    2.5900   -0.0100 C   0  0  0  0  0  0  0  0  0  0  0  0
   11.1580    1.4190   -0.8970 C   0  0  0  0  0  0  0  0  0  0  0  0
   11.8720    1.3150   -2.1080 C   0  0  0  0  0  3  0  0  0  0  0  0
   11.7000    0.2210   -2.9550 C   0  0  0  0  0  3  0  0  0  0  0  0
   10.8200   -0.7900   -2.6000 C   0  0  0  0  0  3  0  0  0  0  0  0
   10.1360   -0.7230   -1.3870 C   0  0  0  0  0  3  0  0  0  0  0  0
   10.3090    0.3640   -0.5120 C   0  0  0  0  0  0  0  0  0  0  0  0
    9.6740    0.4170    0.7660 N   0  0  0  0  0  0  0  0  0  0  0  0
   10.8590    3.7880    2.1720 C   0  0  1  0  0  3  0  0  0  0  0  0
   10.8700    3.5720    3.4640 N   0  0  0  0  0  0  0  0  0  0  0  0
   11.0070    4.6770    4.6180 S   0  0  0  0  0  0  0  0  0  0  0  0
    9.7610    4.7530    5.3540 O   0  0  0  0  0  0  0  0  0  0  0  0
   12.2490    4.4630    5.3340 O   0  0  0  0  0  0  0  0  0  0  0  0
   11.1810    6.2350    3.8160 C   0  0  0  0  0  0  0  0  0  0  0  0
   11.3420    7.3920    4.5870 C   0  0  0  0  0  3  0  0  0  0  0  0
   11.4790    8.6200    3.9470 C   0  0  0  0  0  3  0  0  0  0  0  0
   11.4530    8.6790    2.5530 C   0  0  0  0  0  3  0  0  0  0  0  0
   11.2920    7.5120    1.8000 C   0  0  0  0  0  3  0  0  0  0  0  0
   11.1550    6.2720    2.4280 C   0  0  0  0  0  0  0  0  0  0  0  0
   10.9950    5.1090    1.6860 N   0  0  0  0  0  0  0  0  0  0  0  0
   10.7780    2.6120    3.7810 H   0  0  0  0  0  0  0  0  0  0  0  0
   10.9920    5.1860    0.6670 H   0  0  0  0  0  0  0  0  0  0  0  0
   12.0120    3.6790   -0.4880 O   0  0  0  0  0  0  0  0  0  0  0  0
   11.9060    3.7150   -1.4580 H   0  0  0  0  0  0  0  0  0  0  0  0
    8.8000   -0.6750    1.2180 C   0  0  0  0  0  2  0  0  0  0  0  0
    9.5960   -1.8180    1.8560 C   0  0  0  0  0  2  0  0  0  0  0  0
    9.1090   -2.3050    3.1920 C   0  0  0  0  0  3  0  0  0  0  0  0
    9.9960   -2.8920    4.2610 C   0  0  0  0  0  2  0  0  0  0  0  0
    9.3920   -1.5280    4.4530 C   0  0  0  0  0  2  0  0  0  0  0  0
  2  1  2  0  0  0  0
  3  2  1  0  0  0  0
  4  3  2  0  0  0  0
  5 10  1  0  0  0  0
  5  4  1  0  0  0  0
  6  5  2  0  0  0  0
  7  8  2  0  0  0  0
  7  6  1  0  0  0  0
  8  9  1  0  0  0  0
  9 10  2  0  0  0  0
 10 11  1  0  0  0  0
 11 28  1  0  0  0  0
 11  2  1  0  0  0  0
 12  3  1  6  0  0  0
 12 13  1  0  0  0  0
 13 24  1  0  0  0  0
 13 14  1  0  0  0  0
 14 16  2  0  0  0  0
 14 15  2  0  0  0  0
 17 18  1  0  0  0  0
 17 14  1  0  0  0  0
 19 18  2  0  0  0  0
 20 19  1  0  0  0  0
 21 22  1  0  0  0  0
 21 20  2  0  0  0  0
 22 17  2  0  0  0  0
 23 12  1  0  0  0  0
 23 22  1  0  0  0  0
 25 23  1  0  0  0  0
 26  4  1  0  0  0  0
 27 26  1  0  0  0  0
 28 29  1  0  0  0  0
 29 30  1  0  0  0  0
 30 31  1  0  0  0  0
 30 32  1  0  0  0  0
 31 32  1  0  0  0  0
M  END
>  <minimizedAffinity>
-6.80309057

$$$$
