
 OpenBabel09122222393D

 18 20  0  0  1  0  0  0  0  0999 V2000
   10.7280    3.2450    0.4750 C   0  0  2  0  0  0  0  0  0  0  0  0
    9.6160    4.2250   -0.0270 C   0  0  0  0  0  2  0  0  0  0  0  0
    9.9220    5.6820    0.3680 C   0  0  1  0  0  3  0  0  0  0  0  0
   10.0350    5.7810    1.8980 C   0  0  0  0  0  2  0  0  0  0  0  0
   11.1730    4.8790    2.4010 C   0  0  1  0  0  3  0  0  0  0  0  0
   10.8710    3.4200    2.0210 C   0  0  0  0  0  2  0  0  0  0  0  0
   12.4930    5.3150    1.7500 C   0  0  0  0  0  2  0  0  0  0  0  0
   12.3810    5.2130    0.2230 C   0  0  1  0  0  3  0  0  0  0  0  0
   12.0750    3.7560   -0.1650 C   0  0  0  0  0  2  0  0  0  0  0  0
   11.2460    6.1190   -0.2700 C   0  0  0  0  0  2  0  0  0  0  0  0
    9.8320    0.9970    1.1510 C   0  0  0  0  0  2  0  0  0  0  0  0
   10.3600    1.7430    0.1520 C   0  0  0  0  0  0  0  0  0  0  0  0
   10.6700    1.4120   -1.0220 O   0  0  0  0  0  0  0  0  0  0  0  0
    9.4380   -0.4440    1.2150 C   0  0  0  0  0  0  0  0  0  0  0  0
    9.6260   -1.1500    0.2110 O   0  0  0  0  0  0  0  0  0  0  0  0
    8.4610   -2.3640    2.2910 O   0  0  0  0  0  0  0  0  0  0  0  0
    8.9650   -1.1960    2.4650 C   0  0  0  0  0  0  0  0  0  0  0  0
    9.3060   -0.7000    3.5980 O   0  0  0  0  0  1  0  0  0  0  0  0
  1 12  1  6  0  0  0
  1  6  1  0  0  0  0
  2  1  1  0  0  0  0
  3  2  1  1  0  0  0
  3 10  1  0  0  0  0
  3  4  1  0  0  0  0
  5  4  1  6  0  0  0
  5  7  1  0  0  0  0
  6  5  1  0  0  0  0
  8 10  1  1  0  0  0
  8  7  1  0  0  0  0
  9  8  1  0  0  0  0
  9  1  1  0  0  0  0
 11 14  1  0  0  0  0
 12 11  1  0  0  0  0
 13 12  2  0  0  0  0
 14 17  1  0  0  0  0
 15 14  2  0  0  0  0
 16 17  2  0  0  0  0
 17 18  1  0  0  0  0
M  END
>  <minimizedAffinity>
-4.57438326

$$$$
