
 OpenBabel09122222393D

 18 20  0  0  1  0  0  0  0  0999 V2000
   10.7170    2.7530    0.4750 C   0  0  2  0  0  0  0  0  0  0  0  0
   10.8940    2.8760    2.0250 C   0  0  0  0  0  2  0  0  0  0  0  0
   11.3200    4.2980    2.4370 C   0  0  1  0  0  3  0  0  0  0  0  0
   12.6450    4.6520    1.7420 C   0  0  0  0  0  2  0  0  0  0  0  0
   12.4690    4.6070    0.2170 C   0  0  1  0  0  3  0  0  0  0  0  0
   12.0540    3.1870   -0.2050 C   0  0  0  0  0  2  0  0  0  0  0  0
   11.3790    5.6040   -0.1990 C   0  0  0  0  0  2  0  0  0  0  0  0
   10.0550    5.2490    0.4910 C   0  0  1  0  0  3  0  0  0  0  0  0
    9.6350    3.8280    0.0770 C   0  0  0  0  0  2  0  0  0  0  0  0
   10.2400    5.3000    2.0130 C   0  0  0  0  0  2  0  0  0  0  0  0
   10.8860    0.8160   -1.1170 C   0  0  0  0  0  2  0  0  0  0  0  0
   10.3750    1.2690    0.0510 C   0  0  0  0  0  0  0  0  0  0  0  0
    9.5970    0.7020    0.8630 O   0  0  0  0  0  0  0  0  0  0  0  0
   10.7160   -0.4820   -1.8410 C   0  0  0  0  0  0  0  0  0  0  0  0
   10.2760   -0.4540   -3.0010 O   0  0  0  0  0  0  0  0  0  0  0  0
   10.2920   -2.7710   -1.2280 O   0  0  0  0  0  1  0  0  0  0  0  0
   11.1850   -1.8580   -1.3510 C   0  0  0  0  0  0  0  0  0  0  0  0
   12.4530   -2.0520   -1.3130 O   0  0  0  0  0  0  0  0  0  0  0  0
  1 12  1  6  0  0  0
  1  2  1  0  0  0  0
  3  2  1  6  0  0  0
  3  4  1  0  0  0  0
  5  6  1  1  0  0  0
  5  4  1  0  0  0  0
  6  1  1  0  0  0  0
  7  5  1  0  0  0  0
  8  7  1  6  0  0  0
  8 10  1  0  0  0  0
  9  1  1  0  0  0  0
  9  8  1  0  0  0  0
 10  3  1  0  0  0  0
 11 12  1  0  0  0  0
 12 13  2  0  0  0  0
 14 17  1  0  0  0  0
 14 11  1  0  0  0  0
 15 14  2  0  0  0  0
 17 18  2  0  0  0  0
 17 16  1  0  0  0  0
M  END
>  <minimizedAffinity>
-5.26068878

$$$$
