
 OpenBabel09122222393D

 18 20  0  0  1  0  0  0  0  0999 V2000
   11.9320    3.6130    1.6900 C   0  0  2  0  0  0  0  0  0  0  0  0
   10.7610    2.8660    2.4130 C   0  0  0  0  0  2  0  0  0  0  0  0
   10.7320    3.1800    3.9200 C   0  0  1  0  0  3  0  0  0  0  0  0
   12.0700    2.7630    4.5520 C   0  0  0  0  0  2  0  0  0  0  0  0
   13.2240    3.5420    3.9040 C   0  0  1  0  0  3  0  0  0  0  0  0
   13.2680    3.2260    2.3990 C   0  0  0  0  0  2  0  0  0  0  0  0
   12.9980    5.0470    4.1040 C   0  0  0  0  0  2  0  0  0  0  0  0
   11.6640    5.4640    3.4700 C   0  0  1  0  0  3  0  0  0  0  0  0
   11.7000    5.1480    1.9650 C   0  0  0  0  0  2  0  0  0  0  0  0
   10.5180    4.6840    4.1260 C   0  0  0  0  0  2  0  0  0  0  0  0
   11.4810    2.0220   -0.2030 C   0  0  0  0  0  2  0  0  0  0  0  0
   12.0160    3.2110    0.1640 C   0  0  0  0  0  0  0  0  0  0  0  0
   12.6420    4.0590   -0.5250 O   0  0  0  0  0  0  0  0  0  0  0  0
   11.4440    1.3110   -1.5180 C   0  0  0  0  0  0  0  0  0  0  0  0
   10.3490    0.8990   -1.9320 O   0  0  0  0  0  0  0  0  0  0  0  0
   12.8260    2.1590   -3.2970 O   0  0  0  0  0  0  0  0  0  0  0  0
   12.6110    1.1740   -2.5040 C   0  0  0  0  0  0  0  0  0  0  0  0
   13.4110    0.1900   -2.3130 O   0  0  0  0  0  1  0  0  0  0  0  0
  1 12  1  6  0  0  0
  1  9  1  0  0  0  0
  1  6  1  0  0  0  0
  1  2  1  0  0  0  0
  3  2  1  6  0  0  0
  3 10  1  0  0  0  0
  3  4  1  0  0  0  0
  5  6  1  6  0  0  0
  5  7  1  0  0  0  0
  5  4  1  0  0  0  0
  8  9  1  6  0  0  0
  8  7  1  0  0  0  0
  8 10  1  0  0  0  0
 11 12  1  0  0  0  0
 13 12  2  0  0  0  0
 14 11  1  0  0  0  0
 15 14  2  0  0  0  0
 16 17  2  0  0  0  0
 17 18  1  0  0  0  0
 17 14  1  0  0  0  0
M  END
>  <minimizedAffinity>
-4.45250559

$$$$
