
 OpenBabel09122222393D

 18 20  0  0  1  0  0  0  0  0999 V2000
   10.7770    2.9560    0.4750 C   0  0  2  0  0  0  0  0  0  0  0  0
    9.6650    3.9750    0.0590 C   0  0  0  0  0  2  0  0  0  0  0  0
   10.0230    5.4120    0.4840 C   0  0  1  0  0  3  0  0  0  0  0  0
   10.2130    5.4580    2.0090 C   0  0  0  0  0  2  0  0  0  0  0  0
   11.3520    4.5160    2.4270 C   0  0  1  0  0  3  0  0  0  0  0  0
   10.9980    3.0770    2.0170 C   0  0  0  0  0  2  0  0  0  0  0  0
   12.6490    4.9440    1.7270 C   0  0  0  0  0  2  0  0  0  0  0  0
   12.4610    4.8940    0.2050 C   0  0  1  0  0  3  0  0  0  0  0  0
   12.1030    3.4570   -0.2140 C   0  0  0  0  0  2  0  0  0  0  0  0
   11.3250    5.8400   -0.2030 C   0  0  0  0  0  2  0  0  0  0  0  0
   10.8020    0.9560   -1.0460 C   0  0  0  0  0  2  0  0  0  0  0  0
   10.3590    1.4730    0.1240 C   0  0  0  0  0  0  0  0  0  0  0  0
    9.5940    0.9690    0.9880 O   0  0  0  0  0  0  0  0  0  0  0  0
   10.5500   -0.3590   -1.7120 C   0  0  0  0  0  0  0  0  0  0  0  0
   10.2640   -0.3610   -2.9200 O   0  0  0  0  0  0  0  0  0  0  0  0
   10.1160   -2.0090   -0.0130 O   0  0  0  0  0  1  0  0  0  0  0  0
   10.7650   -1.7440   -1.0880 C   0  0  0  0  0  0  0  0  0  0  0  0
   11.4010   -2.6020   -1.7990 O   0  0  0  0  0  0  0  0  0  0  0  0
  1 12  1  6  0  0  0
  1  6  1  0  0  0  0
  2  1  1  0  0  0  0
  3  2  1  6  0  0  0
  3 10  1  0  0  0  0
  3  4  1  0  0  0  0
  5  4  1  6  0  0  0
  5  7  1  0  0  0  0
  6  5  1  0  0  0  0
  8  9  1  1  0  0  0
  8  7  1  0  0  0  0
  9  1  1  0  0  0  0
 10  8  1  0  0  0  0
 11 12  1  0  0  0  0
 12 13  2  0  0  0  0
 14 17  1  0  0  0  0
 14 11  1  0  0  0  0
 15 14  2  0  0  0  0
 17 16  1  0  0  0  0
 18 17  2  0  0  0  0
M  END
>  <minimizedAffinity>
-5.14558458

$$$$
