REMARK  Name = 
REMARK  5 active torsions:
REMARK  status: ('A' for Active; 'I' for Inactive)
REMARK    1  A    between atoms: C_3  and  C_4
REMARK    2  A    between atoms: C_16  and  O_17
REMARK    3  A    between atoms: N_24  and  N_25
REMARK    4  A    between atoms: N_25  and  C_26
REMARK    5  A    between atoms: C_26  and  C_27
REMARK                            x       y       z     vdW  Elec       q    Type
REMARK                         _______ _______ _______ _____ _____    ______ ____
ROOT
ATOM      1  O   UNL     1       1.855   2.205   0.653  0.00  0.00    -0.265 OA
ATOM      2  C   UNL     1       3.006   1.786   0.479  0.00  0.00    +0.287 A 
ATOM      3  C   UNL     1       3.211   0.644  -0.465  0.00  0.00    +0.171 A 
ATOM      4  C   UNL     1       4.446   0.125  -0.598  0.00  0.00    +0.146 A 
ATOM      5  C   UNL     1       5.614   0.684   0.116  0.00  0.00    +0.043 A 
ATOM      6  C   UNL     1       6.923   0.204  -0.077  0.00  0.00    +0.013 A 
ATOM      7  C   UNL     1       7.998   0.730   0.643  0.00  0.00    +0.001 A 
ATOM      8  C   UNL     1       7.786   1.750   1.560  0.00  0.00    +0.002 A 
ATOM      9  C   UNL     1       6.503   2.265   1.735  0.00  0.00    +0.028 A 
ATOM     10  C   UNL     1       5.416   1.757   1.003  0.00  0.00    +0.075 A 
ATOM     11  N   UNL     1       4.116   2.319   1.124  0.00  0.00    -0.229 N 
ENDROOT
BRANCH   3  12
ATOM     12  C   UNL     1       1.990   0.137  -1.203  0.00  0.00    +0.308 C 
ATOM     13  N   UNL     1       0.816   0.679  -0.992  0.00  0.00    -0.131 N 
ATOM     14  S   UNL     1      -0.569   0.263  -1.687  0.00  0.00    +0.141 S 
ATOM     15  O   UNL     1      -1.445  -0.318  -0.689  0.00  0.00    -0.129 OA
ATOM     16  O   UNL     1      -1.040   1.368  -2.498  0.00  0.00    -0.129 OA
ATOM     17  C   UNL     1      -0.203  -1.038  -2.816  0.00  0.00    +0.175 A 
ATOM     18  C   UNL     1      -1.233  -1.589  -3.588  0.00  0.00    +0.035 A 
ATOM     19  C   UNL     1      -0.937  -2.616  -4.479  0.00  0.00    +0.002 A 
ATOM     20  C   UNL     1       0.374  -3.079  -4.589  0.00  0.00    +0.004 A 
ATOM     21  C   UNL     1       1.390  -2.516  -3.809  0.00  0.00    +0.051 A 
ATOM     22  C   UNL     1       1.109  -1.483  -2.911  0.00  0.00    +0.147 A 
ATOM     23  N   UNL     1       2.113  -0.917  -2.135  0.00  0.00    -0.200 N 
ATOM     24  H   UNL     1       0.756   1.434  -0.317  0.00  0.00    +0.339 HD
ATOM     25  H   UNL     1       3.063  -1.273  -2.250  0.00  0.00    +0.298 HD
ENDBRANCH   3  12
BRANCH   4  26
ATOM     26  O   UNL     1       4.655  -0.996  -1.389  0.00  0.00    -0.505 OA
ATOM     27  H   UNL     1       5.387  -1.516  -1.006  0.00  0.00    +0.292 HD
ENDBRANCH   4  26
BRANCH  11  28
ATOM     28  N   UNL     1       3.910   3.428   1.998  0.00  0.00    -0.281 N 
ATOM     29  H   UNL     1       2.936   3.396   2.314  0.00  0.00    +0.166 HD
BRANCH  28  30
ATOM     30  C   UNL     1       4.171   4.724   1.346  0.00  0.00    +0.124 C 
BRANCH  30  31
ATOM     31  C   UNL     1       3.076   5.230   0.384  0.00  0.00    +0.008 C 
ATOM     32  C   UNL     1       1.753   5.535   1.109  0.00  0.00    +0.005 C 
ATOM     33  C   UNL     1       0.699   6.090   0.152  0.00  0.00    +0.000 C 
ATOM     34  C   UNL     1       1.204   7.323  -0.589  0.00  0.00    +0.000 C 
ATOM     35  C   UNL     1       2.521   7.046  -1.304  0.00  0.00    +0.000 C 
ATOM     36  C   UNL     1       3.574   6.491  -0.348  0.00  0.00    +0.005 C 
ENDBRANCH  30  31
ENDBRANCH  28  30
ENDBRANCH  11  28
TORSDOF 5
