
 OpenBabel09132204463D

 36 40  0  0  1  0  0  0  0  0999 V2000
    9.0250    4.0270   -0.4580 O   0  0  0  0  0  0  0  0  0  0  0  0
    9.6980    4.3380    0.5330 C   0  0  0  0  0  0  0  0  0  0  0  0
   10.4060    3.2520    1.2790 C   0  0  0  0  0  0  0  0  0  0  0  0
   11.0710    3.5660    2.4060 C   0  0  0  0  0  0  0  0  0  0  0  0
   11.1700    4.9570    2.8990 C   0  0  0  0  0  0  0  0  0  0  0  0
   11.9300    5.3100    4.0300 C   0  0  0  0  0  3  0  0  0  0  0  0
   11.9700    6.6280    4.4890 C   0  0  0  0  0  3  0  0  0  0  0  0
   11.2600    7.6170    3.8230 C   0  0  0  0  0  3  0  0  0  0  0  0
   10.5340    7.2930    2.6780 C   0  0  0  0  0  3  0  0  0  0  0  0
   10.5010    5.9740    2.1940 C   0  0  0  0  0  0  0  0  0  0  0  0
    9.8200    5.6440    0.9910 N   0  0  0  0  0  0  0  0  0  0  0  0
   10.3090    1.8530    0.7090 C   0  0  1  0  0  3  0  0  0  0  0  0
   10.7540    1.5960   -0.4960 N   0  0  0  0  0  0  0  0  0  0  0  0
   10.7260    0.1770   -1.2440 S   0  0  0  0  0  0  0  0  0  0  0  0
    9.8090    0.2480   -2.3640 O   0  0  0  0  0  0  0  0  0  0  0  0
   12.0890   -0.2680   -1.4610 O   0  0  0  0  0  0  0  0  0  0  0  0
   10.0180   -0.9790   -0.1200 C   0  0  0  0  0  0  0  0  0  0  0  0
    9.8880   -2.3200   -0.5030 C   0  0  0  0  0  3  0  0  0  0  0  0
    9.3280   -3.2280    0.3900 C   0  0  0  0  0  3  0  0  0  0  0  0
    8.9070   -2.7920    1.6460 C   0  0  0  0  0  3  0  0  0  0  0  0
    9.0440   -1.4480    2.0110 C   0  0  0  0  0  3  0  0  0  0  0  0
    9.6060   -0.5240    1.1260 C   0  0  0  0  0  0  0  0  0  0  0  0
    9.7490    0.8110    1.4810 N   0  0  0  0  0  0  0  0  0  0  0  0
   11.1510    2.3620   -1.0290 H   0  0  0  0  0  0  0  0  0  0  0  0
    9.4400    1.0930    2.4130 H   0  0  0  0  0  0  0  0  0  0  0  0
   11.6570    2.5710    3.1760 O   0  0  0  0  0  0  0  0  0  0  0  0
   11.6280    2.8440    4.1130 H   0  0  0  0  0  0  0  0  0  0  0  0
    9.1640    6.6740    0.2520 N   0  0  0  0  0  0  0  0  0  0  0  0
    8.3080    6.2740   -0.1430 H   0  0  0  0  0  0  0  0  0  0  0  0
    9.9990    7.2150   -0.8360 C   0  0  0  0  0  2  0  0  0  0  0  0
   10.1740    8.7470   -0.8560 C   0  0  0  0  0  3  0  0  0  0  0  0
   10.1140    9.3260   -2.2810 C   0  0  0  0  0  2  0  0  0  0  0  0
   10.2300   10.8500   -2.2770 C   0  0  0  0  0  2  0  0  0  0  0  0
    9.1720   11.4940   -1.3880 C   0  0  0  0  0  2  0  0  0  0  0  0
    9.2070   10.9250    0.0250 C   0  0  0  0  0  2  0  0  0  0  0  0
    9.0910    9.4030    0.0220 C   0  0  0  0  0  2  0  0  0  0  0  0
  1  2  2  0  0  0  0
  2 11  1  0  0  0  0
  2  3  1  0  0  0  0
  3  4  2  0  0  0  0
  4  5  1  0  0  0  0
  4 26  1  0  0  0  0
  5  6  1  0  0  0  0
  6  7  2  0  0  0  0
  8  7  1  0  0  0  0
  9  8  2  0  0  0  0
 10  9  1  0  0  0  0
 10  5  2  0  0  0  0
 11 10  1  0  0  0  0
 12  3  1  1  0  0  0
 12 23  1  0  0  0  0
 13 12  1  0  0  0  0
 14 13  1  0  0  0  0
 14 17  1  0  0  0  0
 15 14  2  0  0  0  0
 16 14  2  0  0  0  0
 17 22  1  0  0  0  0
 18 17  2  0  0  0  0
 18 19  1  0  0  0  0
 19 20  2  0  0  0  0
 20 21  1  0  0  0  0
 22 23  1  0  0  0  0
 22 21  2  0  0  0  0
 23 25  1  0  0  0  0
 24 13  1  0  0  0  0
 26 27  1  0  0  0  0
 28 11  1  0  0  0  0
 29 28  1  0  0  0  0
 30 28  1  0  0  0  0
 31 30  1  0  0  0  0
 31 36  1  0  0  0  0
 32 33  1  0  0  0  0
 32 31  1  0  0  0  0
 33 34  1  0  0  0  0
 34 35  1  0  0  0  0
 36 35  1  0  0  0  0
M  END
>  <minimizedAffinity>
-7.55073738

$$$$
