
 OpenBabel09132200333D

 36 40  0  0  1  0  0  0  0  0999 V2000
    9.2260    1.7910    2.4540 O   0  0  0  0  0  0  0  0  0  0  0  0
    9.8440    1.6350    1.3940 C   0  0  0  0  0  0  0  0  0  0  0  0
   10.7290    2.7430    0.9180 C   0  0  0  0  0  0  0  0  0  0  0  0
   11.3400    2.6190   -0.2750 C   0  0  0  0  0  0  0  0  0  0  0  0
   11.2100    1.4000   -1.1020 C   0  0  0  0  0  0  0  0  0  0  0  0
   11.9080    1.2240   -2.3110 C   0  0  0  0  0  3  0  0  0  0  0  0
   11.7320    0.0760   -3.0860 C   0  0  0  0  0  3  0  0  0  0  0  0
   10.8620   -0.9200   -2.6620 C   0  0  0  0  0  3  0  0  0  0  0  0
   10.1930   -0.7810   -1.4480 C   0  0  0  0  0  3  0  0  0  0  0  0
   10.3760    0.3620   -0.6500 C   0  0  0  0  0  0  0  0  0  0  0  0
    9.7500    0.4840    0.6200 N   0  0  0  0  0  0  0  0  0  0  0  0
   10.8620    3.9510    1.8220 C   0  0  1  0  0  3  0  0  0  0  0  0
   10.5380    5.1430    1.3860 N   0  0  0  0  0  0  0  0  0  0  0  0
   10.6190    6.5180    2.2100 S   0  0  0  0  0  0  0  0  0  0  0  0
   11.6470    7.3590    1.6290 O   0  0  0  0  0  0  0  0  0  0  0  0
    9.2790    7.0410    2.3860 O   0  0  0  0  0  0  0  0  0  0  0  0
   11.1920    6.1120    3.8250 C   0  0  0  0  0  0  0  0  0  0  0  0
   11.3390    7.1270    4.7780 C   0  0  0  0  0  3  0  0  0  0  0  0
   11.7900    6.7990    6.0530 C   0  0  0  0  0  3  0  0  0  0  0  0
   12.0890    5.4720    6.3600 C   0  0  0  0  0  3  0  0  0  0  0  0
   11.9350    4.4710    5.3950 C   0  0  0  0  0  3  0  0  0  0  0  0
   11.4810    4.7840    4.1110 C   0  0  0  0  0  0  0  0  0  0  0  0
   11.3240    3.7950    3.1470 N   0  0  0  0  0  0  0  0  0  0  0  0
   10.2100    5.2260    0.4300 H   0  0  0  0  0  0  0  0  0  0  0  0
   11.5410    2.8330    3.4110 H   0  0  0  0  0  0  0  0  0  0  0  0
   12.0890    3.6670   -0.7920 O   0  0  0  0  0  0  0  0  0  0  0  0
   12.0220    3.6470   -1.7660 H   0  0  0  0  0  0  0  0  0  0  0  0
    8.9270   -0.5770    1.1020 N   0  0  0  0  0  0  0  0  0  0  0  0
    8.2060   -0.1630    1.7000 H   0  0  0  0  0  0  0  0  0  0  0  0
    9.6830   -1.5810    1.8720 C   0  0  0  0  0  2  0  0  0  0  0  0
    9.2930   -3.0540    1.6290 C   0  0  0  0  0  3  0  0  0  0  0  0
    7.8910   -3.3870    2.1700 C   0  0  0  0  0  2  0  0  0  0  0  0
    7.4980   -4.8330    1.8690 C   0  0  0  0  0  2  0  0  0  0  0  0
    7.5880   -5.1430    0.3800 C   0  0  0  0  0  2  0  0  0  0  0  0
    8.9660   -4.8090   -0.1800 C   0  0  0  0  0  2  0  0  0  0  0  0
    9.3590   -3.3640    0.1210 C   0  0  0  0  0  2  0  0  0  0  0  0
  2  1  2  0  0  0  0
  3  2  1  0  0  0  0
  4  3  2  0  0  0  0
  5 10  1  0  0  0  0
  5  4  1  0  0  0  0
  6  5  2  0  0  0  0
  7  8  2  0  0  0  0
  7  6  1  0  0  0  0
  8  9  1  0  0  0  0
  9 10  2  0  0  0  0
 10 11  1  0  0  0  0
 11 28  1  0  0  0  0
 11  2  1  0  0  0  0
 12  3  1  1  0  0  0
 12 23  1  0  0  0  0
 13 12  1  0  0  0  0
 13 14  1  0  0  0  0
 14 16  2  0  0  0  0
 14 17  1  0  0  0  0
 15 14  2  0  0  0  0
 17 22  2  0  0  0  0
 17 18  1  0  0  0  0
 18 19  2  0  0  0  0
 19 20  1  0  0  0  0
 21 20  2  0  0  0  0
 22 21  1  0  0  0  0
 23 25  1  0  0  0  0
 23 22  1  0  0  0  0
 24 13  1  0  0  0  0
 26  4  1  0  0  0  0
 27 26  1  0  0  0  0
 28 29  1  0  0  0  0
 28 30  1  0  0  0  0
 31 30  1  0  0  0  0
 31 32  1  0  0  0  0
 33 32  1  0  0  0  0
 34 33  1  0  0  0  0
 35 36  1  0  0  0  0
 35 34  1  0  0  0  0
 36 31  1  0  0  0  0
M  END
>  <minimizedAffinity>
-8.13158417

$$$$

 OpenBabel09132200333D

 36 40  0  0  1  0  0  0  0  0999 V2000
    8.8610    0.7250    2.2630 O   0  0  0  0  0  0  0  0  0  0  0  0
    9.4050   -0.0140    1.4350 C   0  0  0  0  0  0  0  0  0  0  0  0
    9.4750   -1.4790    1.7280 C   0  0  0  0  0  0  0  0  0  0  0  0
   10.1390   -2.2820    0.8750 C   0  0  0  0  0  0  0  0  0  0  0  0
   10.7520   -1.7700   -0.3690 C   0  0  0  0  0  0  0  0  0  0  0  0
   11.3770   -2.6100   -1.3090 C   0  0  0  0  0  3  0  0  0  0  0  0
   11.9800   -2.0880   -2.4560 C   0  0  0  0  0  3  0  0  0  0  0  0
   11.9600   -0.7190   -2.6880 C   0  0  0  0  0  3  0  0  0  0  0  0
   11.3110    0.1240   -1.7880 C   0  0  0  0  0  3  0  0  0  0  0  0
   10.6850   -0.3920   -0.6400 C   0  0  0  0  0  0  0  0  0  0  0  0
    9.9630    0.4500    0.2490 N   0  0  0  0  0  0  0  0  0  0  0  0
    8.7950   -1.9580    2.9940 C   0  0  1  0  0  3  0  0  0  0  0  0
    9.2710   -1.6260    4.1680 N   0  0  0  0  0  0  0  0  0  0  0  0
    8.6740   -2.0470    5.5970 S   0  0  0  0  0  0  0  0  0  0  0  0
    9.6070   -2.9380    6.2570 O   0  0  0  0  0  0  0  0  0  0  0  0
    8.2110   -0.8570    6.2830 O   0  0  0  0  0  0  0  0  0  0  0  0
    7.2330   -3.0100    5.2840 C   0  0  0  0  0  0  0  0  0  0  0  0
    6.4860   -3.5000    6.3620 C   0  0  0  0  0  3  0  0  0  0  0  0
    5.3490   -4.2600    6.1090 C   0  0  0  0  0  3  0  0  0  0  0  0
    4.9720   -4.5210    4.7910 C   0  0  0  0  0  3  0  0  0  0  0  0
    5.7310   -4.0230    3.7270 C   0  0  0  0  0  3  0  0  0  0  0  0
    6.8750   -3.2570    3.9650 C   0  0  0  0  0  0  0  0  0  0  0  0
    7.6330   -2.7570    2.9140 N   0  0  0  0  0  0  0  0  0  0  0  0
   10.1070   -1.0530    4.1960 H   0  0  0  0  0  0  0  0  0  0  0  0
    7.3200   -2.9580    1.9630 H   0  0  0  0  0  0  0  0  0  0  0  0
   10.3080   -3.6280    1.1660 O   0  0  0  0  0  0  0  0  0  0  0  0
   11.1590   -3.9240    0.7900 H   0  0  0  0  0  0  0  0  0  0  0  0
    9.8620    1.8450   -0.0330 N   0  0  0  0  0  0  0  0  0  0  0  0
    9.8530    1.9550   -1.0510 H   0  0  0  0  0  0  0  0  0  0  0  0
   10.9770    2.6240    0.5350 C   0  0  0  0  0  2  0  0  0  0  0  0
   10.8800    4.1560    0.3820 C   0  0  0  0  0  3  0  0  0  0  0  0
    9.4700    4.6160   -0.0300 C   0  0  0  0  0  2  0  0  0  0  0  0
    9.3760    6.1390   -0.1200 C   0  0  0  0  0  2  0  0  0  0  0  0
    9.8030    6.8080    1.1820 C   0  0  0  0  0  2  0  0  0  0  0  0
   11.1920    6.3560    1.6140 C   0  0  0  0  0  2  0  0  0  0  0  0
   11.2860    4.8350    1.7040 C   0  0  0  0  0  2  0  0  0  0  0  0
  2  3  1  0  0  0  0
  2  1  2  0  0  0  0
  4 26  1  0  0  0  0
  4  3  2  0  0  0  0
  5  4  1  0  0  0  0
  6  5  2  0  0  0  0
  7  6  1  0  0  0  0
  8  7  2  0  0  0  0
  8  9  1  0  0  0  0
  9 10  2  0  0  0  0
 10  5  1  0  0  0  0
 10 11  1  0  0  0  0
 11  2  1  0  0  0  0
 12  3  1  6  0  0  0
 12 13  1  0  0  0  0
 13 24  1  0  0  0  0
 13 14  1  0  0  0  0
 14 15  2  0  0  0  0
 14 16  2  0  0  0  0
 17 14  1  0  0  0  0
 17 18  1  0  0  0  0
 19 18  2  0  0  0  0
 20 19  1  0  0  0  0
 21 22  1  0  0  0  0
 21 20  2  0  0  0  0
 22 17  2  0  0  0  0
 23 12  1  0  0  0  0
 23 22  1  0  0  0  0
 25 23  1  0  0  0  0
 27 26  1  0  0  0  0
 28 11  1  0  0  0  0
 28 30  1  0  0  0  0
 29 28  1  0  0  0  0
 31 30  1  0  0  0  0
 31 36  1  0  0  0  0
 32 31  1  0  0  0  0
 33 32  1  0  0  0  0
 33 34  1  0  0  0  0
 34 35  1  0  0  0  0
 35 36  1  0  0  0  0
M  END
>  <minimizedAffinity>
-8.13133335

$$$$

 OpenBabel09132200333D

 36 40  0  0  1  0  0  0  0  0999 V2000
    9.2470    1.4600    2.6630 O   0  0  0  0  0  0  0  0  0  0  0  0
    9.8380    1.4230    1.5760 C   0  0  0  0  0  0  0  0  0  0  0  0
   10.6980    2.5850    1.1960 C   0  0  0  0  0  0  0  0  0  0  0  0
   11.2790    2.5940   -0.0190 C   0  0  0  0  0  0  0  0  0  0  0  0
   11.1370    1.4660   -0.9650 C   0  0  0  0  0  0  0  0  0  0  0  0
   11.8050    1.4250   -2.2030 C   0  0  0  0  0  3  0  0  0  0  0  0
   11.6180    0.3610   -3.0890 C   0  0  0  0  0  3  0  0  0  0  0  0
   10.7710   -0.6840   -2.7490 C   0  0  0  0  0  3  0  0  0  0  0  0
   10.1330   -0.6800   -1.5100 C   0  0  0  0  0  3  0  0  0  0  0  0
   10.3270    0.3750   -0.6020 C   0  0  0  0  0  0  0  0  0  0  0  0
    9.7340    0.3570    0.6900 N   0  0  0  0  0  0  0  0  0  0  0  0
   10.8440    3.6940    2.2170 C   0  0  1  0  0  3  0  0  0  0  0  0
   10.7550    3.4310    3.4970 N   0  0  0  0  0  0  0  0  0  0  0  0
   10.8850    4.4830    4.7010 S   0  0  0  0  0  0  0  0  0  0  0  0
    9.6000    4.6110    5.3600 O   0  0  0  0  0  0  0  0  0  0  0  0
   12.0620    4.1620    5.4830 O   0  0  0  0  0  0  0  0  0  0  0  0
   11.2070    6.0540    3.9740 C   0  0  0  0  0  0  0  0  0  0  0  0
   11.3900    7.1700    4.8000 C   0  0  0  0  0  3  0  0  0  0  0  0
   11.6450    8.4090    4.2190 C   0  0  0  0  0  3  0  0  0  0  0  0
   11.7140    8.5200    2.8300 C   0  0  0  0  0  3  0  0  0  0  0  0
   11.5280    7.3930    2.0210 C   0  0  0  0  0  3  0  0  0  0  0  0
   11.2730    6.1420    2.5900 C   0  0  0  0  0  0  0  0  0  0  0  0
   11.0900    5.0190    1.7930 N   0  0  0  0  0  0  0  0  0  0  0  0
   10.5770    2.4710    3.7740 H   0  0  0  0  0  0  0  0  0  0  0  0
   11.1590    5.1350    0.7810 H   0  0  0  0  0  0  0  0  0  0  0  0
   12.0030    3.6990   -0.4440 O   0  0  0  0  0  0  0  0  0  0  0  0
   11.9090    3.7800   -1.4120 H   0  0  0  0  0  0  0  0  0  0  0  0
    8.9350   -0.7590    1.0790 N   0  0  0  0  0  0  0  0  0  0  0  0
    8.2020   -0.4110    1.7050 H   0  0  0  0  0  0  0  0  0  0  0  0
    9.7120   -1.8040    1.7690 C   0  0  0  0  0  2  0  0  0  0  0  0
    9.2320   -3.2550    1.5560 C   0  0  0  0  0  3  0  0  0  0  0  0
    7.8480   -3.5120    2.1790 C   0  0  0  0  0  2  0  0  0  0  0  0
    7.3630   -4.9350    1.9090 C   0  0  0  0  0  2  0  0  0  0  0  0
    7.3500   -5.2540    0.4180 C   0  0  0  0  0  2  0  0  0  0  0  0
    8.7090   -4.9930   -0.2210 C   0  0  0  0  0  2  0  0  0  0  0  0
    9.1950   -3.5710    0.0490 C   0  0  0  0  0  2  0  0  0  0  0  0
  2  1  2  0  0  0  0
  3  2  1  0  0  0  0
  4  3  2  0  0  0  0
  5 10  1  0  0  0  0
  5  4  1  0  0  0  0
  6  5  2  0  0  0  0
  7  8  2  0  0  0  0
  7  6  1  0  0  0  0
  8  9  1  0  0  0  0
  9 10  2  0  0  0  0
 10 11  1  0  0  0  0
 11 28  1  0  0  0  0
 11  2  1  0  0  0  0
 12  3  1  1  0  0  0
 12 13  1  0  0  0  0
 13 24  1  0  0  0  0
 13 14  1  0  0  0  0
 14 15  2  0  0  0  0
 14 16  2  0  0  0  0
 17 14  1  0  0  0  0
 17 18  1  0  0  0  0
 19 18  2  0  0  0  0
 20 19  1  0  0  0  0
 21 22  1  0  0  0  0
 21 20  2  0  0  0  0
 22 17  2  0  0  0  0
 23 12  1  0  0  0  0
 23 22  1  0  0  0  0
 25 23  1  0  0  0  0
 26  4  1  0  0  0  0
 27 26  1  0  0  0  0
 28 29  1  0  0  0  0
 28 30  1  0  0  0  0
 31 30  1  0  0  0  0
 31 32  1  0  0  0  0
 33 32  1  0  0  0  0
 34 33  1  0  0  0  0
 35 36  1  0  0  0  0
 35 34  1  0  0  0  0
 36 31  1  0  0  0  0
M  END
>  <minimizedAffinity>
-7.85509348

$$$$

 OpenBabel09132200333D

 36 40  0  0  1  0  0  0  0  0999 V2000
    9.6560    5.1770   -0.4450 O   0  0  0  0  0  0  0  0  0  0  0  0
    9.9260    5.0570    0.7560 C   0  0  0  0  0  0  0  0  0  0  0  0
   10.1170    6.2980    1.5690 C   0  0  0  0  0  0  0  0  0  0  0  0
   10.4930    6.1800    2.8560 C   0  0  0  0  0  0  0  0  0  0  0  0
   10.6680    4.8630    3.5050 C   0  0  0  0  0  0  0  0  0  0  0  0
   10.9810    4.7250    4.8710 C   0  0  0  0  0  3  0  0  0  0  0  0
   11.1770    3.4660    5.4430 C   0  0  0  0  0  3  0  0  0  0  0  0
   11.0550    2.3240    4.6640 C   0  0  0  0  0  3  0  0  0  0  0  0
   10.7070    2.4390    3.3200 C   0  0  0  0  0  3  0  0  0  0  0  0
   10.4880    3.6990    2.7370 C   0  0  0  0  0  0  0  0  0  0  0  0
   10.0680    3.8250    1.3850 N   0  0  0  0  0  0  0  0  0  0  0  0
    9.8840    7.6190    0.8670 C   0  0  1  0  0  3  0  0  0  0  0  0
    9.0980    8.5220    1.4000 N   0  0  0  0  0  0  0  0  0  0  0  0
    8.7470    9.9650    0.7910 S   0  0  0  0  0  0  0  0  0  0  0  0
    7.3480    9.9930    0.4150 O   0  0  0  0  0  0  0  0  0  0  0  0
    9.2730   10.9890    1.6710 O   0  0  0  0  0  0  0  0  0  0  0  0
    9.6490   10.1160   -0.7140 C   0  0  0  0  0  0  0  0  0  0  0  0
    9.5500   11.2980   -1.4590 C   0  0  0  0  0  3  0  0  0  0  0  0
   10.2660   11.4120   -2.6470 C   0  0  0  0  0  3  0  0  0  0  0  0
   11.0670   10.3530   -3.0750 C   0  0  0  0  0  3  0  0  0  0  0  0
   11.1530    9.1800   -2.3170 C   0  0  0  0  0  3  0  0  0  0  0  0
   10.4410    9.0510   -1.1220 C   0  0  0  0  0  0  0  0  0  0  0  0
   10.5240    7.8910   -0.3620 N   0  0  0  0  0  0  0  0  0  0  0  0
    8.6510    8.3010    2.2830 H   0  0  0  0  0  0  0  0  0  0  0  0
   11.1280    7.1410   -0.7000 H   0  0  0  0  0  0  0  0  0  0  0  0
   10.7750    7.3090    3.6110 O   0  0  0  0  0  0  0  0  0  0  0  0
   11.4690    7.0850    4.2600 H   0  0  0  0  0  0  0  0  0  0  0  0
    9.8520    2.6500    0.6050 N   0  0  0  0  0  0  0  0  0  0  0  0
    9.8030    1.8550    1.2500 H   0  0  0  0  0  0  0  0  0  0  0  0
   10.9230    2.4150   -0.3810 C   0  0  0  0  0  2  0  0  0  0  0  0
   10.7880    1.1370   -1.2340 C   0  0  0  0  0  3  0  0  0  0  0  0
   12.0880    0.7920   -1.9830 C   0  0  0  0  0  2  0  0  0  0  0  0
   11.9550   -0.5070   -2.7760 C   0  0  0  0  0  2  0  0  0  0  0  0
   11.5210   -1.6680   -1.8880 C   0  0  0  0  0  2  0  0  0  0  0  0
   10.2420   -1.3420   -1.1270 C   0  0  0  0  0  2  0  0  0  0  0  0
   10.3740   -0.0430   -0.3350 C   0  0  0  0  0  2  0  0  0  0  0  0
  1  2  2  0  0  0  0
  2 11  1  0  0  0  0
  2  3  1  0  0  0  0
  3  4  2  0  0  0  0
  4  5  1  0  0  0  0
  4 26  1  0  0  0  0
  5  6  1  0  0  0  0
  6  7  2  0  0  0  0
  8  7  1  0  0  0  0
  9  8  2  0  0  0  0
 10  9  1  0  0  0  0
 10  5  2  0  0  0  0
 11 10  1  0  0  0  0
 12 13  1  0  0  0  0
 12  3  1  1  0  0  0
 13 24  1  0  0  0  0
 14 13  1  0  0  0  0
 14 16  2  0  0  0  0
 15 14  2  0  0  0  0
 17 14  1  0  0  0  0
 18 17  2  0  0  0  0
 19 18  1  0  0  0  0
 20 19  2  0  0  0  0
 20 21  1  0  0  0  0
 21 22  2  0  0  0  0
 22 17  1  0  0  0  0
 22 23  1  0  0  0  0
 23 12  1  0  0  0  0
 25 23  1  0  0  0  0
 26 27  1  0  0  0  0
 28 29  1  0  0  0  0
 28 11  1  0  0  0  0
 30 28  1  0  0  0  0
 31 30  1  0  0  0  0
 31 36  1  0  0  0  0
 32 31  1  0  0  0  0
 33 32  1  0  0  0  0
 33 34  1  0  0  0  0
 34 35  1  0  0  0  0
 35 36  1  0  0  0  0
M  END
>  <minimizedAffinity>
-7.76065397

$$$$

 OpenBabel09132200333D

 36 40  0  0  1  0  0  0  0  0999 V2000
   10.2090    4.4800    0.1840 O   0  0  0  0  0  0  0  0  0  0  0  0
   10.3520    4.5190    1.4120 C   0  0  0  0  0  0  0  0  0  0  0  0
   10.3800    5.8570    2.0820 C   0  0  0  0  0  0  0  0  0  0  0  0
   10.6200    5.9150    3.4050 C   0  0  0  0  0  0  0  0  0  0  0  0
   10.7990    4.6980    4.2260 C   0  0  0  0  0  0  0  0  0  0  0  0
   10.9670    4.7420    5.6220 C   0  0  0  0  0  3  0  0  0  0  0  0
   11.1720    3.5750    6.3620 C   0  0  0  0  0  3  0  0  0  0  0  0
   11.2030    2.3450    5.7210 C   0  0  0  0  0  3  0  0  0  0  0  0
   10.9980    2.2780    4.3440 C   0  0  0  0  0  3  0  0  0  0  0  0
   10.7720    3.4440    3.5920 C   0  0  0  0  0  0  0  0  0  0  0  0
   10.4960    3.3820    2.1990 N   0  0  0  0  0  0  0  0  0  0  0  0
   10.1490    7.0680    1.2030 C   0  0  1  0  0  3  0  0  0  0  0  0
    9.3250    8.0130    1.5820 N   0  0  0  0  0  0  0  0  0  0  0  0
    8.9690    9.3530    0.7750 S   0  0  0  0  0  0  0  0  0  0  0  0
    7.5860    9.2960    0.3450 O   0  0  0  0  0  0  0  0  0  0  0  0
    9.4380   10.4970    1.5310 O   0  0  0  0  0  0  0  0  0  0  0  0
    9.9280    9.3290   -0.7020 C   0  0  0  0  0  0  0  0  0  0  0  0
    9.8360   10.4000   -1.6000 C   0  0  0  0  0  3  0  0  0  0  0  0
   10.5970   10.3750   -2.7640 C   0  0  0  0  0  3  0  0  0  0  0  0
   11.4360    9.2900   -3.0190 C   0  0  0  0  0  3  0  0  0  0  0  0
   11.5150    8.2300   -2.1100 C   0  0  0  0  0  3  0  0  0  0  0  0
   10.7580    8.2400   -0.9350 C   0  0  0  0  0  0  0  0  0  0  0  0
   10.8330    7.1920   -0.0260 N   0  0  0  0  0  0  0  0  0  0  0  0
    8.8460    7.8980    2.4690 H   0  0  0  0  0  0  0  0  0  0  0  0
   11.4660    6.4200   -0.2390 H   0  0  0  0  0  0  0  0  0  0  0  0
   10.7510    7.1420    4.0410 O   0  0  0  0  0  0  0  0  0  0  0  0
   11.3810    7.0450    4.7800 H   0  0  0  0  0  0  0  0  0  0  0  0
   10.4360    2.1120    1.5510 N   0  0  0  0  0  0  0  0  0  0  0  0
   10.7550    2.2420    0.5860 H   0  0  0  0  0  0  0  0  0  0  0  0
    9.0780    1.5390    1.5450 C   0  0  0  0  0  2  0  0  0  0  0  0
    8.9940   -0.0020    1.5210 C   0  0  0  0  0  3  0  0  0  0  0  0
    9.8220   -0.6170    0.3790 C   0  0  0  0  0  2  0  0  0  0  0  0
    9.7750   -2.1440    0.4060 C   0  0  0  0  0  2  0  0  0  0  0  0
   10.2220   -2.6980    1.7550 C   0  0  0  0  0  2  0  0  0  0  0  0
    9.4220   -2.0910    2.9010 C   0  0  0  0  0  2  0  0  0  0  0  0
    9.4680   -0.5660    2.8740 C   0  0  0  0  0  2  0  0  0  0  0  0
  1  2  2  0  0  0  0
  2  3  1  0  0  0  0
  2 11  1  0  0  0  0
  3  4  2  0  0  0  0
  4 26  1  0  0  0  0
  4  5  1  0  0  0  0
  5  6  1  0  0  0  0
  6  7  2  0  0  0  0
  8  7  1  0  0  0  0
  9  8  2  0  0  0  0
 10  5  2  0  0  0  0
 10  9  1  0  0  0  0
 11 10  1  0  0  0  0
 12 13  1  0  0  0  0
 12  3  1  1  0  0  0
 13 24  1  0  0  0  0
 14 16  2  0  0  0  0
 14 13  1  0  0  0  0
 15 14  2  0  0  0  0
 17 14  1  0  0  0  0
 18 17  2  0  0  0  0
 19 18  1  0  0  0  0
 20 19  2  0  0  0  0
 20 21  1  0  0  0  0
 21 22  2  0  0  0  0
 22 17  1  0  0  0  0
 22 23  1  0  0  0  0
 23 12  1  0  0  0  0
 25 23  1  0  0  0  0
 26 27  1  0  0  0  0
 28 11  1  0  0  0  0
 29 28  1  0  0  0  0
 30 28  1  0  0  0  0
 31 30  1  0  0  0  0
 31 36  1  0  0  0  0
 32 33  1  0  0  0  0
 32 31  1  0  0  0  0
 33 34  1  0  0  0  0
 34 35  1  0  0  0  0
 36 35  1  0  0  0  0
M  END
>  <minimizedAffinity>
-7.56024504

$$$$

 OpenBabel09132200333D

 36 40  0  0  1  0  0  0  0  0999 V2000
    9.0250    4.0270   -0.4580 O   0  0  0  0  0  0  0  0  0  0  0  0
    9.6980    4.3380    0.5330 C   0  0  0  0  0  0  0  0  0  0  0  0
   10.4060    3.2520    1.2790 C   0  0  0  0  0  0  0  0  0  0  0  0
   11.0710    3.5660    2.4060 C   0  0  0  0  0  0  0  0  0  0  0  0
   11.1700    4.9570    2.8990 C   0  0  0  0  0  0  0  0  0  0  0  0
   11.9300    5.3100    4.0300 C   0  0  0  0  0  3  0  0  0  0  0  0
   11.9700    6.6280    4.4890 C   0  0  0  0  0  3  0  0  0  0  0  0
   11.2600    7.6170    3.8230 C   0  0  0  0  0  3  0  0  0  0  0  0
   10.5340    7.2930    2.6780 C   0  0  0  0  0  3  0  0  0  0  0  0
   10.5010    5.9740    2.1940 C   0  0  0  0  0  0  0  0  0  0  0  0
    9.8200    5.6440    0.9910 N   0  0  0  0  0  0  0  0  0  0  0  0
   10.3090    1.8530    0.7090 C   0  0  1  0  0  3  0  0  0  0  0  0
   10.7540    1.5960   -0.4960 N   0  0  0  0  0  0  0  0  0  0  0  0
   10.7260    0.1770   -1.2440 S   0  0  0  0  0  0  0  0  0  0  0  0
    9.8090    0.2480   -2.3640 O   0  0  0  0  0  0  0  0  0  0  0  0
   12.0890   -0.2680   -1.4610 O   0  0  0  0  0  0  0  0  0  0  0  0
   10.0180   -0.9790   -0.1200 C   0  0  0  0  0  0  0  0  0  0  0  0
    9.8880   -2.3200   -0.5030 C   0  0  0  0  0  3  0  0  0  0  0  0
    9.3280   -3.2280    0.3900 C   0  0  0  0  0  3  0  0  0  0  0  0
    8.9070   -2.7920    1.6460 C   0  0  0  0  0  3  0  0  0  0  0  0
    9.0440   -1.4480    2.0110 C   0  0  0  0  0  3  0  0  0  0  0  0
    9.6060   -0.5240    1.1260 C   0  0  0  0  0  0  0  0  0  0  0  0
    9.7490    0.8110    1.4810 N   0  0  0  0  0  0  0  0  0  0  0  0
   11.1510    2.3620   -1.0290 H   0  0  0  0  0  0  0  0  0  0  0  0
    9.4400    1.0930    2.4130 H   0  0  0  0  0  0  0  0  0  0  0  0
   11.6570    2.5710    3.1760 O   0  0  0  0  0  0  0  0  0  0  0  0
   11.6280    2.8440    4.1130 H   0  0  0  0  0  0  0  0  0  0  0  0
    9.1640    6.6740    0.2520 N   0  0  0  0  0  0  0  0  0  0  0  0
    8.3080    6.2740   -0.1430 H   0  0  0  0  0  0  0  0  0  0  0  0
    9.9990    7.2150   -0.8360 C   0  0  0  0  0  2  0  0  0  0  0  0
   10.1740    8.7470   -0.8560 C   0  0  0  0  0  3  0  0  0  0  0  0
   10.1140    9.3260   -2.2810 C   0  0  0  0  0  2  0  0  0  0  0  0
   10.2300   10.8500   -2.2770 C   0  0  0  0  0  2  0  0  0  0  0  0
    9.1720   11.4940   -1.3880 C   0  0  0  0  0  2  0  0  0  0  0  0
    9.2070   10.9250    0.0250 C   0  0  0  0  0  2  0  0  0  0  0  0
    9.0910    9.4030    0.0220 C   0  0  0  0  0  2  0  0  0  0  0  0
  1  2  2  0  0  0  0
  2 11  1  0  0  0  0
  2  3  1  0  0  0  0
  3  4  2  0  0  0  0
  4  5  1  0  0  0  0
  4 26  1  0  0  0  0
  5  6  1  0  0  0  0
  6  7  2  0  0  0  0
  8  7  1  0  0  0  0
  9  8  2  0  0  0  0
 10  9  1  0  0  0  0
 10  5  2  0  0  0  0
 11 10  1  0  0  0  0
 12  3  1  1  0  0  0
 12 23  1  0  0  0  0
 13 12  1  0  0  0  0
 14 13  1  0  0  0  0
 14 17  1  0  0  0  0
 15 14  2  0  0  0  0
 16 14  2  0  0  0  0
 17 22  1  0  0  0  0
 18 17  2  0  0  0  0
 18 19  1  0  0  0  0
 19 20  2  0  0  0  0
 20 21  1  0  0  0  0
 22 23  1  0  0  0  0
 22 21  2  0  0  0  0
 23 25  1  0  0  0  0
 24 13  1  0  0  0  0
 26 27  1  0  0  0  0
 28 11  1  0  0  0  0
 29 28  1  0  0  0  0
 30 28  1  0  0  0  0
 31 30  1  0  0  0  0
 31 36  1  0  0  0  0
 32 33  1  0  0  0  0
 32 31  1  0  0  0  0
 33 34  1  0  0  0  0
 34 35  1  0  0  0  0
 36 35  1  0  0  0  0
M  END
>  <minimizedAffinity>
-7.55073738

$$$$

 OpenBabel09132200333D

 36 40  0  0  1  0  0  0  0  0999 V2000
    9.1190    4.0060   -0.0460 O   0  0  0  0  0  0  0  0  0  0  0  0
    9.5900    3.9460    1.0960 C   0  0  0  0  0  0  0  0  0  0  0  0
   10.1800    5.1870    1.6870 C   0  0  0  0  0  0  0  0  0  0  0  0
   10.7700    5.1140    2.8950 C   0  0  0  0  0  0  0  0  0  0  0  0
   10.8050    3.8610    3.6780 C   0  0  0  0  0  0  0  0  0  0  0  0
   11.3460    3.7900    4.9760 C   0  0  0  0  0  3  0  0  0  0  0  0
   11.3970    2.5810    5.6720 C   0  0  0  0  0  3  0  0  0  0  0  0
   10.9000    1.4230    5.0890 C   0  0  0  0  0  3  0  0  0  0  0  0
   10.3240    1.4820    3.8210 C   0  0  0  0  0  3  0  0  0  0  0  0
   10.2500    2.6960    3.1180 C   0  0  0  0  0  0  0  0  0  0  0  0
    9.6060    2.7800    1.8530 N   0  0  0  0  0  0  0  0  0  0  0  0
   10.0800    6.4530    0.8630 C   0  0  1  0  0  3  0  0  0  0  0  0
   10.1090    6.3960   -0.4460 N   0  0  0  0  0  0  0  0  0  0  0  0
   10.0160    7.6350   -1.4610 S   0  0  0  0  0  0  0  0  0  0  0  0
   11.2850    7.7850   -2.1450 O   0  0  0  0  0  0  0  0  0  0  0  0
    8.7940    7.5210   -2.2320 O   0  0  0  0  0  0  0  0  0  0  0  0
    9.8290    9.0850   -0.4790 C   0  0  0  0  0  0  0  0  0  0  0  0
    9.6990   10.3290   -1.1090 C   0  0  0  0  0  3  0  0  0  0  0  0
    9.5500   11.4710   -0.3280 C   0  0  0  0  0  3  0  0  0  0  0  0
    9.5340   11.3610    1.0630 C   0  0  0  0  0  3  0  0  0  0  0  0
    9.6650   10.1090    1.6730 C   0  0  0  0  0  3  0  0  0  0  0  0
    9.8130    8.9520    0.9030 C   0  0  0  0  0  0  0  0  0  0  0  0
    9.9420    7.7050    1.5020 N   0  0  0  0  0  0  0  0  0  0  0  0
   10.2100    5.4840   -0.8790 H   0  0  0  0  0  0  0  0  0  0  0  0
    9.9140    7.6610    2.5210 H   0  0  0  0  0  0  0  0  0  0  0  0
   11.4130    6.2220    3.4300 O   0  0  0  0  0  0  0  0  0  0  0  0
   12.1620    5.9150    3.9750 H   0  0  0  0  0  0  0  0  0  0  0  0
    9.0130    1.6120    1.2890 N   0  0  0  0  0  0  0  0  0  0  0  0
    8.3220    1.2610    1.9600 H   0  0  0  0  0  0  0  0  0  0  0  0
    9.9980    0.5530    1.0040 C   0  0  0  0  0  2  0  0  0  0  0  0
   10.1440    0.1460   -0.4780 C   0  0  0  0  0  3  0  0  0  0  0  0
   11.0810    1.0870   -1.2550 C   0  0  0  0  0  2  0  0  0  0  0  0
   11.2600    0.6360   -2.7040 C   0  0  0  0  0  2  0  0  0  0  0  0
   11.7510   -0.8050   -2.7890 C   0  0  0  0  0  2  0  0  0  0  0  0
   10.8430   -1.7520   -2.0140 C   0  0  0  0  0  2  0  0  0  0  0  0
   10.6640   -1.3010   -0.5670 C   0  0  0  0  0  2  0  0  0  0  0  0
  1  2  2  0  0  0  0
  2  3  1  0  0  0  0
  2 11  1  0  0  0  0
  3  4  2  0  0  0  0
  4 26  1  0  0  0  0
  4  5  1  0  0  0  0
  5  6  1  0  0  0  0
  6  7  2  0  0  0  0
  8  7  1  0  0  0  0
  9  8  2  0  0  0  0
 10  5  2  0  0  0  0
 10  9  1  0  0  0  0
 11 10  1  0  0  0  0
 12 23  1  0  0  0  0
 12  3  1  6  0  0  0
 13 12  1  0  0  0  0
 14 17  1  0  0  0  0
 14 13  1  0  0  0  0
 15 14  2  0  0  0  0
 16 14  2  0  0  0  0
 17 22  1  0  0  0  0
 18 17  2  0  0  0  0
 18 19  1  0  0  0  0
 19 20  2  0  0  0  0
 20 21  1  0  0  0  0
 22 23  1  0  0  0  0
 22 21  2  0  0  0  0
 23 25  1  0  0  0  0
 24 13  1  0  0  0  0
 26 27  1  0  0  0  0
 28 11  1  0  0  0  0
 28 29  1  0  0  0  0
 30 28  1  0  0  0  0
 31 30  1  0  0  0  0
 32 31  1  0  0  0  0
 33 32  1  0  0  0  0
 34 33  1  0  0  0  0
 34 35  1  0  0  0  0
 35 36  1  0  0  0  0
 36 31  1  0  0  0  0
M  END
>  <minimizedAffinity>
-6.82939816

$$$$

 OpenBabel09132200333D

 36 40  0  0  1  0  0  0  0  0999 V2000
    8.6990    1.2760    2.0810 O   0  0  0  0  0  0  0  0  0  0  0  0
    9.4420    0.7450    1.2460 C   0  0  0  0  0  0  0  0  0  0  0  0
   10.3960    1.6140    0.4910 C   0  0  0  0  0  0  0  0  0  0  0  0
   11.1490    1.0620   -0.4800 C   0  0  0  0  0  0  0  0  0  0  0  0
   11.1020   -0.3840   -0.7830 C   0  0  0  0  0  0  0  0  0  0  0  0
   11.9430   -0.9880   -1.7370 C   0  0  0  0  0  3  0  0  0  0  0  0
   11.8450   -2.3510   -2.0260 C   0  0  0  0  0  3  0  0  0  0  0  0
   10.9140   -3.1360   -1.3600 C   0  0  0  0  0  3  0  0  0  0  0  0
   10.1020   -2.5640   -0.3830 C   0  0  0  0  0  3  0  0  0  0  0  0
   10.2030   -1.1970   -0.0700 C   0  0  0  0  0  0  0  0  0  0  0  0
    9.4270   -0.6170    0.9700 N   0  0  0  0  0  0  0  0  0  0  0  0
   10.4360    3.0800    0.8690 C   0  0  1  0  0  3  0  0  0  0  0  0
   10.2240    4.0030   -0.0360 N   0  0  0  0  0  0  0  0  0  0  0  0
   10.2300    5.5910    0.1970 S   0  0  0  0  0  0  0  0  0  0  0  0
   11.3620    6.1690   -0.4990 O   0  0  0  0  0  0  0  0  0  0  0  0
    8.8980    6.1080   -0.0470 O   0  0  0  0  0  0  0  0  0  0  0  0
   10.5380    5.8540    1.9110 C   0  0  0  0  0  0  0  0  0  0  0  0
   10.5770    7.1610    2.4100 C   0  0  0  0  0  3  0  0  0  0  0  0
   10.8210    7.3620    3.7650 C   0  0  0  0  0  3  0  0  0  0  0  0
   11.0220    6.2650    4.6020 C   0  0  0  0  0  3  0  0  0  0  0  0
   10.9790    4.9650    4.0840 C   0  0  0  0  0  3  0  0  0  0  0  0
   10.7340    4.7470    2.7260 C   0  0  0  0  0  0  0  0  0  0  0  0
   10.6880    3.4600    2.2060 N   0  0  0  0  0  0  0  0  0  0  0  0
   10.0450    3.7030   -0.9880 H   0  0  0  0  0  0  0  0  0  0  0  0
   10.8280    2.6790    2.8490 H   0  0  0  0  0  0  0  0  0  0  0  0
   11.9730    1.8550   -1.2660 O   0  0  0  0  0  0  0  0  0  0  0  0
   12.0270    1.4610   -2.1580 H   0  0  0  0  0  0  0  0  0  0  0  0
    8.5330   -1.4390    1.7200 N   0  0  0  0  0  0  0  0  0  0  0  0
    8.2100   -0.8920    2.5230 H   0  0  0  0  0  0  0  0  0  0  0  0
    9.1660   -2.6820    2.1970 C   0  0  0  0  0  2  0  0  0  0  0  0
    8.2220   -3.8840    2.4090 C   0  0  0  0  0  3  0  0  0  0  0  0
    6.8270   -3.4550    2.8960 C   0  0  0  0  0  2  0  0  0  0  0  0
    5.8880   -4.6520    3.0440 C   0  0  0  0  0  2  0  0  0  0  0  0
    5.7850   -5.4510    1.7500 C   0  0  0  0  0  2  0  0  0  0  0  0
    7.1580   -5.8750    1.2430 C   0  0  0  0  0  2  0  0  0  0  0  0
    8.0970   -4.6800    1.0960 C   0  0  0  0  0  2  0  0  0  0  0  0
  2  1  2  0  0  0  0
  3  2  1  0  0  0  0
  4  3  2  0  0  0  0
  5  4  1  0  0  0  0
  5 10  1  0  0  0  0
  6  5  2  0  0  0  0
  7  6  1  0  0  0  0
  7  8  2  0  0  0  0
  8  9  1  0  0  0  0
  9 10  2  0  0  0  0
 10 11  1  0  0  0  0
 11  2  1  0  0  0  0
 11 28  1  0  0  0  0
 12  3  1  1  0  0  0
 12 23  1  0  0  0  0
 13 14  1  0  0  0  0
 13 12  1  0  0  0  0
 14 17  1  0  0  0  0
 15 14  2  0  0  0  0
 16 14  2  0  0  0  0
 17 18  2  0  0  0  0
 17 22  1  0  0  0  0
 18 19  1  0  0  0  0
 19 20  2  0  0  0  0
 21 20  1  0  0  0  0
 22 21  2  0  0  0  0
 23 22  1  0  0  0  0
 23 25  1  0  0  0  0
 24 13  1  0  0  0  0
 26  4  1  0  0  0  0
 27 26  1  0  0  0  0
 28 30  1  0  0  0  0
 28 29  1  0  0  0  0
 30 31  1  0  0  0  0
 31 32  1  0  0  0  0
 32 33  1  0  0  0  0
 34 33  1  0  0  0  0
 35 34  1  0  0  0  0
 36 35  1  0  0  0  0
 36 31  1  0  0  0  0
M  END
>  <minimizedAffinity>
-6.708323

$$$$

 OpenBabel09132200333D

 36 40  0  0  1  0  0  0  0  0999 V2000
   10.3730    2.5760    1.2410 O   0  0  0  0  0  0  0  0  0  0  0  0
   10.6600    3.3520    2.1610 C   0  0  0  0  0  0  0  0  0  0  0  0
   10.5830    2.8460    3.5670 C   0  0  0  0  0  0  0  0  0  0  0  0
   10.8110    3.7040    4.5790 C   0  0  1  0  0  3  0  0  0  0  0  0
   11.1900    5.1130    4.3440 C   0  0  0  0  0  0  0  0  0  0  0  0
   11.5110    5.9980    5.3900 C   0  0  0  0  0  3  0  0  0  0  0  0
   11.8280    7.3340    5.1340 C   0  0  0  0  0  3  0  0  0  0  0  0
   11.8380    7.8070    3.8290 C   0  0  0  0  0  3  0  0  0  0  0  0
   11.5620    6.9350    2.7770 C   0  0  0  0  0  3  0  0  0  0  0  0
   11.2600    5.5840    3.0210 C   0  0  0  0  0  0  0  0  0  0  0  0
   11.0430    4.6720    1.9530 N   0  0  0  0  0  0  0  0  0  0  0  0
   10.2330    1.3840    3.7510 C   0  0  0  0  0  0  0  0  0  0  0  0
   10.3120    0.8290    4.9350 N   0  0  0  0  0  0  0  0  0  0  0  0
    9.9790   -0.6980    5.3000 S   0  0  0  0  0  0  0  0  0  0  0  0
   11.2030   -1.3720    5.6830 O   0  0  0  0  0  0  0  0  0  0  0  0
    8.8350   -0.7310    6.1890 O   0  0  0  0  0  0  0  0  0  0  0  0
    9.4510   -1.4750    3.8110 C   0  0  0  0  0  0  0  0  0  0  0  0
    9.0710   -2.8220    3.8350 C   0  0  0  0  0  3  0  0  0  0  0  0
    8.6540   -3.4300    2.6550 C   0  0  0  0  0  3  0  0  0  0  0  0
    8.6220   -2.6930    1.4720 C   0  0  0  0  0  3  0  0  0  0  0  0
    9.0060   -1.3480    1.4670 C   0  0  0  0  0  3  0  0  0  0  0  0
    9.4260   -0.7230    2.6440 C   0  0  0  0  0  0  0  0  0  0  0  0
    9.8060    0.6140    2.6480 N   0  0  0  0  0  0  0  0  0  0  0  0
   10.6220    1.4050    5.7110 H   0  0  0  0  0  0  0  0  0  0  0  0
    9.7590    1.1260    1.7650 H   0  0  0  0  0  0  0  0  0  0  0  0
   10.6520    3.2940    5.8960 O   0  0  0  0  0  0  0  0  0  0  0  0
   10.3530    4.0570    6.4260 H   0  0  0  0  0  0  0  0  0  0  0  0
   11.1420    5.1320    0.6060 N   0  0  0  0  0  0  0  0  0  0  0  0
   11.8010    5.9160    0.5950 H   0  0  0  0  0  0  0  0  0  0  0  0
    9.8470    5.5720    0.0570 C   0  0  0  0  0  2  0  0  0  0  0  0
    9.8130    6.9950   -0.5380 C   0  0  0  0  0  3  0  0  0  0  0  0
    9.2480    8.0310    0.4500 C   0  0  0  0  0  2  0  0  0  0  0  0
    9.2760    9.4430   -0.1330 C   0  0  0  0  0  2  0  0  0  0  0  0
   10.6770    9.8380   -0.5850 C   0  0  0  0  0  2  0  0  0  0  0  0
   11.2610    8.8180   -1.5560 C   0  0  0  0  0  2  0  0  0  0  0  0
   11.2320    7.4070   -0.9730 C   0  0  0  0  0  2  0  0  0  0  0  0
  1  2  2  0  0  0  0
  2  3  1  0  0  0  0
  3 12  2  0  0  0  0
  3  4  1  0  0  0  0
  4 26  1  6  0  0  0
  5  4  1  0  0  0  0
  5  6  1  0  0  0  0
  7  6  2  0  0  0  0
  8  7  1  0  0  0  0
  9 10  1  0  0  0  0
  9  8  2  0  0  0  0
 10  5  2  0  0  0  0
 11  2  1  0  0  0  0
 11 10  1  0  0  0  0
 12 13  1  0  0  0  0
 13 14  1  0  0  0  0
 13 24  1  0  0  0  0
 14 15  2  0  0  0  0
 14 16  2  0  0  0  0
 17 18  1  0  0  0  0
 17 14  1  0  0  0  0
 19 18  2  0  0  0  0
 20 19  1  0  0  0  0
 21 20  2  0  0  0  0
 21 22  1  0  0  0  0
 22 23  1  0  0  0  0
 22 17  2  0  0  0  0
 23 12  1  0  0  0  0
 25 23  1  0  0  0  0
 26 27  1  0  0  0  0
 28 11  1  0  0  0  0
 29 28  1  0  0  0  0
 30 28  1  0  0  0  0
 31 30  1  0  0  0  0
 31 32  1  0  0  0  0
 33 32  1  0  0  0  0
 34 33  1  0  0  0  0
 35 36  1  0  0  0  0
 35 34  1  0  0  0  0
 36 31  1  0  0  0  0
M  END
>  <minimizedAffinity>
-6.68884468

$$$$

 OpenBabel09132200333D

 36 40  0  0  1  0  0  0  0  0999 V2000
   10.2130    4.4410    0.1290 O   0  0  0  0  0  0  0  0  0  0  0  0
   10.3450    4.5500    1.3540 C   0  0  0  0  0  0  0  0  0  0  0  0
   10.4100    5.9240    1.9420 C   0  0  0  0  0  0  0  0  0  0  0  0
   10.6370    6.0560    3.2620 C   0  0  0  0  0  0  0  0  0  0  0  0
   10.7680    4.8860    4.1570 C   0  0  0  0  0  0  0  0  0  0  0  0
   10.9240    5.0100    5.5510 C   0  0  0  0  0  3  0  0  0  0  0  0
   11.0830    3.8840    6.3620 C   0  0  0  0  0  3  0  0  0  0  0  0
   11.0800    2.6160    5.7970 C   0  0  0  0  0  3  0  0  0  0  0  0
   10.8870    2.4730    4.4240 C   0  0  0  0  0  3  0  0  0  0  0  0
   10.7070    3.5970    3.6000 C   0  0  0  0  0  0  0  0  0  0  0  0
   10.4430    3.4590    2.2100 N   0  0  0  0  0  0  0  0  0  0  0  0
   10.2270    7.0870    0.9890 C   0  0  1  0  0  3  0  0  0  0  0  0
   10.9010    7.1350   -0.1330 N   0  0  0  0  0  0  0  0  0  0  0  0
   10.8250    8.2890   -1.2460 S   0  0  0  0  0  0  0  0  0  0  0  0
   12.0870    8.9990   -1.2800 O   0  0  0  0  0  0  0  0  0  0  0  0
   10.2840    7.7290   -2.4690 O   0  0  0  0  0  0  0  0  0  0  0  0
    9.6330    9.4590   -0.6880 C   0  0  0  0  0  0  0  0  0  0  0  0
    9.3420   10.5760   -1.4800 C   0  0  0  0  0  3  0  0  0  0  0  0
    8.3990   11.4960   -1.0340 C   0  0  0  0  0  3  0  0  0  0  0  0
    7.7620   11.2950    0.1910 C   0  0  0  0  0  3  0  0  0  0  0  0
    8.0670   10.1730    0.9690 C   0  0  0  0  0  3  0  0  0  0  0  0
    9.0100    9.2390    0.5340 C   0  0  0  0  0  0  0  0  0  0  0  0
    9.3160    8.1210    1.3000 N   0  0  0  0  0  0  0  0  0  0  0  0
   11.5480    6.3800   -0.3320 H   0  0  0  0  0  0  0  0  0  0  0  0
    8.8220    7.9990    2.1850 H   0  0  0  0  0  0  0  0  0  0  0  0
   10.8010    7.3140    3.8240 O   0  0  0  0  0  0  0  0  0  0  0  0
   11.4200    7.2420    4.5750 H   0  0  0  0  0  0  0  0  0  0  0  0
   10.3490    2.1550    1.6400 N   0  0  0  0  0  0  0  0  0  0  0  0
   10.5680    2.2360    0.6420 H   0  0  0  0  0  0  0  0  0  0  0  0
    9.0100    1.5580    1.8000 C   0  0  0  0  0  2  0  0  0  0  0  0
    8.9350    0.0220    1.6730 C   0  0  0  0  0  3  0  0  0  0  0  0
    9.7750   -0.5120    0.4990 C   0  0  0  0  0  2  0  0  0  0  0  0
    9.7350   -2.0370    0.4230 C   0  0  0  0  0  2  0  0  0  0  0  0
   10.1750   -2.6780    1.7350 C   0  0  0  0  0  2  0  0  0  0  0  0
    9.3630   -2.1530    2.9140 C   0  0  0  0  0  2  0  0  0  0  0  0
    9.4020   -0.6290    2.9890 C   0  0  0  0  0  2  0  0  0  0  0  0
  1  2  2  0  0  0  0
  2  3  1  0  0  0  0
  2 11  1  0  0  0  0
  3  4  2  0  0  0  0
  4 26  1  0  0  0  0
  4  5  1  0  0  0  0
  5  6  1  0  0  0  0
  6  7  2  0  0  0  0
  8  7  1  0  0  0  0
  9  8  2  0  0  0  0
 10  5  2  0  0  0  0
 10  9  1  0  0  0  0
 11 10  1  0  0  0  0
 12 23  1  0  0  0  0
 12  3  1  6  0  0  0
 13 12  1  0  0  0  0
 14 17  1  0  0  0  0
 14 13  1  0  0  0  0
 15 14  2  0  0  0  0
 16 14  2  0  0  0  0
 17 22  1  0  0  0  0
 18 19  1  0  0  0  0
 18 17  2  0  0  0  0
 19 20  2  0  0  0  0
 20 21  1  0  0  0  0
 22 21  2  0  0  0  0
 22 23  1  0  0  0  0
 23 25  1  0  0  0  0
 24 13  1  0  0  0  0
 26 27  1  0  0  0  0
 28 30  1  0  0  0  0
 28 11  1  0  0  0  0
 29 28  1  0  0  0  0
 31 30  1  0  0  0  0
 31 36  1  0  0  0  0
 32 31  1  0  0  0  0
 33 32  1  0  0  0  0
 33 34  1  0  0  0  0
 34 35  1  0  0  0  0
 35 36  1  0  0  0  0
M  END
>  <minimizedAffinity>
-6.66083145

$$$$
