
 OpenBabel09132204463D

 36 40  0  0  1  0  0  0  0  0999 V2000
   10.3730    2.5760    1.2410 O   0  0  0  0  0  0  0  0  0  0  0  0
   10.6600    3.3520    2.1610 C   0  0  0  0  0  0  0  0  0  0  0  0
   10.5830    2.8460    3.5670 C   0  0  0  0  0  0  0  0  0  0  0  0
   10.8110    3.7040    4.5790 C   0  0  1  0  0  3  0  0  0  0  0  0
   11.1900    5.1130    4.3440 C   0  0  0  0  0  0  0  0  0  0  0  0
   11.5110    5.9980    5.3900 C   0  0  0  0  0  3  0  0  0  0  0  0
   11.8280    7.3340    5.1340 C   0  0  0  0  0  3  0  0  0  0  0  0
   11.8380    7.8070    3.8290 C   0  0  0  0  0  3  0  0  0  0  0  0
   11.5620    6.9350    2.7770 C   0  0  0  0  0  3  0  0  0  0  0  0
   11.2600    5.5840    3.0210 C   0  0  0  0  0  0  0  0  0  0  0  0
   11.0430    4.6720    1.9530 N   0  0  0  0  0  0  0  0  0  0  0  0
   10.2330    1.3840    3.7510 C   0  0  0  0  0  0  0  0  0  0  0  0
   10.3120    0.8290    4.9350 N   0  0  0  0  0  0  0  0  0  0  0  0
    9.9790   -0.6980    5.3000 S   0  0  0  0  0  0  0  0  0  0  0  0
   11.2030   -1.3720    5.6830 O   0  0  0  0  0  0  0  0  0  0  0  0
    8.8350   -0.7310    6.1890 O   0  0  0  0  0  0  0  0  0  0  0  0
    9.4510   -1.4750    3.8110 C   0  0  0  0  0  0  0  0  0  0  0  0
    9.0710   -2.8220    3.8350 C   0  0  0  0  0  3  0  0  0  0  0  0
    8.6540   -3.4300    2.6550 C   0  0  0  0  0  3  0  0  0  0  0  0
    8.6220   -2.6930    1.4720 C   0  0  0  0  0  3  0  0  0  0  0  0
    9.0060   -1.3480    1.4670 C   0  0  0  0  0  3  0  0  0  0  0  0
    9.4260   -0.7230    2.6440 C   0  0  0  0  0  0  0  0  0  0  0  0
    9.8060    0.6140    2.6480 N   0  0  0  0  0  0  0  0  0  0  0  0
   10.6220    1.4050    5.7110 H   0  0  0  0  0  0  0  0  0  0  0  0
    9.7590    1.1260    1.7650 H   0  0  0  0  0  0  0  0  0  0  0  0
   10.6520    3.2940    5.8960 O   0  0  0  0  0  0  0  0  0  0  0  0
   10.3530    4.0570    6.4260 H   0  0  0  0  0  0  0  0  0  0  0  0
   11.1420    5.1320    0.6060 N   0  0  0  0  0  0  0  0  0  0  0  0
   11.8010    5.9160    0.5950 H   0  0  0  0  0  0  0  0  0  0  0  0
    9.8470    5.5720    0.0570 C   0  0  0  0  0  2  0  0  0  0  0  0
    9.8130    6.9950   -0.5380 C   0  0  0  0  0  3  0  0  0  0  0  0
    9.2480    8.0310    0.4500 C   0  0  0  0  0  2  0  0  0  0  0  0
    9.2760    9.4430   -0.1330 C   0  0  0  0  0  2  0  0  0  0  0  0
   10.6770    9.8380   -0.5850 C   0  0  0  0  0  2  0  0  0  0  0  0
   11.2610    8.8180   -1.5560 C   0  0  0  0  0  2  0  0  0  0  0  0
   11.2320    7.4070   -0.9730 C   0  0  0  0  0  2  0  0  0  0  0  0
  1  2  2  0  0  0  0
  2  3  1  0  0  0  0
  3 12  2  0  0  0  0
  3  4  1  0  0  0  0
  4 26  1  6  0  0  0
  5  4  1  0  0  0  0
  5  6  1  0  0  0  0
  7  6  2  0  0  0  0
  8  7  1  0  0  0  0
  9 10  1  0  0  0  0
  9  8  2  0  0  0  0
 10  5  2  0  0  0  0
 11  2  1  0  0  0  0
 11 10  1  0  0  0  0
 12 13  1  0  0  0  0
 13 14  1  0  0  0  0
 13 24  1  0  0  0  0
 14 15  2  0  0  0  0
 14 16  2  0  0  0  0
 17 18  1  0  0  0  0
 17 14  1  0  0  0  0
 19 18  2  0  0  0  0
 20 19  1  0  0  0  0
 21 20  2  0  0  0  0
 21 22  1  0  0  0  0
 22 23  1  0  0  0  0
 22 17  2  0  0  0  0
 23 12  1  0  0  0  0
 25 23  1  0  0  0  0
 26 27  1  0  0  0  0
 28 11  1  0  0  0  0
 29 28  1  0  0  0  0
 30 28  1  0  0  0  0
 31 30  1  0  0  0  0
 31 32  1  0  0  0  0
 33 32  1  0  0  0  0
 34 33  1  0  0  0  0
 35 36  1  0  0  0  0
 35 34  1  0  0  0  0
 36 31  1  0  0  0  0
M  END
>  <minimizedAffinity>
-6.68884468

$$$$
