
 OpenBabel09132204463D

 36 40  0  0  1  0  0  0  0  0999 V2000
    9.2470    1.4600    2.6630 O   0  0  0  0  0  0  0  0  0  0  0  0
    9.8380    1.4230    1.5760 C   0  0  0  0  0  0  0  0  0  0  0  0
   10.6980    2.5850    1.1960 C   0  0  0  0  0  0  0  0  0  0  0  0
   11.2790    2.5940   -0.0190 C   0  0  0  0  0  0  0  0  0  0  0  0
   11.1370    1.4660   -0.9650 C   0  0  0  0  0  0  0  0  0  0  0  0
   11.8050    1.4250   -2.2030 C   0  0  0  0  0  3  0  0  0  0  0  0
   11.6180    0.3610   -3.0890 C   0  0  0  0  0  3  0  0  0  0  0  0
   10.7710   -0.6840   -2.7490 C   0  0  0  0  0  3  0  0  0  0  0  0
   10.1330   -0.6800   -1.5100 C   0  0  0  0  0  3  0  0  0  0  0  0
   10.3270    0.3750   -0.6020 C   0  0  0  0  0  0  0  0  0  0  0  0
    9.7340    0.3570    0.6900 N   0  0  0  0  0  0  0  0  0  0  0  0
   10.8440    3.6940    2.2170 C   0  0  1  0  0  3  0  0  0  0  0  0
   10.7550    3.4310    3.4970 N   0  0  0  0  0  0  0  0  0  0  0  0
   10.8850    4.4830    4.7010 S   0  0  0  0  0  0  0  0  0  0  0  0
    9.6000    4.6110    5.3600 O   0  0  0  0  0  0  0  0  0  0  0  0
   12.0620    4.1620    5.4830 O   0  0  0  0  0  0  0  0  0  0  0  0
   11.2070    6.0540    3.9740 C   0  0  0  0  0  0  0  0  0  0  0  0
   11.3900    7.1700    4.8000 C   0  0  0  0  0  3  0  0  0  0  0  0
   11.6450    8.4090    4.2190 C   0  0  0  0  0  3  0  0  0  0  0  0
   11.7140    8.5200    2.8300 C   0  0  0  0  0  3  0  0  0  0  0  0
   11.5280    7.3930    2.0210 C   0  0  0  0  0  3  0  0  0  0  0  0
   11.2730    6.1420    2.5900 C   0  0  0  0  0  0  0  0  0  0  0  0
   11.0900    5.0190    1.7930 N   0  0  0  0  0  0  0  0  0  0  0  0
   10.5770    2.4710    3.7740 H   0  0  0  0  0  0  0  0  0  0  0  0
   11.1590    5.1350    0.7810 H   0  0  0  0  0  0  0  0  0  0  0  0
   12.0030    3.6990   -0.4440 O   0  0  0  0  0  0  0  0  0  0  0  0
   11.9090    3.7800   -1.4120 H   0  0  0  0  0  0  0  0  0  0  0  0
    8.9350   -0.7590    1.0790 N   0  0  0  0  0  0  0  0  0  0  0  0
    8.2020   -0.4110    1.7050 H   0  0  0  0  0  0  0  0  0  0  0  0
    9.7120   -1.8040    1.7690 C   0  0  0  0  0  2  0  0  0  0  0  0
    9.2320   -3.2550    1.5560 C   0  0  0  0  0  3  0  0  0  0  0  0
    7.8480   -3.5120    2.1790 C   0  0  0  0  0  2  0  0  0  0  0  0
    7.3630   -4.9350    1.9090 C   0  0  0  0  0  2  0  0  0  0  0  0
    7.3500   -5.2540    0.4180 C   0  0  0  0  0  2  0  0  0  0  0  0
    8.7090   -4.9930   -0.2210 C   0  0  0  0  0  2  0  0  0  0  0  0
    9.1950   -3.5710    0.0490 C   0  0  0  0  0  2  0  0  0  0  0  0
  2  1  2  0  0  0  0
  3  2  1  0  0  0  0
  4  3  2  0  0  0  0
  5 10  1  0  0  0  0
  5  4  1  0  0  0  0
  6  5  2  0  0  0  0
  7  8  2  0  0  0  0
  7  6  1  0  0  0  0
  8  9  1  0  0  0  0
  9 10  2  0  0  0  0
 10 11  1  0  0  0  0
 11 28  1  0  0  0  0
 11  2  1  0  0  0  0
 12  3  1  1  0  0  0
 12 13  1  0  0  0  0
 13 24  1  0  0  0  0
 13 14  1  0  0  0  0
 14 15  2  0  0  0  0
 14 16  2  0  0  0  0
 17 14  1  0  0  0  0
 17 18  1  0  0  0  0
 19 18  2  0  0  0  0
 20 19  1  0  0  0  0
 21 22  1  0  0  0  0
 21 20  2  0  0  0  0
 22 17  2  0  0  0  0
 23 12  1  0  0  0  0
 23 22  1  0  0  0  0
 25 23  1  0  0  0  0
 26  4  1  0  0  0  0
 27 26  1  0  0  0  0
 28 29  1  0  0  0  0
 28 30  1  0  0  0  0
 31 30  1  0  0  0  0
 31 32  1  0  0  0  0
 33 32  1  0  0  0  0
 34 33  1  0  0  0  0
 35 36  1  0  0  0  0
 35 34  1  0  0  0  0
 36 31  1  0  0  0  0
M  END
>  <minimizedAffinity>
-7.85509348

$$$$
