
 OpenBabel09132204463D

 36 40  0  0  1  0  0  0  0  0999 V2000
    9.2260    1.7910    2.4540 O   0  0  0  0  0  0  0  0  0  0  0  0
    9.8440    1.6350    1.3940 C   0  0  0  0  0  0  0  0  0  0  0  0
   10.7290    2.7430    0.9180 C   0  0  0  0  0  0  0  0  0  0  0  0
   11.3400    2.6190   -0.2750 C   0  0  0  0  0  0  0  0  0  0  0  0
   11.2100    1.4000   -1.1020 C   0  0  0  0  0  0  0  0  0  0  0  0
   11.9080    1.2240   -2.3110 C   0  0  0  0  0  3  0  0  0  0  0  0
   11.7320    0.0760   -3.0860 C   0  0  0  0  0  3  0  0  0  0  0  0
   10.8620   -0.9200   -2.6620 C   0  0  0  0  0  3  0  0  0  0  0  0
   10.1930   -0.7810   -1.4480 C   0  0  0  0  0  3  0  0  0  0  0  0
   10.3760    0.3620   -0.6500 C   0  0  0  0  0  0  0  0  0  0  0  0
    9.7500    0.4840    0.6200 N   0  0  0  0  0  0  0  0  0  0  0  0
   10.8620    3.9510    1.8220 C   0  0  1  0  0  3  0  0  0  0  0  0
   10.5380    5.1430    1.3860 N   0  0  0  0  0  0  0  0  0  0  0  0
   10.6190    6.5180    2.2100 S   0  0  0  0  0  0  0  0  0  0  0  0
   11.6470    7.3590    1.6290 O   0  0  0  0  0  0  0  0  0  0  0  0
    9.2790    7.0410    2.3860 O   0  0  0  0  0  0  0  0  0  0  0  0
   11.1920    6.1120    3.8250 C   0  0  0  0  0  0  0  0  0  0  0  0
   11.3390    7.1270    4.7780 C   0  0  0  0  0  3  0  0  0  0  0  0
   11.7900    6.7990    6.0530 C   0  0  0  0  0  3  0  0  0  0  0  0
   12.0890    5.4720    6.3600 C   0  0  0  0  0  3  0  0  0  0  0  0
   11.9350    4.4710    5.3950 C   0  0  0  0  0  3  0  0  0  0  0  0
   11.4810    4.7840    4.1110 C   0  0  0  0  0  0  0  0  0  0  0  0
   11.3240    3.7950    3.1470 N   0  0  0  0  0  0  0  0  0  0  0  0
   10.2100    5.2260    0.4300 H   0  0  0  0  0  0  0  0  0  0  0  0
   11.5410    2.8330    3.4110 H   0  0  0  0  0  0  0  0  0  0  0  0
   12.0890    3.6670   -0.7920 O   0  0  0  0  0  0  0  0  0  0  0  0
   12.0220    3.6470   -1.7660 H   0  0  0  0  0  0  0  0  0  0  0  0
    8.9270   -0.5770    1.1020 N   0  0  0  0  0  0  0  0  0  0  0  0
    8.2060   -0.1630    1.7000 H   0  0  0  0  0  0  0  0  0  0  0  0
    9.6830   -1.5810    1.8720 C   0  0  0  0  0  2  0  0  0  0  0  0
    9.2930   -3.0540    1.6290 C   0  0  0  0  0  3  0  0  0  0  0  0
    7.8910   -3.3870    2.1700 C   0  0  0  0  0  2  0  0  0  0  0  0
    7.4980   -4.8330    1.8690 C   0  0  0  0  0  2  0  0  0  0  0  0
    7.5880   -5.1430    0.3800 C   0  0  0  0  0  2  0  0  0  0  0  0
    8.9660   -4.8090   -0.1800 C   0  0  0  0  0  2  0  0  0  0  0  0
    9.3590   -3.3640    0.1210 C   0  0  0  0  0  2  0  0  0  0  0  0
  2  1  2  0  0  0  0
  3  2  1  0  0  0  0
  4  3  2  0  0  0  0
  5 10  1  0  0  0  0
  5  4  1  0  0  0  0
  6  5  2  0  0  0  0
  7  8  2  0  0  0  0
  7  6  1  0  0  0  0
  8  9  1  0  0  0  0
  9 10  2  0  0  0  0
 10 11  1  0  0  0  0
 11 28  1  0  0  0  0
 11  2  1  0  0  0  0
 12  3  1  1  0  0  0
 12 23  1  0  0  0  0
 13 12  1  0  0  0  0
 13 14  1  0  0  0  0
 14 16  2  0  0  0  0
 14 17  1  0  0  0  0
 15 14  2  0  0  0  0
 17 22  2  0  0  0  0
 17 18  1  0  0  0  0
 18 19  2  0  0  0  0
 19 20  1  0  0  0  0
 21 20  2  0  0  0  0
 22 21  1  0  0  0  0
 23 25  1  0  0  0  0
 23 22  1  0  0  0  0
 24 13  1  0  0  0  0
 26  4  1  0  0  0  0
 27 26  1  0  0  0  0
 28 29  1  0  0  0  0
 28 30  1  0  0  0  0
 31 30  1  0  0  0  0
 31 32  1  0  0  0  0
 33 32  1  0  0  0  0
 34 33  1  0  0  0  0
 35 36  1  0  0  0  0
 35 34  1  0  0  0  0
 36 31  1  0  0  0  0
M  END
>  <minimizedAffinity>
-8.13158417

$$$$
