
 OpenBabel09132204463D

 36 40  0  0  1  0  0  0  0  0999 V2000
    8.8610    0.7250    2.2630 O   0  0  0  0  0  0  0  0  0  0  0  0
    9.4050   -0.0140    1.4350 C   0  0  0  0  0  0  0  0  0  0  0  0
    9.4750   -1.4790    1.7280 C   0  0  0  0  0  0  0  0  0  0  0  0
   10.1390   -2.2820    0.8750 C   0  0  0  0  0  0  0  0  0  0  0  0
   10.7520   -1.7700   -0.3690 C   0  0  0  0  0  0  0  0  0  0  0  0
   11.3770   -2.6100   -1.3090 C   0  0  0  0  0  3  0  0  0  0  0  0
   11.9800   -2.0880   -2.4560 C   0  0  0  0  0  3  0  0  0  0  0  0
   11.9600   -0.7190   -2.6880 C   0  0  0  0  0  3  0  0  0  0  0  0
   11.3110    0.1240   -1.7880 C   0  0  0  0  0  3  0  0  0  0  0  0
   10.6850   -0.3920   -0.6400 C   0  0  0  0  0  0  0  0  0  0  0  0
    9.9630    0.4500    0.2490 N   0  0  0  0  0  0  0  0  0  0  0  0
    8.7950   -1.9580    2.9940 C   0  0  1  0  0  3  0  0  0  0  0  0
    9.2710   -1.6260    4.1680 N   0  0  0  0  0  0  0  0  0  0  0  0
    8.6740   -2.0470    5.5970 S   0  0  0  0  0  0  0  0  0  0  0  0
    9.6070   -2.9380    6.2570 O   0  0  0  0  0  0  0  0  0  0  0  0
    8.2110   -0.8570    6.2830 O   0  0  0  0  0  0  0  0  0  0  0  0
    7.2330   -3.0100    5.2840 C   0  0  0  0  0  0  0  0  0  0  0  0
    6.4860   -3.5000    6.3620 C   0  0  0  0  0  3  0  0  0  0  0  0
    5.3490   -4.2600    6.1090 C   0  0  0  0  0  3  0  0  0  0  0  0
    4.9720   -4.5210    4.7910 C   0  0  0  0  0  3  0  0  0  0  0  0
    5.7310   -4.0230    3.7270 C   0  0  0  0  0  3  0  0  0  0  0  0
    6.8750   -3.2570    3.9650 C   0  0  0  0  0  0  0  0  0  0  0  0
    7.6330   -2.7570    2.9140 N   0  0  0  0  0  0  0  0  0  0  0  0
   10.1070   -1.0530    4.1960 H   0  0  0  0  0  0  0  0  0  0  0  0
    7.3200   -2.9580    1.9630 H   0  0  0  0  0  0  0  0  0  0  0  0
   10.3080   -3.6280    1.1660 O   0  0  0  0  0  0  0  0  0  0  0  0
   11.1590   -3.9240    0.7900 H   0  0  0  0  0  0  0  0  0  0  0  0
    9.8620    1.8450   -0.0330 N   0  0  0  0  0  0  0  0  0  0  0  0
    9.8530    1.9550   -1.0510 H   0  0  0  0  0  0  0  0  0  0  0  0
   10.9770    2.6240    0.5350 C   0  0  0  0  0  2  0  0  0  0  0  0
   10.8800    4.1560    0.3820 C   0  0  0  0  0  3  0  0  0  0  0  0
    9.4700    4.6160   -0.0300 C   0  0  0  0  0  2  0  0  0  0  0  0
    9.3760    6.1390   -0.1200 C   0  0  0  0  0  2  0  0  0  0  0  0
    9.8030    6.8080    1.1820 C   0  0  0  0  0  2  0  0  0  0  0  0
   11.1920    6.3560    1.6140 C   0  0  0  0  0  2  0  0  0  0  0  0
   11.2860    4.8350    1.7040 C   0  0  0  0  0  2  0  0  0  0  0  0
  2  3  1  0  0  0  0
  2  1  2  0  0  0  0
  4 26  1  0  0  0  0
  4  3  2  0  0  0  0
  5  4  1  0  0  0  0
  6  5  2  0  0  0  0
  7  6  1  0  0  0  0
  8  7  2  0  0  0  0
  8  9  1  0  0  0  0
  9 10  2  0  0  0  0
 10  5  1  0  0  0  0
 10 11  1  0  0  0  0
 11  2  1  0  0  0  0
 12  3  1  6  0  0  0
 12 13  1  0  0  0  0
 13 24  1  0  0  0  0
 13 14  1  0  0  0  0
 14 15  2  0  0  0  0
 14 16  2  0  0  0  0
 17 14  1  0  0  0  0
 17 18  1  0  0  0  0
 19 18  2  0  0  0  0
 20 19  1  0  0  0  0
 21 22  1  0  0  0  0
 21 20  2  0  0  0  0
 22 17  2  0  0  0  0
 23 12  1  0  0  0  0
 23 22  1  0  0  0  0
 25 23  1  0  0  0  0
 27 26  1  0  0  0  0
 28 11  1  0  0  0  0
 28 30  1  0  0  0  0
 29 28  1  0  0  0  0
 31 30  1  0  0  0  0
 31 36  1  0  0  0  0
 32 31  1  0  0  0  0
 33 32  1  0  0  0  0
 33 34  1  0  0  0  0
 34 35  1  0  0  0  0
 35 36  1  0  0  0  0
M  END
>  <minimizedAffinity>
-8.13133335

$$$$
