
 OpenBabel09132204463D

 36 40  0  0  1  0  0  0  0  0999 V2000
   10.2130    4.4410    0.1290 O   0  0  0  0  0  0  0  0  0  0  0  0
   10.3450    4.5500    1.3540 C   0  0  0  0  0  0  0  0  0  0  0  0
   10.4100    5.9240    1.9420 C   0  0  0  0  0  0  0  0  0  0  0  0
   10.6370    6.0560    3.2620 C   0  0  0  0  0  0  0  0  0  0  0  0
   10.7680    4.8860    4.1570 C   0  0  0  0  0  0  0  0  0  0  0  0
   10.9240    5.0100    5.5510 C   0  0  0  0  0  3  0  0  0  0  0  0
   11.0830    3.8840    6.3620 C   0  0  0  0  0  3  0  0  0  0  0  0
   11.0800    2.6160    5.7970 C   0  0  0  0  0  3  0  0  0  0  0  0
   10.8870    2.4730    4.4240 C   0  0  0  0  0  3  0  0  0  0  0  0
   10.7070    3.5970    3.6000 C   0  0  0  0  0  0  0  0  0  0  0  0
   10.4430    3.4590    2.2100 N   0  0  0  0  0  0  0  0  0  0  0  0
   10.2270    7.0870    0.9890 C   0  0  1  0  0  3  0  0  0  0  0  0
   10.9010    7.1350   -0.1330 N   0  0  0  0  0  0  0  0  0  0  0  0
   10.8250    8.2890   -1.2460 S   0  0  0  0  0  0  0  0  0  0  0  0
   12.0870    8.9990   -1.2800 O   0  0  0  0  0  0  0  0  0  0  0  0
   10.2840    7.7290   -2.4690 O   0  0  0  0  0  0  0  0  0  0  0  0
    9.6330    9.4590   -0.6880 C   0  0  0  0  0  0  0  0  0  0  0  0
    9.3420   10.5760   -1.4800 C   0  0  0  0  0  3  0  0  0  0  0  0
    8.3990   11.4960   -1.0340 C   0  0  0  0  0  3  0  0  0  0  0  0
    7.7620   11.2950    0.1910 C   0  0  0  0  0  3  0  0  0  0  0  0
    8.0670   10.1730    0.9690 C   0  0  0  0  0  3  0  0  0  0  0  0
    9.0100    9.2390    0.5340 C   0  0  0  0  0  0  0  0  0  0  0  0
    9.3160    8.1210    1.3000 N   0  0  0  0  0  0  0  0  0  0  0  0
   11.5480    6.3800   -0.3320 H   0  0  0  0  0  0  0  0  0  0  0  0
    8.8220    7.9990    2.1850 H   0  0  0  0  0  0  0  0  0  0  0  0
   10.8010    7.3140    3.8240 O   0  0  0  0  0  0  0  0  0  0  0  0
   11.4200    7.2420    4.5750 H   0  0  0  0  0  0  0  0  0  0  0  0
   10.3490    2.1550    1.6400 N   0  0  0  0  0  0  0  0  0  0  0  0
   10.5680    2.2360    0.6420 H   0  0  0  0  0  0  0  0  0  0  0  0
    9.0100    1.5580    1.8000 C   0  0  0  0  0  2  0  0  0  0  0  0
    8.9350    0.0220    1.6730 C   0  0  0  0  0  3  0  0  0  0  0  0
    9.7750   -0.5120    0.4990 C   0  0  0  0  0  2  0  0  0  0  0  0
    9.7350   -2.0370    0.4230 C   0  0  0  0  0  2  0  0  0  0  0  0
   10.1750   -2.6780    1.7350 C   0  0  0  0  0  2  0  0  0  0  0  0
    9.3630   -2.1530    2.9140 C   0  0  0  0  0  2  0  0  0  0  0  0
    9.4020   -0.6290    2.9890 C   0  0  0  0  0  2  0  0  0  0  0  0
  1  2  2  0  0  0  0
  2  3  1  0  0  0  0
  2 11  1  0  0  0  0
  3  4  2  0  0  0  0
  4 26  1  0  0  0  0
  4  5  1  0  0  0  0
  5  6  1  0  0  0  0
  6  7  2  0  0  0  0
  8  7  1  0  0  0  0
  9  8  2  0  0  0  0
 10  5  2  0  0  0  0
 10  9  1  0  0  0  0
 11 10  1  0  0  0  0
 12 23  1  0  0  0  0
 12  3  1  6  0  0  0
 13 12  1  0  0  0  0
 14 17  1  0  0  0  0
 14 13  1  0  0  0  0
 15 14  2  0  0  0  0
 16 14  2  0  0  0  0
 17 22  1  0  0  0  0
 18 19  1  0  0  0  0
 18 17  2  0  0  0  0
 19 20  2  0  0  0  0
 20 21  1  0  0  0  0
 22 21  2  0  0  0  0
 22 23  1  0  0  0  0
 23 25  1  0  0  0  0
 24 13  1  0  0  0  0
 26 27  1  0  0  0  0
 28 30  1  0  0  0  0
 28 11  1  0  0  0  0
 29 28  1  0  0  0  0
 31 30  1  0  0  0  0
 31 36  1  0  0  0  0
 32 31  1  0  0  0  0
 33 32  1  0  0  0  0
 33 34  1  0  0  0  0
 34 35  1  0  0  0  0
 35 36  1  0  0  0  0
M  END
>  <minimizedAffinity>
-6.66083145

$$$$
