REMARK  Name = 
REMARK  9 active torsions:
REMARK  status: ('A' for Active; 'I' for Inactive)
REMARK    1  A    between atoms: C_1  and  O_2
REMARK    2  A    between atoms: O_2  and  C_3
REMARK    3  A    between atoms: C_6  and  C_7
REMARK    4  A    between atoms: C_7  and  N_8
REMARK    5  A    between atoms: C_9  and  C_11
REMARK    6  A    between atoms: C_18  and  C_19
REMARK    7  A    between atoms: N_25  and  C_26
REMARK    8  A    between atoms: C_33  and  O_34
REMARK    9  A    between atoms: O_34  and  C_35
REMARK                            x       y       z     vdW  Elec       q    Type
REMARK                         _______ _______ _______ _____ _____    ______ ____
ROOT
ATOM      1  C   UNL     1       0.084  -6.993  -3.770  0.00  0.00    +0.039 A 
ATOM      2  C   UNL     1      -1.131  -7.127  -4.448  0.00  0.00    +0.015 A 
ATOM      3  C   UNL     1      -1.194  -6.995  -5.840  0.00  0.00    +0.029 A 
ATOM      4  C   UNL     1       0.009  -6.740  -6.518  0.00  0.00    +0.069 A 
ATOM      5  C   UNL     1       1.224  -6.643  -5.855  0.00  0.00    +0.090 A 
ATOM      6  C   UNL     1       1.281  -6.774  -4.462  0.00  0.00    +0.043 A 
ATOM      7  N   UNL     1       2.241  -6.422  -6.735  0.00  0.00    -0.226 NA
ATOM      8  C   UNL     1       1.706  -6.427  -7.951  0.00  0.00    +0.160 A 
ATOM      9  N   UNL     1       0.324  -6.528  -7.855  0.00  0.00    -0.319 N 
ENDROOT
BRANCH   8  10
ATOM     10  C   UNL     1       2.523  -6.319  -9.168  0.00  0.00    +0.106 A 
ATOM     11  C   UNL     1       3.753  -5.666  -9.133  0.00  0.00    +0.031 A 
ATOM     12  C   UNL     1       4.528  -5.620 -10.290  0.00  0.00    +0.004 A 
ATOM     13  C   UNL     1       4.060  -6.235 -11.443  0.00  0.00    +0.020 A 
ATOM     14  C   UNL     1       2.833  -6.875 -11.389  0.00  0.00    +0.111 A 
ATOM     15  N   UNL     1       2.058  -6.930 -10.282  0.00  0.00    -0.252 NA
ENDBRANCH   8  10
BRANCH   9  16
ATOM     16  C   UNL     1      -0.698  -6.362  -8.889  0.00  0.00    +0.089 C 
ATOM     17  C   UNL     1      -0.540  -5.111  -9.773  0.00  0.00    +0.025 C 
ATOM     18  C   UNL     1      -1.706  -4.970 -10.750  0.00  0.00    +0.002 C 
ATOM     19  C   UNL     1      -1.908  -6.242 -11.569  0.00  0.00    +0.000 C 
ATOM     20  C   UNL     1      -2.125  -7.458 -10.673  0.00  0.00    +0.002 C 
ATOM     21  C   UNL     1      -0.979  -7.648  -9.681  0.00  0.00    +0.025 C 
ENDBRANCH   9  16
BRANCH   1  23
ATOM     22  N   UNL     1       0.595  -6.120  -1.527  0.00  0.00    -0.307 N 
ATOM     23  C   UNL     1       0.087  -7.132  -2.299  0.00  0.00    +0.244 C 
ATOM     24  O   UNL     1      -0.394  -8.136  -1.784  0.00  0.00    -0.270 OA
ATOM     25  H   UNL     1       0.599  -6.324  -0.535  0.00  0.00    +0.149 HD
BRANCH  22  26
ATOM     26  C   UNL     1       1.034  -4.808  -1.956  0.00  0.00    +0.140 C 
BRANCH  26  30
ATOM     27  C   UNL     1       0.718  -1.894   1.206  0.00  0.00    +0.162 A 
ATOM     28  C   UNL     1      -0.426  -2.541   0.736  0.00  0.00    +0.050 A 
ATOM     29  C   UNL     1      -0.322  -3.488  -0.284  0.00  0.00    +0.009 A 
ATOM     30  C   UNL     1       0.929  -3.805  -0.837  0.00  0.00    -0.027 A 
ATOM     31  C   UNL     1       2.073  -3.167  -0.336  0.00  0.00    +0.054 A 
ATOM     32  C   UNL     1       1.977  -2.237   0.703  0.00  0.00    +0.162 A 
BRANCH  27  34
ATOM     33  C   UNL     1       0.540   0.355   1.595  0.00  0.00    +0.277 C 
ATOM     34  O   UNL     1       0.548  -0.948   2.182  0.00  0.00    -0.491 OA
ENDBRANCH  27  34
BRANCH  32  35
ATOM     35  O   UNL     1       3.162  -1.685   1.112  0.00  0.00    -0.491 OA
ATOM     36  C   UNL     1       3.336  -1.707   2.529  0.00  0.00    +0.277 C 
ENDBRANCH  32  35
ENDBRANCH  26  30
ENDBRANCH  22  26
ENDBRANCH   1  23
TORSDOF 7
