
 OpenBabel09122222393D

 36 40  0  0  0  0  0  0  0  0999 V2000
    2.8740  -10.8170    3.1190 C   0  0  0  0  0  0  0  0  0  0  0  0
    1.9390  -11.7960    2.7710 C   0  0  0  0  0  3  0  0  0  0  0  0
    0.5930  -11.6630    3.1320 C   0  0  0  0  0  3  0  0  0  0  0  0
    0.2270  -10.5060    3.8390 C   0  0  0  0  0  0  0  0  0  0  0  0
    1.1430   -9.5130    4.1550 C   0  0  0  0  0  0  0  0  0  0  0  0
    2.4890   -9.6520    3.7930 C   0  0  0  0  0  3  0  0  0  0  0  0
    0.5370   -8.4850    4.8140 N   0  0  0  0  0  0  0  0  0  0  0  0
   -0.7560   -8.7790    4.8790 C   0  0  0  0  0  0  0  0  0  0  0  0
   -0.9740  -10.0540    4.3730 N   0  0  0  0  0  0  0  0  0  0  0  0
   -1.7460   -7.8460    5.4360 C   0  0  0  0  0  0  0  0  0  0  0  0
   -1.6020   -6.4740    5.2470 C   0  0  0  0  0  3  0  0  0  0  0  0
   -2.5800   -5.6150    5.7450 C   0  0  0  0  0  3  0  0  0  0  0  0
   -3.6770   -6.1500    6.4070 C   0  0  0  0  0  3  0  0  0  0  0  0
   -3.7500   -7.5270    6.5400 C   0  0  0  0  0  3  0  0  0  0  0  0
   -2.8130   -8.3820    6.0720 N   0  0  0  0  0  0  0  0  0  0  0  0
   -2.1750  -10.8880    4.4270 C   0  0  0  0  0  3  0  0  0  0  0  0
   -2.7590  -11.1070    5.8350 C   0  0  0  0  0  2  0  0  0  0  0  0
   -3.9440  -12.0700    5.8020 C   0  0  0  0  0  2  0  0  0  0  0  0
   -5.0010  -11.6230    4.7950 C   0  0  0  0  0  2  0  0  0  0  0  0
   -4.4140  -11.4730    3.3950 C   0  0  0  0  0  2  0  0  0  0  0  0
   -3.2270  -10.5110    3.3730 C   0  0  0  0  0  2  0  0  0  0  0  0
    4.8140  -10.2530    1.7140 N   0  0  0  0  0  0  0  0  0  0  0  0
    4.2830  -11.0170    2.7200 C   0  0  0  0  0  0  0  0  0  0  0  0
    4.9700  -11.8410    3.3140 O   0  0  0  0  0  0  0  0  0  0  0  0
    5.7690  -10.4930    1.4780 H   0  0  0  0  0  0  0  0  0  0  0  0
    4.2050   -9.1270    1.0350 C   0  0  0  0  0  2  0  0  0  0  0  0
    5.2870   -5.3710    2.8530 C   0  0  0  0  0  0  0  0  0  0  0  0
    4.4190   -6.2420    3.5140 C   0  0  0  0  0  3  0  0  0  0  0  0
    4.0730   -7.4600    2.9270 C   0  0  0  0  0  3  0  0  0  0  0  0
    4.6010   -7.8240    1.6780 C   0  0  0  0  0  0  0  0  0  0  0  0
    5.4930   -6.9510    1.0380 C   0  0  0  0  0  3  0  0  0  0  0  0
    5.8620   -5.7420    1.6330 C   0  0  0  0  0  0  0  0  0  0  0  0
    4.4890   -3.2570    3.2240 C   0  0  0  0  0  1  0  0  0  0  0  0
    5.5590   -4.1740    3.4620 O   0  0  0  0  0  0  0  0  0  0  0  0
    6.7440   -4.9760    0.9170 O   0  0  0  0  0  0  0  0  0  0  0  0
    7.8680   -5.7120    0.4340 C   0  0  0  0  0  1  0  0  0  0  0  0
  1  6  1  0  0  0  0
  2  1  2  0  0  0  0
  2  3  1  0  0  0  0
  3  4  2  0  0  0  0
  4  5  1  0  0  0  0
  4  9  1  0  0  0  0
  5  7  1  0  0  0  0
  6  5  2  0  0  0  0
  7  8  2  0  0  0  0
  8 10  1  0  0  0  0
  9 16  1  0  0  0  0
  9  8  1  0  0  0  0
 10 15  1  0  0  0  0
 11 10  2  0  0  0  0
 11 12  1  0  0  0  0
 12 13  2  0  0  0  0
 13 14  1  0  0  0  0
 15 14  2  0  0  0  0
 16 17  1  0  0  0  0
 18 17  1  0  0  0  0
 19 18  1  0  0  0  0
 20 19  1  0  0  0  0
 21 20  1  0  0  0  0
 21 16  1  0  0  0  0
 22 23  1  0  0  0  0
 23  1  1  0  0  0  0
 23 24  2  0  0  0  0
 25 22  1  0  0  0  0
 26 30  1  0  0  0  0
 26 22  1  0  0  0  0
 27 34  1  0  0  0  0
 27 28  1  0  0  0  0
 29 28  2  0  0  0  0
 30 29  1  0  0  0  0
 31 32  1  0  0  0  0
 31 30  2  0  0  0  0
 32 27  2  0  0  0  0
 33 34  1  0  0  0  0
 35 32  1  0  0  0  0
 36 35  1  0  0  0  0
M  END
>  <minimizedAffinity>
-4.63260555

$$$$
