
 OpenBabel09122222393D

 36 40  0  0  0  0  0  0  0  0999 V2000
    2.6470  -11.1100    3.2470 C   0  0  0  0  0  0  0  0  0  0  0  0
    1.7050  -12.1070    2.9790 C   0  0  0  0  0  3  0  0  0  0  0  0
    0.3650  -11.9450    3.3480 C   0  0  0  0  0  3  0  0  0  0  0  0
    0.0110  -10.7410    3.9780 C   0  0  0  0  0  0  0  0  0  0  0  0
    0.9340   -9.7320    4.2130 C   0  0  0  0  0  0  0  0  0  0  0  0
    2.2740   -9.9000    3.8440 C   0  0  0  0  0  3  0  0  0  0  0  0
    0.3390   -8.6590    4.8080 N   0  0  0  0  0  0  0  0  0  0  0  0
   -0.9550   -8.9440    4.9100 C   0  0  0  0  0  0  0  0  0  0  0  0
   -1.1820  -10.2500    4.4950 N   0  0  0  0  0  0  0  0  0  0  0  0
   -1.9350   -7.9710    5.4140 C   0  0  0  0  0  0  0  0  0  0  0  0
   -3.1050   -8.4080    6.0300 C   0  0  0  0  0  3  0  0  0  0  0  0
   -3.9940   -7.4640    6.5420 C   0  0  0  0  0  3  0  0  0  0  0  0
   -3.6840   -6.1150    6.4340 C   0  0  0  0  0  3  0  0  0  0  0  0
   -2.4930   -5.7660    5.8200 C   0  0  0  0  0  3  0  0  0  0  0  0
   -1.6160   -6.6600    5.3100 N   0  0  0  0  0  0  0  0  0  0  0  0
   -2.3850  -11.0730    4.6220 C   0  0  0  0  0  3  0  0  0  0  0  0
   -2.9600  -11.1800    6.0470 C   0  0  0  0  0  2  0  0  0  0  0  0
   -4.1480  -12.1390    6.0960 C   0  0  0  0  0  2  0  0  0  0  0  0
   -5.2100  -11.7700    5.0640 C   0  0  0  0  0  2  0  0  0  0  0  0
   -4.6310  -11.7320    3.6520 C   0  0  0  0  0  2  0  0  0  0  0  0
   -3.4430  -10.7780    3.5480 C   0  0  0  0  0  2  0  0  0  0  0  0
    4.5480  -10.7040    1.7390 N   0  0  0  0  0  0  0  0  0  0  0  0
    4.0500  -11.3420    2.8450 C   0  0  0  0  0  0  0  0  0  0  0  0
    4.7620  -12.0760    3.5220 O   0  0  0  0  0  0  0  0  0  0  0  0
    5.5020  -10.9600    1.5130 H   0  0  0  0  0  0  0  0  0  0  0  0
    3.9090   -9.6800    0.9380 C   0  0  0  0  0  2  0  0  0  0  0  0
    6.1700   -6.0120    1.0880 C   0  0  0  0  0  0  0  0  0  0  0  0
    6.0740   -6.7250   -0.1090 C   0  0  0  0  0  3  0  0  0  0  0  0
    5.3370   -7.9090   -0.1570 C   0  0  0  0  0  3  0  0  0  0  0  0
    4.6810   -8.3870    0.9880 C   0  0  0  0  0  0  0  0  0  0  0  0
    4.7630   -7.6470    2.1760 C   0  0  0  0  0  3  0  0  0  0  0  0
    5.4780   -6.4460    2.2230 C   0  0  0  0  0  0  0  0  0  0  0  0
    8.0610   -5.0580    0.2190 C   0  0  0  0  0  1  0  0  0  0  0  0
    6.9370   -4.8770    1.0820 O   0  0  0  0  0  0  0  0  0  0  0  0
    5.4820   -5.8090    3.4350 O   0  0  0  0  0  0  0  0  0  0  0  0
    4.2300   -5.8840    4.1170 C   0  0  0  0  0  1  0  0  0  0  0  0
  1  6  1  0  0  0  0
  2  1  2  0  0  0  0
  2  3  1  0  0  0  0
  3  4  2  0  0  0  0
  4  5  1  0  0  0  0
  4  9  1  0  0  0  0
  5  7  1  0  0  0  0
  6  5  2  0  0  0  0
  7  8  2  0  0  0  0
  8 10  1  0  0  0  0
  9 16  1  0  0  0  0
  9  8  1  0  0  0  0
 10 11  1  0  0  0  0
 11 12  2  0  0  0  0
 13 12  1  0  0  0  0
 14 13  2  0  0  0  0
 15 10  2  0  0  0  0
 15 14  1  0  0  0  0
 16 17  1  0  0  0  0
 17 18  1  0  0  0  0
 19 18  1  0  0  0  0
 20 19  1  0  0  0  0
 21 20  1  0  0  0  0
 21 16  1  0  0  0  0
 22 23  1  0  0  0  0
 23  1  1  0  0  0  0
 23 24  2  0  0  0  0
 25 22  1  0  0  0  0
 26 30  1  0  0  0  0
 26 22  1  0  0  0  0
 27 32  1  0  0  0  0
 28 27  2  0  0  0  0
 29 28  1  0  0  0  0
 29 30  2  0  0  0  0
 30 31  1  0  0  0  0
 31 32  2  0  0  0  0
 32 35  1  0  0  0  0
 33 34  1  0  0  0  0
 34 27  1  0  0  0  0
 35 36  1  0  0  0  0
M  END
>  <minimizedAffinity>
-5.74456739

$$$$
