REMARK  Name = 
REMARK  7 active torsions:
REMARK  status: ('A' for Active; 'I' for Inactive)
REMARK    1  A    between atoms: C_2  and  C_4
REMARK    2  A    between atoms: C_11  and  C_12
REMARK    3  A    between atoms: C_15  and  O_16
REMARK    4  A    between atoms: O_16  and  C_17
REMARK    5  A    between atoms: C_17  and  C_18
REMARK    6  A    between atoms: C_23  and  C_24
REMARK    7  A    between atoms: N_33  and  C_34
REMARK                            x       y       z     vdW  Elec       q    Type
REMARK                         _______ _______ _______ _____ _____    ______ ____
ROOT
ATOM      1  C   UNL     1       7.007  -4.966   2.659  0.00  0.00    +0.053 A 
ATOM      2  C   UNL     1       8.343  -4.541   2.596  0.00  0.00    +0.018 A 
ATOM      3  C   UNL     1       9.329  -5.172   3.360  0.00  0.00    +0.046 A 
ATOM      4  C   UNL     1       8.977  -6.209   4.220  0.00  0.00    +0.124 A 
ATOM      5  C   UNL     1       7.663  -6.663   4.279  0.00  0.00    +0.084 A 
ATOM      6  C   UNL     1       6.688  -6.029   3.512  0.00  0.00    +0.137 A 
ATOM      7  F   UNL     1       5.424  -6.463   3.618  0.00  0.00    -0.205 F 
ENDROOT
BRANCH   1  15
ATOM      8  C   UNL     1       3.205  -1.189  -0.013  0.00  0.00    -0.001 A 
ATOM      9  C   UNL     1       2.679  -2.351  -0.599  0.00  0.00    +0.012 A 
ATOM     10  C   UNL     1       3.206  -3.623  -0.341  0.00  0.00    +0.028 A 
ATOM     11  C   UNL     1       4.293  -3.709   0.540  0.00  0.00    +0.069 A 
ATOM     12  C   UNL     1       4.837  -2.578   1.141  0.00  0.00    +0.090 A 
ATOM     13  C   UNL     1       4.298  -1.311   0.867  0.00  0.00    +0.039 A 
ATOM     14  N   UNL     1       5.889  -2.916   1.952  0.00  0.00    -0.227 NA
ATOM     15  C   UNL     1       5.994  -4.231   1.901  0.00  0.00    +0.145 A 
ATOM     16  N   UNL     1       5.067  -4.755   1.010  0.00  0.00    -0.320 N 
BRANCH  16  17
ATOM     17  C   UNL     1       4.982  -6.147   0.576  0.00  0.00    +0.089 C 
ATOM     18  C   UNL     1       3.660  -6.822   0.979  0.00  0.00    +0.025 C 
ATOM     19  C   UNL     1       3.639  -8.292   0.564  0.00  0.00    +0.002 C 
ATOM     20  C   UNL     1       3.927  -8.460  -0.925  0.00  0.00    +0.000 C 
ATOM     21  C   UNL     1       5.245  -7.801  -1.324  0.00  0.00    +0.002 C 
ATOM     22  C   UNL     1       5.283  -6.327  -0.923  0.00  0.00    +0.025 C 
ENDBRANCH  16  17
BRANCH   8  24
ATOM     23  O   UNL     1       1.623   0.199  -1.125  0.00  0.00    -0.545 OA
ATOM     24  C   UNL     1       2.609   0.171  -0.322  0.00  0.00    +0.072 C 
ATOM     25  O   UNL     1       3.138   1.181   0.239  0.00  0.00    -0.545 OA
ENDBRANCH   8  24
ENDBRANCH   1  15
BRANCH   4  26
ATOM     26  O   UNL     1       9.965  -6.790   4.967  0.00  0.00    -0.487 OA
BRANCH  26  27
ATOM     27  C   UNL     1       9.834  -6.496   6.368  0.00  0.00    +0.265 C 
BRANCH  27  28
ATOM     28  C   UNL     1      10.625  -5.259   6.742  0.00  0.00    -0.003 A 
ATOM     29  C   UNL     1       9.966  -4.013   6.712  0.00  0.00    +0.007 A 
ATOM     30  C   UNL     1      10.639  -2.835   7.030  0.00  0.00    +0.000 A 
ATOM     31  C   UNL     1      11.982  -2.880   7.383  0.00  0.00    +0.001 A 
ATOM     32  C   UNL     1      12.650  -4.105   7.415  0.00  0.00    +0.009 A 
ATOM     33  C   UNL     1      11.993  -5.308   7.093  0.00  0.00    -0.011 A 
BRANCH  33  34
ATOM     34  C   UNL     1      12.757  -6.564   7.144  0.00  0.00    -0.018 A 
ATOM     35  C   UNL     1      13.135  -7.228   5.967  0.00  0.00    +0.008 A 
ATOM     36  C   UNL     1      13.867  -8.416   6.020  0.00  0.00    +0.001 A 
ATOM     37  C   UNL     1      14.235  -8.955   7.251  0.00  0.00    +0.000 A 
ATOM     38  C   UNL     1      13.872  -8.307   8.430  0.00  0.00    +0.001 A 
ATOM     39  C   UNL     1      13.139  -7.119   8.376  0.00  0.00    +0.008 A 
ENDBRANCH  33  34
ENDBRANCH  27  28
ENDBRANCH  26  27
ENDBRANCH   4  26
TORSDOF 7
