
 OpenBabel09122221563D

 39 44  0  0  0  0  0  0  0  0999 V2000
    6.1910   -6.4720    0.8630 C   0  0  0  0  0  0  0  0  0  0  0  0
    7.4760   -6.3430    1.4120 C   0  0  0  0  0  3  0  0  0  0  0  0
    8.4770   -5.6460    0.7290 C   0  0  0  0  0  3  0  0  0  0  0  0
    8.2080   -5.1060   -0.5260 C   0  0  0  0  0  0  0  0  0  0  0  0
    6.9340   -5.2000   -1.0770 C   0  0  0  0  0  3  0  0  0  0  0  0
    5.9420   -5.8940   -0.3880 C   0  0  0  0  0  0  0  0  0  0  0  0
    4.7350   -6.0010   -0.9610 F   0  0  0  0  0  0  0  0  0  0  0  0
    2.2800  -10.4050    3.1190 C   0  0  0  0  0  0  0  0  0  0  0  0
    2.0090   -9.3920    4.0520 C   0  0  0  0  0  3  0  0  0  0  0  0
    2.6730   -8.1590    4.0300 C   0  0  0  0  0  3  0  0  0  0  0  0
    3.6330   -7.9560    3.0290 C   0  0  0  0  0  0  0  0  0  0  0  0
    3.9240   -8.9380    2.0870 C   0  0  0  0  0  0  0  0  0  0  0  0
    3.2510  -10.1690    2.1270 C   0  0  0  0  0  3  0  0  0  0  0  0
    4.8960   -8.5080    1.2200 N   0  0  0  0  0  0  0  0  0  0  0  0
    5.1940   -7.2720    1.5750 C   0  0  0  0  0  0  0  0  0  0  0  0
    4.4790   -6.9090    2.7080 N   0  0  0  0  0  0  0  0  0  0  0  0
    4.6530   -5.6810    3.4790 C   0  0  0  0  0  3  0  0  0  0  0  0
    3.9280   -4.4740    2.8580 C   0  0  0  0  0  2  0  0  0  0  0  0
    4.1890   -3.1990    3.6580 C   0  0  0  0  0  2  0  0  0  0  0  0
    3.8310   -3.3760    5.1310 C   0  0  0  0  0  2  0  0  0  0  0  0
    4.5590   -4.5650    5.7510 C   0  0  0  0  0  2  0  0  0  0  0  0
    4.3060   -5.8530    4.9690 C   0  0  0  0  0  2  0  0  0  0  0  0
    1.9770  -12.5940    4.0040 O   0  0  0  0  0  1  0  0  0  0  0  0
    1.5420  -11.7290    3.1790 C   0  0  0  0  0  0  0  0  0  0  0  0
    0.5480  -11.8790    2.4020 O   0  0  0  0  0  0  0  0  0  0  0  0
    9.2170   -4.4480   -1.1740 O   0  0  0  0  0  0  0  0  0  0  0  0
   10.1760   -3.8870   -0.2620 C   0  0  0  0  0  2  0  0  0  0  0  0
   10.1590   -2.3720   -0.3160 C   0  0  0  0  0  0  0  0  0  0  0  0
   10.5700   -1.7440   -1.5090 C   0  0  0  0  0  3  0  0  0  0  0  0
   10.5920   -0.3560   -1.6210 C   0  0  0  0  0  3  0  0  0  0  0  0
   10.2060    0.4310   -0.5430 C   0  0  0  0  0  3  0  0  0  0  0  0
    9.7990   -0.1750    0.6470 C   0  0  0  0  0  3  0  0  0  0  0  0
    9.7730   -1.5760    0.7860 C   0  0  0  0  0  0  0  0  0  0  0  0
    9.3370   -2.1490    2.0680 C   0  0  0  0  0  0  0  0  0  0  0  0
    8.0160   -2.5860    2.2530 C   0  0  0  0  0  3  0  0  0  0  0  0
    7.6080   -3.1370    3.4690 C   0  0  0  0  0  3  0  0  0  0  0  0
    8.5170   -3.2630    4.5180 C   0  0  0  0  0  3  0  0  0  0  0  0
    9.8340   -2.8390    4.3510 C   0  0  0  0  0  3  0  0  0  0  0  0
   10.2410   -2.2870    3.1340 C   0  0  0  0  0  3  0  0  0  0  0  0
  1  2  1  0  0  0  0
  1 15  1  0  0  0  0
  3  2  2  0  0  0  0
  4  3  1  0  0  0  0
  5  4  2  0  0  0  0
  5  6  1  0  0  0  0
  6  1  2  0  0  0  0
  7  6  1  0  0  0  0
  8 24  1  0  0  0  0
  8  9  1  0  0  0  0
 10  9  2  0  0  0  0
 11 10  1  0  0  0  0
 12 13  1  0  0  0  0
 12 11  2  0  0  0  0
 13  8  2  0  0  0  0
 14 15  2  0  0  0  0
 14 12  1  0  0  0  0
 15 16  1  0  0  0  0
 16 11  1  0  0  0  0
 16 17  1  0  0  0  0
 17 22  1  0  0  0  0
 18 17  1  0  0  0  0
 18 19  1  0  0  0  0
 19 20  1  0  0  0  0
 20 21  1  0  0  0  0
 22 21  1  0  0  0  0
 24 23  1  0  0  0  0
 25 24  2  0  0  0  0
 26  4  1  0  0  0  0
 26 27  1  0  0  0  0
 28 27  1  0  0  0  0
 28 33  1  0  0  0  0
 29 28  2  0  0  0  0
 30 29  1  0  0  0  0
 30 31  2  0  0  0  0
 31 32  1  0  0  0  0
 32 33  2  0  0  0  0
 33 34  1  0  0  0  0
 34 35  2  0  0  0  0
 34 39  1  0  0  0  0
 35 36  1  0  0  0  0
 36 37  2  0  0  0  0
 38 37  1  0  0  0  0
 39 38  2  0  0  0  0
M  END
>  <minimizedAffinity>
-8.91644955

$$$$

 OpenBabel09122221563D

 39 44  0  0  0  0  0  0  0  0999 V2000
    5.7650   -6.9800    0.8800 C   0  0  0  0  0  0  0  0  0  0  0  0
    5.4110   -6.0660   -0.1240 C   0  0  0  0  0  3  0  0  0  0  0  0
    6.3870   -5.3020   -0.7700 C   0  0  0  0  0  3  0  0  0  0  0  0
    7.7210   -5.4230   -0.3890 C   0  0  0  0  0  0  0  0  0  0  0  0
    8.0970   -6.3420    0.5860 C   0  0  0  0  0  3  0  0  0  0  0  0
    7.1170   -7.1000    1.2220 C   0  0  0  0  0  0  0  0  0  0  0  0
    7.5050   -7.9490    2.1840 F   0  0  0  0  0  0  0  0  0  0  0  0
    1.5080  -10.5830    3.0600 C   0  0  0  0  0  0  0  0  0  0  0  0
    1.3770   -9.5990    4.0530 C   0  0  0  0  0  3  0  0  0  0  0  0
    2.1730   -8.4470    4.0730 C   0  0  0  0  0  3  0  0  0  0  0  0
    3.1210   -8.2950    3.0520 C   0  0  0  0  0  0  0  0  0  0  0  0
    3.2750   -9.2480    2.0500 C   0  0  0  0  0  0  0  0  0  0  0  0
    2.4710  -10.3990    2.0490 C   0  0  0  0  0  3  0  0  0  0  0  0
    4.2630   -8.8800    1.1750 N   0  0  0  0  0  0  0  0  0  0  0  0
    4.7060   -7.7050    1.5830 C   0  0  0  0  0  0  0  0  0  0  0  0
    4.0680   -7.3300    2.7570 N   0  0  0  0  0  0  0  0  0  0  0  0
    4.3990   -6.1730    3.5840 C   0  0  0  0  0  3  0  0  0  0  0  0
    4.0820   -4.8330    2.8970 C   0  0  0  0  0  2  0  0  0  0  0  0
    4.5030   -3.6510    3.7680 C   0  0  0  0  0  2  0  0  0  0  0  0
    3.8850   -3.7300    5.1610 C   0  0  0  0  0  2  0  0  0  0  0  0
    4.2080   -5.0540    5.8490 C   0  0  0  0  0  2  0  0  0  0  0  0
    3.7890   -6.2500    4.9960 C   0  0  0  0  0  2  0  0  0  0  0  0
   -0.3570  -11.8150    3.8790 O   0  0  0  0  0  1  0  0  0  0  0  0
    0.6300  -11.8200    3.0770 C   0  0  0  0  0  0  0  0  0  0  0  0
    0.9450  -12.7690    2.2930 O   0  0  0  0  0  0  0  0  0  0  0  0
    8.6470   -4.6450   -1.0290 O   0  0  0  0  0  0  0  0  0  0  0  0
    9.7570   -4.3070   -0.1800 C   0  0  0  0  0  2  0  0  0  0  0  0
    9.4670   -3.0560    0.6240 C   0  0  0  0  0  0  0  0  0  0  0  0
    8.6660   -3.1770    1.7780 C   0  0  0  0  0  3  0  0  0  0  0  0
    8.3490   -2.0640    2.5540 C   0  0  0  0  0  3  0  0  0  0  0  0
    8.8260   -0.8100    2.1920 C   0  0  0  0  0  3  0  0  0  0  0  0
    9.6180   -0.6730    1.0510 C   0  0  0  0  0  3  0  0  0  0  0  0
    9.9470   -1.7810    0.2480 C   0  0  0  0  0  0  0  0  0  0  0  0
   10.7830   -1.5660   -0.9430 C   0  0  0  0  0  0  0  0  0  0  0  0
   10.4390   -0.6020   -1.9030 C   0  0  0  0  0  3  0  0  0  0  0  0
   11.2400   -0.3950   -3.0280 C   0  0  0  0  0  3  0  0  0  0  0  0
   12.3990   -1.1470   -3.2070 C   0  0  0  0  0  3  0  0  0  0  0  0
   12.7590   -2.1060   -2.2620 C   0  0  0  0  0  3  0  0  0  0  0  0
   11.9570   -2.3120   -1.1370 C   0  0  0  0  0  3  0  0  0  0  0  0
  1  6  1  0  0  0  0
  1 15  1  0  0  0  0
  2  1  2  0  0  0  0
  3  4  2  0  0  0  0
  3  2  1  0  0  0  0
  4  5  1  0  0  0  0
  5  6  2  0  0  0  0
  6  7  1  0  0  0  0
  8 24  1  0  0  0  0
  8  9  1  0  0  0  0
  9 10  2  0  0  0  0
 11 10  1  0  0  0  0
 12 11  2  0  0  0  0
 13 12  1  0  0  0  0
 13  8  2  0  0  0  0
 14 15  2  0  0  0  0
 14 12  1  0  0  0  0
 15 16  1  0  0  0  0
 16 11  1  0  0  0  0
 16 17  1  0  0  0  0
 17 22  1  0  0  0  0
 18 17  1  0  0  0  0
 18 19  1  0  0  0  0
 19 20  1  0  0  0  0
 20 21  1  0  0  0  0
 22 21  1  0  0  0  0
 24 23  1  0  0  0  0
 25 24  2  0  0  0  0
 26  4  1  0  0  0  0
 26 27  1  0  0  0  0
 27 28  1  0  0  0  0
 28 29  1  0  0  0  0
 29 30  2  0  0  0  0
 31 30  1  0  0  0  0
 32 31  2  0  0  0  0
 33 28  2  0  0  0  0
 33 32  1  0  0  0  0
 34 33  1  0  0  0  0
 35 34  2  0  0  0  0
 36 35  1  0  0  0  0
 37 36  2  0  0  0  0
 37 38  1  0  0  0  0
 38 39  2  0  0  0  0
 39 34  1  0  0  0  0
M  END
>  <minimizedAffinity>
-8.71497917

$$$$

 OpenBabel09122221563D

 39 44  0  0  0  0  0  0  0  0999 V2000
    9.3280   -2.4180    3.5890 C   0  0  0  0  0  0  0  0  0  0  0  0
    9.9570   -3.0470    4.6750 C   0  0  0  0  0  3  0  0  0  0  0  0
   10.6050   -2.2930    5.6580 C   0  0  0  0  0  3  0  0  0  0  0  0
   10.6580   -0.9070    5.5410 C   0  0  0  0  0  0  0  0  0  0  0  0
   10.0190   -0.2620    4.4860 C   0  0  0  0  0  3  0  0  0  0  0  0
    9.3740   -1.0210    3.5130 C   0  0  0  0  0  0  0  0  0  0  0  0
    8.8010   -0.3750    2.4880 F   0  0  0  0  0  0  0  0  0  0  0  0
    6.2220   -6.0340   -0.0350 C   0  0  0  0  0  0  0  0  0  0  0  0
    7.2180   -5.7210   -0.9740 C   0  0  0  0  0  3  0  0  0  0  0  0
    8.2760   -4.8520   -0.6800 C   0  0  0  0  0  3  0  0  0  0  0  0
    8.3190   -4.2940    0.6060 C   0  0  0  0  0  0  0  0  0  0  0  0
    7.3510   -4.5850    1.5610 C   0  0  0  0  0  0  0  0  0  0  0  0
    6.2950   -5.4560    1.2460 C   0  0  0  0  0  3  0  0  0  0  0  0
    7.6050   -3.9180    2.7320 N   0  0  0  0  0  0  0  0  0  0  0  0
    8.7260   -3.2460    2.5440 C   0  0  0  0  0  0  0  0  0  0  0  0
    9.1730   -3.4080    1.2390 N   0  0  0  0  0  0  0  0  0  0  0  0
   10.2900   -2.7010    0.6180 C   0  0  0  0  0  3  0  0  0  0  0  0
   11.3560   -3.6500    0.0440 C   0  0  0  0  0  2  0  0  0  0  0  0
   12.5350   -2.8720   -0.5370 C   0  0  0  0  0  2  0  0  0  0  0  0
   12.0780   -1.8450   -1.5700 C   0  0  0  0  0  2  0  0  0  0  0  0
   11.0290   -0.8960   -0.9970 C   0  0  0  0  0  2  0  0  0  0  0  0
    9.8370   -1.6550   -0.4160 C   0  0  0  0  0  2  0  0  0  0  0  0
    5.3670   -7.9370   -1.1810 O   0  0  0  0  0  0  0  0  0  0  0  0
    5.0890   -6.9770   -0.3950 C   0  0  0  0  0  0  0  0  0  0  0  0
    3.9480   -6.7370    0.1110 O   0  0  0  0  0  1  0  0  0  0  0  0
   11.3180   -0.2030    6.5110 O   0  0  0  0  0  0  0  0  0  0  0  0
   10.8540   -0.5300    7.8320 C   0  0  0  0  0  2  0  0  0  0  0  0
    9.8190    0.4690    8.3090 C   0  0  0  0  0  0  0  0  0  0  0  0
   10.2500    1.7720    8.6300 C   0  0  0  0  0  3  0  0  0  0  0  0
    9.3520    2.7340    9.0890 C   0  0  0  0  0  3  0  0  0  0  0  0
    8.0090    2.4120    9.2360 C   0  0  0  0  0  3  0  0  0  0  0  0
    7.5660    1.1260    8.9240 C   0  0  0  0  0  3  0  0  0  0  0  0
    8.4550    0.1350    8.4640 C   0  0  0  0  0  0  0  0  0  0  0  0
    7.9220   -1.2010    8.1570 C   0  0  0  0  0  0  0  0  0  0  0  0
    7.2920   -1.4640    6.9310 C   0  0  0  0  0  3  0  0  0  0  0  0
    6.7950   -2.7360    6.6400 C   0  0  0  0  0  3  0  0  0  0  0  0
    6.9250   -3.7650    7.5700 C   0  0  0  0  0  3  0  0  0  0  0  0
    7.5520   -3.5240    8.7910 C   0  0  0  0  0  3  0  0  0  0  0  0
    8.0480   -2.2510    9.0810 C   0  0  0  0  0  3  0  0  0  0  0  0
  1  2  1  0  0  0  0
  2  3  2  0  0  0  0
  4  3  1  0  0  0  0
  4 26  1  0  0  0  0
  5  4  2  0  0  0  0
  6  1  2  0  0  0  0
  6  5  1  0  0  0  0
  7  6  1  0  0  0  0
  8 13  1  0  0  0  0
  9 10  1  0  0  0  0
  9  8  2  0  0  0  0
 10 11  2  0  0  0  0
 11 16  1  0  0  0  0
 11 12  1  0  0  0  0
 12 14  1  0  0  0  0
 13 12  2  0  0  0  0
 15 14  2  0  0  0  0
 15  1  1  0  0  0  0
 16 15  1  0  0  0  0
 17 16  1  0  0  0  0
 18 17  1  0  0  0  0
 19 18  1  0  0  0  0
 20 21  1  0  0  0  0
 20 19  1  0  0  0  0
 21 22  1  0  0  0  0
 22 17  1  0  0  0  0
 23 24  2  0  0  0  0
 24  8  1  0  0  0  0
 24 25  1  0  0  0  0
 26 27  1  0  0  0  0
 27 28  1  0  0  0  0
 28 33  2  0  0  0  0
 28 29  1  0  0  0  0
 29 30  2  0  0  0  0
 30 31  1  0  0  0  0
 32 31  2  0  0  0  0
 33 32  1  0  0  0  0
 34 33  1  0  0  0  0
 34 39  1  0  0  0  0
 35 34  2  0  0  0  0
 36 35  1  0  0  0  0
 36 37  2  0  0  0  0
 37 38  1  0  0  0  0
 38 39  2  0  0  0  0
M  END
>  <minimizedAffinity>
-8.53740883

$$$$

 OpenBabel09122221563D

 39 44  0  0  0  0  0  0  0  0999 V2000
    3.8680   -3.2010    5.6010 C   0  0  0  0  0  0  0  0  0  0  0  0
    4.9710   -2.8360    6.3870 C   0  0  0  0  0  3  0  0  0  0  0  0
    4.8530   -1.8430    7.3640 C   0  0  0  0  0  3  0  0  0  0  0  0
    3.6380   -1.1830    7.5340 C   0  0  0  0  0  0  0  0  0  0  0  0
    2.5250   -1.5470    6.7830 C   0  0  0  0  0  3  0  0  0  0  0  0
    2.6520   -2.5400    5.8130 C   0  0  0  0  0  0  0  0  0  0  0  0
    1.5730   -2.8430    5.0780 F   0  0  0  0  0  0  0  0  0  0  0  0
    5.0920   -6.5700    0.8030 C   0  0  0  0  0  0  0  0  0  0  0  0
    4.3470   -7.5520    1.4740 C   0  0  0  0  0  3  0  0  0  0  0  0
    3.7790   -7.3280    2.7350 C   0  0  0  0  0  3  0  0  0  0  0  0
    3.9730   -6.0700    3.3210 C   0  0  0  0  0  0  0  0  0  0  0  0
    4.7030   -5.0720    2.6820 C   0  0  0  0  0  0  0  0  0  0  0  0
    5.2690   -5.3160    1.4210 C   0  0  0  0  0  3  0  0  0  0  0  0
    4.7580   -3.9400    3.4530 N   0  0  0  0  0  0  0  0  0  0  0  0
    4.0520   -4.1920    4.5390 C   0  0  0  0  0  0  0  0  0  0  0  0
    3.5930   -5.5020    4.5240 N   0  0  0  0  0  0  0  0  0  0  0  0
    2.9090   -6.1870    5.6170 C   0  0  0  0  0  3  0  0  0  0  0  0
    1.4000   -6.3550    5.3720 C   0  0  0  0  0  2  0  0  0  0  0  0
    0.7140   -7.0170    6.5650 C   0  0  0  0  0  2  0  0  0  0  0  0
    1.3770   -8.3420    6.9310 C   0  0  0  0  0  2  0  0  0  0  0  0
    2.8720   -8.1750    7.1870 C   0  0  0  0  0  2  0  0  0  0  0  0
    3.5780   -7.5200    6.0010 C   0  0  0  0  0  2  0  0  0  0  0  0
    6.4200   -5.9410   -1.0690 O   0  0  0  0  0  1  0  0  0  0  0  0
    5.6950   -6.8530   -0.5590 C   0  0  0  0  0  0  0  0  0  0  0  0
    5.4300   -7.9750   -1.0930 O   0  0  0  0  0  0  0  0  0  0  0  0
    3.5650   -0.2030    8.4860 O   0  0  0  0  0  0  0  0  0  0  0  0
    2.9200   -0.6570    9.6870 C   0  0  0  0  0  2  0  0  0  0  0  0
    3.9340   -1.1520   10.6980 C   0  0  0  0  0  0  0  0  0  0  0  0
    4.9050   -0.2430   11.1670 C   0  0  0  0  0  3  0  0  0  0  0  0
    5.8750   -0.6370   12.0860 C   0  0  0  0  0  3  0  0  0  0  0  0
    5.8950   -1.9460   12.5520 C   0  0  0  0  0  3  0  0  0  0  0  0
    4.9430   -2.8590   12.0960 C   0  0  0  0  0  3  0  0  0  0  0  0
    3.9550   -2.4860   11.1640 C   0  0  0  0  0  0  0  0  0  0  0  0
    2.9840   -3.4980   10.7230 C   0  0  0  0  0  0  0  0  0  0  0  0
    3.2150   -4.2690    9.5740 C   0  0  0  0  0  3  0  0  0  0  0  0
    2.2940   -5.2350    9.1630 C   0  0  0  0  0  3  0  0  0  0  0  0
    1.1300   -5.4470    9.8990 C   0  0  0  0  0  3  0  0  0  0  0  0
    0.8860   -4.6940   11.0460 C   0  0  0  0  0  3  0  0  0  0  0  0
    1.8070   -3.7270   11.4550 C   0  0  0  0  0  3  0  0  0  0  0  0
  1  6  2  0  0  0  0
  1  2  1  0  0  0  0
  2  3  2  0  0  0  0
  3  4  1  0  0  0  0
  4 26  1  0  0  0  0
  5  4  2  0  0  0  0
  6  5  1  0  0  0  0
  7  6  1  0  0  0  0
  8 13  2  0  0  0  0
  8  9  1  0  0  0  0
  9 10  2  0  0  0  0
 10 11  1  0  0  0  0
 11 16  1  0  0  0  0
 12 11  2  0  0  0  0
 12 14  1  0  0  0  0
 13 12  1  0  0  0  0
 14 15  2  0  0  0  0
 15  1  1  0  0  0  0
 16 15  1  0  0  0  0
 16 17  1  0  0  0  0
 17 22  1  0  0  0  0
 18 17  1  0  0  0  0
 18 19  1  0  0  0  0
 19 20  1  0  0  0  0
 20 21  1  0  0  0  0
 22 21  1  0  0  0  0
 23 24  1  0  0  0  0
 24  8  1  0  0  0  0
 25 24  2  0  0  0  0
 26 27  1  0  0  0  0
 27 28  1  0  0  0  0
 28 33  2  0  0  0  0
 28 29  1  0  0  0  0
 29 30  2  0  0  0  0
 30 31  1  0  0  0  0
 32 31  2  0  0  0  0
 33 32  1  0  0  0  0
 34 33  1  0  0  0  0
 34 39  1  0  0  0  0
 35 34  2  0  0  0  0
 36 35  1  0  0  0  0
 36 37  2  0  0  0  0
 37 38  1  0  0  0  0
 38 39  2  0  0  0  0
M  END
>  <minimizedAffinity>
-8.51597118

$$$$

 OpenBabel09122221563D

 39 44  0  0  0  0  0  0  0  0999 V2000
    4.8800   -7.3500    1.8670 C   0  0  0  0  0  0  0  0  0  0  0  0
    4.7040   -7.9610    3.1180 C   0  0  0  0  0  3  0  0  0  0  0  0
    3.6900   -8.9030    3.3160 C   0  0  0  0  0  3  0  0  0  0  0  0
    2.8220   -9.2120    2.2720 C   0  0  0  0  0  0  0  0  0  0  0  0
    2.9940   -8.6370    1.0160 C   0  0  0  0  0  3  0  0  0  0  0  0
    4.0090   -7.7010    0.8290 C   0  0  0  0  0  0  0  0  0  0  0  0
    4.1270   -7.1350   -0.3810 F   0  0  0  0  0  0  0  0  0  0  0  0
    9.4080   -3.6520    0.5720 C   0  0  0  0  0  0  0  0  0  0  0  0
    8.9220   -2.9010    1.6540 C   0  0  0  0  0  3  0  0  0  0  0  0
    7.7970   -3.2920    2.3900 C   0  0  0  0  0  3  0  0  0  0  0  0
    7.1560   -4.4800    2.0140 C   0  0  0  0  0  0  0  0  0  0  0  0
    7.6120   -5.2510    0.9490 C   0  0  0  0  0  0  0  0  0  0  0  0
    8.7400   -4.8400    0.2200 C   0  0  0  0  0  3  0  0  0  0  0  0
    6.8210   -6.3560    0.7740 N   0  0  0  0  0  0  0  0  0  0  0  0
    5.9050   -6.3160    1.7230 C   0  0  0  0  0  0  0  0  0  0  0  0
    6.0420   -5.1580    2.4770 N   0  0  0  0  0  0  0  0  0  0  0  0
    5.1230   -4.6910    3.5120 C   0  0  0  0  0  3  0  0  0  0  0  0
    5.8420   -4.0230    4.6960 C   0  0  0  0  0  2  0  0  0  0  0  0
    4.8530   -3.6090    5.7830 C   0  0  0  0  0  2  0  0  0  0  0  0
    3.7420   -2.7240    5.2260 C   0  0  0  0  0  2  0  0  0  0  0  0
    3.0190   -3.3920    4.0590 C   0  0  0  0  0  2  0  0  0  0  0  0
    3.9920   -3.8080    2.9560 C   0  0  0  0  0  2  0  0  0  0  0  0
   11.7640   -3.4230    0.3180 O   0  0  0  0  0  1  0  0  0  0  0  0
   10.6270   -3.1910   -0.2040 C   0  0  0  0  0  0  0  0  0  0  0  0
   10.4260   -2.6060   -1.3140 O   0  0  0  0  0  0  0  0  0  0  0  0
    1.8290  -10.1230    2.5070 O   0  0  0  0  0  0  0  0  0  0  0  0
    1.6930  -10.4320    3.9040 C   0  0  0  0  0  2  0  0  0  0  0  0
    0.3110  -10.0700    4.4100 C   0  0  0  0  0  0  0  0  0  0  0  0
   -0.7930  -10.7790    3.8960 C   0  0  0  0  0  3  0  0  0  0  0  0
   -2.0920  -10.4860    4.3070 C   0  0  0  0  0  3  0  0  0  0  0  0
   -2.3110   -9.4800    5.2400 C   0  0  0  0  0  3  0  0  0  0  0  0
   -1.2290   -8.7660    5.7570 C   0  0  0  0  0  3  0  0  0  0  0  0
    0.0910   -9.0400    5.3530 C   0  0  0  0  0  0  0  0  0  0  0  0
    1.1860   -8.2480    5.9360 C   0  0  0  0  0  0  0  0  0  0  0  0
    2.0220   -8.7890    6.9250 C   0  0  0  0  0  3  0  0  0  0  0  0
    3.0640   -8.0360    7.4690 C   0  0  0  0  0  3  0  0  0  0  0  0
    3.2880   -6.7330    7.0300 C   0  0  0  0  0  3  0  0  0  0  0  0
    2.4700   -6.1810    6.0460 C   0  0  0  0  0  3  0  0  0  0  0  0
    1.4270   -6.9350    5.5020 C   0  0  0  0  0  3  0  0  0  0  0  0
  1  2  1  0  0  0  0
  2  3  2  0  0  0  0
  4 26  1  0  0  0  0
  4  3  1  0  0  0  0
  5  4  2  0  0  0  0
  6  5  1  0  0  0  0
  6  1  2  0  0  0  0
  7  6  1  0  0  0  0
  8  9  1  0  0  0  0
  9 10  2  0  0  0  0
 11 10  1  0  0  0  0
 11 16  1  0  0  0  0
 12 11  2  0  0  0  0
 13  8  2  0  0  0  0
 13 12  1  0  0  0  0
 14 12  1  0  0  0  0
 14 15  2  0  0  0  0
 15  1  1  0  0  0  0
 15 16  1  0  0  0  0
 16 17  1  0  0  0  0
 17 18  1  0  0  0  0
 18 19  1  0  0  0  0
 20 19  1  0  0  0  0
 21 20  1  0  0  0  0
 22 17  1  0  0  0  0
 22 21  1  0  0  0  0
 24 23  1  0  0  0  0
 24  8  1  0  0  0  0
 25 24  2  0  0  0  0
 26 27  1  0  0  0  0
 27 28  1  0  0  0  0
 28 33  1  0  0  0  0
 29 30  1  0  0  0  0
 29 28  2  0  0  0  0
 30 31  2  0  0  0  0
 31 32  1  0  0  0  0
 33 32  2  0  0  0  0
 33 34  1  0  0  0  0
 34 35  1  0  0  0  0
 35 36  2  0  0  0  0
 37 36  1  0  0  0  0
 38 37  2  0  0  0  0
 39 34  2  0  0  0  0
 39 38  1  0  0  0  0
M  END
>  <minimizedAffinity>
-8.43475914

$$$$

 OpenBabel09122221563D

 39 44  0  0  0  0  0  0  0  0999 V2000
    3.7280   -3.2080    5.4910 C   0  0  0  0  0  0  0  0  0  0  0  0
    4.7800   -2.8340    6.3420 C   0  0  0  0  0  3  0  0  0  0  0  0
    4.6010   -1.8300    7.2980 C   0  0  0  0  0  3  0  0  0  0  0  0
    3.3790   -1.1690    7.3840 C   0  0  0  0  0  0  0  0  0  0  0  0
    2.3150   -1.5410    6.5680 C   0  0  0  0  0  3  0  0  0  0  0  0
    2.5030   -2.5440    5.6190 C   0  0  0  0  0  0  0  0  0  0  0  0
    1.4720   -2.8560    4.8210 F   0  0  0  0  0  0  0  0  0  0  0  0
    5.1300   -6.5950    0.7560 C   0  0  0  0  0  0  0  0  0  0  0  0
    4.5190   -7.6260    1.4860 C   0  0  0  0  0  3  0  0  0  0  0  0
    3.9770   -7.4200    2.7620 C   0  0  0  0  0  3  0  0  0  0  0  0
    4.0570   -6.1280    3.3000 C   0  0  0  0  0  0  0  0  0  0  0  0
    4.6520   -5.0820    2.6010 C   0  0  0  0  0  0  0  0  0  0  0  0
    5.1940   -5.3090    1.3260 C   0  0  0  0  0  3  0  0  0  0  0  0
    4.6130   -3.9230    3.3330 N   0  0  0  0  0  0  0  0  0  0  0  0
    3.9790   -4.2100    4.4550 C   0  0  0  0  0  0  0  0  0  0  0  0
    3.6620   -5.5610    4.4980 N   0  0  0  0  0  0  0  0  0  0  0  0
    3.0970   -6.2760    5.6400 C   0  0  0  0  0  3  0  0  0  0  0  0
    3.8030   -5.9450    6.9650 C   0  0  0  0  0  2  0  0  0  0  0  0
    3.2250   -6.7610    8.1200 C   0  0  0  0  0  2  0  0  0  0  0  0
    1.7130   -6.5900    8.2280 C   0  0  0  0  0  2  0  0  0  0  0  0
    1.0100   -6.9300    6.9170 C   0  0  0  0  0  2  0  0  0  0  0  0
    1.5700   -6.1190    5.7490 C   0  0  0  0  0  2  0  0  0  0  0  0
    5.4190   -7.9740   -1.1630 O   0  0  0  0  0  0  0  0  0  0  0  0
    5.7090   -6.8600   -0.6210 C   0  0  0  0  0  0  0  0  0  0  0  0
    6.4430   -5.9560   -1.1290 O   0  0  0  0  0  1  0  0  0  0  0  0
    3.2460   -0.1780    8.3180 O   0  0  0  0  0  0  0  0  0  0  0  0
    2.9060   -0.6950    9.6160 C   0  0  0  0  0  2  0  0  0  0  0  0
    3.8960   -0.2300   10.6650 C   0  0  0  0  0  0  0  0  0  0  0  0
    4.1110    1.1560   10.8090 C   0  0  0  0  0  3  0  0  0  0  0  0
    5.0190    1.6490   11.7440 C   0  0  0  0  0  3  0  0  0  0  0  0
    5.7280    0.7680   12.5510 C   0  0  0  0  0  3  0  0  0  0  0  0
    5.5290   -0.6070   12.4190 C   0  0  0  0  0  3  0  0  0  0  0  0
    4.6210   -1.1300   11.4780 C   0  0  0  0  0  0  0  0  0  0  0  0
    4.4610   -2.5890   11.3890 C   0  0  0  0  0  0  0  0  0  0  0  0
    3.3910   -3.2390   12.0230 C   0  0  0  0  0  3  0  0  0  0  0  0
    3.2380   -4.6240   11.9280 C   0  0  0  0  0  3  0  0  0  0  0  0
    4.1520   -5.3790   11.1960 C   0  0  0  0  0  3  0  0  0  0  0  0
    5.2180   -4.7500   10.5560 C   0  0  0  0  0  3  0  0  0  0  0  0
    5.3700   -3.3650   10.6510 C   0  0  0  0  0  3  0  0  0  0  0  0
  1  6  2  0  0  0  0
  1  2  1  0  0  0  0
  2  3  2  0  0  0  0
  3  4  1  0  0  0  0
  4 26  1  0  0  0  0
  5  4  2  0  0  0  0
  6  5  1  0  0  0  0
  7  6  1  0  0  0  0
  8 13  2  0  0  0  0
  8  9  1  0  0  0  0
  9 10  2  0  0  0  0
 10 11  1  0  0  0  0
 11 16  1  0  0  0  0
 12 11  2  0  0  0  0
 12 14  1  0  0  0  0
 13 12  1  0  0  0  0
 14 15  2  0  0  0  0
 15 16  1  0  0  0  0
 15  1  1  0  0  0  0
 16 17  1  0  0  0  0
 17 22  1  0  0  0  0
 17 18  1  0  0  0  0
 18 19  1  0  0  0  0
 19 20  1  0  0  0  0
 21 20  1  0  0  0  0
 22 21  1  0  0  0  0
 23 24  2  0  0  0  0
 24  8  1  0  0  0  0
 25 24  1  0  0  0  0
 26 27  1  0  0  0  0
 27 28  1  0  0  0  0
 28 29  2  0  0  0  0
 28 33  1  0  0  0  0
 29 30  1  0  0  0  0
 30 31  2  0  0  0  0
 32 31  1  0  0  0  0
 33 32  2  0  0  0  0
 34 33  1  0  0  0  0
 34 35  1  0  0  0  0
 36 35  2  0  0  0  0
 37 36  1  0  0  0  0
 38 39  1  0  0  0  0
 38 37  2  0  0  0  0
 39 34  2  0  0  0  0
M  END
>  <minimizedAffinity>
-8.42103481

$$$$

 OpenBabel09122221563D

 39 44  0  0  0  0  0  0  0  0999 V2000
    3.6350   -5.8190    6.8310 C   0  0  0  0  0  0  0  0  0  0  0  0
    4.7360   -5.5680    7.6650 C   0  0  0  0  0  3  0  0  0  0  0  0
    4.5560   -5.0200    8.9390 C   0  0  0  0  0  3  0  0  0  0  0  0
    3.2750   -4.6850    9.3700 C   0  0  0  0  0  0  0  0  0  0  0  0
    2.1680   -4.9490    8.5700 C   0  0  0  0  0  3  0  0  0  0  0  0
    2.3570   -5.4980    7.3040 C   0  0  0  0  0  0  0  0  0  0  0  0
    1.2760   -5.7050    6.5400 F   0  0  0  0  0  0  0  0  0  0  0  0
    5.0800   -7.0760    1.1580 C   0  0  0  0  0  0  0  0  0  0  0  0
    4.3300   -8.2430    1.3700 C   0  0  0  0  0  3  0  0  0  0  0  0
    3.7160   -8.5240    2.5970 C   0  0  0  0  0  3  0  0  0  0  0  0
    3.8690   -7.5880    3.6290 C   0  0  0  0  0  0  0  0  0  0  0  0
    4.6020   -6.4190    3.4520 C   0  0  0  0  0  0  0  0  0  0  0  0
    5.2140   -6.1560    2.2160 C   0  0  0  0  0  3  0  0  0  0  0  0
    4.6110   -5.6700    4.6000 N   0  0  0  0  0  0  0  0  0  0  0  0
    3.8730   -6.3240    5.4790 C   0  0  0  0  0  0  0  0  0  0  0  0
    3.4380   -7.5280    4.9430 N   0  0  0  0  0  0  0  0  0  0  0  0
    2.7300   -8.5840    5.6620 C   0  0  0  0  0  3  0  0  0  0  0  0
    1.3140   -8.8370    5.1170 C   0  0  0  0  0  2  0  0  0  0  0  0
    0.5860   -9.9010    5.9370 C   0  0  0  0  0  2  0  0  0  0  0  0
    1.3940  -11.1920    6.0250 C   0  0  0  0  0  2  0  0  0  0  0  0
    2.7960  -10.9450    6.5770 C   0  0  0  0  0  2  0  0  0  0  0  0
    3.5440   -9.8870    5.7660 C   0  0  0  0  0  2  0  0  0  0  0  0
    5.3850   -7.5580   -1.1530 O   0  0  0  0  0  0  0  0  0  0  0  0
    5.7340   -6.8100   -0.1850 C   0  0  0  0  0  0  0  0  0  0  0  0
    6.5820   -5.8660   -0.2440 O   0  0  0  0  0  1  0  0  0  0  0  0
    3.1380   -4.1320   10.6140 O   0  0  0  0  0  0  0  0  0  0  0  0
    2.1860   -3.0550   10.6310 C   0  0  0  0  0  2  0  0  0  0  0  0
    2.8720   -1.7240   10.8580 C   0  0  0  0  0  0  0  0  0  0  0  0
    2.9950   -1.2550   12.1820 C   0  0  0  0  0  3  0  0  0  0  0  0
    3.6020   -0.0310   12.4590 C   0  0  0  0  0  3  0  0  0  0  0  0
    4.0960    0.7460   11.4190 C   0  0  0  0  0  3  0  0  0  0  0  0
    3.9800    0.2980   10.1020 C   0  0  0  0  0  3  0  0  0  0  0  0
    3.3670   -0.9320    9.7970 C   0  0  0  0  0  0  0  0  0  0  0  0
    3.2750   -1.3440    8.3870 C   0  0  0  0  0  0  0  0  0  0  0  0
    4.4080   -1.7930    7.6910 C   0  0  0  0  0  3  0  0  0  0  0  0
    4.3140   -2.1900    6.3550 C   0  0  0  0  0  3  0  0  0  0  0  0
    3.0860   -2.1470    5.6980 C   0  0  0  0  0  3  0  0  0  0  0  0
    1.9500   -1.7080    6.3760 C   0  0  0  0  0  3  0  0  0  0  0  0
    2.0450   -1.3100    7.7110 C   0  0  0  0  0  3  0  0  0  0  0  0
  1  6  2  0  0  0  0
  1  2  1  0  0  0  0
  2  3  2  0  0  0  0
  3  4  1  0  0  0  0
  4 26  1  0  0  0  0
  5  4  2  0  0  0  0
  6  5  1  0  0  0  0
  7  6  1  0  0  0  0
  8  9  2  0  0  0  0
  8 13  1  0  0  0  0
  9 10  1  0  0  0  0
 10 11  2  0  0  0  0
 11 16  1  0  0  0  0
 12 11  1  0  0  0  0
 12 14  1  0  0  0  0
 13 12  2  0  0  0  0
 14 15  2  0  0  0  0
 15  1  1  0  0  0  0
 16 15  1  0  0  0  0
 16 17  1  0  0  0  0
 17 22  1  0  0  0  0
 18 17  1  0  0  0  0
 18 19  1  0  0  0  0
 19 20  1  0  0  0  0
 20 21  1  0  0  0  0
 22 21  1  0  0  0  0
 23 24  2  0  0  0  0
 24  8  1  0  0  0  0
 25 24  1  0  0  0  0
 26 27  1  0  0  0  0
 27 28  1  0  0  0  0
 28 29  1  0  0  0  0
 29 30  2  0  0  0  0
 31 30  1  0  0  0  0
 32 31  2  0  0  0  0
 33 32  1  0  0  0  0
 33 28  2  0  0  0  0
 34 33  1  0  0  0  0
 35 34  2  0  0  0  0
 36 35  1  0  0  0  0
 37 36  2  0  0  0  0
 37 38  1  0  0  0  0
 38 39  2  0  0  0  0
 39 34  1  0  0  0  0
M  END
>  <minimizedAffinity>
-8.33881569

$$$$

 OpenBabel09122221563D

 39 44  0  0  0  0  0  0  0  0999 V2000
    3.3420   -3.5590    5.8280 C   0  0  0  0  0  0  0  0  0  0  0  0
    3.9060   -3.7850    7.0930 C   0  0  0  0  0  3  0  0  0  0  0  0
    3.6970   -2.8810    8.1390 C   0  0  0  0  0  3  0  0  0  0  0  0
    2.9530   -1.7260    7.9140 C   0  0  0  0  0  0  0  0  0  0  0  0
    2.3630   -1.4950    6.6750 C   0  0  0  0  0  3  0  0  0  0  0  0
    2.5760   -2.4030    5.6400 C   0  0  0  0  0  0  0  0  0  0  0  0
    2.0270   -2.1360    4.4460 F   0  0  0  0  0  0  0  0  0  0  0  0
    5.0040   -6.6300    0.9630 C   0  0  0  0  0  0  0  0  0  0  0  0
    4.3360   -7.7000    1.5790 C   0  0  0  0  0  3  0  0  0  0  0  0
    3.7160   -7.5740    2.8290 C   0  0  0  0  0  3  0  0  0  0  0  0
    3.7770   -6.3240    3.4610 C   0  0  0  0  0  0  0  0  0  0  0  0
    4.4270   -5.2410    2.8770 C   0  0  0  0  0  0  0  0  0  0  0  0
    5.0460   -5.3880    1.6250 C   0  0  0  0  0  3  0  0  0  0  0  0
    4.3550   -4.1360    3.6850 N   0  0  0  0  0  0  0  0  0  0  0  0
    3.6470   -4.4900    4.7410 C   0  0  0  0  0  0  0  0  0  0  0  0
    3.3120   -5.8360    4.6690 N   0  0  0  0  0  0  0  0  0  0  0  0
    2.6670   -6.6200    5.7190 C   0  0  0  0  0  3  0  0  0  0  0  0
    1.1640   -6.8330    5.4720 C   0  0  0  0  0  2  0  0  0  0  0  0
    0.5160   -7.6000    6.6230 C   0  0  0  0  0  2  0  0  0  0  0  0
    1.2350   -8.9170    6.8960 C   0  0  0  0  0  2  0  0  0  0  0  0
    2.7250   -8.7060    7.1540 C   0  0  0  0  0  2  0  0  0  0  0  0
    3.3930   -7.9460    6.0100 C   0  0  0  0  0  2  0  0  0  0  0  0
    5.4380   -7.8970   -1.0050 O   0  0  0  0  0  0  0  0  0  0  0  0
    5.6670   -6.8080   -0.3900 C   0  0  0  0  0  0  0  0  0  0  0  0
    6.4040   -5.8610   -0.8070 O   0  0  0  0  0  1  0  0  0  0  0  0
    2.7850   -0.8540    8.9550 O   0  0  0  0  0  0  0  0  0  0  0  0
    3.6790   -1.1310   10.0470 C   0  0  0  0  0  2  0  0  0  0  0  0
    4.5910    0.0480   10.3170 C   0  0  0  0  0  0  0  0  0  0  0  0
    4.0820    1.1260   11.0690 C   0  0  0  0  0  3  0  0  0  0  0  0
    4.8630    2.2480   11.3400 C   0  0  0  0  0  3  0  0  0  0  0  0
    6.1670    2.3130   10.8650 C   0  0  0  0  0  3  0  0  0  0  0  0
    6.6860    1.2550   10.1170 C   0  0  0  0  0  3  0  0  0  0  0  0
    5.9150    0.1140    9.8250 C   0  0  0  0  0  0  0  0  0  0  0  0
    6.5220   -0.9630    9.0290 C   0  0  0  0  0  0  0  0  0  0  0  0
    7.0310   -2.1170    9.6440 C   0  0  0  0  0  3  0  0  0  0  0  0
    7.6000   -3.1410    8.8830 C   0  0  0  0  0  3  0  0  0  0  0  0
    7.6650   -3.0270    7.4960 C   0  0  0  0  0  3  0  0  0  0  0  0
    7.1610   -1.8890    6.8680 C   0  0  0  0  0  3  0  0  0  0  0  0
    6.5920   -0.8660    7.6300 C   0  0  0  0  0  3  0  0  0  0  0  0
  1  2  1  0  0  0  0
  2  3  2  0  0  0  0
  4  3  1  0  0  0  0
  4 26  1  0  0  0  0
  5  4  2  0  0  0  0
  6  1  2  0  0  0  0
  6  5  1  0  0  0  0
  7  6  1  0  0  0  0
  8  9  2  0  0  0  0
  8 13  1  0  0  0  0
  9 10  1  0  0  0  0
 10 11  2  0  0  0  0
 11 16  1  0  0  0  0
 12 11  1  0  0  0  0
 12 14  1  0  0  0  0
 13 12  2  0  0  0  0
 14 15  2  0  0  0  0
 15  1  1  0  0  0  0
 16 15  1  0  0  0  0
 16 17  1  0  0  0  0
 17 22  1  0  0  0  0
 18 17  1  0  0  0  0
 18 19  1  0  0  0  0
 19 20  1  0  0  0  0
 20 21  1  0  0  0  0
 22 21  1  0  0  0  0
 23 24  2  0  0  0  0
 24  8  1  0  0  0  0
 25 24  1  0  0  0  0
 26 27  1  0  0  0  0
 27 28  1  0  0  0  0
 28 29  1  0  0  0  0
 29 30  2  0  0  0  0
 31 30  1  0  0  0  0
 32 31  2  0  0  0  0
 33 32  1  0  0  0  0
 33 28  2  0  0  0  0
 34 35  1  0  0  0  0
 34 33  1  0  0  0  0
 36 35  2  0  0  0  0
 37 36  1  0  0  0  0
 38 37  2  0  0  0  0
 38 39  1  0  0  0  0
 39 34  2  0  0  0  0
M  END
>  <minimizedAffinity>
-8.32438278

$$$$

 OpenBabel09122221563D

 39 44  0  0  0  0  0  0  0  0999 V2000
    3.9500   -3.0780    5.4340 C   0  0  0  0  0  0  0  0  0  0  0  0
    2.6580   -2.5810    5.6630 C   0  0  0  0  0  3  0  0  0  0  0  0
    2.4240   -1.6340    6.6640 C   0  0  0  0  0  3  0  0  0  0  0  0
    3.4780   -1.2050    7.4670 C   0  0  0  0  0  0  0  0  0  0  0  0
    4.7720   -1.6650    7.2410 C   0  0  0  0  0  3  0  0  0  0  0  0
    4.9940   -2.6080    6.2390 C   0  0  0  0  0  0  0  0  0  0  0  0
    6.2440   -3.0620    6.0690 F   0  0  0  0  0  0  0  0  0  0  0  0
    5.0870   -6.6680    0.7780 C   0  0  0  0  0  0  0  0  0  0  0  0
    4.4950   -7.6600    1.5750 C   0  0  0  0  0  3  0  0  0  0  0  0
    4.0140   -7.3950    2.8640 C   0  0  0  0  0  3  0  0  0  0  0  0
    4.1370   -6.0850    3.3460 C   0  0  0  0  0  0  0  0  0  0  0  0
    4.7150   -5.0770    2.5820 C   0  0  0  0  0  0  0  0  0  0  0  0
    5.1960   -5.3620    1.2940 C   0  0  0  0  0  3  0  0  0  0  0  0
    4.7270   -3.8910    3.2690 N   0  0  0  0  0  0  0  0  0  0  0  0
    4.1390   -4.1230    4.4280 C   0  0  0  0  0  0  0  0  0  0  0  0
    3.8050   -5.4660    4.5380 N   0  0  0  0  0  0  0  0  0  0  0  0
    3.2810   -6.1270    5.7310 C   0  0  0  0  0  3  0  0  0  0  0  0
    3.9680   -5.6620    7.0260 C   0  0  0  0  0  2  0  0  0  0  0  0
    3.4370   -6.4240    8.2390 C   0  0  0  0  0  2  0  0  0  0  0  0
    1.9170   -6.3290    8.3420 C   0  0  0  0  0  2  0  0  0  0  0  0
    1.2340   -6.8020    7.0610 C   0  0  0  0  0  2  0  0  0  0  0  0
    1.7470   -6.0470    5.8360 C   0  0  0  0  0  2  0  0  0  0  0  0
    6.2620   -6.0890   -1.2100 O   0  0  0  0  0  0  0  0  0  0  0  0
    5.6000   -6.9960   -0.6110 C   0  0  0  0  0  0  0  0  0  0  0  0
    5.3300   -8.1470   -1.0760 O   0  0  0  0  0  1  0  0  0  0  0  0
    3.2090   -0.2920    8.4500 O   0  0  0  0  0  0  0  0  0  0  0  0
    2.4290   -0.8550    9.5180 C   0  0  0  0  0  2  0  0  0  0  0  0
    3.2460   -1.8410   10.3280 C   0  0  0  0  0  0  0  0  0  0  0  0
    2.8040   -3.1780   10.3900 C   0  0  0  0  0  3  0  0  0  0  0  0
    3.5000   -4.1330   11.1300 C   0  0  0  0  0  3  0  0  0  0  0  0
    4.6490   -3.7690   11.8210 C   0  0  0  0  0  3  0  0  0  0  0  0
    5.0980   -2.4480   11.7720 C   0  0  0  0  0  3  0  0  0  0  0  0
    4.4100   -1.4650   11.0360 C   0  0  0  0  0  0  0  0  0  0  0  0
    4.9360   -0.0920   11.0300 C   0  0  0  0  0  0  0  0  0  0  0  0
    4.2970    0.9310   11.7480 C   0  0  0  0  0  3  0  0  0  0  0  0
    4.8050    2.2310   11.7450 C   0  0  0  0  0  3  0  0  0  0  0  0
    5.9620    2.5280   11.0270 C   0  0  0  0  0  3  0  0  0  0  0  0
    6.6120    1.5240   10.3110 C   0  0  0  0  0  3  0  0  0  0  0  0
    6.1030    0.2240   10.3140 C   0  0  0  0  0  3  0  0  0  0  0  0
  1  2  2  0  0  0  0
  1  6  1  0  0  0  0
  2  3  1  0  0  0  0
  3  4  2  0  0  0  0
  4 26  1  0  0  0  0
  5  4  1  0  0  0  0
  6  5  2  0  0  0  0
  7  6  1  0  0  0  0
  8 13  2  0  0  0  0
  8  9  1  0  0  0  0
  9 10  2  0  0  0  0
 10 11  1  0  0  0  0
 11 16  1  0  0  0  0
 12 14  1  0  0  0  0
 12 11  2  0  0  0  0
 13 12  1  0  0  0  0
 14 15  2  0  0  0  0
 15 16  1  0  0  0  0
 15  1  1  0  0  0  0
 16 17  1  0  0  0  0
 17 22  1  0  0  0  0
 17 18  1  0  0  0  0
 18 19  1  0  0  0  0
 19 20  1  0  0  0  0
 21 20  1  0  0  0  0
 22 21  1  0  0  0  0
 23 24  2  0  0  0  0
 24  8  1  0  0  0  0
 25 24  1  0  0  0  0
 26 27  1  0  0  0  0
 27 28  1  0  0  0  0
 28 29  2  0  0  0  0
 28 33  1  0  0  0  0
 29 30  1  0  0  0  0
 30 31  2  0  0  0  0
 32 31  1  0  0  0  0
 33 32  2  0  0  0  0
 34 33  1  0  0  0  0
 34 35  1  0  0  0  0
 36 35  2  0  0  0  0
 37 36  1  0  0  0  0
 38 39  1  0  0  0  0
 38 37  2  0  0  0  0
 39 34  2  0  0  0  0
M  END
>  <minimizedAffinity>
-8.23616219

$$$$

 OpenBabel09122221563D

 39 44  0  0  0  0  0  0  0  0999 V2000
    3.4130   -6.7920    4.7980 C   0  0  0  0  0  0  0  0  0  0  0  0
    3.6330   -7.8350    5.7110 C   0  0  0  0  0  3  0  0  0  0  0  0
    2.8420   -7.9590    6.8570 C   0  0  0  0  0  3  0  0  0  0  0  0
    1.8490   -7.0180    7.1140 C   0  0  0  0  0  0  0  0  0  0  0  0
    1.5970   -5.9900    6.2100 C   0  0  0  0  0  3  0  0  0  0  0  0
    2.3900   -5.8770    5.0700 C   0  0  0  0  0  0  0  0  0  0  0  0
    2.1490   -4.8550    4.2360 F   0  0  0  0  0  0  0  0  0  0  0  0
    7.3740   -5.4260    0.5190 C   0  0  0  0  0  0  0  0  0  0  0  0
    6.8980   -6.5910   -0.1010 C   0  0  0  0  0  3  0  0  0  0  0  0
    5.9050   -7.3940    0.4760 C   0  0  0  0  0  3  0  0  0  0  0  0
    5.3840   -6.9920    1.7140 C   0  0  0  0  0  0  0  0  0  0  0  0
    5.8310   -5.8410    2.3560 C   0  0  0  0  0  0  0  0  0  0  0  0
    6.8300   -5.0520    1.7640 C   0  0  0  0  0  3  0  0  0  0  0  0
    5.1780   -5.6640    3.5480 N   0  0  0  0  0  0  0  0  0  0  0  0
    4.3120   -6.6540    3.6520 C   0  0  0  0  0  0  0  0  0  0  0  0
    4.4370   -7.5200    2.5730 N   0  0  0  0  0  0  0  0  0  0  0  0
    3.7570   -8.8030    2.4170 C   0  0  0  0  0  3  0  0  0  0  0  0
    3.0490   -8.9460    1.0590 C   0  0  0  0  0  2  0  0  0  0  0  0
    2.2980  -10.2730    0.9620 C   0  0  0  0  0  2  0  0  0  0  0  0
    3.2140  -11.4590    1.2480 C   0  0  0  0  0  2  0  0  0  0  0  0
    3.9080  -11.3240    2.6010 C   0  0  0  0  0  2  0  0  0  0  0  0
    4.6710  -10.0050    2.7160 C   0  0  0  0  0  2  0  0  0  0  0  0
    8.6770   -4.7970   -1.3700 O   0  0  0  0  0  0  0  0  0  0  0  0
    8.4540   -4.5870   -0.1360 C   0  0  0  0  0  0  0  0  0  0  0  0
    9.0570   -3.7390    0.5930 O   0  0  0  0  0  1  0  0  0  0  0  0
    1.1070   -7.1590    8.2550 O   0  0  0  0  0  0  0  0  0  0  0  0
    1.1980   -6.0080    9.1110 C   0  0  0  0  0  2  0  0  0  0  0  0
    2.5480   -5.9420    9.7940 C   0  0  0  0  0  0  0  0  0  0  0  0
    2.9200   -7.0060   10.6410 C   0  0  0  0  0  3  0  0  0  0  0  0
    4.1410   -7.0000   11.3110 C   0  0  0  0  0  3  0  0  0  0  0  0
    5.0140   -5.9320   11.1480 C   0  0  0  0  0  3  0  0  0  0  0  0
    4.6610   -4.8680   10.3160 C   0  0  0  0  0  3  0  0  0  0  0  0
    3.4300   -4.8490    9.6320 C   0  0  0  0  0  0  0  0  0  0  0  0
    3.1190   -3.6960    8.7730 C   0  0  0  0  0  0  0  0  0  0  0  0
    2.2140   -2.7080    9.1900 C   0  0  0  0  0  3  0  0  0  0  0  0
    1.9270   -1.6120    8.3740 C   0  0  0  0  0  3  0  0  0  0  0  0
    2.5450   -1.4860    7.1310 C   0  0  0  0  0  3  0  0  0  0  0  0
    3.4500   -2.4550    6.7030 C   0  0  0  0  0  3  0  0  0  0  0  0
    3.7350   -3.5520    7.5200 C   0  0  0  0  0  3  0  0  0  0  0  0
  1  6  2  0  0  0  0
  1  2  1  0  0  0  0
  2  3  2  0  0  0  0
  3  4  1  0  0  0  0
  4 26  1  0  0  0  0
  5  4  2  0  0  0  0
  6  5  1  0  0  0  0
  7  6  1  0  0  0  0
  8 13  1  0  0  0  0
  9 10  1  0  0  0  0
  9  8  2  0  0  0  0
 10 11  2  0  0  0  0
 11 12  1  0  0  0  0
 11 16  1  0  0  0  0
 12 14  1  0  0  0  0
 13 12  2  0  0  0  0
 14 15  2  0  0  0  0
 15  1  1  0  0  0  0
 16 15  1  0  0  0  0
 17 16  1  0  0  0  0
 17 22  1  0  0  0  0
 18 17  1  0  0  0  0
 19 18  1  0  0  0  0
 19 20  1  0  0  0  0
 20 21  1  0  0  0  0
 21 22  1  0  0  0  0
 23 24  2  0  0  0  0
 24  8  1  0  0  0  0
 24 25  1  0  0  0  0
 26 27  1  0  0  0  0
 27 28  1  0  0  0  0
 28 29  1  0  0  0  0
 29 30  2  0  0  0  0
 31 30  1  0  0  0  0
 32 31  2  0  0  0  0
 33 28  2  0  0  0  0
 33 32  1  0  0  0  0
 34 35  1  0  0  0  0
 34 33  1  0  0  0  0
 36 35  2  0  0  0  0
 37 36  1  0  0  0  0
 38 37  2  0  0  0  0
 38 39  1  0  0  0  0
 39 34  2  0  0  0  0
M  END
>  <minimizedAffinity>
-8.2260704

$$$$
