REMARK  Name = 
REMARK  13 active torsions:
REMARK  status: ('A' for Active; 'I' for Inactive)
REMARK    1  A    between atoms: C_1  and  C_2
REMARK    2  A    between atoms: C_2  and  C_3
REMARK    3  A    between atoms: C_3  and  C_4
REMARK    4  A    between atoms: C_4  and  S_5
REMARK    5  A    between atoms: S_5  and  N_8
REMARK    6  A    between atoms: N_8  and  C_9
REMARK    7  A    between atoms: C_19  and  C_20
REMARK    8  A    between atoms: C_21  and  O_22
REMARK    9  A    between atoms: N_29  and  C_30
REMARK   10  A    between atoms: C_30  and  C_31
REMARK   11  A    between atoms: C_31  and  C_32
REMARK   12  A    between atoms: C_32  and  C_33
REMARK   13  A    between atoms: C_32  and  C_34
REMARK                            x       y       z     vdW  Elec       q    Type
REMARK                         _______ _______ _______ _____ _____    ______ ____
ROOT
ATOM      1  C   UNL     1      -1.105   0.285   0.276  0.00  0.00    +0.050 A 
ATOM      2  C   UNL     1      -1.305  -1.095   0.338  0.00  0.00    +0.029 A 
ATOM      3  C   UNL     1      -0.491  -1.964  -0.396  0.00  0.00    +0.055 A 
ATOM      4  C   UNL     1       0.548  -1.468  -1.189  0.00  0.00    +0.155 A 
ATOM      5  C   UNL     1       0.711  -0.094  -1.243  0.00  0.00    +0.177 A 
ATOM      6  C   UNL     1      -0.100   0.800  -0.530  0.00  0.00    +0.059 A 
ATOM      7  S   UNL     1       2.019   0.516  -2.216  0.00  0.00    +0.136 S 
ATOM      8  O   UNL     1       1.394   1.175  -3.341  0.00  0.00    -0.130 OA
ATOM      9  O   UNL     1       2.866   1.259  -1.309  0.00  0.00    -0.130 OA
ATOM     10  N   UNL     1       2.800  -0.772  -2.727  0.00  0.00    -0.093 N 
ATOM     11  C   UNL     1       2.414  -2.006  -2.537  0.00  0.00    +0.308 C 
ATOM     12  N   UNL     1       1.348  -2.350  -1.834  0.00  0.00    -0.238 N 
ATOM     13  H   UNL     1       3.641  -0.615  -3.268  0.00  0.00    +0.326 HD
ATOM     14  H   UNL     1       1.150  -3.359  -1.747  0.00  0.00    +0.311 HD
ENDROOT
BRANCH  11  15
ATOM     15  C   UNL     1       3.261  -3.107  -3.167  0.00  0.00    +0.170 A 
ATOM     16  C   UNL     1       4.358  -2.870  -3.910  0.00  0.00    +0.148 A 
ATOM     17  C   UNL     1       5.163  -3.971  -4.467  0.00  0.00    +0.060 A 
ATOM     18  C   UNL     1       6.391  -3.788  -5.120  0.00  0.00    +0.016 A 
ATOM     19  C   UNL     1       7.081  -4.882  -5.636  0.00  0.00    +0.021 A 
ATOM     20  C   UNL     1       6.529  -6.136  -5.477  0.00  0.00    +0.113 A 
ATOM     21  N   UNL     1       5.367  -6.352  -4.831  0.00  0.00    -0.237 NA
ATOM     22  C   UNL     1       4.706  -5.286  -4.323  0.00  0.00    +0.147 A 
ATOM     23  N   UNL     1       3.523  -5.530  -3.583  0.00  0.00    -0.292 N 
ATOM     24  C   UNL     1       2.824  -4.522  -2.962  0.00  0.00    +0.271 A 
ATOM     25  O   UNL     1       1.822  -4.706  -2.266  0.00  0.00    -0.267 OA
BRANCH  16  26
ATOM     26  O   UNL     1       4.735  -1.561  -4.190  0.00  0.00    -0.505 OA
ATOM     27  H   UNL     1       5.326  -1.553  -4.971  0.00  0.00    +0.292 HD
ENDBRANCH  16  26
BRANCH  23  28
ATOM     28  C   UNL     1       3.073  -6.917  -3.443  0.00  0.00    +0.127 C 
BRANCH  28  29
ATOM     29  C   UNL     1       2.364  -7.497  -4.678  0.00  0.00    +0.025 C 
BRANCH  29  30
ATOM     30  C   UNL     1       1.000  -6.853  -5.003  0.00  0.00    -0.016 C 
ATOM     31  C   UNL     1       1.136  -5.630  -5.915  0.00  0.00    +0.007 C 
ATOM     32  C   UNL     1       0.090  -7.878  -5.690  0.00  0.00    +0.007 C 
ENDBRANCH  29  30
ENDBRANCH  28  29
ENDBRANCH  23  28
ENDBRANCH  11  15
BRANCH   1  33
ATOM     33  N   UNL     1      -1.859   1.131   1.126  0.00  0.00    -0.221 N 
ATOM     34  H   UNL     1      -2.242   2.004   0.760  0.00  0.00    +0.173 HD
BRANCH  33  35
ATOM     35  S   UNL     1      -1.405   1.219   2.762  0.00  0.00    +0.043 S 
ATOM     36  O   UNL     1      -0.812  -0.045   3.138  0.00  0.00    -0.155 OA
ATOM     37  O   UNL     1      -2.541   1.775   3.461  0.00  0.00    -0.155 OA
BRANCH  35  38
ATOM     38  C   UNL     1      -0.134   2.482   2.696  0.00  0.00    +0.188 C 
BRANCH  38  39
ATOM     39  C   UNL     1       0.540   2.722   4.044  0.00  0.00    +0.024 C 
BRANCH  39  41
ATOM     40  C   UNL     1       2.807   1.687   3.465  0.00  0.00    +0.004 C 
ATOM     41  C   UNL     1       1.623   1.705   4.422  0.00  0.00    -0.002 C 
ENDBRANCH  39  41
ENDBRANCH  38  39
ENDBRANCH  35  38
ENDBRANCH  33  35
ENDBRANCH   1  33
TORSDOF 10
