
 OpenBabel09122222393D

 41 44  0  0  1  0  0  0  0  0999 V2000
    1.7340   -6.5480    7.0180 C   0  0  0  0  0  0  0  0  0  0  0  0
    2.7280   -6.6600    7.9920 C   0  0  0  0  0  3  0  0  0  0  0  0
    3.9380   -5.9720    7.8550 C   0  0  0  0  0  3  0  0  0  0  0  0
    4.1670   -5.1470    6.7500 C   0  0  0  0  0  0  0  0  0  0  0  0
    3.1690   -5.0690    5.7930 C   0  0  0  0  0  0  0  0  0  0  0  0
    1.9540   -5.7590    5.8980 C   0  0  0  0  0  3  0  0  0  0  0  0
    3.4520   -4.0230    4.4300 S   0  0  0  0  0  0  0  0  0  0  0  0
    3.6090   -4.9000    3.2910 O   0  0  0  0  0  0  0  0  0  0  0  0
    2.3860   -3.0460    4.4610 O   0  0  0  0  0  0  0  0  0  0  0  0
    4.8360   -3.3000    4.7340 N   0  0  0  0  0  0  0  0  0  0  0  0
    5.6180   -3.5750    5.7440 C   0  0  2  0  0  3  0  0  0  0  0  0
    5.3290   -4.4540    6.6890 N   0  0  0  0  0  0  0  0  0  0  0  0
    5.1430   -2.5990    4.0720 H   0  0  0  0  0  0  0  0  0  0  0  0
    6.0230   -4.5780    7.4420 H   0  0  0  0  0  0  0  0  0  0  0  0
    6.9420   -2.8220    5.8260 C   0  0  0  0  0  0  0  0  0  0  0  0
    7.2850   -2.0300    6.8590 C   0  0  0  0  0  0  0  0  0  0  0  0
    8.5920   -1.3520    6.9070 C   0  0  0  0  0  0  0  0  0  0  0  0
    9.0610   -0.6370    8.0200 C   0  0  0  0  0  3  0  0  0  0  0  0
   10.3020   -0.0080    7.9780 C   0  0  0  0  0  3  0  0  0  0  0  0
   11.0500   -0.1170    6.8240 C   0  0  0  0  0  3  0  0  0  0  0  0
   10.6450   -0.8180    5.7480 N   0  0  0  0  0  0  0  0  0  0  0  0
    9.4420   -1.4360    5.7990 C   0  0  0  0  0  0  0  0  0  0  0  0
    9.0570   -2.2310    4.6910 N   0  0  0  0  0  0  0  0  0  0  0  0
    7.8910   -2.9590    4.6800 C   0  0  0  0  0  0  0  0  0  0  0  0
    7.5530   -3.7030    3.7550 O   0  0  0  0  0  0  0  0  0  0  0  0
    6.3840   -1.8140    7.8960 O   0  0  0  0  0  0  0  0  0  0  0  0
    6.6340   -1.0000    8.3800 H   0  0  0  0  0  0  0  0  0  0  0  0
    9.9700   -2.3060    3.5480 C   0  0  0  0  0  2  0  0  0  0  0  0
    9.4550   -1.6410    2.2610 C   0  0  0  0  0  2  0  0  0  0  0  0
   10.0020   -2.2520    0.9540 C   0  0  0  0  0  3  0  0  0  0  0  0
    9.2080   -3.4830    0.5090 C   0  0  0  0  0  1  0  0  0  0  0  0
    9.9570   -1.2080   -0.1680 C   0  0  0  0  0  1  0  0  0  0  0  0
    0.4730   -7.1510    7.2450 N   0  0  0  0  0  0  0  0  0  0  0  0
   -0.0050   -7.0050    8.1360 H   0  0  0  0  0  0  0  0  0  0  0  0
    0.1950   -8.6860    6.5680 S   0  0  0  0  0  0  0  0  0  0  0  0
   -0.6350   -9.4420    7.4790 O   0  0  0  0  0  0  0  0  0  0  0  0
    1.4840   -9.1640    6.1230 O   0  0  0  0  0  0  0  0  0  0  0  0
   -0.7560   -8.2490    5.1120 C   0  0  0  0  0  2  0  0  0  0  0  0
   -1.7050   -7.0770    5.3480 C   0  0  0  0  0  2  0  0  0  0  0  0
   -3.5660   -7.0260    7.1030 C   0  0  0  0  0  1  0  0  0  0  0  0
   -3.1440   -7.4670    5.7090 C   0  0  0  0  0  2  0  0  0  0  0  0
  1 33  1  0  0  0  0
  1  2  1  0  0  0  0
  3  2  2  0  0  0  0
  4  3  1  0  0  0  0
  5  6  1  0  0  0  0
  5  4  2  0  0  0  0
  6  1  2  0  0  0  0
  7  9  2  0  0  0  0
  7 10  1  0  0  0  0
  7  5  1  0  0  0  0
  8  7  2  0  0  0  0
 10 11  1  0  0  0  0
 11 15  1  1  0  0  0
 11 12  1  0  0  0  0
 12  4  1  0  0  0  0
 12 14  1  0  0  0  0
 13 10  1  0  0  0  0
 15 16  2  0  0  0  0
 16 17  1  0  0  0  0
 16 26  1  0  0  0  0
 17 18  1  0  0  0  0
 19 18  2  0  0  0  0
 20 19  1  0  0  0  0
 21 22  1  0  0  0  0
 21 20  2  0  0  0  0
 22 17  2  0  0  0  0
 23 22  1  0  0  0  0
 24 23  1  0  0  0  0
 24 15  1  0  0  0  0
 25 24  2  0  0  0  0
 26 27  1  0  0  0  0
 28 23  1  0  0  0  0
 29 28  1  0  0  0  0
 30 29  1  0  0  0  0
 31 30  1  0  0  0  0
 32 30  1  0  0  0  0
 33 34  1  0  0  0  0
 35 33  1  0  0  0  0
 35 36  2  0  0  0  0
 37 35  2  0  0  0  0
 38 39  1  0  0  0  0
 38 35  1  0  0  0  0
 39 41  1  0  0  0  0
 41 40  1  0  0  0  0
M  END
>  <minimizedAffinity>
-6.75463676

$$$$
