
 OpenBabel09122222393D

 41 44  0  0  1  0  0  0  0  0999 V2000
    5.9520   -5.9500    0.8720 C   0  0  0  0  0  0  0  0  0  0  0  0
    5.5790   -7.2830    0.6930 C   0  0  0  0  0  3  0  0  0  0  0  0
    4.7760   -7.9280    1.6400 C   0  0  0  0  0  3  0  0  0  0  0  0
    4.3180   -7.2450    2.7700 C   0  0  0  0  0  0  0  0  0  0  0  0
    4.7190   -5.9290    2.9280 C   0  0  0  0  0  0  0  0  0  0  0  0
    5.5360   -5.2630    2.0030 C   0  0  0  0  0  3  0  0  0  0  0  0
    4.1300   -5.0780    4.3270 S   0  0  0  0  0  0  0  0  0  0  0  0
    5.2830   -4.8740    5.1740 O   0  0  0  0  0  0  0  0  0  0  0  0
    3.3890   -3.9470    3.8120 O   0  0  0  0  0  0  0  0  0  0  0  0
    3.1240   -6.0840    5.0390 N   0  0  0  0  0  0  0  0  0  0  0  0
    2.9270   -7.3250    4.6800 C   0  0  2  0  0  3  0  0  0  0  0  0
    3.4940   -7.8920    3.6280 N   0  0  0  0  0  0  0  0  0  0  0  0
    2.6280   -5.7400    5.8520 H   0  0  0  0  0  0  0  0  0  0  0  0
    3.2530   -8.8770    3.4410 H   0  0  0  0  0  0  0  0  0  0  0  0
    1.9730   -8.1550    5.5330 C   0  0  0  0  0  0  0  0  0  0  0  0
    2.2890   -9.3590    6.0440 C   0  0  0  0  0  0  0  0  0  0  0  0
    1.3440  -10.1060    6.8930 C   0  0  0  0  0  0  0  0  0  0  0  0
    1.6710  -11.2900    7.5710 C   0  0  0  0  0  3  0  0  0  0  0  0
    0.7120  -11.9460    8.3390 C   0  0  0  0  0  3  0  0  0  0  0  0
   -0.5500  -11.3960    8.4180 C   0  0  0  0  0  3  0  0  0  0  0  0
   -0.8910  -10.2460    7.8040 N   0  0  0  0  0  0  0  0  0  0  0  0
    0.0480   -9.6080    7.0680 C   0  0  0  0  0  0  0  0  0  0  0  0
   -0.2980   -8.3630    6.4860 N   0  0  0  0  0  0  0  0  0  0  0  0
    0.6080   -7.6020    5.7870 C   0  0  0  0  0  0  0  0  0  0  0  0
    0.3550   -6.4900    5.3140 O   0  0  0  0  0  0  0  0  0  0  0  0
    3.5190   -9.9360    5.7500 O   0  0  0  0  0  0  0  0  0  0  0  0
    3.4730  -10.9010    5.9120 H   0  0  0  0  0  0  0  0  0  0  0  0
   -1.6600   -7.8630    6.6920 C   0  0  0  0  0  2  0  0  0  0  0  0
   -2.5230   -7.7910    5.4210 C   0  0  0  0  0  2  0  0  0  0  0  0
   -3.4750   -8.9890    5.2180 C   0  0  0  0  0  3  0  0  0  0  0  0
   -2.8510  -10.0880    4.3520 C   0  0  0  0  0  1  0  0  0  0  0  0
   -3.8540   -9.5910    6.5760 C   0  0  0  0  0  1  0  0  0  0  0  0
    6.6570   -5.2860   -0.1620 N   0  0  0  0  0  0  0  0  0  0  0  0
    6.3290   -5.3600   -1.1260 H   0  0  0  0  0  0  0  0  0  0  0  0
    8.3480   -5.1750   -0.0240 S   0  0  0  0  0  0  0  0  0  0  0  0
    8.8870   -4.8130   -1.3160 O   0  0  0  0  0  0  0  0  0  0  0  0
    8.7690   -6.3640    0.6800 O   0  0  0  0  0  0  0  0  0  0  0  0
    8.5080   -3.7890    1.1020 C   0  0  0  0  0  2  0  0  0  0  0  0
    9.7070   -2.8980    0.7870 C   0  0  0  0  0  2  0  0  0  0  0  0
    9.1020   -0.7520    2.0420 C   0  0  0  0  0  1  0  0  0  0  0  0
    9.4000   -1.3990    0.6960 C   0  0  0  0  0  2  0  0  0  0  0  0
  1  6  1  0  0  0  0
  2  1  2  0  0  0  0
  2  3  1  0  0  0  0
  3  4  2  0  0  0  0
  4  5  1  0  0  0  0
  4 12  1  0  0  0  0
  5  7  1  0  0  0  0
  6  5  2  0  0  0  0
  7 10  1  0  0  0  0
  7  8  2  0  0  0  0
  9  7  2  0  0  0  0
 10 13  1  0  0  0  0
 11 10  1  0  0  0  0
 11 15  1  6  0  0  0
 12 11  1  0  0  0  0
 14 12  1  0  0  0  0
 15 24  1  0  0  0  0
 15 16  2  0  0  0  0
 16 17  1  0  0  0  0
 17 22  2  0  0  0  0
 17 18  1  0  0  0  0
 18 19  2  0  0  0  0
 19 20  1  0  0  0  0
 21 20  2  0  0  0  0
 22 21  1  0  0  0  0
 23 28  1  0  0  0  0
 23 22  1  0  0  0  0
 24 23  1  0  0  0  0
 25 24  2  0  0  0  0
 26 27  1  0  0  0  0
 26 16  1  0  0  0  0
 29 28  1  0  0  0  0
 30 29  1  0  0  0  0
 30 32  1  0  0  0  0
 31 30  1  0  0  0  0
 33 35  1  0  0  0  0
 33  1  1  0  0  0  0
 34 33  1  0  0  0  0
 35 37  2  0  0  0  0
 35 38  1  0  0  0  0
 36 35  2  0  0  0  0
 39 38  1  0  0  0  0
 41 39  1  0  0  0  0
 41 40  1  0  0  0  0
M  END
>  <minimizedAffinity>
-6.57630253

$$$$
