
 OpenBabel09122222393D

 41 44  0  0  1  0  0  0  0  0999 V2000
    4.2620   -4.2620    4.8580 C   0  0  0  0  0  0  0  0  0  0  0  0
    3.0400   -3.6790    5.1970 C   0  0  0  0  0  3  0  0  0  0  0  0
    1.8910   -4.4660    5.3320 C   0  0  0  0  0  3  0  0  0  0  0  0
    1.9500   -5.8500    5.1490 C   0  0  0  0  0  0  0  0  0  0  0  0
    3.1730   -6.3970    4.7980 C   0  0  0  0  0  0  0  0  0  0  0  0
    4.3360   -5.6300    4.6410 C   0  0  0  0  0  3  0  0  0  0  0  0
    3.2440   -8.1240    4.5920 S   0  0  0  0  0  0  0  0  0  0  0  0
    3.4480   -8.3400    3.1770 O   0  0  0  0  0  0  0  0  0  0  0  0
    4.2190   -8.5910    5.5530 O   0  0  0  0  0  0  0  0  0  0  0  0
    1.8030   -8.6570    5.0040 N   0  0  0  0  0  0  0  0  0  0  0  0
    0.7800   -7.8990    5.2960 C   0  0  2  0  0  3  0  0  0  0  0  0
    0.8260   -6.5780    5.3500 N   0  0  0  0  0  0  0  0  0  0  0  0
    1.6680   -9.6600    5.0060 H   0  0  0  0  0  0  0  0  0  0  0  0
   -0.0470   -6.0890    5.6010 H   0  0  0  0  0  0  0  0  0  0  0  0
   -0.5420   -8.5970    5.5990 C   0  0  0  0  0  0  0  0  0  0  0  0
   -1.1320   -9.4710    4.7610 C   0  0  0  0  0  0  0  0  0  0  0  0
   -2.3920  -10.1460    5.1160 C   0  0  0  0  0  0  0  0  0  0  0  0
   -2.9710  -11.1710    4.3520 C   0  0  0  0  0  3  0  0  0  0  0  0
   -4.1770  -11.7450    4.7480 C   0  0  0  0  0  3  0  0  0  0  0  0
   -4.7690  -11.2850    5.9060 C   0  0  0  0  0  3  0  0  0  0  0  0
   -4.2280  -10.3240    6.6780 N   0  0  0  0  0  0  0  0  0  0  0  0
   -3.0510   -9.7770    6.2940 C   0  0  0  0  0  0  0  0  0  0  0  0
   -2.4540   -8.8200    7.1500 N   0  0  0  0  0  0  0  0  0  0  0  0
   -1.2230   -8.2660    6.8870 C   0  0  0  0  0  0  0  0  0  0  0  0
   -0.6510   -7.4710    7.6380 O   0  0  0  0  0  0  0  0  0  0  0  0
   -0.5640   -9.7290    3.5180 O   0  0  0  0  0  0  0  0  0  0  0  0
   -1.2430  -10.1100    2.9240 H   0  0  0  0  0  0  0  0  0  0  0  0
   -3.1640   -8.4590    8.3800 C   0  0  0  0  0  2  0  0  0  0  0  0
   -4.4120   -7.5850    8.1760 C   0  0  0  0  0  2  0  0  0  0  0  0
   -4.1270   -6.1630    7.6500 C   0  0  0  0  0  3  0  0  0  0  0  0
   -3.6850   -6.1620    6.1830 C   0  0  0  0  0  1  0  0  0  0  0  0
   -5.3850   -5.2960    7.7830 C   0  0  0  0  0  1  0  0  0  0  0  0
    5.4310   -3.4620    4.8530 N   0  0  0  0  0  0  0  0  0  0  0  0
    5.9840   -3.3800    3.9990 H   0  0  0  0  0  0  0  0  0  0  0  0
    6.3610   -3.4090    6.2750 S   0  0  0  0  0  0  0  0  0  0  0  0
    7.7560   -3.3370    5.9030 O   0  0  0  0  0  0  0  0  0  0  0  0
    5.8440   -4.4540    7.1280 O   0  0  0  0  0  0  0  0  0  0  0  0
    5.8420   -1.8370    6.9640 C   0  0  0  0  0  2  0  0  0  0  0  0
    4.6330   -1.9600    7.8880 C   0  0  0  0  0  2  0  0  0  0  0  0
    2.1560   -1.3320    7.7710 C   0  0  0  0  0  1  0  0  0  0  0  0
    3.5960   -0.8380    7.7570 C   0  0  0  0  0  2  0  0  0  0  0  0
  1  2  1  0  0  0  0
  2  3  2  0  0  0  0
  4  3  1  0  0  0  0
  4 12  1  0  0  0  0
  5  4  2  0  0  0  0
  6  5  1  0  0  0  0
  6  1  2  0  0  0  0
  7  5  1  0  0  0  0
  7 10  1  0  0  0  0
  7  9  2  0  0  0  0
  8  7  2  0  0  0  0
 10 13  1  0  0  0  0
 10 11  1  0  0  0  0
 11 12  1  0  0  0  0
 11 15  1  1  0  0  0
 12 14  1  0  0  0  0
 15 24  1  0  0  0  0
 16 17  1  0  0  0  0
 16 15  2  0  0  0  0
 17 22  1  0  0  0  0
 18 19  1  0  0  0  0
 18 17  2  0  0  0  0
 19 20  2  0  0  0  0
 20 21  1  0  0  0  0
 22 21  2  0  0  0  0
 22 23  1  0  0  0  0
 23 28  1  0  0  0  0
 24 23  1  0  0  0  0
 24 25  2  0  0  0  0
 26 16  1  0  0  0  0
 27 26  1  0  0  0  0
 29 28  1  0  0  0  0
 30 32  1  0  0  0  0
 30 29  1  0  0  0  0
 31 30  1  0  0  0  0
 33  1  1  0  0  0  0
 33 35  1  0  0  0  0
 34 33  1  0  0  0  0
 35 38  1  0  0  0  0
 35 37  2  0  0  0  0
 36 35  2  0  0  0  0
 38 39  1  0  0  0  0
 41 40  1  0  0  0  0
 41 39  1  0  0  0  0
M  END
>  <minimizedAffinity>
-6.51903725

$$$$
