
 OpenBabel09122222393D

 41 44  0  0  1  0  0  0  0  0999 V2000
    7.0050   -5.7420    1.4450 C   0  0  0  0  0  0  0  0  0  0  0  0
    6.4220   -4.9780    2.4570 C   0  0  0  0  0  3  0  0  0  0  0  0
    6.9230   -3.7090    2.7660 C   0  0  0  0  0  3  0  0  0  0  0  0
    8.0030   -3.1770    2.0560 C   0  0  0  0  0  0  0  0  0  0  0  0
    8.5700   -3.9650    1.0690 C   0  0  0  0  0  0  0  0  0  0  0  0
    8.0980   -5.2460    0.7490 C   0  0  0  0  0  3  0  0  0  0  0  0
    9.9010   -3.2890    0.1750 S   0  0  0  0  0  0  0  0  0  0  0  0
   11.0650   -4.0470    0.5750 O   0  0  0  0  0  0  0  0  0  0  0  0
    9.4750   -3.2740   -1.2070 O   0  0  0  0  0  0  0  0  0  0  0  0
   10.0420   -1.7930    0.6970 N   0  0  0  0  0  0  0  0  0  0  0  0
    9.3620   -1.2780    1.6880 C   0  0  2  0  0  3  0  0  0  0  0  0
    8.4150   -1.9210    2.3500 N   0  0  0  0  0  0  0  0  0  0  0  0
   10.7360   -1.2120    0.2450 H   0  0  0  0  0  0  0  0  0  0  0  0
    7.9420   -1.4050    3.1080 H   0  0  0  0  0  0  0  0  0  0  0  0
    9.6910    0.1560    2.0890 C   0  0  0  0  0  0  0  0  0  0  0  0
    9.8220    1.1640    1.2070 C   0  0  0  0  0  0  0  0  0  0  0  0
   10.1050    2.5410    1.6480 C   0  0  0  0  0  0  0  0  0  0  0  0
   10.1050    3.6520    0.7910 C   0  0  0  0  0  3  0  0  0  0  0  0
   10.4020    4.9190    1.2860 C   0  0  0  0  0  3  0  0  0  0  0  0
   10.6820    5.0460    2.6300 C   0  0  0  0  0  3  0  0  0  0  0  0
   10.6630    4.0070    3.4880 N   0  0  0  0  0  0  0  0  0  0  0  0
   10.3640    2.7800    3.0030 C   0  0  0  0  0  0  0  0  0  0  0  0
   10.2740    1.7070    3.9240 N   0  0  0  0  0  0  0  0  0  0  0  0
    9.9000    0.4400    3.5410 C   0  0  0  0  0  0  0  0  0  0  0  0
    9.7600   -0.5030    4.3250 O   0  0  0  0  0  0  0  0  0  0  0  0
    9.7200    0.9100   -0.1570 O   0  0  0  0  0  0  0  0  0  0  0  0
   10.1440    1.6380   -0.6560 H   0  0  0  0  0  0  0  0  0  0  0  0
   10.5430    1.9880    5.3360 C   0  0  0  0  0  2  0  0  0  0  0  0
    9.3320    2.4880    6.1400 C   0  0  0  0  0  2  0  0  0  0  0  0
    9.3110    2.0490    7.6190 C   0  0  0  0  0  3  0  0  0  0  0  0
    7.9720    2.3520    8.2980 C   0  0  0  0  0  1  0  0  0  0  0  0
    9.5820    0.5430    7.7200 C   0  0  0  0  0  1  0  0  0  0  0  0
    6.3990   -6.9660    1.0680 N   0  0  0  0  0  0  0  0  0  0  0  0
    6.9590   -7.8190    1.0370 H   0  0  0  0  0  0  0  0  0  0  0  0
    5.1730   -6.9140   -0.1080 S   0  0  0  0  0  0  0  0  0  0  0  0
    5.6130   -7.6710   -1.2590 O   0  0  0  0  0  0  0  0  0  0  0  0
    4.7720   -5.5290   -0.2050 O   0  0  0  0  0  0  0  0  0  0  0  0
    3.8600   -7.8040    0.7280 C   0  0  0  0  0  2  0  0  0  0  0  0
    4.0640   -7.8890    2.2380 C   0  0  0  0  0  2  0  0  0  0  0  0
    3.9030  -10.3990    1.7690 C   0  0  0  0  0  1  0  0  0  0  0  0
    4.0330   -9.3070    2.8210 C   0  0  0  0  0  2  0  0  0  0  0  0
  1  2  1  0  0  0  0
  2  3  2  0  0  0  0
  4 12  1  0  0  0  0
  4  3  1  0  0  0  0
  5  4  2  0  0  0  0
  6  5  1  0  0  0  0
  6  1  2  0  0  0  0
  7  8  2  0  0  0  0
  7 10  1  0  0  0  0
  7  5  1  0  0  0  0
  9  7  2  0  0  0  0
 10 11  1  0  0  0  0
 11 15  1  6  0  0  0
 11 12  1  0  0  0  0
 12 14  1  0  0  0  0
 13 10  1  0  0  0  0
 15 24  1  0  0  0  0
 16 17  1  0  0  0  0
 16 15  2  0  0  0  0
 17 22  1  0  0  0  0
 18 19  1  0  0  0  0
 18 17  2  0  0  0  0
 19 20  2  0  0  0  0
 20 21  1  0  0  0  0
 22 21  2  0  0  0  0
 22 23  1  0  0  0  0
 23 28  1  0  0  0  0
 24 23  1  0  0  0  0
 24 25  2  0  0  0  0
 26 16  1  0  0  0  0
 27 26  1  0  0  0  0
 28 29  1  0  0  0  0
 29 30  1  0  0  0  0
 30 32  1  0  0  0  0
 30 31  1  0  0  0  0
 33  1  1  0  0  0  0
 34 33  1  0  0  0  0
 35 38  1  0  0  0  0
 35 33  1  0  0  0  0
 36 35  2  0  0  0  0
 37 35  2  0  0  0  0
 38 39  1  0  0  0  0
 39 41  1  0  0  0  0
 40 41  1  0  0  0  0
M  END
>  <minimizedAffinity>
-6.98879385

$$$$
