
 OpenBabel09122219243D

 28 30  0  0  0  0  0  0  0  0999 V2000
    5.3640   -3.5270    5.2520 C   0  0  0  0  0  0  0  0  0  0  0  0
    5.6890   -4.3200    4.1710 N   0  0  0  0  0  0  0  0  0  0  0  0
    4.8390   -4.3800    3.2050 C   0  0  0  0  0  0  0  0  0  0  0  0
    3.6540   -3.7180    3.1970 N   0  0  0  0  0  0  0  0  0  0  0  0
    3.2290   -2.9980    4.2740 C   0  0  0  0  0  0  0  0  0  0  0  0
    2.1180   -2.4820    4.2940 O   0  0  0  0  0  0  0  0  0  0  0  0
    4.1910   -2.8830    5.3880 C   0  0  0  0  0  0  0  0  0  0  0  0
    3.0350   -3.7750    2.4070 H   0  0  0  0  0  0  0  0  0  0  0  0
    5.2550   -4.9220    7.9030 C   0  0  0  0  0  1  0  0  0  0  0  0
    6.3800   -3.9980    7.5230 C   0  0  0  0  0  0  0  0  0  0  0  0
    7.4130   -3.7580    8.4440 C   0  0  0  0  0  3  0  0  0  0  0  0
    8.4770   -2.9140    8.1230 C   0  0  0  0  0  3  0  0  0  0  0  0
    8.5300   -2.3000    6.8760 C   0  0  0  0  0  3  0  0  0  0  0  0
    7.5090   -2.5210    5.9530 C   0  0  0  0  0  3  0  0  0  0  0  0
    6.4250   -3.3590    6.2680 C   0  0  0  0  0  0  0  0  0  0  0  0
    3.8280   -1.9940    6.5670 C   0  0  0  0  0  2  0  0  0  0  0  0
    3.5280   -1.2560    7.5450 N   0  0  0  0  0  1  0  0  0  0  0  0
    5.1950   -5.3160    1.7920 S   0  0  0  0  0  0  0  0  0  0  0  0
    6.9660   -5.6530    1.9330 C   0  0  0  0  0  2  0  0  0  0  0  0
    7.9010   -4.5610    1.4690 C   0  0  0  0  0  0  0  0  0  0  0  0
    8.5630   -4.6910    0.2350 C   0  0  0  0  0  3  0  0  0  0  0  0
    9.4280   -3.6960   -0.2250 C   0  0  0  0  0  3  0  0  0  0  0  0
    9.6400   -2.5470    0.5340 C   0  0  0  0  0  3  0  0  0  0  0  0
    8.9740   -2.3990    1.7580 C   0  0  0  0  0  0  0  0  0  0  0  0
    8.1020   -3.3940    2.2240 C   0  0  0  0  0  3  0  0  0  0  0  0
    9.1950   -1.1880    2.5590 N   0  0  0  0  0  0  0  0  0  0  0  0
    9.8050   -1.3110    3.6310 O   0  0  0  0  0  0  0  0  0  0  0  0
    8.7540   -0.1180    2.1210 O   0  0  0  0  0  0  0  0  0  0  0  0
  1  7  2  0  0  0  0
  1 15  1  0  0  0  0
  2  1  1  0  0  0  0
  3  2  2  0  0  0  0
  4  3  1  0  0  0  0
  4  5  1  0  0  0  0
  5  6  2  0  0  0  0
  5  7  1  0  0  0  0
  7 16  1  0  0  0  0
  8  4  1  0  0  0  0
 10  9  1  0  0  0  0
 10 11  1  0  0  0  0
 12 11  2  0  0  0  0
 13 12  1  0  0  0  0
 14 15  1  0  0  0  0
 14 13  2  0  0  0  0
 15 10  2  0  0  0  0
 16 17  1  0  0  0  0
 18 19  1  0  0  0  0
 18  3  1  0  0  0  0
 20 19  1  0  0  0  0
 20 25  1  0  0  0  0
 21 20  2  0  0  0  0
 22 21  1  0  0  0  0
 22 23  2  0  0  0  0
 23 24  1  0  0  0  0
 24 25  2  0  0  0  0
 24 26  1  0  0  0  0
 26 27  2  0  0  0  0
 28 26  2  0  0  0  0
M  END
>  <minimizedAffinity>
-6.80301571

$$$$

 OpenBabel09122219243D

 28 30  0  0  0  0  0  0  0  0999 V2000
    5.0860   -2.5890    6.9220 C   0  0  0  0  0  0  0  0  0  0  0  0
    6.1350   -1.7080    6.7600 N   0  0  0  0  0  0  0  0  0  0  0  0
    7.3070   -2.1170    7.1040 C   0  0  0  0  0  0  0  0  0  0  0  0
    7.5600   -3.3480    7.6160 N   0  0  0  0  0  0  0  0  0  0  0  0
    6.5560   -4.2280    7.8930 C   0  0  0  0  0  0  0  0  0  0  0  0
    6.7840   -5.3000    8.4410 O   0  0  0  0  0  0  0  0  0  0  0  0
    5.2020   -3.8050    7.4840 C   0  0  0  0  0  0  0  0  0  0  0  0
    8.4980   -3.6310    7.8440 H   0  0  0  0  0  0  0  0  0  0  0  0
    3.3030   -0.6940    8.4110 C   0  0  0  0  0  1  0  0  0  0  0  0
    2.9310   -1.2660    7.0700 C   0  0  0  0  0  0  0  0  0  0  0  0
    1.6970   -0.9220    6.4940 C   0  0  0  0  0  3  0  0  0  0  0  0
    1.3230   -1.4250    5.2480 C   0  0  0  0  0  3  0  0  0  0  0  0
    2.1750   -2.2780    4.5550 C   0  0  0  0  0  3  0  0  0  0  0  0
    3.4000   -2.6360    5.1150 C   0  0  0  0  0  3  0  0  0  0  0  0
    3.7850   -2.1460    6.3760 C   0  0  0  0  0  0  0  0  0  0  0  0
    4.0550   -4.7890    7.6530 C   0  0  0  0  0  2  0  0  0  0  0  0
    3.1040   -5.6060    7.7930 N   0  0  0  0  0  1  0  0  0  0  0  0
    8.6830   -1.0880    6.8870 S   0  0  0  0  0  0  0  0  0  0  0  0
    9.7500   -2.0260    5.7680 C   0  0  0  0  0  2  0  0  0  0  0  0
    9.4590   -1.9000    4.2920 C   0  0  0  0  0  0  0  0  0  0  0  0
    9.5650   -0.6450    3.6680 C   0  0  0  0  0  3  0  0  0  0  0  0
    9.3100   -0.4970    2.3020 C   0  0  0  0  0  3  0  0  0  0  0  0
    8.9510   -1.6020    1.5340 C   0  0  0  0  0  3  0  0  0  0  0  0
    8.8560   -2.8610    2.1420 C   0  0  0  0  0  0  0  0  0  0  0  0
    9.1150   -3.0160    3.5120 C   0  0  0  0  0  3  0  0  0  0  0  0
    8.4800   -4.0290    1.3330 N   0  0  0  0  0  0  0  0  0  0  0  0
    8.9880   -4.1370    0.2080 O   0  0  0  0  0  0  0  0  0  0  0  0
    7.6740   -4.8320    1.8200 O   0  0  0  0  0  0  0  0  0  0  0  0
  1  7  2  0  0  0  0
  2  1  1  0  0  0  0
  2  3  2  0  0  0  0
  3  4  1  0  0  0  0
  4  8  1  0  0  0  0
  4  5  1  0  0  0  0
  5  6  2  0  0  0  0
  7 16  1  0  0  0  0
  7  5  1  0  0  0  0
 10  9  1  0  0  0  0
 11 10  1  0  0  0  0
 12 11  2  0  0  0  0
 13 14  2  0  0  0  0
 13 12  1  0  0  0  0
 14 15  1  0  0  0  0
 15  1  1  0  0  0  0
 15 10  2  0  0  0  0
 16 17  1  0  0  0  0
 18  3  1  0  0  0  0
 19 18  1  0  0  0  0
 20 19  1  0  0  0  0
 21 20  1  0  0  0  0
 22 21  2  0  0  0  0
 23 24  2  0  0  0  0
 23 22  1  0  0  0  0
 24 25  1  0  0  0  0
 25 20  2  0  0  0  0
 26 28  2  0  0  0  0
 26 24  1  0  0  0  0
 27 26  2  0  0  0  0
M  END
>  <minimizedAffinity>
-6.54458094

$$$$

 OpenBabel09122219243D

 28 30  0  0  0  0  0  0  0  0999 V2000
    5.8960   -2.5560    6.4390 C   0  0  0  0  0  0  0  0  0  0  0  0
    7.1440   -2.7630    5.8890 N   0  0  0  0  0  0  0  0  0  0  0  0
    8.0970   -1.9910    6.2820 C   0  0  0  0  0  0  0  0  0  0  0  0
    7.9400   -0.9960    7.1910 N   0  0  0  0  0  0  0  0  0  0  0  0
    6.7140   -0.6760    7.6980 C   0  0  0  0  0  0  0  0  0  0  0  0
    6.5670    0.2840    8.4450 O   0  0  0  0  0  0  0  0  0  0  0  0
    5.6030   -1.5590    7.2910 C   0  0  0  0  0  0  0  0  0  0  0  0
    8.7220   -0.4360    7.4880 H   0  0  0  0  0  0  0  0  0  0  0  0
    5.2910   -4.9090    8.1960 C   0  0  0  0  0  1  0  0  0  0  0  0
    4.5790   -4.6720    6.8920 C   0  0  0  0  0  0  0  0  0  0  0  0
    3.6060   -5.5900    6.4630 C   0  0  0  0  0  3  0  0  0  0  0  0
    2.9190   -5.3980    5.2640 C   0  0  0  0  0  3  0  0  0  0  0  0
    3.1880   -4.2840    4.4760 C   0  0  0  0  0  3  0  0  0  0  0  0
    4.1550   -3.3660    4.8830 C   0  0  0  0  0  3  0  0  0  0  0  0
    4.8640   -3.5540    6.0820 C   0  0  0  0  0  0  0  0  0  0  0  0
    4.2350   -1.3320    7.9150 C   0  0  0  0  0  2  0  0  0  0  0  0
    3.1000   -1.1440    8.4320 N   0  0  0  0  0  1  0  0  0  0  0  0
    9.7040   -2.2170    5.6750 S   0  0  0  0  0  0  0  0  0  0  0  0
    9.4590   -3.1450    4.1420 C   0  0  0  0  0  2  0  0  0  0  0  0
    9.4920   -2.3500    2.8590 C   0  0  0  0  0  0  0  0  0  0  0  0
    9.1760   -0.9800    2.8820 C   0  0  0  0  0  3  0  0  0  0  0  0
    9.2050   -0.2160    1.7130 C   0  0  0  0  0  3  0  0  0  0  0  0
    9.5590   -0.8040    0.5010 C   0  0  0  0  0  3  0  0  0  0  0  0
    9.8910   -2.1650    0.4680 C   0  0  0  0  0  0  0  0  0  0  0  0
    9.8670   -2.9370    1.6390 C   0  0  0  0  0  3  0  0  0  0  0  0
   10.2670   -2.7870   -0.8080 N   0  0  0  0  0  0  0  0  0  0  0  0
    9.8870   -3.9480   -1.0160 O   0  0  0  0  0  0  0  0  0  0  0  0
   10.9460   -2.1190   -1.5990 O   0  0  0  0  0  0  0  0  0  0  0  0
  1  7  2  0  0  0  0
  2  3  2  0  0  0  0
  2  1  1  0  0  0  0
  3  4  1  0  0  0  0
  4  8  1  0  0  0  0
  4  5  1  0  0  0  0
  5  6  2  0  0  0  0
  7  5  1  0  0  0  0
  7 16  1  0  0  0  0
 10  9  1  0  0  0  0
 11 10  1  0  0  0  0
 12 11  2  0  0  0  0
 13 14  2  0  0  0  0
 13 12  1  0  0  0  0
 14 15  1  0  0  0  0
 15  1  1  0  0  0  0
 15 10  2  0  0  0  0
 16 17  1  0  0  0  0
 18  3  1  0  0  0  0
 19 18  1  0  0  0  0
 20 21  1  0  0  0  0
 20 19  1  0  0  0  0
 22 21  2  0  0  0  0
 23 22  1  0  0  0  0
 24 23  2  0  0  0  0
 24 25  1  0  0  0  0
 25 20  2  0  0  0  0
 26 24  1  0  0  0  0
 27 26  2  0  0  0  0
 28 26  2  0  0  0  0
M  END
>  <minimizedAffinity>
-6.52324772

$$$$

 OpenBabel09122219243D

 28 30  0  0  0  0  0  0  0  0999 V2000
    4.7970   -2.8190    6.7320 C   0  0  0  0  0  0  0  0  0  0  0  0
    5.9060   -2.0170    6.5580 N   0  0  0  0  0  0  0  0  0  0  0  0
    7.0380   -2.4810    6.9610 C   0  0  0  0  0  0  0  0  0  0  0  0
    7.1950   -3.6960    7.5440 N   0  0  0  0  0  0  0  0  0  0  0  0
    6.1270   -4.4940    7.8340 C   0  0  0  0  0  0  0  0  0  0  0  0
    6.2690   -5.5470    8.4450 O   0  0  0  0  0  0  0  0  0  0  0  0
    4.8160   -4.0080    7.3600 C   0  0  0  0  0  0  0  0  0  0  0  0
    8.1050   -4.0260    7.8180 H   0  0  0  0  0  0  0  0  0  0  0  0
    3.9190   -3.6750    3.9960 C   0  0  0  0  0  1  0  0  0  0  0  0
    3.1270   -2.7070    4.8320 C   0  0  0  0  0  0  0  0  0  0  0  0
    1.9400   -2.1620    4.3130 C   0  0  0  0  0  3  0  0  0  0  0  0
    1.1740   -1.2690    5.0630 C   0  0  0  0  0  3  0  0  0  0  0  0
    1.5780   -0.9070    6.3430 C   0  0  0  0  0  3  0  0  0  0  0  0
    2.7570   -1.4310    6.8710 C   0  0  0  0  0  3  0  0  0  0  0  0
    3.5450   -2.3230    6.1210 C   0  0  0  0  0  0  0  0  0  0  0  0
    3.6040   -4.9060    7.5430 C   0  0  0  0  0  2  0  0  0  0  0  0
    2.5970   -5.6500    7.6940 N   0  0  0  0  0  1  0  0  0  0  0  0
    8.4850   -1.5560    6.7350 S   0  0  0  0  0  0  0  0  0  0  0  0
    9.4320   -2.5230    5.5360 C   0  0  0  0  0  2  0  0  0  0  0  0
    9.3250   -2.0980    4.0900 C   0  0  0  0  0  0  0  0  0  0  0  0
    9.0420   -3.0600    3.1030 C   0  0  0  0  0  3  0  0  0  0  0  0
    8.9300   -2.6980    1.7590 C   0  0  0  0  0  3  0  0  0  0  0  0
    9.0890   -1.3680    1.3770 C   0  0  0  0  0  3  0  0  0  0  0  0
    9.3560   -0.3990    2.3530 C   0  0  0  0  0  0  0  0  0  0  0  0
    9.4670   -0.7560    3.7050 C   0  0  0  0  0  3  0  0  0  0  0  0
    9.5220    1.0050    1.9520 N   0  0  0  0  0  0  0  0  0  0  0  0
    9.8340    1.2340    0.7750 O   0  0  0  0  0  0  0  0  0  0  0  0
    9.3470    1.8750    2.8150 O   0  0  0  0  0  0  0  0  0  0  0  0
  1  7  2  0  0  0  0
  2  1  1  0  0  0  0
  2  3  2  0  0  0  0
  3  4  1  0  0  0  0
  4  8  1  0  0  0  0
  4  5  1  0  0  0  0
  5  6  2  0  0  0  0
  7 16  1  0  0  0  0
  7  5  1  0  0  0  0
  9 10  1  0  0  0  0
 10 15  1  0  0  0  0
 11 10  2  0  0  0  0
 11 12  1  0  0  0  0
 12 13  2  0  0  0  0
 13 14  1  0  0  0  0
 15  1  1  0  0  0  0
 15 14  2  0  0  0  0
 16 17  1  0  0  0  0
 18  3  1  0  0  0  0
 19 18  1  0  0  0  0
 20 19  1  0  0  0  0
 21 20  2  0  0  0  0
 22 21  1  0  0  0  0
 23 22  2  0  0  0  0
 23 24  1  0  0  0  0
 24 25  2  0  0  0  0
 25 20  1  0  0  0  0
 26 24  1  0  0  0  0
 26 28  2  0  0  0  0
 27 26  2  0  0  0  0
M  END
>  <minimizedAffinity>
-6.27577877

$$$$

 OpenBabel09122219243D

 28 30  0  0  0  0  0  0  0  0999 V2000
    5.7080   -2.8700    6.0800 C   0  0  0  0  0  0  0  0  0  0  0  0
    6.8590   -3.1840    5.3860 N   0  0  0  0  0  0  0  0  0  0  0  0
    7.9360   -2.5610    5.7170 C   0  0  0  0  0  0  0  0  0  0  0  0
    7.9980   -1.6220    6.6950 N   0  0  0  0  0  0  0  0  0  0  0  0
    6.8800   -1.1950    7.3500 C   0  0  0  0  0  0  0  0  0  0  0  0
    6.9310   -0.2810    8.1640 O   0  0  0  0  0  0  0  0  0  0  0  0
    5.6310   -1.9080    7.0160 C   0  0  0  0  0  0  0  0  0  0  0  0
    8.8700   -1.1820    6.9360 H   0  0  0  0  0  0  0  0  0  0  0  0
    4.9480   -5.2080    7.7960 C   0  0  0  0  0  1  0  0  0  0  0  0
    4.1670   -4.8190    6.5710 C   0  0  0  0  0  0  0  0  0  0  0  0
    3.0500   -5.5850    6.1960 C   0  0  0  0  0  3  0  0  0  0  0  0
    2.2960   -5.2490    5.0710 C   0  0  0  0  0  3  0  0  0  0  0  0
    2.6430   -4.1420    4.3030 C   0  0  0  0  0  3  0  0  0  0  0  0
    3.7530   -3.3760    4.6560 C   0  0  0  0  0  3  0  0  0  0  0  0
    4.5280   -3.7100    5.7800 C   0  0  0  0  0  0  0  0  0  0  0  0
    4.3730   -1.5650    7.7970 C   0  0  0  0  0  2  0  0  0  0  0  0
    3.3290   -1.2800    8.4450 N   0  0  0  0  0  1  0  0  0  0  0  0
    9.4320   -2.9330    4.9270 S   0  0  0  0  0  0  0  0  0  0  0  0
    8.9400   -3.3080    3.2270 C   0  0  0  0  0  2  0  0  0  0  0  0
    9.2670   -2.2660    2.1840 C   0  0  0  0  0  0  0  0  0  0  0  0
    9.6120   -2.6710    0.8820 C   0  0  0  0  0  3  0  0  0  0  0  0
    9.9130   -1.7320   -0.1070 C   0  0  0  0  0  3  0  0  0  0  0  0
    9.8660   -0.3710    0.1840 C   0  0  0  0  0  3  0  0  0  0  0  0
    9.5100    0.0460    1.4730 C   0  0  0  0  0  0  0  0  0  0  0  0
    9.2030   -0.8930    2.4690 C   0  0  0  0  0  3  0  0  0  0  0  0
    9.4580    1.4810    1.7810 N   0  0  0  0  0  0  0  0  0  0  0  0
    9.7960    2.2730    0.8900 O   0  0  0  0  0  0  0  0  0  0  0  0
    9.0870    1.8150    2.9130 O   0  0  0  0  0  0  0  0  0  0  0  0
  1  7  2  0  0  0  0
  2  3  2  0  0  0  0
  2  1  1  0  0  0  0
  3  4  1  0  0  0  0
  4  8  1  0  0  0  0
  4  5  1  0  0  0  0
  5  6  2  0  0  0  0
  7  5  1  0  0  0  0
  7 16  1  0  0  0  0
 10  9  1  0  0  0  0
 11 10  1  0  0  0  0
 12 11  2  0  0  0  0
 13 14  2  0  0  0  0
 13 12  1  0  0  0  0
 14 15  1  0  0  0  0
 15  1  1  0  0  0  0
 15 10  2  0  0  0  0
 16 17  1  0  0  0  0
 18  3  1  0  0  0  0
 19 18  1  0  0  0  0
 20 25  1  0  0  0  0
 20 19  1  0  0  0  0
 21 20  2  0  0  0  0
 22 23  2  0  0  0  0
 22 21  1  0  0  0  0
 23 24  1  0  0  0  0
 24 26  1  0  0  0  0
 24 25  2  0  0  0  0
 26 28  2  0  0  0  0
 27 26  2  0  0  0  0
M  END
>  <minimizedAffinity>
-6.01903248

$$$$

 OpenBabel09122219243D

 28 30  0  0  0  0  0  0  0  0999 V2000
    8.5940   -2.7930    3.1110 C   0  0  0  0  0  0  0  0  0  0  0  0
    8.3400   -3.2030    4.4030 N   0  0  0  0  0  0  0  0  0  0  0  0
    8.5650   -2.3550    5.3470 C   0  0  0  0  0  0  0  0  0  0  0  0
    9.0360   -1.0990    5.1400 N   0  0  0  0  0  0  0  0  0  0  0  0
    9.3990   -0.6660    3.8990 C   0  0  0  0  0  0  0  0  0  0  0  0
    9.9110    0.4350    3.7350 O   0  0  0  0  0  0  0  0  0  0  0  0
    9.1280   -1.6020    2.7890 C   0  0  0  0  0  0  0  0  0  0  0  0
    9.1700   -0.4630    5.9080 H   0  0  0  0  0  0  0  0  0  0  0  0
    5.9400   -4.1870    3.1660 C   0  0  0  0  0  1  0  0  0  0  0  0
    6.9430   -4.4040    2.0660 C   0  0  0  0  0  0  0  0  0  0  0  0
    6.6430   -5.3060    1.0320 C   0  0  0  0  0  3  0  0  0  0  0  0
    7.5450   -5.5270   -0.0100 C   0  0  0  0  0  3  0  0  0  0  0  0
    8.7580   -4.8480   -0.0380 C   0  0  0  0  0  3  0  0  0  0  0  0
    9.0750   -3.9550    0.9840 C   0  0  0  0  0  3  0  0  0  0  0  0
    8.1810   -3.7320    2.0460 C   0  0  0  0  0  0  0  0  0  0  0  0
    9.3970   -1.1330    1.3680 C   0  0  0  0  0  2  0  0  0  0  0  0
    9.6200   -0.7440    0.1890 N   0  0  0  0  0  1  0  0  0  0  0  0
    8.2270   -2.7780    6.9920 S   0  0  0  0  0  0  0  0  0  0  0  0
    6.6280   -3.6190    6.9010 C   0  0  0  0  0  2  0  0  0  0  0  0
    5.4000   -2.7420    6.9420 C   0  0  0  0  0  0  0  0  0  0  0  0
    5.3380   -1.6750    7.8570 C   0  0  0  0  0  3  0  0  0  0  0  0
    4.2190   -0.8420    7.9150 C   0  0  0  0  0  3  0  0  0  0  0  0
    3.1450   -1.0520    7.0540 C   0  0  0  0  0  3  0  0  0  0  0  0
    3.2010   -2.1020    6.1270 C   0  0  0  0  0  0  0  0  0  0  0  0
    4.3230   -2.9410    6.0630 C   0  0  0  0  0  3  0  0  0  0  0  0
    2.0700   -2.3250    5.2170 N   0  0  0  0  0  0  0  0  0  0  0  0
    1.2430   -1.4100    5.0920 O   0  0  0  0  0  0  0  0  0  0  0  0
    2.0050   -3.4150    4.6340 O   0  0  0  0  0  0  0  0  0  0  0  0
  1  2  1  0  0  0  0
  2  3  2  0  0  0  0
  3 18  1  0  0  0  0
  4  3  1  0  0  0  0
  4  8  1  0  0  0  0
  5  4  1  0  0  0  0
  6  5  2  0  0  0  0
  7  1  2  0  0  0  0
  7  5  1  0  0  0  0
 10  9  1  0  0  0  0
 11 10  2  0  0  0  0
 12 11  1  0  0  0  0
 13 12  2  0  0  0  0
 13 14  1  0  0  0  0
 14 15  2  0  0  0  0
 15 10  1  0  0  0  0
 15  1  1  0  0  0  0
 16  7  1  0  0  0  0
 17 16  1  0  0  0  0
 19 20  1  0  0  0  0
 19 18  1  0  0  0  0
 20 21  1  0  0  0  0
 21 22  2  0  0  0  0
 23 22  1  0  0  0  0
 24 23  2  0  0  0  0
 25 24  1  0  0  0  0
 25 20  2  0  0  0  0
 26 24  1  0  0  0  0
 27 26  2  0  0  0  0
 28 26  2  0  0  0  0
M  END
>  <minimizedAffinity>
-5.87202311

$$$$

 OpenBabel09122219243D

 28 30  0  0  0  0  0  0  0  0999 V2000
    9.4100   -0.7150    1.9230 C   0  0  0  0  0  0  0  0  0  0  0  0
    9.4490    0.3040    0.9940 N   0  0  0  0  0  0  0  0  0  0  0  0
    9.7930    1.4730    1.4150 C   0  0  0  0  0  0  0  0  0  0  0  0
   10.1080    1.7500    2.7050 N   0  0  0  0  0  0  0  0  0  0  0  0
    9.9930    0.8120    3.6880 C   0  0  0  0  0  0  0  0  0  0  0  0
   10.1890    1.0970    4.8640 O   0  0  0  0  0  0  0  0  0  0  0  0
    9.6300   -0.5460    3.2380 C   0  0  0  0  0  0  0  0  0  0  0  0
   10.3980    2.6740    2.9800 H   0  0  0  0  0  0  0  0  0  0  0  0
   10.8310   -1.7320   -0.5140 C   0  0  0  0  0  1  0  0  0  0  0  0
    9.8130   -2.5540    0.2290 C   0  0  0  0  0  0  0  0  0  0  0  0
    9.4950   -3.8400   -0.2390 C   0  0  0  0  0  3  0  0  0  0  0  0
    8.5630   -4.6350    0.4280 C   0  0  0  0  0  3  0  0  0  0  0  0
    7.9360   -4.1620    1.5760 C   0  0  0  0  0  3  0  0  0  0  0  0
    8.2340   -2.8850    2.0500 C   0  0  0  0  0  3  0  0  0  0  0  0
    9.1620   -2.0690    1.3800 C   0  0  0  0  0  0  0  0  0  0  0  0
    9.6040   -1.6650    4.2670 C   0  0  0  0  0  2  0  0  0  0  0  0
    9.5830   -2.5940    5.1210 N   0  0  0  0  0  1  0  0  0  0  0  0
    9.9130    2.7940    0.3030 S   0  0  0  0  0  0  0  0  0  0  0  0
   10.5540    4.1510    1.3130 C   0  0  0  0  0  2  0  0  0  0  0  0
   10.0470    5.5350    0.9860 C   0  0  0  0  0  0  0  0  0  0  0  0
    9.6290    5.8300   -0.3240 C   0  0  0  0  0  3  0  0  0  0  0  0
    9.1480    7.0990   -0.6560 C   0  0  0  0  0  3  0  0  0  0  0  0
    9.0670    8.0930    0.3160 C   0  0  0  0  0  3  0  0  0  0  0  0
    9.4660    7.8070    1.6280 C   0  0  0  0  0  0  0  0  0  0  0  0
    9.9470    6.5340    1.9680 C   0  0  0  0  0  3  0  0  0  0  0  0
    9.3800    8.8530    2.6550 N   0  0  0  0  0  0  0  0  0  0  0  0
   10.4350    9.2170    3.1950 O   0  0  0  0  0  0  0  0  0  0  0  0
    8.2610    9.3060    2.9250 O   0  0  0  0  0  0  0  0  0  0  0  0
  1  7  2  0  0  0  0
  2  3  2  0  0  0  0
  2  1  1  0  0  0  0
  3  4  1  0  0  0  0
  4  8  1  0  0  0  0
  4  5  1  0  0  0  0
  5  6  2  0  0  0  0
  7  5  1  0  0  0  0
  7 16  1  0  0  0  0
  9 10  1  0  0  0  0
 10 15  1  0  0  0  0
 11 10  2  0  0  0  0
 11 12  1  0  0  0  0
 12 13  2  0  0  0  0
 13 14  1  0  0  0  0
 15  1  1  0  0  0  0
 15 14  2  0  0  0  0
 16 17  1  0  0  0  0
 18 19  1  0  0  0  0
 18  3  1  0  0  0  0
 20 19  1  0  0  0  0
 20 25  1  0  0  0  0
 21 20  2  0  0  0  0
 22 21  1  0  0  0  0
 22 23  2  0  0  0  0
 23 24  1  0  0  0  0
 24 25  2  0  0  0  0
 24 26  1  0  0  0  0
 26 28  2  0  0  0  0
 26 27  2  0  0  0  0
M  END
>  <minimizedAffinity>
-5.81221056

$$$$

 OpenBabel09122219243D

 28 30  0  0  0  0  0  0  0  0999 V2000
    7.9330   -3.2290    2.8450 C   0  0  0  0  0  0  0  0  0  0  0  0
    6.6560   -3.6530    2.5400 N   0  0  0  0  0  0  0  0  0  0  0  0
    5.8280   -3.7830    3.5180 C   0  0  0  0  0  0  0  0  0  0  0  0
    6.1420   -3.5340    4.8140 N   0  0  0  0  0  0  0  0  0  0  0  0
    7.4110   -3.2080    5.1940 C   0  0  0  0  0  0  0  0  0  0  0  0
    7.7070   -3.0780    6.3760 O   0  0  0  0  0  0  0  0  0  0  0  0
    8.3810   -3.0220    4.0950 C   0  0  0  0  0  0  0  0  0  0  0  0
    5.4530   -3.6240    5.5410 H   0  0  0  0  0  0  0  0  0  0  0  0
    8.6880   -0.4310    2.0780 C   0  0  0  0  0  1  0  0  0  0  0  0
    9.1600   -1.6340    1.3080 C   0  0  0  0  0  0  0  0  0  0  0  0
    9.9700   -1.4490    0.1750 C   0  0  0  0  0  3  0  0  0  0  0  0
   10.4350   -2.5410   -0.5590 C   0  0  0  0  0  3  0  0  0  0  0  0
   10.1020   -3.8350   -0.1720 C   0  0  0  0  0  3  0  0  0  0  0  0
    9.2930   -4.0360    0.9460 C   0  0  0  0  0  3  0  0  0  0  0  0
    8.8080   -2.9440    1.6870 C   0  0  0  0  0  0  0  0  0  0  0  0
    9.7800   -2.5400    4.4410 C   0  0  0  0  0  2  0  0  0  0  0  0
   10.9420   -2.1400    4.7280 N   0  0  0  0  0  1  0  0  0  0  0  0
    4.1930   -4.2650    3.2130 S   0  0  0  0  0  0  0  0  0  0  0  0
    3.8200   -5.4070    4.5640 C   0  0  0  0  0  2  0  0  0  0  0  0
    3.3700   -4.7890    5.8660 C   0  0  0  0  0  0  0  0  0  0  0  0
    3.3530   -5.5700    7.0360 C   0  0  0  0  0  3  0  0  0  0  0  0
    2.9500   -5.0260    8.2580 C   0  0  0  0  0  3  0  0  0  0  0  0
    2.5630   -3.6900    8.3350 C   0  0  0  0  0  3  0  0  0  0  0  0
    2.5900   -2.8980    7.1800 C   0  0  0  0  0  0  0  0  0  0  0  0
    2.9980   -3.4380    5.9510 C   0  0  0  0  0  3  0  0  0  0  0  0
    2.1850   -1.4880    7.2590 N   0  0  0  0  0  0  0  0  0  0  0  0
    1.7980   -0.9410    6.2160 O   0  0  0  0  0  0  0  0  0  0  0  0
    2.2600   -0.9270    8.3600 O   0  0  0  0  0  0  0  0  0  0  0  0
  1  7  2  0  0  0  0
  2  1  1  0  0  0  0
  2  3  2  0  0  0  0
  3  4  1  0  0  0  0
  4  5  1  0  0  0  0
  4  8  1  0  0  0  0
  5  6  2  0  0  0  0
  7 16  1  0  0  0  0
  7  5  1  0  0  0  0
 10 15  1  0  0  0  0
 10  9  1  0  0  0  0
 11 10  2  0  0  0  0
 12 13  2  0  0  0  0
 12 11  1  0  0  0  0
 13 14  1  0  0  0  0
 14 15  2  0  0  0  0
 15  1  1  0  0  0  0
 16 17  1  0  0  0  0
 18  3  1  0  0  0  0
 18 19  1  0  0  0  0
 19 20  1  0  0  0  0
 20 25  2  0  0  0  0
 20 21  1  0  0  0  0
 21 22  2  0  0  0  0
 22 23  1  0  0  0  0
 24 26  1  0  0  0  0
 24 23  2  0  0  0  0
 25 24  1  0  0  0  0
 26 28  2  0  0  0  0
 27 26  2  0  0  0  0
M  END
>  <minimizedAffinity>
-5.60270977

$$$$

 OpenBabel09122219243D

 28 30  0  0  0  0  0  0  0  0999 V2000
   10.1220    3.2600    5.3010 C   0  0  0  0  0  0  0  0  0  0  0  0
    9.9920    2.7900    4.0110 N   0  0  0  0  0  0  0  0  0  0  0  0
   10.2520    3.6110    3.0540 C   0  0  0  0  0  0  0  0  0  0  0  0
   10.6370    4.8990    3.2450 N   0  0  0  0  0  0  0  0  0  0  0  0
   10.6890    5.4540    4.4900 C   0  0  0  0  0  0  0  0  0  0  0  0
   10.9450    6.6420    4.6450 O   0  0  0  0  0  0  0  0  0  0  0  0
   10.4250    4.5330    5.6130 C   0  0  0  0  0  0  0  0  0  0  0  0
   10.8560    5.4950    2.4650 H   0  0  0  0  0  0  0  0  0  0  0  0
    7.8020    3.3070    7.2000 C   0  0  0  0  0  1  0  0  0  0  0  0
    8.8880    2.2690    7.2780 C   0  0  0  0  0  0  0  0  0  0  0  0
    8.8330    1.2930    8.2870 C   0  0  0  0  0  3  0  0  0  0  0  0
    9.8170    0.3080    8.3850 C   0  0  0  0  0  3  0  0  0  0  0  0
   10.8700    0.2810    7.4770 C   0  0  0  0  0  3  0  0  0  0  0  0
   10.9440    1.2470    6.4750 C   0  0  0  0  0  3  0  0  0  0  0  0
    9.9660    2.2510    6.3710 C   0  0  0  0  0  0  0  0  0  0  0  0
   10.5860    5.0570    7.0310 C   0  0  0  0  0  2  0  0  0  0  0  0
   10.7190    5.4930    8.2070 N   0  0  0  0  0  1  0  0  0  0  0  0
   10.1600    3.0840    1.4070 S   0  0  0  0  0  0  0  0  0  0  0  0
    9.4810    1.4120    1.5280 C   0  0  0  0  0  2  0  0  0  0  0  0
    9.9000    0.4330    0.4570 C   0  0  0  0  0  0  0  0  0  0  0  0
   10.5380    0.9060   -0.7040 C   0  0  0  0  0  3  0  0  0  0  0  0
   10.9440    0.0250   -1.7100 C   0  0  0  0  0  3  0  0  0  0  0  0
   10.7300   -1.3440   -1.5700 C   0  0  0  0  0  3  0  0  0  0  0  0
   10.1090   -1.8280   -0.4110 C   0  0  0  0  0  0  0  0  0  0  0  0
    9.7020   -0.9490    0.6040 C   0  0  0  0  0  3  0  0  0  0  0  0
    9.8840   -3.2720   -0.2600 N   0  0  0  0  0  0  0  0  0  0  0  0
   10.4220   -4.0270   -1.0820 O   0  0  0  0  0  0  0  0  0  0  0  0
    9.1640   -3.6490    0.6740 O   0  0  0  0  0  0  0  0  0  0  0  0
  1  7  2  0  0  0  0
  1 15  1  0  0  0  0
  2  1  1  0  0  0  0
  3  4  1  0  0  0  0
  3  2  2  0  0  0  0
  4  5  1  0  0  0  0
  5  6  2  0  0  0  0
  5  7  1  0  0  0  0
  7 16  1  0  0  0  0
  8  4  1  0  0  0  0
  9 10  1  0  0  0  0
 10 11  1  0  0  0  0
 11 12  2  0  0  0  0
 13 12  1  0  0  0  0
 14 13  2  0  0  0  0
 15 14  1  0  0  0  0
 15 10  2  0  0  0  0
 16 17  1  0  0  0  0
 18 19  1  0  0  0  0
 18  3  1  0  0  0  0
 20 25  1  0  0  0  0
 20 19  1  0  0  0  0
 21 20  2  0  0  0  0
 22 23  2  0  0  0  0
 22 21  1  0  0  0  0
 23 24  1  0  0  0  0
 24 26  1  0  0  0  0
 24 25  2  0  0  0  0
 26 28  2  0  0  0  0
 27 26  2  0  0  0  0
M  END
>  <minimizedAffinity>
-5.51904631

$$$$

 OpenBabel09122219243D

 28 30  0  0  0  0  0  0  0  0999 V2000
    5.1730   -3.6730    5.0120 C   0  0  0  0  0  0  0  0  0  0  0  0
    6.4790   -3.2410    4.9030 N   0  0  0  0  0  0  0  0  0  0  0  0
    7.1220   -3.5710    3.8370 C   0  0  0  0  0  0  0  0  0  0  0  0
    6.5930   -4.3140    2.8320 N   0  0  0  0  0  0  0  0  0  0  0  0
    5.3440   -4.8540    2.9220 C   0  0  0  0  0  0  0  0  0  0  0  0
    4.9100   -5.6010    2.0530 O   0  0  0  0  0  0  0  0  0  0  0  0
    4.5660   -4.4730    4.1180 C   0  0  0  0  0  0  0  0  0  0  0  0
    7.1270   -4.5220    2.0050 H   0  0  0  0  0  0  0  0  0  0  0  0
    5.0780   -5.1300    7.6310 C   0  0  0  0  0  1  0  0  0  0  0  0
    4.3550   -3.8300    7.4040 C   0  0  0  0  0  0  0  0  0  0  0  0
    3.5880   -3.2800    8.4440 C   0  0  0  0  0  3  0  0  0  0  0  0
    2.9110   -2.0720    8.2740 C   0  0  0  0  0  3  0  0  0  0  0  0
    2.9910   -1.3920    7.0630 C   0  0  0  0  0  3  0  0  0  0  0  0
    3.7420   -1.9270    6.0170 C   0  0  0  0  0  3  0  0  0  0  0  0
    4.4190   -3.1500    6.1720 C   0  0  0  0  0  0  0  0  0  0  0  0
    3.1230   -4.9410    4.2210 C   0  0  0  0  0  2  0  0  0  0  0  0
    1.9260   -5.3300    4.3070 N   0  0  0  0  0  1  0  0  0  0  0  0
    8.7490   -3.0270    3.6020 S   0  0  0  0  0  0  0  0  0  0  0  0
    8.5830   -1.6630    2.4260 C   0  0  0  0  0  2  0  0  0  0  0  0
    9.3740   -1.7760    1.1440 C   0  0  0  0  0  0  0  0  0  0  0  0
    9.8160   -3.0380    0.7090 C   0  0  0  0  0  3  0  0  0  0  0  0
   10.5430   -3.1770   -0.4750 C   0  0  0  0  0  3  0  0  0  0  0  0
   10.8350   -2.0580   -1.2520 C   0  0  0  0  0  3  0  0  0  0  0  0
   10.3870   -0.7970   -0.8370 C   0  0  0  0  0  0  0  0  0  0  0  0
    9.6530   -0.6520    0.3500 C   0  0  0  0  0  3  0  0  0  0  0  0
   10.6920    0.3850   -1.6550 N   0  0  0  0  0  0  0  0  0  0  0  0
   10.7390    1.4830   -1.0840 O   0  0  0  0  0  0  0  0  0  0  0  0
   10.8770    0.2150   -2.8670 O   0  0  0  0  0  0  0  0  0  0  0  0
  1 15  1  0  0  0  0
  2  1  1  0  0  0  0
  3  2  2  0  0  0  0
  4  5  1  0  0  0  0
  4  3  1  0  0  0  0
  5  7  1  0  0  0  0
  6  5  2  0  0  0  0
  7 16  1  0  0  0  0
  7  1  2  0  0  0  0
  8  4  1  0  0  0  0
 10  9  1  0  0  0  0
 10 11  1  0  0  0  0
 12 11  2  0  0  0  0
 13 12  1  0  0  0  0
 14 15  1  0  0  0  0
 14 13  2  0  0  0  0
 15 10  2  0  0  0  0
 16 17  1  0  0  0  0
 18  3  1  0  0  0  0
 19 18  1  0  0  0  0
 20 19  1  0  0  0  0
 21 20  1  0  0  0  0
 22 21  2  0  0  0  0
 23 24  2  0  0  0  0
 23 22  1  0  0  0  0
 24 25  1  0  0  0  0
 25 20  2  0  0  0  0
 26 27  2  0  0  0  0
 26 24  1  0  0  0  0
 28 26  2  0  0  0  0
M  END
>  <minimizedAffinity>
-5.49647617

$$$$
