
 OpenBabel09122222393D

 28 30  0  0  0  0  0  0  0  0999 V2000
    5.1730   -3.6730    5.0120 C   0  0  0  0  0  0  0  0  0  0  0  0
    6.4790   -3.2410    4.9030 N   0  0  0  0  0  0  0  0  0  0  0  0
    7.1220   -3.5710    3.8370 C   0  0  0  0  0  0  0  0  0  0  0  0
    6.5930   -4.3140    2.8320 N   0  0  0  0  0  0  0  0  0  0  0  0
    5.3440   -4.8540    2.9220 C   0  0  0  0  0  0  0  0  0  0  0  0
    4.9100   -5.6010    2.0530 O   0  0  0  0  0  0  0  0  0  0  0  0
    4.5660   -4.4730    4.1180 C   0  0  0  0  0  0  0  0  0  0  0  0
    7.1270   -4.5220    2.0050 H   0  0  0  0  0  0  0  0  0  0  0  0
    5.0780   -5.1300    7.6310 C   0  0  0  0  0  1  0  0  0  0  0  0
    4.3550   -3.8300    7.4040 C   0  0  0  0  0  0  0  0  0  0  0  0
    3.5880   -3.2800    8.4440 C   0  0  0  0  0  3  0  0  0  0  0  0
    2.9110   -2.0720    8.2740 C   0  0  0  0  0  3  0  0  0  0  0  0
    2.9910   -1.3920    7.0630 C   0  0  0  0  0  3  0  0  0  0  0  0
    3.7420   -1.9270    6.0170 C   0  0  0  0  0  3  0  0  0  0  0  0
    4.4190   -3.1500    6.1720 C   0  0  0  0  0  0  0  0  0  0  0  0
    3.1230   -4.9410    4.2210 C   0  0  0  0  0  2  0  0  0  0  0  0
    1.9260   -5.3300    4.3070 N   0  0  0  0  0  1  0  0  0  0  0  0
    8.7490   -3.0270    3.6020 S   0  0  0  0  0  0  0  0  0  0  0  0
    8.5830   -1.6630    2.4260 C   0  0  0  0  0  2  0  0  0  0  0  0
    9.3740   -1.7760    1.1440 C   0  0  0  0  0  0  0  0  0  0  0  0
    9.8160   -3.0380    0.7090 C   0  0  0  0  0  3  0  0  0  0  0  0
   10.5430   -3.1770   -0.4750 C   0  0  0  0  0  3  0  0  0  0  0  0
   10.8350   -2.0580   -1.2520 C   0  0  0  0  0  3  0  0  0  0  0  0
   10.3870   -0.7970   -0.8370 C   0  0  0  0  0  0  0  0  0  0  0  0
    9.6530   -0.6520    0.3500 C   0  0  0  0  0  3  0  0  0  0  0  0
   10.6920    0.3850   -1.6550 N   0  0  0  0  0  0  0  0  0  0  0  0
   10.7390    1.4830   -1.0840 O   0  0  0  0  0  0  0  0  0  0  0  0
   10.8770    0.2150   -2.8670 O   0  0  0  0  0  0  0  0  0  0  0  0
  1 15  1  0  0  0  0
  2  1  1  0  0  0  0
  3  2  2  0  0  0  0
  4  5  1  0  0  0  0
  4  3  1  0  0  0  0
  5  7  1  0  0  0  0
  6  5  2  0  0  0  0
  7 16  1  0  0  0  0
  7  1  2  0  0  0  0
  8  4  1  0  0  0  0
 10  9  1  0  0  0  0
 10 11  1  0  0  0  0
 12 11  2  0  0  0  0
 13 12  1  0  0  0  0
 14 15  1  0  0  0  0
 14 13  2  0  0  0  0
 15 10  2  0  0  0  0
 16 17  1  0  0  0  0
 18  3  1  0  0  0  0
 19 18  1  0  0  0  0
 20 19  1  0  0  0  0
 21 20  1  0  0  0  0
 22 21  2  0  0  0  0
 23 24  2  0  0  0  0
 23 22  1  0  0  0  0
 24 25  1  0  0  0  0
 25 20  2  0  0  0  0
 26 27  2  0  0  0  0
 26 24  1  0  0  0  0
 28 26  2  0  0  0  0
M  END
>  <minimizedAffinity>
-5.49647617

$$$$
