
 OpenBabel09122222393D

 28 30  0  0  0  0  0  0  0  0999 V2000
    7.9330   -3.2290    2.8450 C   0  0  0  0  0  0  0  0  0  0  0  0
    6.6560   -3.6530    2.5400 N   0  0  0  0  0  0  0  0  0  0  0  0
    5.8280   -3.7830    3.5180 C   0  0  0  0  0  0  0  0  0  0  0  0
    6.1420   -3.5340    4.8140 N   0  0  0  0  0  0  0  0  0  0  0  0
    7.4110   -3.2080    5.1940 C   0  0  0  0  0  0  0  0  0  0  0  0
    7.7070   -3.0780    6.3760 O   0  0  0  0  0  0  0  0  0  0  0  0
    8.3810   -3.0220    4.0950 C   0  0  0  0  0  0  0  0  0  0  0  0
    5.4530   -3.6240    5.5410 H   0  0  0  0  0  0  0  0  0  0  0  0
    8.6880   -0.4310    2.0780 C   0  0  0  0  0  1  0  0  0  0  0  0
    9.1600   -1.6340    1.3080 C   0  0  0  0  0  0  0  0  0  0  0  0
    9.9700   -1.4490    0.1750 C   0  0  0  0  0  3  0  0  0  0  0  0
   10.4350   -2.5410   -0.5590 C   0  0  0  0  0  3  0  0  0  0  0  0
   10.1020   -3.8350   -0.1720 C   0  0  0  0  0  3  0  0  0  0  0  0
    9.2930   -4.0360    0.9460 C   0  0  0  0  0  3  0  0  0  0  0  0
    8.8080   -2.9440    1.6870 C   0  0  0  0  0  0  0  0  0  0  0  0
    9.7800   -2.5400    4.4410 C   0  0  0  0  0  2  0  0  0  0  0  0
   10.9420   -2.1400    4.7280 N   0  0  0  0  0  1  0  0  0  0  0  0
    4.1930   -4.2650    3.2130 S   0  0  0  0  0  0  0  0  0  0  0  0
    3.8200   -5.4070    4.5640 C   0  0  0  0  0  2  0  0  0  0  0  0
    3.3700   -4.7890    5.8660 C   0  0  0  0  0  0  0  0  0  0  0  0
    3.3530   -5.5700    7.0360 C   0  0  0  0  0  3  0  0  0  0  0  0
    2.9500   -5.0260    8.2580 C   0  0  0  0  0  3  0  0  0  0  0  0
    2.5630   -3.6900    8.3350 C   0  0  0  0  0  3  0  0  0  0  0  0
    2.5900   -2.8980    7.1800 C   0  0  0  0  0  0  0  0  0  0  0  0
    2.9980   -3.4380    5.9510 C   0  0  0  0  0  3  0  0  0  0  0  0
    2.1850   -1.4880    7.2590 N   0  0  0  0  0  0  0  0  0  0  0  0
    1.7980   -0.9410    6.2160 O   0  0  0  0  0  0  0  0  0  0  0  0
    2.2600   -0.9270    8.3600 O   0  0  0  0  0  0  0  0  0  0  0  0
  1  7  2  0  0  0  0
  2  1  1  0  0  0  0
  2  3  2  0  0  0  0
  3  4  1  0  0  0  0
  4  5  1  0  0  0  0
  4  8  1  0  0  0  0
  5  6  2  0  0  0  0
  7 16  1  0  0  0  0
  7  5  1  0  0  0  0
 10 15  1  0  0  0  0
 10  9  1  0  0  0  0
 11 10  2  0  0  0  0
 12 13  2  0  0  0  0
 12 11  1  0  0  0  0
 13 14  1  0  0  0  0
 14 15  2  0  0  0  0
 15  1  1  0  0  0  0
 16 17  1  0  0  0  0
 18  3  1  0  0  0  0
 18 19  1  0  0  0  0
 19 20  1  0  0  0  0
 20 25  2  0  0  0  0
 20 21  1  0  0  0  0
 21 22  2  0  0  0  0
 22 23  1  0  0  0  0
 24 26  1  0  0  0  0
 24 23  2  0  0  0  0
 25 24  1  0  0  0  0
 26 28  2  0  0  0  0
 27 26  2  0  0  0  0
M  END
>  <minimizedAffinity>
-5.60270977

$$$$
