
 OpenBabel09122222393D

 28 30  0  0  0  0  0  0  0  0999 V2000
    5.3640   -3.5270    5.2520 C   0  0  0  0  0  0  0  0  0  0  0  0
    5.6890   -4.3200    4.1710 N   0  0  0  0  0  0  0  0  0  0  0  0
    4.8390   -4.3800    3.2050 C   0  0  0  0  0  0  0  0  0  0  0  0
    3.6540   -3.7180    3.1970 N   0  0  0  0  0  0  0  0  0  0  0  0
    3.2290   -2.9980    4.2740 C   0  0  0  0  0  0  0  0  0  0  0  0
    2.1180   -2.4820    4.2940 O   0  0  0  0  0  0  0  0  0  0  0  0
    4.1910   -2.8830    5.3880 C   0  0  0  0  0  0  0  0  0  0  0  0
    3.0350   -3.7750    2.4070 H   0  0  0  0  0  0  0  0  0  0  0  0
    5.2550   -4.9220    7.9030 C   0  0  0  0  0  1  0  0  0  0  0  0
    6.3800   -3.9980    7.5230 C   0  0  0  0  0  0  0  0  0  0  0  0
    7.4130   -3.7580    8.4440 C   0  0  0  0  0  3  0  0  0  0  0  0
    8.4770   -2.9140    8.1230 C   0  0  0  0  0  3  0  0  0  0  0  0
    8.5300   -2.3000    6.8760 C   0  0  0  0  0  3  0  0  0  0  0  0
    7.5090   -2.5210    5.9530 C   0  0  0  0  0  3  0  0  0  0  0  0
    6.4250   -3.3590    6.2680 C   0  0  0  0  0  0  0  0  0  0  0  0
    3.8280   -1.9940    6.5670 C   0  0  0  0  0  2  0  0  0  0  0  0
    3.5280   -1.2560    7.5450 N   0  0  0  0  0  1  0  0  0  0  0  0
    5.1950   -5.3160    1.7920 S   0  0  0  0  0  0  0  0  0  0  0  0
    6.9660   -5.6530    1.9330 C   0  0  0  0  0  2  0  0  0  0  0  0
    7.9010   -4.5610    1.4690 C   0  0  0  0  0  0  0  0  0  0  0  0
    8.5630   -4.6910    0.2350 C   0  0  0  0  0  3  0  0  0  0  0  0
    9.4280   -3.6960   -0.2250 C   0  0  0  0  0  3  0  0  0  0  0  0
    9.6400   -2.5470    0.5340 C   0  0  0  0  0  3  0  0  0  0  0  0
    8.9740   -2.3990    1.7580 C   0  0  0  0  0  0  0  0  0  0  0  0
    8.1020   -3.3940    2.2240 C   0  0  0  0  0  3  0  0  0  0  0  0
    9.1950   -1.1880    2.5590 N   0  0  0  0  0  0  0  0  0  0  0  0
    9.8050   -1.3110    3.6310 O   0  0  0  0  0  0  0  0  0  0  0  0
    8.7540   -0.1180    2.1210 O   0  0  0  0  0  0  0  0  0  0  0  0
  1  7  2  0  0  0  0
  1 15  1  0  0  0  0
  2  1  1  0  0  0  0
  3  2  2  0  0  0  0
  4  3  1  0  0  0  0
  4  5  1  0  0  0  0
  5  6  2  0  0  0  0
  5  7  1  0  0  0  0
  7 16  1  0  0  0  0
  8  4  1  0  0  0  0
 10  9  1  0  0  0  0
 10 11  1  0  0  0  0
 12 11  2  0  0  0  0
 13 12  1  0  0  0  0
 14 15  1  0  0  0  0
 14 13  2  0  0  0  0
 15 10  2  0  0  0  0
 16 17  1  0  0  0  0
 18 19  1  0  0  0  0
 18  3  1  0  0  0  0
 20 19  1  0  0  0  0
 20 25  1  0  0  0  0
 21 20  2  0  0  0  0
 22 21  1  0  0  0  0
 22 23  2  0  0  0  0
 23 24  1  0  0  0  0
 24 25  2  0  0  0  0
 24 26  1  0  0  0  0
 26 27  2  0  0  0  0
 28 26  2  0  0  0  0
M  END
>  <minimizedAffinity>
-6.80301571

$$$$
