
 OpenBabel09122222393D

 28 30  0  0  0  0  0  0  0  0999 V2000
    5.0860   -2.5890    6.9220 C   0  0  0  0  0  0  0  0  0  0  0  0
    6.1350   -1.7080    6.7600 N   0  0  0  0  0  0  0  0  0  0  0  0
    7.3070   -2.1170    7.1040 C   0  0  0  0  0  0  0  0  0  0  0  0
    7.5600   -3.3480    7.6160 N   0  0  0  0  0  0  0  0  0  0  0  0
    6.5560   -4.2280    7.8930 C   0  0  0  0  0  0  0  0  0  0  0  0
    6.7840   -5.3000    8.4410 O   0  0  0  0  0  0  0  0  0  0  0  0
    5.2020   -3.8050    7.4840 C   0  0  0  0  0  0  0  0  0  0  0  0
    8.4980   -3.6310    7.8440 H   0  0  0  0  0  0  0  0  0  0  0  0
    3.3030   -0.6940    8.4110 C   0  0  0  0  0  1  0  0  0  0  0  0
    2.9310   -1.2660    7.0700 C   0  0  0  0  0  0  0  0  0  0  0  0
    1.6970   -0.9220    6.4940 C   0  0  0  0  0  3  0  0  0  0  0  0
    1.3230   -1.4250    5.2480 C   0  0  0  0  0  3  0  0  0  0  0  0
    2.1750   -2.2780    4.5550 C   0  0  0  0  0  3  0  0  0  0  0  0
    3.4000   -2.6360    5.1150 C   0  0  0  0  0  3  0  0  0  0  0  0
    3.7850   -2.1460    6.3760 C   0  0  0  0  0  0  0  0  0  0  0  0
    4.0550   -4.7890    7.6530 C   0  0  0  0  0  2  0  0  0  0  0  0
    3.1040   -5.6060    7.7930 N   0  0  0  0  0  1  0  0  0  0  0  0
    8.6830   -1.0880    6.8870 S   0  0  0  0  0  0  0  0  0  0  0  0
    9.7500   -2.0260    5.7680 C   0  0  0  0  0  2  0  0  0  0  0  0
    9.4590   -1.9000    4.2920 C   0  0  0  0  0  0  0  0  0  0  0  0
    9.5650   -0.6450    3.6680 C   0  0  0  0  0  3  0  0  0  0  0  0
    9.3100   -0.4970    2.3020 C   0  0  0  0  0  3  0  0  0  0  0  0
    8.9510   -1.6020    1.5340 C   0  0  0  0  0  3  0  0  0  0  0  0
    8.8560   -2.8610    2.1420 C   0  0  0  0  0  0  0  0  0  0  0  0
    9.1150   -3.0160    3.5120 C   0  0  0  0  0  3  0  0  0  0  0  0
    8.4800   -4.0290    1.3330 N   0  0  0  0  0  0  0  0  0  0  0  0
    8.9880   -4.1370    0.2080 O   0  0  0  0  0  0  0  0  0  0  0  0
    7.6740   -4.8320    1.8200 O   0  0  0  0  0  0  0  0  0  0  0  0
  1  7  2  0  0  0  0
  2  1  1  0  0  0  0
  2  3  2  0  0  0  0
  3  4  1  0  0  0  0
  4  8  1  0  0  0  0
  4  5  1  0  0  0  0
  5  6  2  0  0  0  0
  7 16  1  0  0  0  0
  7  5  1  0  0  0  0
 10  9  1  0  0  0  0
 11 10  1  0  0  0  0
 12 11  2  0  0  0  0
 13 14  2  0  0  0  0
 13 12  1  0  0  0  0
 14 15  1  0  0  0  0
 15  1  1  0  0  0  0
 15 10  2  0  0  0  0
 16 17  1  0  0  0  0
 18  3  1  0  0  0  0
 19 18  1  0  0  0  0
 20 19  1  0  0  0  0
 21 20  1  0  0  0  0
 22 21  2  0  0  0  0
 23 24  2  0  0  0  0
 23 22  1  0  0  0  0
 24 25  1  0  0  0  0
 25 20  2  0  0  0  0
 26 28  2  0  0  0  0
 26 24  1  0  0  0  0
 27 26  2  0  0  0  0
M  END
>  <minimizedAffinity>
-6.54458094

$$$$
