REMARK  Name = 
REMARK  6 active torsions:
REMARK  status: ('A' for Active; 'I' for Inactive)
REMARK    1  A    between atoms: C_2  and  C_3
REMARK    2  A    between atoms: C_4  and  C_5
REMARK    3  A    between atoms: C_13  and  S_14
REMARK    4  A    between atoms: S_14  and  C_15
REMARK    5  A    between atoms: C_15  and  C_16
REMARK    6  A    between atoms: C_20  and  N_21
REMARK                            x       y       z     vdW  Elec       q    Type
REMARK                         _______ _______ _______ _____ _____    ______ ____
ROOT
ATOM      1  C   UNL     1       3.756  -0.013   0.096  0.00  0.00    +0.142 A 
ATOM      2  C   UNL     1       4.521   1.057   0.376  0.00  0.00    +0.096 A 
ATOM      3  N   UNL     1       5.899   1.056   0.308  0.00  0.00    -0.222 NA
ATOM      4  C   UNL     1       6.476  -0.020  -0.105  0.00  0.00    +0.170 A 
ATOM      5  N   UNL     1       5.805  -1.142  -0.469  0.00  0.00    -0.301 N 
ATOM      6  C   UNL     1       4.451  -1.240  -0.342  0.00  0.00    +0.270 A 
ATOM      7  O   UNL     1       3.866  -2.288  -0.591  0.00  0.00    -0.266 OA
ATOM      8  H   UNL     1       6.292  -1.951  -0.816  0.00  0.00    +0.171 HD
ENDROOT
BRANCH   2   9
ATOM      9  C   UNL     1       3.902   2.362   0.692  0.00  0.00    +0.002 A 
ATOM     10  C   UNL     1       3.219   2.580   1.896  0.00  0.00    +0.011 A 
ATOM     11  C   UNL     1       2.628   3.821   2.156  0.00  0.00    +0.016 A 
ATOM     12  C   UNL     1       2.725   4.846   1.217  0.00  0.00    +0.018 A 
ATOM     13 BR   UNL     1       1.922   6.521   1.568  0.00  0.00    -0.050 Br
ATOM     14  C   UNL     1       3.412   4.648   0.022  0.00  0.00    +0.016 A 
ATOM     15  C   UNL     1       4.003   3.409  -0.237  0.00  0.00    +0.011 A 
ENDBRANCH   2   9
BRANCH   1  17
ATOM     16  N   UNL     1       0.975  -0.013   0.096  0.00  0.00    -0.191 NA
ATOM     17  C   UNL     1       2.236  -0.013   0.096  0.00  0.00    +0.107 C 
ENDBRANCH   1  17
BRANCH   4  18
ATOM     18  S   UNL     1       8.200  -0.061  -0.278  0.00  0.00    -0.083 S 
BRANCH  18  19
ATOM     19  C   UNL     1       8.683  -1.645   0.445  0.00  0.00    +0.112 C 
BRANCH  19  20
ATOM     20  C   UNL     1       7.990  -2.034   1.729  0.00  0.00    -0.031 A 
ATOM     21  C   UNL     1       7.342  -3.278   1.821  0.00  0.00    +0.005 A 
ATOM     22  C   UNL     1       6.712  -3.675   3.003  0.00  0.00    +0.007 A 
ATOM     23  C   UNL     1       6.726  -2.839   4.118  0.00  0.00    +0.084 A 
ATOM     24  C   UNL     1       7.380  -1.604   4.043  0.00  0.00    +0.273 A 
ATOM     25  C   UNL     1       8.016  -1.200   2.859  0.00  0.00    +0.088 A 
BRANCH  24  26
ATOM     26  N   UNL     1       7.405  -0.726   5.220  0.00  0.00    +0.080 N 
ATOM     27  O   UNL     1       6.782  -1.094   6.226  0.00  0.00    +0.041 OA
ATOM     28  O   UNL     1       8.047   0.330   5.138  0.00  0.00    -0.576 OA
ENDBRANCH  24  26
ENDBRANCH  19  20
ENDBRANCH  18  19
ENDBRANCH   4  18
TORSDOF 6
