
 OpenBabel09122222393D

 28 30  0  0  0  0  0  0  0  0999 V2000
    9.0190   -3.6950    0.7220 C   0  0  0  0  0  0  0  0  0  0  0  0
    8.4620   -3.5320    1.9350 C   0  0  0  0  0  0  0  0  0  0  0  0
    7.3590   -4.2350    2.3740 N   0  0  0  0  0  0  0  0  0  0  0  0
    6.8760   -5.1400    1.5930 C   0  0  0  0  0  0  0  0  0  0  0  0
    7.3890   -5.4310    0.3710 N   0  0  0  0  0  0  0  0  0  0  0  0
    8.4210   -4.7160   -0.1610 C   0  0  0  0  0  0  0  0  0  0  0  0
    8.8180   -4.9320   -1.3010 O   0  0  0  0  0  0  0  0  0  0  0  0
    7.0020   -6.1670   -0.1950 H   0  0  0  0  0  0  0  0  0  0  0  0
    9.0770   -2.6290    2.9300 C   0  0  0  0  0  0  0  0  0  0  0  0
    9.6800   -3.1200    4.0960 C   0  0  0  0  0  3  0  0  0  0  0  0
   10.2360   -2.2370    5.0270 C   0  0  0  0  0  3  0  0  0  0  0  0
   10.1970   -0.8640    4.7900 C   0  0  0  0  0  0  0  0  0  0  0  0
   10.9460    0.3290    6.0520 Br  0  0  0  0  0  0  0  0  0  0  0  0
    9.6140   -0.3620    3.6300 C   0  0  0  0  0  3  0  0  0  0  0  0
    9.0590   -1.2450    2.7000 C   0  0  0  0  0  3  0  0  0  0  0  0
   11.3170   -2.3940   -0.1510 N   0  0  0  0  0  1  0  0  0  0  0  0
   10.2750   -2.9840    0.2450 C   0  0  0  0  0  2  0  0  0  0  0  0
    5.5340   -6.1030    2.1170 S   0  0  0  0  0  0  0  0  0  0  0  0
    4.1990   -4.9110    2.3630 C   0  0  0  0  0  2  0  0  0  0  0  0
    3.9590   -4.4570    3.7830 C   0  0  0  0  0  0  0  0  0  0  0  0
    4.5880   -5.1300    4.8440 C   0  0  0  0  0  3  0  0  0  0  0  0
    4.4040   -4.7180    6.1660 C   0  0  0  0  0  3  0  0  0  0  0  0
    3.5950   -3.6200    6.4510 C   0  0  0  0  0  3  0  0  0  0  0  0
    2.9740   -2.9330    5.4010 C   0  0  0  0  0  0  0  0  0  0  0  0
    3.1560   -3.3410    4.0710 C   0  0  0  0  0  3  0  0  0  0  0  0
    2.1290   -1.7690    5.6980 N   0  0  0  0  0  0  0  0  0  0  0  0
    1.2170   -1.5030    4.9030 O   0  0  0  0  0  0  0  0  0  0  0  0
    2.3780   -1.1220    6.7240 O   0  0  0  0  0  0  0  0  0  0  0  0
  1  2  2  0  0  0  0
  2  3  1  0  0  0  0
  2  9  1  0  0  0  0
  4 18  1  0  0  0  0
  4  3  2  0  0  0  0
  5  4  1  0  0  0  0
  6  5  1  0  0  0  0
  6  1  1  0  0  0  0
  7  6  2  0  0  0  0
  8  5  1  0  0  0  0
  9 10  1  0  0  0  0
 10 11  2  0  0  0  0
 12 11  1  0  0  0  0
 12 13  1  0  0  0  0
 14 12  2  0  0  0  0
 15  9  2  0  0  0  0
 15 14  1  0  0  0  0
 16 17  1  0  0  0  0
 17  1  1  0  0  0  0
 18 19  1  0  0  0  0
 19 20  1  0  0  0  0
 20 25  2  0  0  0  0
 20 21  1  0  0  0  0
 21 22  2  0  0  0  0
 22 23  1  0  0  0  0
 24 26  1  0  0  0  0
 24 23  2  0  0  0  0
 25 24  1  0  0  0  0
 26 28  2  0  0  0  0
 27 26  2  0  0  0  0
M  END
>  <minimizedAffinity>
-7.41385126

$$$$
