
 OpenBabel09122222393D

 28 30  0  0  0  0  0  0  0  0999 V2000
    7.1200   -5.4990    0.3180 C   0  0  0  0  0  0  0  0  0  0  0  0
    6.9600   -5.2080    1.6210 C   0  0  0  0  0  0  0  0  0  0  0  0
    7.7460   -4.3090    2.3110 N   0  0  0  0  0  0  0  0  0  0  0  0
    8.6480   -3.6720    1.6460 C   0  0  0  0  0  0  0  0  0  0  0  0
    8.8640   -3.8410    0.3170 N   0  0  0  0  0  0  0  0  0  0  0  0
    8.1850   -4.7760   -0.4060 C   0  0  0  0  0  0  0  0  0  0  0  0
    8.4500   -4.9800   -1.5850 O   0  0  0  0  0  0  0  0  0  0  0  0
    9.5580   -3.3000   -0.1710 H   0  0  0  0  0  0  0  0  0  0  0  0
    5.8350   -5.7860    2.3870 C   0  0  0  0  0  0  0  0  0  0  0  0
    4.8700   -4.9760    3.0010 C   0  0  0  0  0  3  0  0  0  0  0  0
    3.8290   -5.5540    3.7350 C   0  0  0  0  0  3  0  0  0  0  0  0
    3.7470   -6.9400    3.8510 C   0  0  0  0  0  0  0  0  0  0  0  0
    2.3420   -7.7190    4.8470 Br  0  0  0  0  0  0  0  0  0  0  0  0
    4.6920   -7.7580    3.2350 C   0  0  0  0  0  3  0  0  0  0  0  0
    5.7310   -7.1810    2.5010 C   0  0  0  0  0  3  0  0  0  0  0  0
    5.4750   -7.2060   -1.1360 N   0  0  0  0  0  1  0  0  0  0  0  0
    6.2210   -6.4320   -0.4770 C   0  0  0  0  0  2  0  0  0  0  0  0
    9.6220   -2.4790    2.4410 S   0  0  0  0  0  0  0  0  0  0  0  0
    8.7900   -0.9150    2.0860 C   0  0  0  0  0  2  0  0  0  0  0  0
    9.4820    0.0040    1.1070 C   0  0  0  0  0  0  0  0  0  0  0  0
   10.0030   -0.5190   -0.0890 C   0  0  0  0  0  3  0  0  0  0  0  0
   10.6280    0.3100   -1.0240 C   0  0  0  0  0  3  0  0  0  0  0  0
   10.7350    1.6790   -0.7840 C   0  0  0  0  0  3  0  0  0  0  0  0
   10.2070    2.2130    0.3970 C   0  0  0  0  0  0  0  0  0  0  0  0
    9.5770    1.3860    1.3390 C   0  0  0  0  0  3  0  0  0  0  0  0
   10.3100    3.6570    0.6470 N   0  0  0  0  0  0  0  0  0  0  0  0
   11.3300    4.0720    1.2150 O   0  0  0  0  0  0  0  0  0  0  0  0
    9.3710    4.3740    0.2740 O   0  0  0  0  0  0  0  0  0  0  0  0
  1  2  2  0  0  0  0
  2  3  1  0  0  0  0
  2  9  1  0  0  0  0
  4  3  2  0  0  0  0
  4 18  1  0  0  0  0
  5  4  1  0  0  0  0
  6  5  1  0  0  0  0
  6  1  1  0  0  0  0
  7  6  2  0  0  0  0
  8  5  1  0  0  0  0
  9 15  2  0  0  0  0
  9 10  1  0  0  0  0
 10 11  2  0  0  0  0
 11 12  1  0  0  0  0
 12 13  1  0  0  0  0
 14 12  2  0  0  0  0
 15 14  1  0  0  0  0
 16 17  1  0  0  0  0
 17  1  1  0  0  0  0
 19 18  1  0  0  0  0
 20 25  1  0  0  0  0
 20 19  1  0  0  0  0
 21 20  2  0  0  0  0
 22 23  2  0  0  0  0
 22 21  1  0  0  0  0
 23 24  1  0  0  0  0
 24 26  1  0  0  0  0
 24 25  2  0  0  0  0
 26 27  2  0  0  0  0
 28 26  2  0  0  0  0
M  END
>  <minimizedAffinity>
-7.63993025

$$$$
