
 OpenBabel09122222393D

 28 30  0  0  0  0  0  0  0  0999 V2000
    8.4490   -2.7060    4.7820 C   0  0  0  0  0  0  0  0  0  0  0  0
    7.9680   -2.8870    3.5400 C   0  0  0  0  0  0  0  0  0  0  0  0
    6.7450   -3.4650    3.2650 N   0  0  0  0  0  0  0  0  0  0  0  0
    6.0030   -3.7950    4.2660 C   0  0  0  0  0  0  0  0  0  0  0  0
    6.3590   -3.6090    5.5620 N   0  0  0  0  0  0  0  0  0  0  0  0
    7.5870   -3.1270    5.9050 C   0  0  0  0  0  0  0  0  0  0  0  0
    7.9300   -3.0460    7.0790 O   0  0  0  0  0  0  0  0  0  0  0  0
    5.7360   -3.8530    6.3140 H   0  0  0  0  0  0  0  0  0  0  0  0
    8.7050   -2.3740    2.3650 C   0  0  0  0  0  0  0  0  0  0  0  0
    9.4740   -3.2180    1.5530 C   0  0  0  0  0  3  0  0  0  0  0  0
   10.1750   -2.6980    0.4600 C   0  0  0  0  0  3  0  0  0  0  0  0
   10.1030   -1.3360    0.1750 C   0  0  0  0  0  0  0  0  0  0  0  0
   11.0550   -0.6330   -1.3000 Br  0  0  0  0  0  0  0  0  0  0  0  0
    9.3330   -0.4870    0.9650 C   0  0  0  0  0  3  0  0  0  0  0  0
    8.6310   -1.0070    2.0560 C   0  0  0  0  0  3  0  0  0  0  0  0
   10.8470   -1.4300    5.3800 N   0  0  0  0  0  1  0  0  0  0  0  0
    9.7600   -2.0090    5.1090 C   0  0  0  0  0  2  0  0  0  0  0  0
    4.4270   -4.4620    3.9860 S   0  0  0  0  0  0  0  0  0  0  0  0
    4.7480   -6.1700    3.4920 C   0  0  0  0  0  2  0  0  0  0  0  0
    5.0530   -6.3980    2.0310 C   0  0  0  0  0  0  0  0  0  0  0  0
    4.1630   -7.1490    1.2430 C   0  0  0  0  0  3  0  0  0  0  0  0
    4.4070   -7.3570   -0.1170 C   0  0  0  0  0  3  0  0  0  0  0  0
    5.5410   -6.8110   -0.7160 C   0  0  0  0  0  3  0  0  0  0  0  0
    6.4270   -6.0500    0.0550 C   0  0  0  0  0  0  0  0  0  0  0  0
    6.1860   -5.8350    1.4210 C   0  0  0  0  0  3  0  0  0  0  0  0
    7.6160   -5.4640   -0.5770 N   0  0  0  0  0  0  0  0  0  0  0  0
    8.7180   -5.7050   -0.0630 O   0  0  0  0  0  0  0  0  0  0  0  0
    7.4490   -4.7640   -1.5850 O   0  0  0  0  0  0  0  0  0  0  0  0
  1 17  1  0  0  0  0
  1  6  1  0  0  0  0
  2  1  2  0  0  0  0
  3  2  1  0  0  0  0
  3  4  2  0  0  0  0
  4  5  1  0  0  0  0
  5  6  1  0  0  0  0
  5  8  1  0  0  0  0
  6  7  2  0  0  0  0
  9  2  1  0  0  0  0
 10  9  2  0  0  0  0
 11 10  1  0  0  0  0
 12 11  2  0  0  0  0
 12 14  1  0  0  0  0
 13 12  1  0  0  0  0
 14 15  2  0  0  0  0
 15  9  1  0  0  0  0
 17 16  1  0  0  0  0
 18  4  1  0  0  0  0
 19 18  1  0  0  0  0
 20 19  1  0  0  0  0
 21 20  2  0  0  0  0
 22 21  1  0  0  0  0
 23 22  2  0  0  0  0
 23 24  1  0  0  0  0
 24 25  2  0  0  0  0
 25 20  1  0  0  0  0
 26 27  2  0  0  0  0
 26 24  1  0  0  0  0
 28 26  2  0  0  0  0
M  END
>  <minimizedAffinity>
-7.26995468

$$$$
