REMARK  Name = 
REMARK  7 active torsions:
REMARK  status: ('A' for Active; 'I' for Inactive)
REMARK    1  A    between atoms: C_2  and  C_3
REMARK    2  A    between atoms: C_4  and  C_5
REMARK    3  A    between atoms: C_14  and  S_15
REMARK    4  A    between atoms: S_15  and  C_16
REMARK    5  A    between atoms: C_16  and  C_17
REMARK    6  A    between atoms: C_20  and  O_21
REMARK    7  A    between atoms: O_21  and  C_22
REMARK                            x       y       z     vdW  Elec       q    Type
REMARK                         _______ _______ _______ _____ _____    ______ ____
ROOT
ATOM      1  C   UNL     1       3.709   0.067  -0.015  0.00  0.00    +0.142 A 
ATOM      2  C   UNL     1       4.453   1.176   0.143  0.00  0.00    +0.098 A 
ATOM      3  N   UNL     1       5.830   1.189   0.152  0.00  0.00    -0.222 NA
ATOM      4  C   UNL     1       6.442   0.077  -0.090  0.00  0.00    +0.170 A 
ATOM      5  N   UNL     1       5.792  -1.092  -0.328  0.00  0.00    -0.301 N 
ATOM      6  C   UNL     1       4.431  -1.193  -0.262  0.00  0.00    +0.270 A 
ATOM      7  O   UNL     1       3.864  -2.268  -0.412  0.00  0.00    -0.266 OA
ATOM      8  H   UNL     1       6.285  -1.945  -0.529  0.00  0.00    +0.171 HD
ENDROOT
BRANCH   2   9
ATOM      9  C   UNL     1       3.804   2.499   0.275  0.00  0.00    +0.020 A 
ATOM     10  C   UNL     1       3.579   3.020   1.558  0.00  0.00    +0.013 A 
ATOM     11  C   UNL     1       2.960   4.263   1.717  0.00  0.00    +0.021 A 
ATOM     12  C   UNL     1       2.570   4.993   0.595  0.00  0.00    +0.042 A 
ATOM     13 CL   UNL     1       1.811   6.524   0.797  0.00  0.00    -0.083 Cl
ATOM     14  C   UNL     1       2.793   4.497  -0.686  0.00  0.00    +0.040 A 
ATOM     15  C   UNL     1       3.409   3.254  -0.846  0.00  0.00    +0.052 A 
ATOM     16 CL   UNL     1       3.661   2.683  -2.461  0.00  0.00    -0.083 Cl
ENDBRANCH   2   9
BRANCH   1  18
ATOM     17  N   UNL     1       0.928   0.067  -0.015  0.00  0.00    -0.191 NA
ATOM     18  C   UNL     1       2.189   0.067  -0.015  0.00  0.00    +0.107 C 
ENDBRANCH   1  18
BRANCH   4  19
ATOM     19  S   UNL     1       8.176   0.095  -0.163  0.00  0.00    -0.083 S 
BRANCH  19  20
ATOM     20  C   UNL     1       8.724  -1.588   0.175  0.00  0.00    +0.112 C 
BRANCH  20  21
ATOM     21  C   UNL     1       8.159  -2.253   1.406  0.00  0.00    -0.037 A 
ATOM     22  C   UNL     1       7.731  -3.586   1.334  0.00  0.00    +0.008 A 
ATOM     23  C   UNL     1       7.232  -4.235   2.464  0.00  0.00    +0.046 A 
ATOM     24  C   UNL     1       7.158  -3.577   3.693  0.00  0.00    +0.130 A 
ATOM     25  C   UNL     1       7.604  -2.259   3.781  0.00  0.00    +0.046 A 
ATOM     26  C   UNL     1       8.109  -1.606   2.649  0.00  0.00    +0.008 A 
BRANCH  24  27
ATOM     27  O   UNL     1       6.650  -4.336   4.708  0.00  0.00    -0.406 OA
BRANCH  27  28
ATOM     28  C   UNL     1       6.488  -3.723   5.975  0.00  0.00    +0.575 C 
ATOM     29  F   UNL     1       7.677  -3.331   6.481  0.00  0.00    -0.133 F 
ATOM     30  F   UNL     1       5.657  -2.662   5.900  0.00  0.00    -0.133 F 
ATOM     31  F   UNL     1       5.946  -4.623   6.825  0.00  0.00    -0.133 F 
ENDBRANCH  27  28
ENDBRANCH  24  27
ENDBRANCH  20  21
ENDBRANCH  19  20
ENDBRANCH   4  19
TORSDOF 7
