
 OpenBabel09132204463D

 31 33  0  0  0  0  0  0  0  0999 V2000
    3.5130   -6.1220    5.7290 C   0  0  0  0  0  0  0  0  0  0  0  0
    4.1810   -5.0620    5.2390 C   0  0  0  0  0  0  0  0  0  0  0  0
    4.6370   -4.9660    3.9430 N   0  0  0  0  0  0  0  0  0  0  0  0
    4.3290   -5.9190    3.1270 C   0  0  0  0  0  0  0  0  0  0  0  0
    3.6030   -7.0070    3.4950 N   0  0  0  0  0  0  0  0  0  0  0  0
    3.1980   -7.2080    4.7840 C   0  0  0  0  0  0  0  0  0  0  0  0
    2.6030   -8.2260    5.1140 O   0  0  0  0  0  0  0  0  0  0  0  0
    3.3600   -7.7320    2.8420 H   0  0  0  0  0  0  0  0  0  0  0  0
    4.4310   -3.8780    6.0900 C   0  0  0  0  0  0  0  0  0  0  0  0
    5.5600   -3.8670    6.9240 C   0  0  0  0  0  3  0  0  0  0  0  0
    5.8190   -2.7670    7.7460 C   0  0  0  0  0  3  0  0  0  0  0  0
    4.9560   -1.6720    7.7350 C   0  0  0  0  0  0  0  0  0  0  0  0
    5.2820   -0.3200    8.7480 Cl  0  0  0  0  0  0  0  0  0  0  0  0
    3.8360   -1.6610    6.9080 C   0  0  0  0  0  3  0  0  0  0  0  0
    3.5750   -2.7600    6.0880 C   0  0  0  0  0  0  0  0  0  0  0  0
    2.1680   -2.6960    5.0810 Cl  0  0  0  0  0  0  0  0  0  0  0  0
    2.6150   -6.2960    8.3550 N   0  0  0  0  0  1  0  0  0  0  0  0
    3.0220   -6.2170    7.1640 C   0  0  0  0  0  2  0  0  0  0  0  0
    4.8270   -5.7720    1.4710 S   0  0  0  0  0  0  0  0  0  0  0  0
    6.5410   -6.3220    1.3970 C   0  0  0  0  0  2  0  0  0  0  0  0
    7.5500   -5.3330    0.8660 C   0  0  0  0  0  0  0  0  0  0  0  0
    7.8780   -5.3470   -0.4960 C   0  0  0  0  0  3  0  0  0  0  0  0
    8.7860   -4.4250   -1.0190 C   0  0  0  0  0  3  0  0  0  0  0  0
    9.3780   -3.4610   -0.2020 C   0  0  0  0  0  0  0  0  0  0  0  0
    9.0400   -3.4230    1.1500 C   0  0  0  0  0  3  0  0  0  0  0  0
    8.1260   -4.3450    1.6780 C   0  0  0  0  0  3  0  0  0  0  0  0
   10.2430   -2.6280   -0.8500 O   0  0  0  0  0  0  0  0  0  0  0  0
   11.5930   -3.0410   -0.9730 C   0  0  0  0  0  0  0  0  0  0  0  0
   11.9760   -3.7760    0.0930 F   0  0  0  0  0  0  0  0  0  0  0  0
   11.7830   -3.7530   -2.1040 F   0  0  0  0  0  0  0  0  0  0  0  0
   12.3780   -1.9430   -1.0310 F   0  0  0  0  0  0  0  0  0  0  0  0
  1 18  1  0  0  0  0
  2  1  2  0  0  0  0
  2  9  1  0  0  0  0
  3  2  1  0  0  0  0
  4  5  1  0  0  0  0
  4  3  2  0  0  0  0
  5  6  1  0  0  0  0
  6  7  2  0  0  0  0
  6  1  1  0  0  0  0
  8  5  1  0  0  0  0
  9 10  1  0  0  0  0
 10 11  2  0  0  0  0
 12 11  1  0  0  0  0
 12 13  1  0  0  0  0
 14 12  2  0  0  0  0
 15  9  2  0  0  0  0
 15 14  1  0  0  0  0
 16 15  1  0  0  0  0
 18 17  1  0  0  0  0
 19  4  1  0  0  0  0
 20 19  1  0  0  0  0
 21 20  1  0  0  0  0
 21 26  1  0  0  0  0
 22 21  2  0  0  0  0
 23 22  1  0  0  0  0
 23 24  2  0  0  0  0
 24 25  1  0  0  0  0
 25 26  2  0  0  0  0
 27 24  1  0  0  0  0
 28 27  1  0  0  0  0
 28 29  1  0  0  0  0
 30 28  1  0  0  0  0
 31 28  1  0  0  0  0
M  END
>  <minimizedAffinity>
-7.0457325

$$$$
