
 OpenBabel09132204463D

 31 33  0  0  0  0  0  0  0  0999 V2000
   10.2900    3.4030    4.8630 C   0  0  0  0  0  0  0  0  0  0  0  0
    9.8750    2.7540    5.9650 C   0  0  0  0  0  0  0  0  0  0  0  0
    9.8250    1.3830    6.0840 N   0  0  0  0  0  0  0  0  0  0  0  0
   10.2870    0.6790    5.1030 C   0  0  0  0  0  0  0  0  0  0  0  0
   10.7910    1.2280    3.9670 N   0  0  0  0  0  0  0  0  0  0  0  0
   10.7860    2.5770    3.7480 C   0  0  0  0  0  0  0  0  0  0  0  0
   11.1820    3.0520    2.6910 O   0  0  0  0  0  0  0  0  0  0  0  0
   11.1590    0.6650    3.2210 H   0  0  0  0  0  0  0  0  0  0  0  0
    9.4760    3.5110    7.1720 C   0  0  0  0  0  0  0  0  0  0  0  0
    8.1150    3.7760    7.3890 C   0  0  0  0  0  3  0  0  0  0  0  0
    7.7060    4.4960    8.5140 C   0  0  0  0  0  3  0  0  0  0  0  0
    8.6540    4.9490    9.4310 C   0  0  0  0  0  0  0  0  0  0  0  0
    8.1440    5.8330   10.8160 Cl  0  0  0  0  0  0  0  0  0  0  0  0
   10.0080    4.6890    9.2380 C   0  0  0  0  0  3  0  0  0  0  0  0
   10.4170    3.9710    8.1120 C   0  0  0  0  0  0  0  0  0  0  0  0
   12.1130    3.6770    7.9190 Cl  0  0  0  0  0  0  0  0  0  0  0  0
   10.3670    6.1740    4.6450 N   0  0  0  0  0  1  0  0  0  0  0  0
   10.3320    4.9170    4.7430 C   0  0  0  0  0  2  0  0  0  0  0  0
   10.3070   -1.0480    5.2730 S   0  0  0  0  0  0  0  0  0  0  0  0
    9.0930   -1.6950    4.1080 C   0  0  0  0  0  2  0  0  0  0  0  0
    9.4930   -1.7220    2.6530 C   0  0  0  0  0  0  0  0  0  0  0  0
   10.2460   -2.7990    2.1660 C   0  0  0  0  0  3  0  0  0  0  0  0
   10.6050   -2.8640    0.8190 C   0  0  0  0  0  3  0  0  0  0  0  0
   10.2130   -1.8670   -0.0750 C   0  0  0  0  0  0  0  0  0  0  0  0
    9.4430   -0.8040    0.3940 C   0  0  0  0  0  3  0  0  0  0  0  0
    9.0780   -0.7370    1.7450 C   0  0  0  0  0  3  0  0  0  0  0  0
   10.6360   -2.0640   -1.3590 O   0  0  0  0  0  0  0  0  0  0  0  0
   11.1350   -0.9450   -2.0700 C   0  0  0  0  0  0  0  0  0  0  0  0
   11.6820   -0.0400   -1.2300 F   0  0  0  0  0  0  0  0  0  0  0  0
   12.0500   -1.3200   -2.9880 F   0  0  0  0  0  0  0  0  0  0  0  0
   10.1090   -0.3510   -2.7170 F   0  0  0  0  0  0  0  0  0  0  0  0
  1  2  2  0  0  0  0
  2  3  1  0  0  0  0
  2  9  1  0  0  0  0
  4 19  1  0  0  0  0
  4  3  2  0  0  0  0
  5  4  1  0  0  0  0
  6  5  1  0  0  0  0
  6  1  1  0  0  0  0
  7  6  2  0  0  0  0
  8  5  1  0  0  0  0
  9 10  2  0  0  0  0
  9 15  1  0  0  0  0
 10 11  1  0  0  0  0
 11 12  2  0  0  0  0
 12 13  1  0  0  0  0
 14 12  1  0  0  0  0
 15 14  2  0  0  0  0
 16 15  1  0  0  0  0
 17 18  1  0  0  0  0
 18  1  1  0  0  0  0
 20 19  1  0  0  0  0
 21 20  1  0  0  0  0
 22 21  1  0  0  0  0
 23 22  2  0  0  0  0
 24 25  2  0  0  0  0
 24 23  1  0  0  0  0
 25 26  1  0  0  0  0
 26 21  2  0  0  0  0
 27 24  1  0  0  0  0
 28 27  1  0  0  0  0
 28 29  1  0  0  0  0
 30 28  1  0  0  0  0
 31 28  1  0  0  0  0
M  END
>  <minimizedAffinity>
-7.09274912

$$$$
