
 OpenBabel09132200343D

 31 33  0  0  0  0  0  0  0  0999 V2000
    4.1790   -6.4180    3.8030 C   0  0  0  0  0  0  0  0  0  0  0  0
    4.6520   -5.1630    3.7010 C   0  0  0  0  0  0  0  0  0  0  0  0
    5.7020   -4.7960    2.8890 N   0  0  0  0  0  0  0  0  0  0  0  0
    6.2070   -5.6990    2.1160 C   0  0  0  0  0  0  0  0  0  0  0  0
    5.7650   -6.9840    2.0870 N   0  0  0  0  0  0  0  0  0  0  0  0
    4.7900   -7.4360    2.9300 C   0  0  0  0  0  0  0  0  0  0  0  0
    4.4510   -8.6120    2.9390 O   0  0  0  0  0  0  0  0  0  0  0  0
    6.1610   -7.6700    1.4680 H   0  0  0  0  0  0  0  0  0  0  0  0
    4.0140   -4.0610    4.4530 C   0  0  0  0  0  0  0  0  0  0  0  0
    2.7490   -3.6070    4.0500 C   0  0  0  0  0  3  0  0  0  0  0  0
    2.1230   -2.5610    4.7330 C   0  0  0  0  0  3  0  0  0  0  0  0
    2.7550   -1.9700    5.8270 C   0  0  0  0  0  0  0  0  0  0  0  0
    1.9770   -0.6840    6.6660 Cl  0  0  0  0  0  0  0  0  0  0  0  0
    4.0050   -2.4120    6.2480 C   0  0  0  0  0  3  0  0  0  0  0  0
    4.6330   -3.4560    5.5640 C   0  0  0  0  0  0  0  0  0  0  0  0
    6.1880   -3.9670    6.1280 Cl  0  0  0  0  0  0  0  0  0  0  0  0
    2.0660   -7.1360    5.4620 N   0  0  0  0  0  1  0  0  0  0  0  0
    3.0240   -6.8110    4.7100 C   0  0  0  0  0  2  0  0  0  0  0  0
    7.4750   -5.2300    1.0280 S   0  0  0  0  0  0  0  0  0  0  0  0
    8.3840   -3.9010    1.8370 C   0  0  0  0  0  2  0  0  0  0  0  0
    9.1640   -2.9680    0.9440 C   0  0  0  0  0  0  0  0  0  0  0  0
    9.0910   -1.5850    1.1610 C   0  0  0  0  0  3  0  0  0  0  0  0
    9.8250   -0.7010    0.3690 C   0  0  0  0  0  3  0  0  0  0  0  0
   10.6550   -1.1730   -0.6490 C   0  0  0  0  0  0  0  0  0  0  0  0
   10.7540   -2.5480   -0.8570 C   0  0  0  0  0  3  0  0  0  0  0  0
   10.0210   -3.4380   -0.0610 C   0  0  0  0  0  3  0  0  0  0  0  0
   11.3110   -0.1940   -1.3400 O   0  0  0  0  0  0  0  0  0  0  0  0
   11.2560   -0.2340   -2.7550 C   0  0  0  0  0  0  0  0  0  0  0  0
   12.1300   -1.1370   -3.2500 F   0  0  0  0  0  0  0  0  0  0  0  0
   10.0110   -0.5260   -3.1860 F   0  0  0  0  0  0  0  0  0  0  0  0
   11.5930    0.9840   -3.2350 F   0  0  0  0  0  0  0  0  0  0  0  0
  1 18  1  0  0  0  0
  2  1  2  0  0  0  0
  2  9  1  0  0  0  0
  3  2  1  0  0  0  0
  4  3  2  0  0  0  0
  5  4  1  0  0  0  0
  5  6  1  0  0  0  0
  6  7  2  0  0  0  0
  6  1  1  0  0  0  0
  8  5  1  0  0  0  0
  9 15  1  0  0  0  0
 10  9  2  0  0  0  0
 10 11  1  0  0  0  0
 11 12  2  0  0  0  0
 12 14  1  0  0  0  0
 12 13  1  0  0  0  0
 15 16  1  0  0  0  0
 15 14  2  0  0  0  0
 18 17  1  0  0  0  0
 19 20  1  0  0  0  0
 19  4  1  0  0  0  0
 21 22  1  0  0  0  0
 21 20  1  0  0  0  0
 23 22  2  0  0  0  0
 24 23  1  0  0  0  0
 25 24  2  0  0  0  0
 25 26  1  0  0  0  0
 26 21  2  0  0  0  0
 27 24  1  0  0  0  0
 28 27  1  0  0  0  0
 29 28  1  0  0  0  0
 30 28  1  0  0  0  0
 31 28  1  0  0  0  0
M  END
>  <minimizedAffinity>
-8.20958233

$$$$

 OpenBabel09132200343D

 31 33  0  0  0  0  0  0  0  0999 V2000
    3.9080   -3.3360    5.6030 C   0  0  0  0  0  0  0  0  0  0  0  0
    4.7550   -4.3360    5.9060 C   0  0  0  0  0  0  0  0  0  0  0  0
    4.9450   -5.4530    5.1240 N   0  0  0  0  0  0  0  0  0  0  0  0
    4.3320   -5.5010    3.9880 C   0  0  0  0  0  0  0  0  0  0  0  0
    3.5020   -4.5190    3.5500 N   0  0  0  0  0  0  0  0  0  0  0  0
    3.2000   -3.4280    4.3150 C   0  0  0  0  0  0  0  0  0  0  0  0
    2.3970   -2.5860    3.9330 O   0  0  0  0  0  0  0  0  0  0  0  0
    3.0440   -4.5670    2.6550 H   0  0  0  0  0  0  0  0  0  0  0  0
    5.5940   -4.2610    7.1230 C   0  0  0  0  0  0  0  0  0  0  0  0
    5.1460   -4.8870    8.2960 C   0  0  0  0  0  3  0  0  0  0  0  0
    5.9110   -4.8270    9.4640 C   0  0  0  0  0  3  0  0  0  0  0  0
    7.1290   -4.1480    9.4630 C   0  0  0  0  0  0  0  0  0  0  0  0
    8.0670   -4.0800   10.9040 Cl  0  0  0  0  0  0  0  0  0  0  0  0
    7.5940   -3.5280    8.3070 C   0  0  0  0  0  3  0  0  0  0  0  0
    6.8290   -3.5850    7.1400 C   0  0  0  0  0  0  0  0  0  0  0  0
    7.4530   -2.7970    5.7300 Cl  0  0  0  0  0  0  0  0  0  0  0  0
    3.5320   -1.0960    7.2080 N   0  0  0  0  0  1  0  0  0  0  0  0
    3.7030   -2.1120    6.4800 C   0  0  0  0  0  2  0  0  0  0  0  0
    4.6260   -6.8650    2.9560 S   0  0  0  0  0  0  0  0  0  0  0  0
    4.6380   -6.2400    1.2660 C   0  0  0  0  0  2  0  0  0  0  0  0
    5.9650   -5.7710    0.7240 C   0  0  0  0  0  0  0  0  0  0  0  0
    6.1280   -5.6140   -0.6600 C   0  0  0  0  0  3  0  0  0  0  0  0
    7.3350   -5.1530   -1.1860 C   0  0  0  0  0  3  0  0  0  0  0  0
    8.4040   -4.8280   -0.3490 C   0  0  0  0  0  0  0  0  0  0  0  0
    8.2440   -4.9560    1.0300 C   0  0  0  0  0  3  0  0  0  0  0  0
    7.0320   -5.4150    1.5620 C   0  0  0  0  0  3  0  0  0  0  0  0
    9.5190   -4.3910   -1.0040 O   0  0  0  0  0  0  0  0  0  0  0  0
   10.2160   -3.2840   -0.4580 C   0  0  0  0  0  0  0  0  0  0  0  0
    9.3650   -2.4180    0.1330 F   0  0  0  0  0  0  0  0  0  0  0  0
   11.1450   -3.6850    0.4350 F   0  0  0  0  0  0  0  0  0  0  0  0
   10.8480   -2.6340   -1.4600 F   0  0  0  0  0  0  0  0  0  0  0  0
  1  2  2  0  0  0  0
  1 18  1  0  0  0  0
  2  9  1  0  0  0  0
  3  2  1  0  0  0  0
  4  3  2  0  0  0  0
  5  4  1  0  0  0  0
  5  6  1  0  0  0  0
  6  1  1  0  0  0  0
  7  6  2  0  0  0  0
  8  5  1  0  0  0  0
  9 15  2  0  0  0  0
  9 10  1  0  0  0  0
 10 11  2  0  0  0  0
 12 11  1  0  0  0  0
 12 13  1  0  0  0  0
 14 12  2  0  0  0  0
 15 14  1  0  0  0  0
 16 15  1  0  0  0  0
 18 17  1  0  0  0  0
 19  4  1  0  0  0  0
 20 19  1  0  0  0  0
 21 20  1  0  0  0  0
 21 26  1  0  0  0  0
 22 21  2  0  0  0  0
 23 22  1  0  0  0  0
 23 24  2  0  0  0  0
 24 25  1  0  0  0  0
 25 26  2  0  0  0  0
 27 28  1  0  0  0  0
 27 24  1  0  0  0  0
 28 29  1  0  0  0  0
 28 30  1  0  0  0  0
 31 28  1  0  0  0  0
M  END
>  <minimizedAffinity>
-8.09529209

$$$$

 OpenBabel09132200343D

 31 33  0  0  0  0  0  0  0  0999 V2000
    2.6260   -6.7830    6.3250 C   0  0  0  0  0  0  0  0  0  0  0  0
    3.5950   -6.1040    5.6850 C   0  0  0  0  0  0  0  0  0  0  0  0
    4.2490   -6.5610    4.5630 N   0  0  0  0  0  0  0  0  0  0  0  0
    3.8470   -7.6750    4.0470 C   0  0  0  0  0  0  0  0  0  0  0  0
    2.8340   -8.4140    4.5700 N   0  0  0  0  0  0  0  0  0  0  0  0
    2.2050   -8.0640    5.7320 C   0  0  0  0  0  0  0  0  0  0  0  0
    1.3400   -8.7760    6.2270 O   0  0  0  0  0  0  0  0  0  0  0  0
    2.5250   -9.2720    4.1460 H   0  0  0  0  0  0  0  0  0  0  0  0
    3.9910   -4.7550    6.1470 C   0  0  0  0  0  0  0  0  0  0  0  0
    5.0590   -4.6330    7.0490 C   0  0  0  0  0  3  0  0  0  0  0  0
    5.4520   -3.3740    7.5110 C   0  0  0  0  0  3  0  0  0  0  0  0
    4.7850   -2.2330    7.0690 C   0  0  0  0  0  0  0  0  0  0  0  0
    5.2760   -0.6850    7.6390 Cl  0  0  0  0  0  0  0  0  0  0  0  0
    3.7300   -2.3330    6.1670 C   0  0  0  0  0  3  0  0  0  0  0  0
    3.3340   -3.5900    5.7060 C   0  0  0  0  0  0  0  0  0  0  0  0
    2.0150   -3.6590    4.5870 Cl  0  0  0  0  0  0  0  0  0  0  0  0
    1.3310   -5.8430    8.5990 N   0  0  0  0  0  1  0  0  0  0  0  0
    1.9180   -6.2690    7.5680 C   0  0  0  0  0  2  0  0  0  0  0  0
    4.6070   -8.2230    2.5860 S   0  0  0  0  0  0  0  0  0  0  0  0
    4.4200   -6.8970    1.3790 C   0  0  0  0  0  2  0  0  0  0  0  0
    5.6880   -6.3270    0.7940 C   0  0  0  0  0  0  0  0  0  0  0  0
    5.6780   -5.8240   -0.5150 C   0  0  0  0  0  3  0  0  0  0  0  0
    6.8290   -5.2630   -1.0710 C   0  0  0  0  0  3  0  0  0  0  0  0
    8.0120   -5.1800   -0.3340 C   0  0  0  0  0  0  0  0  0  0  0  0
    8.0260   -5.6550    0.9770 C   0  0  0  0  0  3  0  0  0  0  0  0
    6.8710   -6.2150    1.5390 C   0  0  0  0  0  3  0  0  0  0  0  0
    9.0540   -4.6080   -1.0060 O   0  0  0  0  0  0  0  0  0  0  0  0
    9.7560   -3.5570   -0.3660 C   0  0  0  0  0  0  0  0  0  0  0  0
    8.9400   -2.8480    0.4420 F   0  0  0  0  0  0  0  0  0  0  0  0
   10.7980   -4.0320    0.3480 F   0  0  0  0  0  0  0  0  0  0  0  0
   10.2400   -2.7220   -1.3120 F   0  0  0  0  0  0  0  0  0  0  0  0
  1 18  1  0  0  0  0
  2  9  1  0  0  0  0
  2  1  2  0  0  0  0
  3  2  1  0  0  0  0
  4  3  2  0  0  0  0
  4  5  1  0  0  0  0
  5  6  1  0  0  0  0
  6  7  2  0  0  0  0
  6  1  1  0  0  0  0
  8  5  1  0  0  0  0
  9 10  1  0  0  0  0
 10 11  2  0  0  0  0
 12 11  1  0  0  0  0
 12 13  1  0  0  0  0
 14 12  2  0  0  0  0
 15  9  2  0  0  0  0
 15 14  1  0  0  0  0
 16 15  1  0  0  0  0
 18 17  1  0  0  0  0
 19  4  1  0  0  0  0
 20 19  1  0  0  0  0
 21 20  1  0  0  0  0
 21 26  1  0  0  0  0
 22 21  2  0  0  0  0
 23 22  1  0  0  0  0
 23 24  2  0  0  0  0
 24 25  1  0  0  0  0
 25 26  2  0  0  0  0
 27 28  1  0  0  0  0
 27 24  1  0  0  0  0
 28 30  1  0  0  0  0
 28 29  1  0  0  0  0
 31 28  1  0  0  0  0
M  END
>  <minimizedAffinity>
-7.61006451

$$$$

 OpenBabel09132200343D

 31 33  0  0  0  0  0  0  0  0999 V2000
    9.1760   -3.6200    0.8100 C   0  0  0  0  0  0  0  0  0  0  0  0
    8.6030   -3.4830    2.0190 C   0  0  0  0  0  0  0  0  0  0  0  0
    7.4700   -4.1560    2.4190 N   0  0  0  0  0  0  0  0  0  0  0  0
    6.9780   -5.0350    1.6100 C   0  0  0  0  0  0  0  0  0  0  0  0
    7.5120   -5.3030    0.3900 N   0  0  0  0  0  0  0  0  0  0  0  0
    8.5790   -4.6080   -0.1040 C   0  0  0  0  0  0  0  0  0  0  0  0
    9.0060   -4.8150   -1.2330 O   0  0  0  0  0  0  0  0  0  0  0  0
    7.1230   -6.0010   -0.2200 H   0  0  0  0  0  0  0  0  0  0  0  0
    9.2120   -2.6000    3.0390 C   0  0  0  0  0  0  0  0  0  0  0  0
    9.8040   -3.1790    4.1710 C   0  0  0  0  0  3  0  0  0  0  0  0
   10.3800   -2.3730    5.1570 C   0  0  0  0  0  3  0  0  0  0  0  0
   10.3710   -0.9860    5.0120 C   0  0  0  0  0  0  0  0  0  0  0  0
   11.0840    0.0010    6.2280 Cl  0  0  0  0  0  0  0  0  0  0  0  0
    9.7960   -0.3940    3.8920 C   0  0  0  0  0  3  0  0  0  0  0  0
    9.2190   -1.1980    2.9070 C   0  0  0  0  0  0  0  0  0  0  0  0
    8.5160   -0.4110    1.5350 Cl  0  0  0  0  0  0  0  0  0  0  0  0
   11.4570   -2.2370    0.0230 N   0  0  0  0  0  1  0  0  0  0  0  0
   10.4230   -2.8640    0.3800 C   0  0  0  0  0  2  0  0  0  0  0  0
    5.5990   -5.9490    2.1340 S   0  0  0  0  0  0  0  0  0  0  0  0
    4.2650   -4.7670    2.3940 C   0  0  0  0  0  2  0  0  0  0  0  0
    4.1390   -4.1760    3.7770 C   0  0  0  0  0  0  0  0  0  0  0  0
    3.1860   -3.1750    4.0150 C   0  0  0  0  0  3  0  0  0  0  0  0
    3.0290   -2.6320    5.2910 C   0  0  0  0  0  3  0  0  0  0  0  0
    3.8070   -3.0790    6.3600 C   0  0  0  0  0  0  0  0  0  0  0  0
    4.7400   -4.0910    6.1390 C   0  0  0  0  0  3  0  0  0  0  0  0
    4.8980   -4.6410    4.8610 C   0  0  0  0  0  3  0  0  0  0  0  0
    3.5420   -2.4580    7.5470 O   0  0  0  0  0  0  0  0  0  0  0  0
    4.1540   -1.2030    7.7880 C   0  0  0  0  0  0  0  0  0  0  0  0
    5.3270   -1.1000    7.1270 F   0  0  0  0  0  0  0  0  0  0  0  0
    3.3420   -0.1870    7.4270 F   0  0  0  0  0  0  0  0  0  0  0  0
    4.4060   -1.0910    9.1110 F   0  0  0  0  0  0  0  0  0  0  0  0
  1  2  2  0  0  0  0
  2  3  1  0  0  0  0
  2  9  1  0  0  0  0
  4 19  1  0  0  0  0
  4  3  2  0  0  0  0
  5  4  1  0  0  0  0
  6  5  1  0  0  0  0
  6  1  1  0  0  0  0
  7  6  2  0  0  0  0
  8  5  1  0  0  0  0
  9 10  1  0  0  0  0
 10 11  2  0  0  0  0
 12 11  1  0  0  0  0
 12 13  1  0  0  0  0
 14 12  2  0  0  0  0
 15  9  2  0  0  0  0
 15 14  1  0  0  0  0
 16 15  1  0  0  0  0
 17 18  1  0  0  0  0
 18  1  1  0  0  0  0
 19 20  1  0  0  0  0
 20 21  1  0  0  0  0
 21 22  2  0  0  0  0
 21 26  1  0  0  0  0
 22 23  1  0  0  0  0
 23 24  2  0  0  0  0
 24 27  1  0  0  0  0
 25 24  1  0  0  0  0
 26 25  2  0  0  0  0
 27 28  1  0  0  0  0
 28 31  1  0  0  0  0
 29 28  1  0  0  0  0
 30 28  1  0  0  0  0
M  END
>  <minimizedAffinity>
-7.56447649

$$$$

 OpenBabel09132200343D

 31 33  0  0  0  0  0  0  0  0999 V2000
    3.4990   -6.4470    4.8570 C   0  0  0  0  0  0  0  0  0  0  0  0
    3.7450   -5.2720    4.2500 C   0  0  0  0  0  0  0  0  0  0  0  0
    4.2920   -5.1510    2.9920 N   0  0  0  0  0  0  0  0  0  0  0  0
    4.5040   -6.2360    2.3230 C   0  0  0  0  0  0  0  0  0  0  0  0
    4.2330   -7.4740    2.8110 N   0  0  0  0  0  0  0  0  0  0  0  0
    3.7750   -7.6700    4.0830 C   0  0  0  0  0  0  0  0  0  0  0  0
    3.6000   -8.7960    4.5310 O   0  0  0  0  0  0  0  0  0  0  0  0
    4.3910   -8.3070    2.2700 H   0  0  0  0  0  0  0  0  0  0  0  0
    3.3820   -3.9990    4.9110 C   0  0  0  0  0  0  0  0  0  0  0  0
    2.1300   -3.4260    4.6420 C   0  0  0  0  0  3  0  0  0  0  0  0
    1.7620   -2.2200    5.2430 C   0  0  0  0  0  3  0  0  0  0  0  0
    2.6390   -1.5850    6.1210 C   0  0  0  0  0  0  0  0  0  0  0  0
    2.1790   -0.1010    6.8610 Cl  0  0  0  0  0  0  0  0  0  0  0  0
    3.8820   -2.1430    6.4080 C   0  0  0  0  0  3  0  0  0  0  0  0
    4.2520   -3.3470    5.8050 C   0  0  0  0  0  0  0  0  0  0  0  0
    5.8090   -3.9960    6.1950 Cl  0  0  0  0  0  0  0  0  0  0  0  0
    2.4050   -6.6640    7.4040 N   0  0  0  0  0  1  0  0  0  0  0  0
    2.9010   -6.5650    6.2490 C   0  0  0  0  0  2  0  0  0  0  0  0
    5.1170   -6.0940    0.7050 S   0  0  0  0  0  0  0  0  0  0  0  0
    6.9030   -6.3060    0.8100 C   0  0  0  0  0  2  0  0  0  0  0  0
    7.7300   -5.0520    0.9480 C   0  0  0  0  0  0  0  0  0  0  0  0
    7.6970   -4.3330    2.1510 C   0  0  0  0  0  3  0  0  0  0  0  0
    8.4740   -3.1860    2.3160 C   0  0  0  0  0  3  0  0  0  0  0  0
    9.3110   -2.7350    1.2930 C   0  0  0  0  0  0  0  0  0  0  0  0
    9.3700   -3.4570    0.1020 C   0  0  0  0  0  3  0  0  0  0  0  0
    8.5940   -4.6110   -0.0660 C   0  0  0  0  0  3  0  0  0  0  0  0
   10.0110   -1.6030    1.5970 O   0  0  0  0  0  0  0  0  0  0  0  0
    9.3810   -0.3540    1.3690 C   0  0  0  0  0  0  0  0  0  0  0  0
    8.0500   -0.4340    1.5850 F   0  0  0  0  0  0  0  0  0  0  0  0
    9.9090    0.6090    2.1530 F   0  0  0  0  0  0  0  0  0  0  0  0
    9.5750   -0.0010    0.0790 F   0  0  0  0  0  0  0  0  0  0  0  0
  1 18  1  0  0  0  0
  2  1  2  0  0  0  0
  2  9  1  0  0  0  0
  3  2  1  0  0  0  0
  4  5  1  0  0  0  0
  4  3  2  0  0  0  0
  5  6  1  0  0  0  0
  6  7  2  0  0  0  0
  6  1  1  0  0  0  0
  8  5  1  0  0  0  0
  9 15  1  0  0  0  0
 10  9  2  0  0  0  0
 10 11  1  0  0  0  0
 11 12  2  0  0  0  0
 12 14  1  0  0  0  0
 12 13  1  0  0  0  0
 15 16  1  0  0  0  0
 15 14  2  0  0  0  0
 18 17  1  0  0  0  0
 19 20  1  0  0  0  0
 19  4  1  0  0  0  0
 20 21  1  0  0  0  0
 21 22  1  0  0  0  0
 22 23  2  0  0  0  0
 24 27  1  0  0  0  0
 24 23  1  0  0  0  0
 25 24  2  0  0  0  0
 26 25  1  0  0  0  0
 26 21  2  0  0  0  0
 28 29  1  0  0  0  0
 28 27  1  0  0  0  0
 28 30  1  0  0  0  0
 31 28  1  0  0  0  0
M  END
>  <minimizedAffinity>
-7.43589783

$$$$

 OpenBabel09132200343D

 31 33  0  0  0  0  0  0  0  0999 V2000
    7.0320   -5.5220    0.2250 C   0  0  0  0  0  0  0  0  0  0  0  0
    6.9290   -5.2400    1.5360 C   0  0  0  0  0  0  0  0  0  0  0  0
    7.7870   -4.4050    2.2170 N   0  0  0  0  0  0  0  0  0  0  0  0
    8.6960   -3.7920    1.5330 C   0  0  0  0  0  0  0  0  0  0  0  0
    8.8510   -3.9510    0.1930 N   0  0  0  0  0  0  0  0  0  0  0  0
    8.0940   -4.8310   -0.5270 C   0  0  0  0  0  0  0  0  0  0  0  0
    8.2910   -5.0130   -1.7220 O   0  0  0  0  0  0  0  0  0  0  0  0
    9.5550   -3.4540   -0.3250 H   0  0  0  0  0  0  0  0  0  0  0  0
    5.8170   -5.7980    2.3360 C   0  0  0  0  0  0  0  0  0  0  0  0
    4.7940   -4.9410    2.7680 C   0  0  0  0  0  3  0  0  0  0  0  0
    3.7340   -5.4360    3.5330 C   0  0  0  0  0  3  0  0  0  0  0  0
    3.6880   -6.7900    3.8630 C   0  0  0  0  0  0  0  0  0  0  0  0
    2.3790   -7.3930    4.8020 Cl  0  0  0  0  0  0  0  0  0  0  0  0
    4.6890   -7.6570    3.4350 C   0  0  0  0  0  3  0  0  0  0  0  0
    5.7500   -7.1640    2.6730 C   0  0  0  0  0  0  0  0  0  0  0  0
    6.9680   -8.2860    2.1690 Cl  0  0  0  0  0  0  0  0  0  0  0  0
    5.2940   -7.2240   -1.1230 N   0  0  0  0  0  1  0  0  0  0  0  0
    6.0820   -6.4520   -0.5120 C   0  0  0  0  0  2  0  0  0  0  0  0
    9.7310   -2.6740    2.3640 S   0  0  0  0  0  0  0  0  0  0  0  0
    8.7900   -1.1510    2.5670 C   0  0  0  0  0  2  0  0  0  0  0  0
    9.3620    0.0920    1.9310 C   0  0  0  0  0  0  0  0  0  0  0  0
    9.6720    1.1970    2.7360 C   0  0  0  0  0  3  0  0  0  0  0  0
   10.2300    2.3490    2.1790 C   0  0  0  0  0  3  0  0  0  0  0  0
   10.5020    2.4230    0.8120 C   0  0  0  0  0  0  0  0  0  0  0  0
   10.2200    1.3200    0.0060 C   0  0  0  0  0  3  0  0  0  0  0  0
    9.6630    0.1620    0.5630 C   0  0  0  0  0  3  0  0  0  0  0  0
   11.0460    3.6090    0.4100 O   0  0  0  0  0  0  0  0  0  0  0  0
   10.1820    4.7240    0.2800 C   0  0  0  0  0  0  0  0  0  0  0  0
    8.9910    4.3570   -0.2400 F   0  0  0  0  0  0  0  0  0  0  0  0
    9.9870    5.3310    1.4700 F   0  0  0  0  0  0  0  0  0  0  0  0
   10.7500    5.6170   -0.5600 F   0  0  0  0  0  0  0  0  0  0  0  0
  1  2  2  0  0  0  0
  2  3  1  0  0  0  0
  2  9  1  0  0  0  0
  4  3  2  0  0  0  0
  4 19  1  0  0  0  0
  5  4  1  0  0  0  0
  6  5  1  0  0  0  0
  6  1  1  0  0  0  0
  7  6  2  0  0  0  0
  8  5  1  0  0  0  0
  9 15  2  0  0  0  0
  9 10  1  0  0  0  0
 10 11  2  0  0  0  0
 11 12  1  0  0  0  0
 12 13  1  0  0  0  0
 14 12  2  0  0  0  0
 15 14  1  0  0  0  0
 16 15  1  0  0  0  0
 17 18  1  0  0  0  0
 18  1  1  0  0  0  0
 19 20  1  0  0  0  0
 21 20  1  0  0  0  0
 21 22  1  0  0  0  0
 23 22  2  0  0  0  0
 24 23  1  0  0  0  0
 25 26  1  0  0  0  0
 25 24  2  0  0  0  0
 26 21  2  0  0  0  0
 27 24  1  0  0  0  0
 28 27  1  0  0  0  0
 28 30  1  0  0  0  0
 29 28  1  0  0  0  0
 31 28  1  0  0  0  0
M  END
>  <minimizedAffinity>
-7.34963465

$$$$

 OpenBabel09132200343D

 31 33  0  0  0  0  0  0  0  0999 V2000
    5.4260   -2.4280    7.1070 C   0  0  0  0  0  0  0  0  0  0  0  0
    5.4130   -3.3540    6.1320 C   0  0  0  0  0  0  0  0  0  0  0  0
    6.4270   -3.5270    5.2160 N   0  0  0  0  0  0  0  0  0  0  0  0
    7.4920   -2.8090    5.3570 C   0  0  0  0  0  0  0  0  0  0  0  0
    7.6420   -1.8880    6.3440 N   0  0  0  0  0  0  0  0  0  0  0  0
    6.6410   -1.6030    7.2290 C   0  0  0  0  0  0  0  0  0  0  0  0
    6.7660   -0.7220    8.0710 O   0  0  0  0  0  0  0  0  0  0  0  0
    8.4840   -1.3480    6.4470 H   0  0  0  0  0  0  0  0  0  0  0  0
    4.2840   -4.3020    6.0170 C   0  0  0  0  0  0  0  0  0  0  0  0
    4.2330   -5.4060    6.8820 C   0  0  0  0  0  3  0  0  0  0  0  0
    3.1850   -6.3250    6.7930 C   0  0  0  0  0  3  0  0  0  0  0  0
    2.1790   -6.1420    5.8450 C   0  0  0  0  0  0  0  0  0  0  0  0
    0.8880   -7.2760    5.7430 Cl  0  0  0  0  0  0  0  0  0  0  0  0
    2.2070   -5.0490    4.9850 C   0  0  0  0  0  3  0  0  0  0  0  0
    3.2560   -4.1310    5.0710 C   0  0  0  0  0  0  0  0  0  0  0  0
    3.2430   -2.7900    3.9760 Cl  0  0  0  0  0  0  0  0  0  0  0  0
    3.3590   -2.0890    8.9350 N   0  0  0  0  0  1  0  0  0  0  0  0
    4.2960   -2.2430    8.1060 C   0  0  0  0  0  2  0  0  0  0  0  0
    8.8100   -3.0750    4.2600 S   0  0  0  0  0  0  0  0  0  0  0  0
    9.1260   -1.5000    3.4420 C   0  0  0  0  0  2  0  0  0  0  0  0
    9.6150   -1.5610    2.0160 C   0  0  0  0  0  0  0  0  0  0  0  0
   10.2410   -2.7250    1.5510 C   0  0  0  0  0  3  0  0  0  0  0  0
   10.6770   -2.8200    0.2280 C   0  0  0  0  0  3  0  0  0  0  0  0
   10.4890   -1.7630   -0.6640 C   0  0  0  0  0  0  0  0  0  0  0  0
    9.8450   -0.6090   -0.2180 C   0  0  0  0  0  3  0  0  0  0  0  0
    9.4040   -0.5130    1.1080 C   0  0  0  0  0  3  0  0  0  0  0  0
   10.9640   -1.9970   -1.9220 O   0  0  0  0  0  0  0  0  0  0  0  0
   11.8050   -1.0160   -2.5050 C   0  0  0  0  0  0  0  0  0  0  0  0
   11.0940   -0.1610   -3.2720 F   0  0  0  0  0  0  0  0  0  0  0  0
   12.4750   -0.3250   -1.5590 F   0  0  0  0  0  0  0  0  0  0  0  0
   12.7100   -1.6360   -3.2950 F   0  0  0  0  0  0  0  0  0  0  0  0
  1  6  1  0  0  0  0
  1 18  1  0  0  0  0
  2  1  2  0  0  0  0
  3  4  2  0  0  0  0
  3  2  1  0  0  0  0
  4  5  1  0  0  0  0
  5  8  1  0  0  0  0
  5  6  1  0  0  0  0
  6  7  2  0  0  0  0
  9  2  1  0  0  0  0
  9 10  1  0  0  0  0
 11 10  2  0  0  0  0
 12 11  1  0  0  0  0
 13 12  1  0  0  0  0
 14 15  1  0  0  0  0
 14 12  2  0  0  0  0
 15  9  2  0  0  0  0
 16 15  1  0  0  0  0
 18 17  1  0  0  0  0
 19  4  1  0  0  0  0
 20 19  1  0  0  0  0
 21 20  1  0  0  0  0
 22 21  1  0  0  0  0
 23 22  2  0  0  0  0
 24 25  2  0  0  0  0
 24 23  1  0  0  0  0
 25 26  1  0  0  0  0
 26 21  2  0  0  0  0
 27 24  1  0  0  0  0
 28 27  1  0  0  0  0
 28 30  1  0  0  0  0
 29 28  1  0  0  0  0
 31 28  1  0  0  0  0
M  END
>  <minimizedAffinity>
-7.11346674

$$$$

 OpenBabel09132200343D

 31 33  0  0  0  0  0  0  0  0999 V2000
   10.2900    3.4030    4.8630 C   0  0  0  0  0  0  0  0  0  0  0  0
    9.8750    2.7540    5.9650 C   0  0  0  0  0  0  0  0  0  0  0  0
    9.8250    1.3830    6.0840 N   0  0  0  0  0  0  0  0  0  0  0  0
   10.2870    0.6790    5.1030 C   0  0  0  0  0  0  0  0  0  0  0  0
   10.7910    1.2280    3.9670 N   0  0  0  0  0  0  0  0  0  0  0  0
   10.7860    2.5770    3.7480 C   0  0  0  0  0  0  0  0  0  0  0  0
   11.1820    3.0520    2.6910 O   0  0  0  0  0  0  0  0  0  0  0  0
   11.1590    0.6650    3.2210 H   0  0  0  0  0  0  0  0  0  0  0  0
    9.4760    3.5110    7.1720 C   0  0  0  0  0  0  0  0  0  0  0  0
    8.1150    3.7760    7.3890 C   0  0  0  0  0  3  0  0  0  0  0  0
    7.7060    4.4960    8.5140 C   0  0  0  0  0  3  0  0  0  0  0  0
    8.6540    4.9490    9.4310 C   0  0  0  0  0  0  0  0  0  0  0  0
    8.1440    5.8330   10.8160 Cl  0  0  0  0  0  0  0  0  0  0  0  0
   10.0080    4.6890    9.2380 C   0  0  0  0  0  3  0  0  0  0  0  0
   10.4170    3.9710    8.1120 C   0  0  0  0  0  0  0  0  0  0  0  0
   12.1130    3.6770    7.9190 Cl  0  0  0  0  0  0  0  0  0  0  0  0
   10.3670    6.1740    4.6450 N   0  0  0  0  0  1  0  0  0  0  0  0
   10.3320    4.9170    4.7430 C   0  0  0  0  0  2  0  0  0  0  0  0
   10.3070   -1.0480    5.2730 S   0  0  0  0  0  0  0  0  0  0  0  0
    9.0930   -1.6950    4.1080 C   0  0  0  0  0  2  0  0  0  0  0  0
    9.4930   -1.7220    2.6530 C   0  0  0  0  0  0  0  0  0  0  0  0
   10.2460   -2.7990    2.1660 C   0  0  0  0  0  3  0  0  0  0  0  0
   10.6050   -2.8640    0.8190 C   0  0  0  0  0  3  0  0  0  0  0  0
   10.2130   -1.8670   -0.0750 C   0  0  0  0  0  0  0  0  0  0  0  0
    9.4430   -0.8040    0.3940 C   0  0  0  0  0  3  0  0  0  0  0  0
    9.0780   -0.7370    1.7450 C   0  0  0  0  0  3  0  0  0  0  0  0
   10.6360   -2.0640   -1.3590 O   0  0  0  0  0  0  0  0  0  0  0  0
   11.1350   -0.9450   -2.0700 C   0  0  0  0  0  0  0  0  0  0  0  0
   11.6820   -0.0400   -1.2300 F   0  0  0  0  0  0  0  0  0  0  0  0
   12.0500   -1.3200   -2.9880 F   0  0  0  0  0  0  0  0  0  0  0  0
   10.1090   -0.3510   -2.7170 F   0  0  0  0  0  0  0  0  0  0  0  0
  1  2  2  0  0  0  0
  2  3  1  0  0  0  0
  2  9  1  0  0  0  0
  4 19  1  0  0  0  0
  4  3  2  0  0  0  0
  5  4  1  0  0  0  0
  6  5  1  0  0  0  0
  6  1  1  0  0  0  0
  7  6  2  0  0  0  0
  8  5  1  0  0  0  0
  9 10  2  0  0  0  0
  9 15  1  0  0  0  0
 10 11  1  0  0  0  0
 11 12  2  0  0  0  0
 12 13  1  0  0  0  0
 14 12  1  0  0  0  0
 15 14  2  0  0  0  0
 16 15  1  0  0  0  0
 17 18  1  0  0  0  0
 18  1  1  0  0  0  0
 20 19  1  0  0  0  0
 21 20  1  0  0  0  0
 22 21  1  0  0  0  0
 23 22  2  0  0  0  0
 24 25  2  0  0  0  0
 24 23  1  0  0  0  0
 25 26  1  0  0  0  0
 26 21  2  0  0  0  0
 27 24  1  0  0  0  0
 28 27  1  0  0  0  0
 28 29  1  0  0  0  0
 30 28  1  0  0  0  0
 31 28  1  0  0  0  0
M  END
>  <minimizedAffinity>
-7.09274912

$$$$

 OpenBabel09132200343D

 31 33  0  0  0  0  0  0  0  0999 V2000
    6.8050   -1.7100    7.5550 C   0  0  0  0  0  0  0  0  0  0  0  0
    6.7480   -2.8890    6.9110 C   0  0  0  0  0  0  0  0  0  0  0  0
    7.5740   -3.2410    5.8660 N   0  0  0  0  0  0  0  0  0  0  0  0
    8.5150   -2.4170    5.5420 C   0  0  0  0  0  0  0  0  0  0  0  0
    8.7070   -1.2260    6.1670 N   0  0  0  0  0  0  0  0  0  0  0  0
    7.8700   -0.7770    7.1490 C   0  0  0  0  0  0  0  0  0  0  0  0
    8.0170    0.3290    7.6540 O   0  0  0  0  0  0  0  0  0  0  0  0
    9.4550   -0.6040    5.9100 H   0  0  0  0  0  0  0  0  0  0  0  0
    5.7870   -3.9290    7.3390 C   0  0  0  0  0  0  0  0  0  0  0  0
    6.1300   -4.7720    8.4070 C   0  0  0  0  0  3  0  0  0  0  0  0
    5.2470   -5.7700    8.8300 C   0  0  0  0  0  3  0  0  0  0  0  0
    4.0170   -5.9250    8.1930 C   0  0  0  0  0  0  0  0  0  0  0  0
    2.9340   -7.1540    8.7200 Cl  0  0  0  0  0  0  0  0  0  0  0  0
    3.6550   -5.0920    7.1380 C   0  0  0  0  0  3  0  0  0  0  0  0
    4.5370   -4.0960    6.7130 C   0  0  0  0  0  0  0  0  0  0  0  0
    4.0390   -3.0890    5.3960 Cl  0  0  0  0  0  0  0  0  0  0  0  0
    5.1160   -1.0200    9.6540 N   0  0  0  0  0  1  0  0  0  0  0  0
    5.8820   -1.3330    8.7020 C   0  0  0  0  0  2  0  0  0  0  0  0
    9.6140   -2.8830    4.2820 S   0  0  0  0  0  0  0  0  0  0  0  0
    8.7380   -2.6560    2.7240 C   0  0  0  0  0  2  0  0  0  0  0  0
    7.8770   -3.8020    2.2540 C   0  0  0  0  0  0  0  0  0  0  0  0
    6.6200   -4.0060    2.8410 C   0  0  0  0  0  3  0  0  0  0  0  0
    5.7900   -5.0400    2.4060 C   0  0  0  0  0  3  0  0  0  0  0  0
    6.1870   -5.8880    1.3700 C   0  0  0  0  0  0  0  0  0  0  0  0
    7.4240   -5.6790    0.7630 C   0  0  0  0  0  3  0  0  0  0  0  0
    8.2580   -4.6390    1.1950 C   0  0  0  0  0  3  0  0  0  0  0  0
    5.2740   -6.8520    1.0510 O   0  0  0  0  0  0  0  0  0  0  0  0
    4.5940   -6.7350   -0.1860 C   0  0  0  0  0  0  0  0  0  0  0  0
    3.4450   -7.4450   -0.1780 F   0  0  0  0  0  0  0  0  0  0  0  0
    4.3240   -5.4440   -0.4740 F   0  0  0  0  0  0  0  0  0  0  0  0
    5.3850   -7.2280   -1.1640 F   0  0  0  0  0  0  0  0  0  0  0  0
  1 18  1  0  0  0  0
  2  9  1  0  0  0  0
  2  1  2  0  0  0  0
  3  2  1  0  0  0  0
  4  3  2  0  0  0  0
  4  5  1  0  0  0  0
  5  6  1  0  0  0  0
  6  1  1  0  0  0  0
  6  7  2  0  0  0  0
  8  5  1  0  0  0  0
  9 10  1  0  0  0  0
 10 11  2  0  0  0  0
 12 13  1  0  0  0  0
 12 11  1  0  0  0  0
 14 12  2  0  0  0  0
 15 14  1  0  0  0  0
 15  9  2  0  0  0  0
 16 15  1  0  0  0  0
 18 17  1  0  0  0  0
 19  4  1  0  0  0  0
 20 19  1  0  0  0  0
 21 20  1  0  0  0  0
 21 22  1  0  0  0  0
 23 22  2  0  0  0  0
 24 23  1  0  0  0  0
 25 26  1  0  0  0  0
 25 24  2  0  0  0  0
 26 21  2  0  0  0  0
 27 24  1  0  0  0  0
 28 29  1  0  0  0  0
 28 27  1  0  0  0  0
 30 28  1  0  0  0  0
 31 28  1  0  0  0  0
M  END
>  <minimizedAffinity>
-7.07309151

$$$$

 OpenBabel09132200343D

 31 33  0  0  0  0  0  0  0  0999 V2000
    3.5130   -6.1220    5.7290 C   0  0  0  0  0  0  0  0  0  0  0  0
    4.1810   -5.0620    5.2390 C   0  0  0  0  0  0  0  0  0  0  0  0
    4.6370   -4.9660    3.9430 N   0  0  0  0  0  0  0  0  0  0  0  0
    4.3290   -5.9190    3.1270 C   0  0  0  0  0  0  0  0  0  0  0  0
    3.6030   -7.0070    3.4950 N   0  0  0  0  0  0  0  0  0  0  0  0
    3.1980   -7.2080    4.7840 C   0  0  0  0  0  0  0  0  0  0  0  0
    2.6030   -8.2260    5.1140 O   0  0  0  0  0  0  0  0  0  0  0  0
    3.3600   -7.7320    2.8420 H   0  0  0  0  0  0  0  0  0  0  0  0
    4.4310   -3.8780    6.0900 C   0  0  0  0  0  0  0  0  0  0  0  0
    5.5600   -3.8670    6.9240 C   0  0  0  0  0  3  0  0  0  0  0  0
    5.8190   -2.7670    7.7460 C   0  0  0  0  0  3  0  0  0  0  0  0
    4.9560   -1.6720    7.7350 C   0  0  0  0  0  0  0  0  0  0  0  0
    5.2820   -0.3200    8.7480 Cl  0  0  0  0  0  0  0  0  0  0  0  0
    3.8360   -1.6610    6.9080 C   0  0  0  0  0  3  0  0  0  0  0  0
    3.5750   -2.7600    6.0880 C   0  0  0  0  0  0  0  0  0  0  0  0
    2.1680   -2.6960    5.0810 Cl  0  0  0  0  0  0  0  0  0  0  0  0
    2.6150   -6.2960    8.3550 N   0  0  0  0  0  1  0  0  0  0  0  0
    3.0220   -6.2170    7.1640 C   0  0  0  0  0  2  0  0  0  0  0  0
    4.8270   -5.7720    1.4710 S   0  0  0  0  0  0  0  0  0  0  0  0
    6.5410   -6.3220    1.3970 C   0  0  0  0  0  2  0  0  0  0  0  0
    7.5500   -5.3330    0.8660 C   0  0  0  0  0  0  0  0  0  0  0  0
    7.8780   -5.3470   -0.4960 C   0  0  0  0  0  3  0  0  0  0  0  0
    8.7860   -4.4250   -1.0190 C   0  0  0  0  0  3  0  0  0  0  0  0
    9.3780   -3.4610   -0.2020 C   0  0  0  0  0  0  0  0  0  0  0  0
    9.0400   -3.4230    1.1500 C   0  0  0  0  0  3  0  0  0  0  0  0
    8.1260   -4.3450    1.6780 C   0  0  0  0  0  3  0  0  0  0  0  0
   10.2430   -2.6280   -0.8500 O   0  0  0  0  0  0  0  0  0  0  0  0
   11.5930   -3.0410   -0.9730 C   0  0  0  0  0  0  0  0  0  0  0  0
   11.9760   -3.7760    0.0930 F   0  0  0  0  0  0  0  0  0  0  0  0
   11.7830   -3.7530   -2.1040 F   0  0  0  0  0  0  0  0  0  0  0  0
   12.3780   -1.9430   -1.0310 F   0  0  0  0  0  0  0  0  0  0  0  0
  1 18  1  0  0  0  0
  2  1  2  0  0  0  0
  2  9  1  0  0  0  0
  3  2  1  0  0  0  0
  4  5  1  0  0  0  0
  4  3  2  0  0  0  0
  5  6  1  0  0  0  0
  6  7  2  0  0  0  0
  6  1  1  0  0  0  0
  8  5  1  0  0  0  0
  9 10  1  0  0  0  0
 10 11  2  0  0  0  0
 12 11  1  0  0  0  0
 12 13  1  0  0  0  0
 14 12  2  0  0  0  0
 15  9  2  0  0  0  0
 15 14  1  0  0  0  0
 16 15  1  0  0  0  0
 18 17  1  0  0  0  0
 19  4  1  0  0  0  0
 20 19  1  0  0  0  0
 21 20  1  0  0  0  0
 21 26  1  0  0  0  0
 22 21  2  0  0  0  0
 23 22  1  0  0  0  0
 23 24  2  0  0  0  0
 24 25  1  0  0  0  0
 25 26  2  0  0  0  0
 27 24  1  0  0  0  0
 28 27  1  0  0  0  0
 28 29  1  0  0  0  0
 30 28  1  0  0  0  0
 31 28  1  0  0  0  0
M  END
>  <minimizedAffinity>
-7.0457325

$$$$
