
 OpenBabel09132204463D

 31 33  0  0  0  0  0  0  0  0999 V2000
    2.6260   -6.7830    6.3250 C   0  0  0  0  0  0  0  0  0  0  0  0
    3.5950   -6.1040    5.6850 C   0  0  0  0  0  0  0  0  0  0  0  0
    4.2490   -6.5610    4.5630 N   0  0  0  0  0  0  0  0  0  0  0  0
    3.8470   -7.6750    4.0470 C   0  0  0  0  0  0  0  0  0  0  0  0
    2.8340   -8.4140    4.5700 N   0  0  0  0  0  0  0  0  0  0  0  0
    2.2050   -8.0640    5.7320 C   0  0  0  0  0  0  0  0  0  0  0  0
    1.3400   -8.7760    6.2270 O   0  0  0  0  0  0  0  0  0  0  0  0
    2.5250   -9.2720    4.1460 H   0  0  0  0  0  0  0  0  0  0  0  0
    3.9910   -4.7550    6.1470 C   0  0  0  0  0  0  0  0  0  0  0  0
    5.0590   -4.6330    7.0490 C   0  0  0  0  0  3  0  0  0  0  0  0
    5.4520   -3.3740    7.5110 C   0  0  0  0  0  3  0  0  0  0  0  0
    4.7850   -2.2330    7.0690 C   0  0  0  0  0  0  0  0  0  0  0  0
    5.2760   -0.6850    7.6390 Cl  0  0  0  0  0  0  0  0  0  0  0  0
    3.7300   -2.3330    6.1670 C   0  0  0  0  0  3  0  0  0  0  0  0
    3.3340   -3.5900    5.7060 C   0  0  0  0  0  0  0  0  0  0  0  0
    2.0150   -3.6590    4.5870 Cl  0  0  0  0  0  0  0  0  0  0  0  0
    1.3310   -5.8430    8.5990 N   0  0  0  0  0  1  0  0  0  0  0  0
    1.9180   -6.2690    7.5680 C   0  0  0  0  0  2  0  0  0  0  0  0
    4.6070   -8.2230    2.5860 S   0  0  0  0  0  0  0  0  0  0  0  0
    4.4200   -6.8970    1.3790 C   0  0  0  0  0  2  0  0  0  0  0  0
    5.6880   -6.3270    0.7940 C   0  0  0  0  0  0  0  0  0  0  0  0
    5.6780   -5.8240   -0.5150 C   0  0  0  0  0  3  0  0  0  0  0  0
    6.8290   -5.2630   -1.0710 C   0  0  0  0  0  3  0  0  0  0  0  0
    8.0120   -5.1800   -0.3340 C   0  0  0  0  0  0  0  0  0  0  0  0
    8.0260   -5.6550    0.9770 C   0  0  0  0  0  3  0  0  0  0  0  0
    6.8710   -6.2150    1.5390 C   0  0  0  0  0  3  0  0  0  0  0  0
    9.0540   -4.6080   -1.0060 O   0  0  0  0  0  0  0  0  0  0  0  0
    9.7560   -3.5570   -0.3660 C   0  0  0  0  0  0  0  0  0  0  0  0
    8.9400   -2.8480    0.4420 F   0  0  0  0  0  0  0  0  0  0  0  0
   10.7980   -4.0320    0.3480 F   0  0  0  0  0  0  0  0  0  0  0  0
   10.2400   -2.7220   -1.3120 F   0  0  0  0  0  0  0  0  0  0  0  0
  1 18  1  0  0  0  0
  2  9  1  0  0  0  0
  2  1  2  0  0  0  0
  3  2  1  0  0  0  0
  4  3  2  0  0  0  0
  4  5  1  0  0  0  0
  5  6  1  0  0  0  0
  6  7  2  0  0  0  0
  6  1  1  0  0  0  0
  8  5  1  0  0  0  0
  9 10  1  0  0  0  0
 10 11  2  0  0  0  0
 12 11  1  0  0  0  0
 12 13  1  0  0  0  0
 14 12  2  0  0  0  0
 15  9  2  0  0  0  0
 15 14  1  0  0  0  0
 16 15  1  0  0  0  0
 18 17  1  0  0  0  0
 19  4  1  0  0  0  0
 20 19  1  0  0  0  0
 21 20  1  0  0  0  0
 21 26  1  0  0  0  0
 22 21  2  0  0  0  0
 23 22  1  0  0  0  0
 23 24  2  0  0  0  0
 24 25  1  0  0  0  0
 25 26  2  0  0  0  0
 27 28  1  0  0  0  0
 27 24  1  0  0  0  0
 28 30  1  0  0  0  0
 28 29  1  0  0  0  0
 31 28  1  0  0  0  0
M  END
>  <minimizedAffinity>
-7.61006451

$$$$
