REMARK  Name = 
REMARK  9 active torsions:
REMARK  status: ('A' for Active; 'I' for Inactive)
REMARK    1  A    between atoms: C_2  and  C_3
REMARK    2  A    between atoms: C_3  and  C_4
REMARK    3  A    between atoms: C_4  and  C_5
REMARK    4  A    between atoms: C_5  and  O_6
REMARK    5  A    between atoms: O_6  and  C_7
REMARK    6  A    between atoms: C_10  and  O_11
REMARK    7  A    between atoms: C_13  and  C_14
REMARK    8  A    between atoms: C_16  and  C_17
REMARK    9  A    between atoms: C_17  and  C_19
REMARK                            x       y       z     vdW  Elec       q    Type
REMARK                         _______ _______ _______ _____ _____    ______ ____
ROOT
ATOM      1  C   UNL     1       3.441   1.937  -3.421  0.00  0.00    +0.127 A 
ATOM      2  C   UNL     1       2.612   2.934  -2.881  0.00  0.00    +0.050 A 
ATOM      3  C   UNL     1       1.836   3.746  -3.709  0.00  0.00    +0.049 A 
ATOM      4  C   UNL     1       1.906   3.576  -5.083  0.00  0.00    +0.118 A 
ATOM      5  C   UNL     1       2.736   2.606  -5.639  0.00  0.00    +0.056 A 
ATOM      6  C   UNL     1       3.520   1.768  -4.820  0.00  0.00    +0.013 A 
ENDROOT
BRANCH   6   7
ATOM      7  C   UNL     1       4.397   0.783  -5.544  0.00  0.00    -0.094 C 
ATOM      8  O   UNL     1       5.555   1.139  -5.906  0.00  0.00    -0.873 OA
ATOM      9  C   UNL     1       3.732  -0.389  -5.703  0.00  0.00    +0.045 C 
BRANCH   9  10
ATOM     10  C   UNL     1       4.202  -1.674  -6.324  0.00  0.00    +0.201 C 
ATOM     11  O   UNL     1       4.877  -1.771  -7.348  0.00  0.00    -0.286 OA
BRANCH  10  12
ATOM     12  C   UNL     1       3.680  -3.000  -5.696  0.00  0.00    +0.111 C 
ATOM     13  O   UNL     1       3.842  -4.092  -6.343  0.00  0.00    -0.541 OA
ATOM     14  O   UNL     1       3.084  -2.907  -4.565  0.00  0.00    -0.541 OA
ENDBRANCH  10  12
ENDBRANCH   9  10
ENDBRANCH   6   7
BRANCH   4  15
ATOM     15  O   UNL     1       1.150   4.390  -5.878  0.00  0.00    -0.507 OA
ATOM     16  H   UNL     1       1.361   4.136  -6.793  0.00  0.00    +0.292 HD
ENDBRANCH   4  15
BRANCH   1  17
ATOM     17  O   UNL     1       4.170   1.248  -2.480  0.00  0.00    -0.491 OA
BRANCH  17  18
ATOM     18  C   UNL     1       3.954  -0.165  -2.532  0.00  0.00    +0.230 C 
BRANCH  18  19
ATOM     19  C   UNL     1       4.279  -0.767  -1.165  0.00  0.00    +0.056 C 
BRANCH  19  20
ATOM     20  C   UNL     1       3.682  -0.009   0.013  0.00  0.00    +0.122 C 
BRANCH  20  22
ATOM     21  N   UNL     1       0.901  -0.009   0.013  0.00  0.00    -0.197 NA
ATOM     22  C   UNL     1       2.162  -0.009   0.013  0.00  0.00    +0.063 C 
ENDBRANCH  20  22
ENDBRANCH  19  20
ENDBRANCH  18  19
ENDBRANCH  17  18
ENDBRANCH   1  17
TORSDOF 9
