
 OpenBabel09132204463D

 22 22  0  0  0  0  0  0  0  0999 V2000
    8.1180   -4.3720    2.0030 C   0  0  0  0  0  0  0  0  0  0  0  0
    8.9140   -3.3490    1.4630 C   0  0  0  0  0  3  0  0  0  0  0  0
    9.3150   -3.3840    0.1270 C   0  0  0  0  0  3  0  0  0  0  0  0
    8.9390   -4.4570   -0.6660 C   0  0  0  0  0  0  0  0  0  0  0  0
    8.1660   -5.4910   -0.1440 C   0  0  0  0  0  3  0  0  0  0  0  0
    7.7410   -5.4700    1.2000 C   0  0  0  0  0  0  0  0  0  0  0  0
    6.9380   -6.6600    1.6500 C   0  0  0  0  0  0  0  0  0  0  0  0
    7.5430   -7.6790    2.0920 O   0  0  0  0  0  0  0  0  0  0  0  0
    5.6160   -6.4130    1.4710 C   0  0  0  0  0  2  0  0  0  0  0  0
    4.4320   -7.2760    1.8060 C   0  0  0  0  0  0  0  0  0  0  0  0
    3.8020   -7.9700    1.0090 O   0  0  0  0  0  0  0  0  0  0  0  0
    3.8710   -7.1820    3.2560 C   0  0  0  0  0  0  0  0  0  0  0  0
    2.9380   -7.9830    3.6070 O   0  0  0  0  0  0  0  0  0  0  0  0
    4.3690   -6.2710    4.0080 O   0  0  0  0  0  1  0  0  0  0  0  0
    9.3540   -4.4810   -1.9670 O   0  0  0  0  0  0  0  0  0  0  0  0
    9.0170   -5.3150   -2.3360 H   0  0  0  0  0  0  0  0  0  0  0  0
    7.8390   -4.2140    3.3410 O   0  0  0  0  0  0  0  0  0  0  0  0
    7.8820   -2.8470    3.7620 C   0  0  0  0  0  2  0  0  0  0  0  0
    9.3420   -2.4200    3.9080 C   0  0  0  0  0  2  0  0  0  0  0  0
    9.5540   -0.9120    3.9500 C   0  0  0  0  0  2  0  0  0  0  0  0
    9.3240    0.2910    1.4540 N   0  0  0  0  0  1  0  0  0  0  0  0
    9.4280   -0.2550    2.5860 C   0  0  0  0  0  2  0  0  0  0  0  0
  1 17  1  0  0  0  0
  2  1  1  0  0  0  0
  3  2  2  0  0  0  0
  4  5  2  0  0  0  0
  4  3  1  0  0  0  0
  5  6  1  0  0  0  0
  6  7  1  0  0  0  0
  6  1  2  0  0  0  0
  7  8  2  0  0  0  0
  9  7  1  0  0  0  0
  9 10  1  0  0  0  0
 10 12  1  0  0  0  0
 11 10  2  0  0  0  0
 12 13  2  0  0  0  0
 12 14  1  0  0  0  0
 15  4  1  0  0  0  0
 16 15  1  0  0  0  0
 17 18  1  0  0  0  0
 18 19  1  0  0  0  0
 19 20  1  0  0  0  0
 21 22  1  0  0  0  0
 22 20  1  0  0  0  0
M  END
>  <minimizedAffinity>
-3.18389773

$$$$
