
 OpenBabel09132204463D

 22 22  0  0  0  0  0  0  0  0999 V2000
    5.5160   -3.7870    3.5390 C   0  0  0  0  0  0  0  0  0  0  0  0
    4.9240   -2.5550    3.8610 C   0  0  0  0  0  3  0  0  0  0  0  0
    3.5420   -2.4440    4.0190 C   0  0  0  0  0  3  0  0  0  0  0  0
    2.7470   -3.5640    3.8330 C   0  0  0  0  0  0  0  0  0  0  0  0
    3.3130   -4.7910    3.4950 C   0  0  0  0  0  3  0  0  0  0  0  0
    4.7080   -4.9270    3.3410 C   0  0  0  0  0  0  0  0  0  0  0  0
    5.1900   -6.2960    2.9440 C   0  0  0  0  0  0  0  0  0  0  0  0
    5.2060   -7.2180    3.8090 O   0  0  0  0  0  0  0  0  0  0  0  0
    5.5630   -6.2880    1.6390 C   0  0  0  0  0  2  0  0  0  0  0  0
    6.0680   -7.4160    0.7860 C   0  0  0  0  0  0  0  0  0  0  0  0
    7.1080   -8.0460    0.9730 O   0  0  0  0  0  0  0  0  0  0  0  0
    5.2800   -7.7290   -0.5200 C   0  0  0  0  0  0  0  0  0  0  0  0
    5.9330   -8.0790   -1.5630 O   0  0  0  0  0  0  0  0  0  0  0  0
    4.0070   -7.5840   -0.4740 O   0  0  0  0  0  1  0  0  0  0  0  0
    1.3950   -3.4330    3.9780 O   0  0  0  0  0  0  0  0  0  0  0  0
    1.0220   -4.3090    3.7790 H   0  0  0  0  0  0  0  0  0  0  0  0
    6.8810   -3.7250    3.3800 O   0  0  0  0  0  0  0  0  0  0  0  0
    7.2710   -3.2110    2.1030 C   0  0  0  0  0  2  0  0  0  0  0  0
    8.7950   -3.2450    1.9990 C   0  0  0  0  0  2  0  0  0  0  0  0
    9.3370   -2.9460    0.6080 C   0  0  0  0  0  2  0  0  0  0  0  0
    8.6570   -4.8830   -1.2680 N   0  0  0  0  0  1  0  0  0  0  0  0
    8.9650   -4.0050   -0.4170 C   0  0  0  0  0  2  0  0  0  0  0  0
  1  2  1  0  0  0  0
  2  3  2  0  0  0  0
  4 15  1  0  0  0  0
  4  3  1  0  0  0  0
  5  4  2  0  0  0  0
  6  5  1  0  0  0  0
  6  1  2  0  0  0  0
  7  6  1  0  0  0  0
  7  8  2  0  0  0  0
  9  7  1  0  0  0  0
 10 11  2  0  0  0  0
 10  9  1  0  0  0  0
 12 14  1  0  0  0  0
 12 10  1  0  0  0  0
 13 12  2  0  0  0  0
 16 15  1  0  0  0  0
 17  1  1  0  0  0  0
 18 17  1  0  0  0  0
 19 18  1  0  0  0  0
 20 19  1  0  0  0  0
 21 22  1  0  0  0  0
 22 20  1  0  0  0  0
M  END
>  <minimizedAffinity>
-2.90131545

$$$$
