
 OpenBabel09132204463D

 22 22  0  0  0  0  0  0  0  0999 V2000
    8.1270   -4.5660    1.7190 C   0  0  0  0  0  0  0  0  0  0  0  0
    9.0150   -4.1370    0.7190 C   0  0  0  0  0  3  0  0  0  0  0  0
    8.7440   -4.3770   -0.6290 C   0  0  0  0  0  3  0  0  0  0  0  0
    7.5940   -5.0680   -0.9760 C   0  0  0  0  0  0  0  0  0  0  0  0
    6.7110   -5.5180    0.0020 C   0  0  0  0  0  3  0  0  0  0  0  0
    6.9600   -5.2770    1.3680 C   0  0  0  0  0  0  0  0  0  0  0  0
    5.9460   -5.8420    2.3260 C   0  0  0  0  0  0  0  0  0  0  0  0
    6.0570   -7.0440    2.7030 O   0  0  0  0  0  0  0  0  0  0  0  0
    5.0200   -4.8950    2.6210 C   0  0  0  0  0  2  0  0  0  0  0  0
    3.8450   -4.9710    3.5540 C   0  0  0  0  0  0  0  0  0  0  0  0
    3.3610   -6.0030    4.0170 O   0  0  0  0  0  0  0  0  0  0  0  0
    3.0900   -3.6420    3.8560 C   0  0  0  0  0  0  0  0  0  0  0  0
    3.7710   -2.5700    4.0100 O   0  0  0  0  0  1  0  0  0  0  0  0
    1.8140   -3.7150    3.9620 O   0  0  0  0  0  0  0  0  0  0  0  0
    7.3530   -5.3070   -2.3000 O   0  0  0  0  0  0  0  0  0  0  0  0
    6.5290   -5.8220   -2.3300 H   0  0  0  0  0  0  0  0  0  0  0  0
    8.5520   -4.2890    2.9980 O   0  0  0  0  0  0  0  0  0  0  0  0
    8.2120   -2.9660    3.4240 C   0  0  0  0  0  2  0  0  0  0  0  0
    9.4960   -2.1510    3.5810 C   0  0  0  0  0  2  0  0  0  0  0  0
    9.3940   -0.7170    3.0790 C   0  0  0  0  0  2  0  0  0  0  0  0
    9.5890   -0.5130    0.3120 N   0  0  0  0  0  1  0  0  0  0  0  0
    9.5000   -0.6050    1.5670 C   0  0  0  0  0  2  0  0  0  0  0  0
  1 17  1  0  0  0  0
  2  1  2  0  0  0  0
  3  2  1  0  0  0  0
  4  3  2  0  0  0  0
  4  5  1  0  0  0  0
  5  6  2  0  0  0  0
  6  1  1  0  0  0  0
  6  7  1  0  0  0  0
  7  9  1  0  0  0  0
  7  8  2  0  0  0  0
  9 10  1  0  0  0  0
 10 12  1  0  0  0  0
 10 11  2  0  0  0  0
 12 14  2  0  0  0  0
 12 13  1  0  0  0  0
 15  4  1  0  0  0  0
 16 15  1  0  0  0  0
 17 18  1  0  0  0  0
 18 19  1  0  0  0  0
 20 19  1  0  0  0  0
 21 22  1  0  0  0  0
 22 20  1  0  0  0  0
M  END
>  <minimizedAffinity>
-3.88762856

$$$$
