
 OpenBabel09122222393D

 31 34  0  0  1  0  0  0  0  0999 V2000
    4.0200   -5.9120    4.6250 N   0  0  0  0  0  0  0  0  0  0  0  0
    3.5960   -7.1750    5.0690 C   0  0  0  0  0  0  0  0  0  0  0  0
    4.0690   -8.2680    4.7620 O   0  0  0  0  0  0  0  0  0  0  0  0
    4.7580   -5.8390    3.4320 C   0  0  0  0  0  0  0  0  0  0  0  0
    5.5840   -4.8550    3.1400 N   0  0  0  0  0  0  0  0  0  0  0  0
    6.0520   -5.0060    1.8460 C   0  0  0  0  0  3  0  0  0  0  0  0
    5.5390   -6.0760    1.1500 C   0  0  0  0  0  0  0  0  0  0  0  0
    4.4640   -6.9460    2.1490 S   0  0  0  0  0  0  0  0  0  0  0  0
    1.9720   -3.6360    4.3460 C   0  0  0  0  0  1  0  0  0  0  0  0
    3.3830   -3.4320    4.9020 C   0  0  1  0  0  3  0  0  0  0  0  0
    3.3630   -2.2950    5.9400 C   0  0  0  0  0  2  0  0  0  0  0  0
    4.7380   -2.0620    6.5580 C   0  0  0  0  0  2  0  0  0  0  0  0
    5.2900   -3.3330    7.1890 C   0  0  0  0  0  2  0  0  0  0  0  0
    5.3390   -4.4800    6.1840 C   0  0  0  0  0  2  0  0  0  0  0  0
    3.9620   -4.7310    5.5330 C   0  0  2  0  0  3  0  0  0  0  0  0
    2.4940   -7.2290    6.0570 C   0  0  0  0  0  0  0  0  0  0  0  0
    2.8030   -7.3490    7.4160 C   0  0  0  0  0  3  0  0  0  0  0  0
    1.7720   -7.3980    8.3550 C   0  0  0  0  0  3  0  0  0  0  0  0
    0.4440   -7.3260    7.9300 C   0  0  0  0  0  0  0  0  0  0  0  0
    0.1340   -7.2610    6.5680 C   0  0  0  0  0  3  0  0  0  0  0  0
    1.1630   -7.2150    5.6260 C   0  0  0  0  0  3  0  0  0  0  0  0
   -0.5330   -7.4000    8.8980 O   0  0  0  0  0  0  0  0  0  0  0  0
   -1.7970   -7.7490    8.4780 C   0  0  0  0  0  0  0  0  0  0  0  0
   -2.4120   -7.1690    7.3660 C   0  0  0  0  0  3  0  0  0  0  0  0
   -3.7120   -7.5410    7.0200 C   0  0  0  0  0  3  0  0  0  0  0  0
   -4.3990   -8.4790    7.7920 C   0  0  0  0  0  3  0  0  0  0  0  0
   -3.7920   -9.0410    8.9150 C   0  0  0  0  0  3  0  0  0  0  0  0
   -2.4920   -8.6700    9.2640 C   0  0  0  0  0  3  0  0  0  0  0  0
    5.8780   -6.3810   -0.2530 C   0  0  0  0  0  0  0  0  0  0  0  0
    5.2470   -7.3250   -0.8180 O   0  0  0  0  0  0  0  0  0  0  0  0
    6.7750   -5.6540   -0.7840 O   0  0  0  0  0  1  0  0  0  0  0  0
  1  2  1  0  0  0  0
  2 16  1  0  0  0  0
  3  2  2  0  0  0  0
  4  1  1  0  0  0  0
  5  4  2  0  0  0  0
  6  5  1  0  0  0  0
  7  6  2  0  0  0  0
  7  8  1  0  0  0  0
  8  4  1  0  0  0  0
 10  9  1  1  0  0  0
 10 15  1  0  0  0  0
 10 11  1  0  0  0  0
 11 12  1  0  0  0  0
 12 13  1  0  0  0  0
 14 13  1  0  0  0  0
 15  1  1  6  0  0  0
 15 14  1  0  0  0  0
 16 17  1  0  0  0  0
 17 18  2  0  0  0  0
 19 18  1  0  0  0  0
 19 22  1  0  0  0  0
 20 19  2  0  0  0  0
 21 16  2  0  0  0  0
 21 20  1  0  0  0  0
 23 22  1  0  0  0  0
 23 28  1  0  0  0  0
 24 23  2  0  0  0  0
 25 24  1  0  0  0  0
 25 26  2  0  0  0  0
 26 27  1  0  0  0  0
 27 28  2  0  0  0  0
 29  7  1  0  0  0  0
 30 29  2  0  0  0  0
 31 29  1  0  0  0  0
M  END
>  <minimizedAffinity>
-7.07536316

$$$$
