
 OpenBabel09122222393D

 31 34  0  0  1  0  0  0  0  0999 V2000
    4.4370   -3.8180    7.9150 N   0  0  0  0  0  0  0  0  0  0  0  0
    4.6250   -4.3670    6.6360 C   0  0  0  0  0  0  0  0  0  0  0  0
    5.6550   -4.3460    5.9630 O   0  0  0  0  0  0  0  0  0  0  0  0
    5.3140   -2.8060    8.3410 C   0  0  0  0  0  0  0  0  0  0  0  0
    5.5560   -2.5320    9.6060 N   0  0  0  0  0  0  0  0  0  0  0  0
    6.3540   -1.4040    9.6950 C   0  0  0  0  0  3  0  0  0  0  0  0
    6.6690   -0.8030    8.4980 C   0  0  0  0  0  0  0  0  0  0  0  0
    5.9780   -1.6900    7.2140 S   0  0  0  0  0  0  0  0  0  0  0  0
    4.9220   -6.6450    9.0230 C   0  0  0  0  0  1  0  0  0  0  0  0
    3.5270   -6.0420    8.8430 C   0  0  1  0  0  3  0  0  0  0  0  0
    2.5830   -6.6100    9.9180 C   0  0  0  0  0  2  0  0  0  0  0  0
    1.1790   -6.0220    9.8130 C   0  0  0  0  0  2  0  0  0  0  0  0
    1.2030   -4.5010    9.8910 C   0  0  0  0  0  2  0  0  0  0  0  0
    2.1180   -3.9010    8.8290 C   0  0  0  0  0  2  0  0  0  0  0  0
    3.5440   -4.4880    8.9030 C   0  0  2  0  0  3  0  0  0  0  0  0
    3.4950   -5.1030    6.0240 C   0  0  0  0  0  0  0  0  0  0  0  0
    3.5970   -6.4880    5.8540 C   0  0  0  0  0  3  0  0  0  0  0  0
    2.5370   -7.1900    5.2800 C   0  0  0  0  0  3  0  0  0  0  0  0
    1.3860   -6.5070    4.8840 C   0  0  0  0  0  0  0  0  0  0  0  0
    1.3070   -5.1160    5.0040 C   0  0  0  0  0  3  0  0  0  0  0  0
    2.3670   -4.4090    5.5740 C   0  0  0  0  0  3  0  0  0  0  0  0
    0.3800   -7.2480    4.3040 O   0  0  0  0  0  0  0  0  0  0  0  0
   -0.7640   -7.4300    5.0470 C   0  0  0  0  0  0  0  0  0  0  0  0
   -0.7990   -7.2680    6.4350 C   0  0  0  0  0  3  0  0  0  0  0  0
   -1.9850   -7.5070    7.1310 C   0  0  0  0  0  3  0  0  0  0  0  0
   -3.1270   -7.9210    6.4430 C   0  0  0  0  0  3  0  0  0  0  0  0
   -3.0840   -8.1040    5.0610 C   0  0  0  0  0  3  0  0  0  0  0  0
   -1.9000   -7.8660    4.3620 C   0  0  0  0  0  3  0  0  0  0  0  0
    7.4690    0.4310    8.3850 C   0  0  0  0  0  0  0  0  0  0  0  0
    7.9130    0.7400    7.2370 O   0  0  0  0  0  0  0  0  0  0  0  0
    7.6350    1.0920    9.4570 O   0  0  0  0  0  1  0  0  0  0  0  0
  1  4  1  0  0  0  0
  2  1  1  0  0  0  0
  3  2  2  0  0  0  0
  4  5  2  0  0  0  0
  5  6  1  0  0  0  0
  7  6  2  0  0  0  0
  8  4  1  0  0  0  0
  8  7  1  0  0  0  0
 10 15  1  0  0  0  0
 10  9  1  1  0  0  0
 10 11  1  0  0  0  0
 12 13  1  0  0  0  0
 12 11  1  0  0  0  0
 14 15  1  0  0  0  0
 14 13  1  0  0  0  0
 15  1  1  6  0  0  0
 16  2  1  0  0  0  0
 17 16  1  0  0  0  0
 18 17  2  0  0  0  0
 19 20  2  0  0  0  0
 19 18  1  0  0  0  0
 20 21  1  0  0  0  0
 21 16  2  0  0  0  0
 22 19  1  0  0  0  0
 22 23  1  0  0  0  0
 23 24  1  0  0  0  0
 24 25  2  0  0  0  0
 26 25  1  0  0  0  0
 27 26  2  0  0  0  0
 28 23  2  0  0  0  0
 28 27  1  0  0  0  0
 29  7  1  0  0  0  0
 29 31  1  0  0  0  0
 30 29  2  0  0  0  0
M  END
>  <minimizedAffinity>
-4.96802378

$$$$
