
 OpenBabel09122222393D

 31 34  0  0  1  0  0  0  0  0999 V2000
    1.2640   -6.6410    6.7160 N   0  0  0  0  0  0  0  0  0  0  0  0
    1.8290   -7.0110    7.9470 C   0  0  0  0  0  0  0  0  0  0  0  0
    1.5060   -7.9620    8.6570 O   0  0  0  0  0  0  0  0  0  0  0  0
   -0.0320   -7.0950    6.4150 C   0  0  0  0  0  0  0  0  0  0  0  0
   -0.4950   -7.2260    5.1890 N   0  0  0  0  0  0  0  0  0  0  0  0
   -1.8380   -7.5640    5.2310 C   0  0  0  0  0  3  0  0  0  0  0  0
   -2.3930   -7.6370    6.4880 C   0  0  0  0  0  0  0  0  0  0  0  0
   -1.1980   -7.3090    7.6610 S   0  0  0  0  0  0  0  0  0  0  0  0
    3.1010   -8.2930    4.8850 C   0  0  0  0  0  1  0  0  0  0  0  0
    3.4010   -6.8480    5.2940 C   0  0  1  0  0  3  0  0  0  0  0  0
    4.1770   -6.1480    4.1630 C   0  0  0  0  0  2  0  0  0  0  0  0
    4.4800   -4.6910    4.4960 C   0  0  0  0  0  2  0  0  0  0  0  0
    3.2090   -3.9140    4.8150 C   0  0  0  0  0  2  0  0  0  0  0  0
    2.4210   -4.5720    5.9440 C   0  0  0  0  0  2  0  0  0  0  0  0
    2.1100   -6.0520    5.6390 C   0  0  2  0  0  3  0  0  0  0  0  0
    2.9770   -6.2210    8.4490 C   0  0  0  0  0  0  0  0  0  0  0  0
    2.7620   -4.9090    8.8860 C   0  0  0  0  0  3  0  0  0  0  0  0
    3.8360   -4.1580    9.3620 C   0  0  0  0  0  3  0  0  0  0  0  0
    5.1130   -4.7200    9.3990 C   0  0  0  0  0  0  0  0  0  0  0  0
    5.3370   -6.0120    8.9110 C   0  0  0  0  0  3  0  0  0  0  0  0
    4.2650   -6.7650    8.4310 C   0  0  0  0  0  3  0  0  0  0  0  0
    6.1400   -3.9250    9.8580 O   0  0  0  0  0  0  0  0  0  0  0  0
    6.6180   -2.9670    8.9930 C   0  0  0  0  0  0  0  0  0  0  0  0
    6.2560   -1.6210    9.0790 C   0  0  0  0  0  3  0  0  0  0  0  0
    6.7490   -0.7090    8.1450 C   0  0  0  0  0  3  0  0  0  0  0  0
    7.5890   -1.1450    7.1200 C   0  0  0  0  0  3  0  0  0  0  0  0
    7.9320   -2.4940    7.0210 C   0  0  0  0  0  3  0  0  0  0  0  0
    7.4400   -3.4080    7.9540 C   0  0  0  0  0  3  0  0  0  0  0  0
   -3.8140   -7.9390    6.7410 C   0  0  0  0  0  0  0  0  0  0  0  0
   -4.4910   -7.0810    7.3850 O   0  0  0  0  0  1  0  0  0  0  0  0
   -4.2460   -9.0390    6.2730 O   0  0  0  0  0  0  0  0  0  0  0  0
  1  2  1  0  0  0  0
  2 16  1  0  0  0  0
  2  3  2  0  0  0  0
  4  1  1  0  0  0  0
  4  8  1  0  0  0  0
  5  6  1  0  0  0  0
  5  4  2  0  0  0  0
  6  7  2  0  0  0  0
  7 29  1  0  0  0  0
  7  8  1  0  0  0  0
 10  9  1  6  0  0  0
 10 15  1  0  0  0  0
 11 12  1  0  0  0  0
 11 10  1  0  0  0  0
 12 13  1  0  0  0  0
 13 14  1  0  0  0  0
 15 14  1  0  0  0  0
 15  1  1  1  0  0  0
 16 17  1  0  0  0  0
 17 18  2  0  0  0  0
 18 19  1  0  0  0  0
 19 22  1  0  0  0  0
 20 19  2  0  0  0  0
 21 16  2  0  0  0  0
 21 20  1  0  0  0  0
 23 24  1  0  0  0  0
 23 22  1  0  0  0  0
 25 24  2  0  0  0  0
 26 25  1  0  0  0  0
 27 26  2  0  0  0  0
 27 28  1  0  0  0  0
 28 23  2  0  0  0  0
 29 30  1  0  0  0  0
 31 29  2  0  0  0  0
M  END
>  <minimizedAffinity>
-5.75864315

$$$$
