
 OpenBabel09122222393D

 31 34  0  0  1  0  0  0  0  0999 V2000
    3.5590   -6.1430    4.3520 N   0  0  0  0  0  0  0  0  0  0  0  0
    3.5650   -4.7460    4.4920 C   0  0  0  0  0  0  0  0  0  0  0  0
    3.4000   -3.9090    3.6050 O   0  0  0  0  0  0  0  0  0  0  0  0
    3.8000   -6.6850    3.0770 C   0  0  0  0  0  0  0  0  0  0  0  0
    3.3890   -7.8780    2.7000 N   0  0  0  0  0  0  0  0  0  0  0  0
    3.8960   -8.1710    1.4450 C   0  0  0  0  0  3  0  0  0  0  0  0
    4.7260   -7.2180    0.9020 C   0  0  0  0  0  0  0  0  0  0  0  0
    4.8550   -5.8960    1.9730 S   0  0  0  0  0  0  0  0  0  0  0  0
    0.5670   -6.3920    5.0130 C   0  0  0  0  0  1  0  0  0  0  0  0
    1.6740   -6.5410    6.0600 C   0  0  1  0  0  3  0  0  0  0  0  0
    1.2150   -7.5260    7.1510 C   0  0  0  0  0  2  0  0  0  0  0  0
    2.2890   -7.7430    8.2120 C   0  0  0  0  0  2  0  0  0  0  0  0
    3.5970   -8.2210    7.5940 C   0  0  0  0  0  2  0  0  0  0  0  0
    4.0900   -7.2600    6.5170 C   0  0  0  0  0  2  0  0  0  0  0  0
    3.0180   -7.0120    5.4350 C   0  0  2  0  0  3  0  0  0  0  0  0
    3.7340   -4.1860    5.8520 C   0  0  0  0  0  0  0  0  0  0  0  0
    4.9710   -4.3160    6.4940 C   0  0  0  0  0  3  0  0  0  0  0  0
    5.1400   -3.7900    7.7750 C   0  0  0  0  0  3  0  0  0  0  0  0
    4.0770   -3.1400    8.4040 C   0  0  0  0  0  0  0  0  0  0  0  0
    2.8250   -3.0590    7.7850 C   0  0  0  0  0  3  0  0  0  0  0  0
    2.6510   -3.5860    6.5040 C   0  0  0  0  0  3  0  0  0  0  0  0
    4.2940   -2.6600    9.6760 O   0  0  0  0  0  0  0  0  0  0  0  0
    5.0700   -1.5290    9.7880 C   0  0  0  0  0  0  0  0  0  0  0  0
    4.5310   -0.2400    9.8190 C   0  0  0  0  0  3  0  0  0  0  0  0
    5.3790    0.8650    9.8960 C   0  0  0  0  0  3  0  0  0  0  0  0
    6.7620    0.6840    9.9270 C   0  0  0  0  0  3  0  0  0  0  0  0
    7.3010   -0.6020    9.8730 C   0  0  0  0  0  3  0  0  0  0  0  0
    6.4550   -1.7100    9.7960 C   0  0  0  0  0  3  0  0  0  0  0  0
    5.3980   -7.3620   -0.4030 C   0  0  0  0  0  0  0  0  0  0  0  0
    5.2480   -8.4590   -1.0230 O   0  0  0  0  0  0  0  0  0  0  0  0
    6.0660   -6.3580   -0.8040 O   0  0  0  0  0  1  0  0  0  0  0  0
  1  2  1  0  0  0  0
  2 16  1  0  0  0  0
  3  2  2  0  0  0  0
  4  1  1  0  0  0  0
  5  4  2  0  0  0  0
  6  5  1  0  0  0  0
  7  6  2  0  0  0  0
  7  8  1  0  0  0  0
  8  4  1  0  0  0  0
 10  9  1  6  0  0  0
 10 11  1  0  0  0  0
 11 12  1  0  0  0  0
 13 12  1  0  0  0  0
 14 13  1  0  0  0  0
 15  1  1  6  0  0  0
 15 10  1  0  0  0  0
 15 14  1  0  0  0  0
 16 17  2  0  0  0  0
 16 21  1  0  0  0  0
 17 18  1  0  0  0  0
 18 19  2  0  0  0  0
 19 22  1  0  0  0  0
 20 19  1  0  0  0  0
 21 20  2  0  0  0  0
 22 23  1  0  0  0  0
 23 28  2  0  0  0  0
 23 24  1  0  0  0  0
 24 25  2  0  0  0  0
 25 26  1  0  0  0  0
 27 26  2  0  0  0  0
 28 27  1  0  0  0  0
 29  7  1  0  0  0  0
 30 29  2  0  0  0  0
 31 29  1  0  0  0  0
M  END
>  <minimizedAffinity>
-5.14593315

$$$$
