
 OpenBabel09122222393D

 31 34  0  0  1  0  0  0  0  0999 V2000
    3.8100   -5.6060    4.1360 N   0  0  0  0  0  0  0  0  0  0  0  0
    3.6120   -6.7910    4.8640 C   0  0  0  0  0  0  0  0  0  0  0  0
    4.2780   -7.8230    4.8000 O   0  0  0  0  0  0  0  0  0  0  0  0
    4.5430   -5.6750    2.9390 C   0  0  0  0  0  0  0  0  0  0  0  0
    5.1830   -4.6520    2.4130 N   0  0  0  0  0  0  0  0  0  0  0  0
    5.6920   -5.0060    1.1740 C   0  0  0  0  0  3  0  0  0  0  0  0
    5.3910   -6.2800    0.7510 C   0  0  0  0  0  0  0  0  0  0  0  0
    4.4730   -7.0780    1.9470 S   0  0  0  0  0  0  0  0  0  0  0  0
    5.6450   -4.2470    6.1950 C   0  0  0  0  0  1  0  0  0  0  0  0
    4.1250   -4.0610    6.1720 C   0  0  1  0  0  3  0  0  0  0  0  0
    3.7750   -2.6550    6.6920 C   0  0  0  0  0  2  0  0  0  0  0  0
    2.2720   -2.3950    6.6650 C   0  0  0  0  0  2  0  0  0  0  0  0
    1.6950   -2.5940    5.2690 C   0  0  0  0  0  2  0  0  0  0  0  0
    2.0110   -3.9840    4.7270 C   0  0  0  0  0  2  0  0  0  0  0  0
    3.5250   -4.2800    4.7540 C   0  0  2  0  0  3  0  0  0  0  0  0
    2.5210   -6.8150    5.8650 C   0  0  0  0  0  0  0  0  0  0  0  0
    2.8230   -6.5680    7.2090 C   0  0  0  0  0  3  0  0  0  0  0  0
    1.8020   -6.5870    8.1590 C   0  0  0  0  0  3  0  0  0  0  0  0
    0.4900   -6.8500    7.7610 C   0  0  0  0  0  0  0  0  0  0  0  0
    0.1960   -7.1510    6.4270 C   0  0  0  0  0  3  0  0  0  0  0  0
    1.2160   -7.1360    5.4750 C   0  0  0  0  0  3  0  0  0  0  0  0
   -0.4740   -6.8760    8.7440 O   0  0  0  0  0  0  0  0  0  0  0  0
   -1.6790   -7.4550    8.4170 C   0  0  0  0  0  0  0  0  0  0  0  0
   -2.4390   -7.0510    7.3160 C   0  0  0  0  0  3  0  0  0  0  0  0
   -3.6710   -7.6550    7.0640 C   0  0  0  0  0  3  0  0  0  0  0  0
   -4.1490   -8.6490    7.9190 C   0  0  0  0  0  3  0  0  0  0  0  0
   -3.4000   -9.0360    9.0310 C   0  0  0  0  0  3  0  0  0  0  0  0
   -2.1680   -8.4330    9.2850 C   0  0  0  0  0  3  0  0  0  0  0  0
    5.8040   -6.8300   -0.5540 C   0  0  0  0  0  0  0  0  0  0  0  0
    6.5670   -6.1190   -1.2760 O   0  0  0  0  0  0  0  0  0  0  0  0
    5.3640   -7.9870   -0.8400 O   0  0  0  0  0  1  0  0  0  0  0  0
  1  2  1  0  0  0  0
  2 16  1  0  0  0  0
  3  2  2  0  0  0  0
  4  1  1  0  0  0  0
  5  4  2  0  0  0  0
  6  5  1  0  0  0  0
  7  6  2  0  0  0  0
  7  8  1  0  0  0  0
  8  4  1  0  0  0  0
 10  9  1  6  0  0  0
 10 11  1  0  0  0  0
 12 11  1  0  0  0  0
 13 12  1  0  0  0  0
 14 15  1  0  0  0  0
 14 13  1  0  0  0  0
 15  1  1  1  0  0  0
 15 10  1  0  0  0  0
 16 17  1  0  0  0  0
 17 18  2  0  0  0  0
 19 18  1  0  0  0  0
 19 22  1  0  0  0  0
 20 19  2  0  0  0  0
 21 16  2  0  0  0  0
 21 20  1  0  0  0  0
 23 22  1  0  0  0  0
 23 28  1  0  0  0  0
 24 23  2  0  0  0  0
 25 24  1  0  0  0  0
 25 26  2  0  0  0  0
 26 27  1  0  0  0  0
 27 28  2  0  0  0  0
 29  7  1  0  0  0  0
 30 29  2  0  0  0  0
 31 29  1  0  0  0  0
M  END
>  <minimizedAffinity>
-6.23222113

$$$$
