
 OpenBabel09122222393D

 31 34  0  0  1  0  0  0  0  0999 V2000
    3.5930   -5.9340    6.8460 N   0  0  0  0  0  0  0  0  0  0  0  0
    3.2030   -6.5050    5.6230 C   0  0  0  0  0  0  0  0  0  0  0  0
    3.9160   -6.7250    4.6460 O   0  0  0  0  0  0  0  0  0  0  0  0
    4.7650   -5.1600    6.8760 C   0  0  0  0  0  0  0  0  0  0  0  0
    5.4820   -4.9590    7.9620 N   0  0  0  0  0  0  0  0  0  0  0  0
    6.4940   -4.0520    7.6930 C   0  0  0  0  0  3  0  0  0  0  0  0
    6.5050   -3.5360    6.4180 C   0  0  0  0  0  0  0  0  0  0  0  0
    5.2360   -4.2270    5.5100 S   0  0  0  0  0  0  0  0  0  0  0  0
    3.9290   -8.7520    8.0300 C   0  0  0  0  0  1  0  0  0  0  0  0
    2.6720   -7.9020    8.2290 C   0  0  1  0  0  3  0  0  0  0  0  0
    2.0430   -8.2340    9.5950 C   0  0  0  0  0  2  0  0  0  0  0  0
    0.7990   -7.3940    9.8690 C   0  0  0  0  0  2  0  0  0  0  0  0
    1.1000   -5.9040    9.7810 C   0  0  0  0  0  2  0  0  0  0  0  0
    1.7120   -5.5350    8.4340 C   0  0  0  0  0  2  0  0  0  0  0  0
    2.9670   -6.3780    8.1240 C   0  0  2  0  0  3  0  0  0  0  0  0
    1.7980   -6.9490    5.4820 C   0  0  0  0  0  0  0  0  0  0  0  0
    1.5260   -8.3130    5.3280 C   0  0  0  0  0  3  0  0  0  0  0  0
    0.2050   -8.7410    5.1960 C   0  0  0  0  0  3  0  0  0  0  0  0
   -0.8320   -7.8070    5.2210 C   0  0  0  0  0  0  0  0  0  0  0  0
   -0.5570   -6.4400    5.3200 C   0  0  0  0  0  3  0  0  0  0  0  0
    0.7630   -6.0070    5.4490 C   0  0  0  0  0  3  0  0  0  0  0  0
   -2.1150   -8.2850    5.0650 O   0  0  0  0  0  0  0  0  0  0  0  0
   -2.9940   -8.0490    6.0970 C   0  0  0  0  0  0  0  0  0  0  0  0
   -3.3820   -9.0400    7.0030 C   0  0  0  0  0  3  0  0  0  0  0  0
   -4.3080   -8.7410    8.0030 C   0  0  0  0  0  3  0  0  0  0  0  0
   -4.8560   -7.4610    8.0880 C   0  0  0  0  0  3  0  0  0  0  0  0
   -4.4850   -6.4780    7.1690 C   0  0  0  0  0  3  0  0  0  0  0  0
   -3.5600   -6.7740    6.1680 C   0  0  0  0  0  3  0  0  0  0  0  0
    7.4730   -2.5270    5.9500 C   0  0  0  0  0  0  0  0  0  0  0  0
    7.9420   -2.6610    4.7790 O   0  0  0  0  0  0  0  0  0  0  0  0
    7.7460   -1.5910    6.7650 O   0  0  0  0  0  1  0  0  0  0  0  0
  1  4  1  0  0  0  0
  2  1  1  0  0  0  0
  3  2  2  0  0  0  0
  4  5  2  0  0  0  0
  6  5  1  0  0  0  0
  7  6  2  0  0  0  0
  8  7  1  0  0  0  0
  8  4  1  0  0  0  0
 10  9  1  1  0  0  0
 10 11  1  0  0  0  0
 11 12  1  0  0  0  0
 13 12  1  0  0  0  0
 14 13  1  0  0  0  0
 15  1  1  6  0  0  0
 15 10  1  0  0  0  0
 15 14  1  0  0  0  0
 16  2  1  0  0  0  0
 17 16  2  0  0  0  0
 18 19  2  0  0  0  0
 18 17  1  0  0  0  0
 19 20  1  0  0  0  0
 20 21  2  0  0  0  0
 21 16  1  0  0  0  0
 22 19  1  0  0  0  0
 22 23  1  0  0  0  0
 23 28  2  0  0  0  0
 23 24  1  0  0  0  0
 24 25  2  0  0  0  0
 25 26  1  0  0  0  0
 27 26  2  0  0  0  0
 28 27  1  0  0  0  0
 29  7  1  0  0  0  0
 29 31  1  0  0  0  0
 30 29  2  0  0  0  0
M  END
>  <minimizedAffinity>
-5.36392498

$$$$
