
 OpenBabel09122222393D

 31 34  0  0  1  0  0  0  0  0999 V2000
    3.5850   -5.4750    5.6740 N   0  0  0  0  0  0  0  0  0  0  0  0
    3.3540   -6.8460    5.4680 C   0  0  0  0  0  0  0  0  0  0  0  0
    4.1750   -7.6950    5.1280 O   0  0  0  0  0  0  0  0  0  0  0  0
    4.7100   -4.8930    5.0670 C   0  0  0  0  0  0  0  0  0  0  0  0
    5.2980   -3.8010    5.5110 N   0  0  0  0  0  0  0  0  0  0  0  0
    6.2890   -3.4100    4.6260 C   0  0  0  0  0  3  0  0  0  0  0  0
    6.4100   -4.1820    3.4930 C   0  0  0  0  0  0  0  0  0  0  0  0
    5.2780   -5.4570    3.5460 S   0  0  0  0  0  0  0  0  0  0  0  0
    1.9910   -2.8940    5.1690 C   0  0  0  0  0  1  0  0  0  0  0  0
    2.6910   -3.2040    6.4950 C   0  0  1  0  0  3  0  0  0  0  0  0
    1.9040   -2.5580    7.6500 C   0  0  0  0  0  2  0  0  0  0  0  0
    2.5330   -2.8570    9.0070 C   0  0  0  0  0  2  0  0  0  0  0  0
    2.6680   -4.3560    9.2430 C   0  0  0  0  0  2  0  0  0  0  0  0
    3.4560   -5.0290    8.1230 C   0  0  0  0  0  2  0  0  0  0  0  0
    2.8490   -4.7330    6.7360 C   0  0  2  0  0  3  0  0  0  0  0  0
    1.9930   -7.3670    5.7340 C   0  0  0  0  0  0  0  0  0  0  0  0
    1.4940   -7.3350    7.0410 C   0  0  0  0  0  3  0  0  0  0  0  0
    0.2130   -7.8210    7.3010 C   0  0  0  0  0  3  0  0  0  0  0  0
   -0.5590   -8.3330    6.2570 C   0  0  0  0  0  0  0  0  0  0  0  0
   -0.0400   -8.4140    4.9600 C   0  0  0  0  0  3  0  0  0  0  0  0
    1.2430   -7.9320    4.6980 C   0  0  0  0  0  3  0  0  0  0  0  0
   -1.8080   -8.8190    6.5750 O   0  0  0  0  0  0  0  0  0  0  0  0
   -2.7600   -7.8930    6.9380 C   0  0  0  0  0  0  0  0  0  0  0  0
   -3.5620   -8.0370    8.0730 C   0  0  0  0  0  3  0  0  0  0  0  0
   -4.5350   -7.0800    8.3610 C   0  0  0  0  0  3  0  0  0  0  0  0
   -4.7160   -5.9900    7.5080 C   0  0  0  0  0  3  0  0  0  0  0  0
   -3.9310   -5.8590    6.3620 C   0  0  0  0  0  3  0  0  0  0  0  0
   -2.9570   -6.8160    6.0720 C   0  0  0  0  0  3  0  0  0  0  0  0
    7.3750   -3.9040    2.4120 C   0  0  0  0  0  0  0  0  0  0  0  0
    7.9240   -2.7610    2.3930 O   0  0  0  0  0  1  0  0  0  0  0  0
    7.5830   -4.8510    1.5900 O   0  0  0  0  0  0  0  0  0  0  0  0
  2  1  1  0  0  0  0
  2 16  1  0  0  0  0
  3  2  2  0  0  0  0
  4  5  2  0  0  0  0
  4  1  1  0  0  0  0
  6  5  1  0  0  0  0
  7  8  1  0  0  0  0
  7  6  2  0  0  0  0
  8  4  1  0  0  0  0
 10  9  1  6  0  0  0
 10 15  1  0  0  0  0
 10 11  1  0  0  0  0
 11 12  1  0  0  0  0
 12 13  1  0  0  0  0
 14 13  1  0  0  0  0
 15  1  1  6  0  0  0
 15 14  1  0  0  0  0
 16 17  1  0  0  0  0
 17 18  2  0  0  0  0
 19 22  1  0  0  0  0
 19 18  1  0  0  0  0
 20 19  2  0  0  0  0
 21 20  1  0  0  0  0
 21 16  2  0  0  0  0
 22 23  1  0  0  0  0
 23 24  1  0  0  0  0
 24 25  2  0  0  0  0
 26 25  1  0  0  0  0
 27 26  2  0  0  0  0
 28 27  1  0  0  0  0
 28 23  2  0  0  0  0
 29  7  1  0  0  0  0
 30 29  1  0  0  0  0
 31 29  2  0  0  0  0
M  END
>  <minimizedAffinity>
-4.94283962

$$$$
