
 OpenBabel09122222393D

 31 34  0  0  1  0  0  0  0  0999 V2000
    1.5870   -6.9820    6.7210 N   0  0  0  0  0  0  0  0  0  0  0  0
    1.8470   -6.9750    8.1020 C   0  0  0  0  0  0  0  0  0  0  0  0
    1.2400   -7.5910    8.9760 O   0  0  0  0  0  0  0  0  0  0  0  0
    0.3070   -7.3680    6.2880 C   0  0  0  0  0  0  0  0  0  0  0  0
    0.0560   -7.8530    5.0900 N   0  0  0  0  0  0  0  0  0  0  0  0
   -1.3110   -8.0110    4.9260 C   0  0  0  0  0  3  0  0  0  0  0  0
   -2.0860   -7.5960    5.9840 C   0  0  0  0  0  0  0  0  0  0  0  0
   -1.0830   -7.0240    7.2400 S   0  0  0  0  0  0  0  0  0  0  0  0
    2.4020   -4.3760    5.3080 C   0  0  0  0  0  1  0  0  0  0  0  0
    2.5590   -5.7600    4.6740 C   0  0  1  0  0  3  0  0  0  0  0  0
    3.7770   -5.7550    3.7310 C   0  0  0  0  0  2  0  0  0  0  0  0
    4.0080   -7.1190    3.0890 C   0  0  0  0  0  2  0  0  0  0  0  0
    4.1650   -8.2120    4.1390 C   0  0  0  0  0  2  0  0  0  0  0  0
    2.9680   -8.2570    5.0830 C   0  0  0  0  0  2  0  0  0  0  0  0
    2.7030   -6.8850    5.7390 C   0  0  2  0  0  3  0  0  0  0  0  0
    3.0070   -6.1910    8.5840 C   0  0  0  0  0  0  0  0  0  0  0  0
    2.8530   -4.8190    8.8170 C   0  0  0  0  0  3  0  0  0  0  0  0
    3.9400   -4.0720    9.2730 C   0  0  0  0  0  3  0  0  0  0  0  0
    5.1670   -4.6990    9.4950 C   0  0  0  0  0  0  0  0  0  0  0  0
    5.3350   -6.0580    9.2110 C   0  0  0  0  0  3  0  0  0  0  0  0
    4.2520   -6.8070    8.7510 C   0  0  0  0  0  3  0  0  0  0  0  0
    6.2100   -3.9090    9.9250 O   0  0  0  0  0  0  0  0  0  0  0  0
    6.6750   -2.9590    9.0430 C   0  0  0  0  0  0  0  0  0  0  0  0
    7.1990   -3.2830    7.7890 C   0  0  0  0  0  3  0  0  0  0  0  0
    7.6880   -2.2720    6.9600 C   0  0  0  0  0  3  0  0  0  0  0  0
    7.6660   -0.9450    7.3900 C   0  0  0  0  0  3  0  0  0  0  0  0
    7.1630   -0.6250    8.6520 C   0  0  0  0  0  3  0  0  0  0  0  0
    6.6740   -1.6340    9.4830 C   0  0  0  0  0  3  0  0  0  0  0  0
   -3.5610   -7.6400    5.9870 C   0  0  0  0  0  0  0  0  0  0  0  0
   -4.1160   -8.7240    6.3430 O   0  0  0  0  0  1  0  0  0  0  0  0
   -4.1540   -6.5710    5.6410 O   0  0  0  0  0  0  0  0  0  0  0  0
  1  2  1  0  0  0  0
  2 16  1  0  0  0  0
  2  3  2  0  0  0  0
  4  1  1  0  0  0  0
  4  8  1  0  0  0  0
  5  4  2  0  0  0  0
  6  5  1  0  0  0  0
  6  7  2  0  0  0  0
  7 29  1  0  0  0  0
  7  8  1  0  0  0  0
 10  9  1  1  0  0  0
 10 15  1  0  0  0  0
 11 10  1  0  0  0  0
 12 11  1  0  0  0  0
 12 13  1  0  0  0  0
 13 14  1  0  0  0  0
 14 15  1  0  0  0  0
 15  1  1  6  0  0  0
 16 21  2  0  0  0  0
 16 17  1  0  0  0  0
 17 18  2  0  0  0  0
 18 19  1  0  0  0  0
 19 22  1  0  0  0  0
 20 19  2  0  0  0  0
 21 20  1  0  0  0  0
 23 28  1  0  0  0  0
 23 22  1  0  0  0  0
 24 23  2  0  0  0  0
 25 26  2  0  0  0  0
 25 24  1  0  0  0  0
 26 27  1  0  0  0  0
 27 28  2  0  0  0  0
 29 30  1  0  0  0  0
 31 29  2  0  0  0  0
M  END
>  <minimizedAffinity>
-6.38850451

$$$$
