REMARK  Name = 
REMARK  5 active torsions:
REMARK  status: ('A' for Active; 'I' for Inactive)
REMARK    1  A    between atoms: C_1  and  C_2
REMARK    2  A    between atoms: C_2  and  C_3
REMARK    3  A    between atoms: C_4  and  C_5
REMARK    4  A    between atoms: C_9  and  C_10
REMARK    5  A    between atoms: N_16  and  C_17
REMARK                            x       y       z     vdW  Elec       q    Type
REMARK                         _______ _______ _______ _____ _____    ______ ____
ROOT
ATOM      1  C   UNL     1       1.805   2.384  -1.087  0.00  0.00    +0.135 A 
ATOM      2  N   UNL     1       1.369   3.616  -0.937  0.00  0.00    -0.228 NA
ATOM      3  C   UNL     1       2.308   4.261  -0.172  0.00  0.00    +0.090 A 
ATOM      4  C   UNL     1       2.323   5.587   0.289  0.00  0.00    +0.039 A 
ATOM      5  C   UNL     1       3.400   6.048   1.072  0.00  0.00    -0.001 A 
ATOM      6  C   UNL     1       4.442   5.157   1.376  0.00  0.00    +0.012 A 
ATOM      7  C   UNL     1       4.446   3.831   0.926  0.00  0.00    +0.028 A 
ATOM      8  C   UNL     1       3.362   3.406   0.148  0.00  0.00    +0.069 A 
ATOM      9  N   UNL     1       3.029   2.209  -0.460  0.00  0.00    -0.321 N 
ENDROOT
BRANCH   9  10
ATOM     10  C   UNL     1       3.821   0.980  -0.440  0.00  0.00    +0.089 C 
ATOM     11  C   UNL     1       5.185   1.135  -1.133  0.00  0.00    +0.025 C 
ATOM     12  C   UNL     1       5.958  -0.183  -1.137  0.00  0.00    +0.002 C 
ATOM     13  C   UNL     1       6.094  -0.761   0.269  0.00  0.00    +0.000 C 
ATOM     14  C   UNL     1       4.736  -0.931   0.944  0.00  0.00    +0.002 C 
ATOM     15  C   UNL     1       3.950   0.379   0.969  0.00  0.00    +0.025 C 
ENDBRANCH   9  10
BRANCH   1  19
ATOM     16  C   UNL     1      -0.046   0.440   0.218  0.00  0.00    +0.039 C 
ATOM     17  C   UNL     1       0.349   0.447  -1.236  0.00  0.00    -0.072 C 
ATOM     18  C   UNL     1      -0.299  -0.631  -2.062  0.00  0.00    +0.039 C 
ATOM     19  C   UNL     1       1.189   1.332  -1.807  0.00  0.00    +0.045 C 
ENDBRANCH   1  19
BRANCH   5  20
ATOM     20  C   UNL     1       3.435   7.476   1.579  0.00  0.00    +0.072 C 
ATOM     21  O   UNL     1       2.461   8.231   1.267  0.00  0.00    -0.545 OA
ATOM     22  O   UNL     1       4.440   7.815   2.281  0.00  0.00    -0.545 OA
ENDBRANCH   5  20
TORSDOF 3
