
 OpenBabel09122222393D

 22 24  0  0  0  0  0  0  0  0999 V2000
    9.2670    7.5830   -1.8220 C   0  0  0  0  0  0  0  0  0  0  0  0
    9.2030    6.2700   -1.8610 N   0  0  0  0  0  0  0  0  0  0  0  0
    9.4770    5.8380   -0.5880 C   0  0  0  0  0  0  0  0  0  0  0  0
    9.5500    4.5280   -0.0880 C   0  0  0  0  0  3  0  0  0  0  0  0
    9.8520    4.3090    1.2710 C   0  0  0  0  0  0  0  0  0  0  0  0
   10.0760    5.4210    2.0990 C   0  0  0  0  0  3  0  0  0  0  0  0
   10.0080    6.7350    1.6200 C   0  0  0  0  0  3  0  0  0  0  0  0
    9.7040    6.9180    0.2660 C   0  0  0  0  0  0  0  0  0  0  0  0
    9.5500    8.0310   -0.5410 N   0  0  0  0  0  0  0  0  0  0  0  0
    9.6710    9.4260   -0.1210 C   0  0  0  0  0  3  0  0  0  0  0  0
    9.5440   10.4170   -1.2900 C   0  0  0  0  0  2  0  0  0  0  0  0
    9.7290   11.8580   -0.8180 C   0  0  0  0  0  2  0  0  0  0  0  0
    8.7810   12.2020    0.3280 C   0  0  0  0  0  2  0  0  0  0  0  0
    8.9250   11.2270    1.4930 C   0  0  0  0  0  2  0  0  0  0  0  0
    8.7330    9.7790    1.0450 C   0  0  0  0  0  2  0  0  0  0  0  0
    7.5480    6.8970   -4.1640 C   0  0  0  0  0  1  0  0  0  0  0  0
    8.2760    8.1990   -3.9520 C   0  0  0  0  0  0  0  0  0  0  0  0
    8.0600    9.2170   -5.0380 C   0  0  0  0  0  1  0  0  0  0  0  0
    9.0500    8.4900   -2.8880 C   0  0  0  0  0  3  0  0  0  0  0  0
    9.9340    2.9030    1.8310 C   0  0  0  0  0  0  0  0  0  0  0  0
    9.7470    2.7590    3.0800 O   0  0  0  0  0  1  0  0  0  0  0  0
   10.1870    1.9680    1.0060 O   0  0  0  0  0  0  0  0  0  0  0  0
  1  9  1  0  0  0  0
  2  1  2  0  0  0  0
  2  3  1  0  0  0  0
  3  4  2  0  0  0  0
  3  8  1  0  0  0  0
  4  5  1  0  0  0  0
  5 20  1  0  0  0  0
  5  6  2  0  0  0  0
  7  6  1  0  0  0  0
  8  7  2  0  0  0  0
  9 10  1  0  0  0  0
  9  8  1  0  0  0  0
 10 15  1  0  0  0  0
 11 12  1  0  0  0  0
 11 10  1  0  0  0  0
 12 13  1  0  0  0  0
 13 14  1  0  0  0  0
 15 14  1  0  0  0  0
 16 17  1  0  0  0  0
 17 19  2  0  0  0  0
 18 17  1  0  0  0  0
 19  1  1  0  0  0  0
 20 21  1  0  0  0  0
 22 20  2  0  0  0  0
M  END
>  <minimizedAffinity>
-1.33221579

$$$$
