
 OpenBabel09122222153D

 22 24  0  0  0  0  0  0  0  0999 V2000
   10.1550    8.4690   -1.2000 C   0  0  0  0  0  0  0  0  0  0  0  0
   10.1670    7.1870   -1.4950 N   0  0  0  0  0  0  0  0  0  0  0  0
   10.1520    6.5210   -0.2960 C   0  0  0  0  0  0  0  0  0  0  0  0
   10.1690    5.1400   -0.0440 C   0  0  0  0  0  3  0  0  0  0  0  0
   10.1490    4.6650    1.2820 C   0  0  0  0  0  0  0  0  0  0  0  0
   10.1160    5.5980    2.3310 C   0  0  0  0  0  3  0  0  0  0  0  0
   10.0990    6.9800    2.1020 C   0  0  0  0  0  3  0  0  0  0  0  0
   10.1160    7.4170    0.7720 C   0  0  0  0  0  0  0  0  0  0  0  0
   10.1040    8.6640    0.1720 N   0  0  0  0  0  0  0  0  0  0  0  0
   10.0530    9.9530    0.8600 C   0  0  0  0  0  3  0  0  0  0  0  0
    8.8340   10.7990    0.4570 C   0  0  0  0  0  2  0  0  0  0  0  0
    8.8450   12.1570    1.1560 C   0  0  0  0  0  2  0  0  0  0  0  0
    8.9620   12.0100    2.6710 C   0  0  0  0  0  2  0  0  0  0  0  0
   10.1850   11.1870    3.0660 C   0  0  0  0  0  2  0  0  0  0  0  0
   10.1880    9.8180    2.3850 C   0  0  0  0  0  2  0  0  0  0  0  0
    8.7580    8.3530   -3.8340 C   0  0  0  0  0  1  0  0  0  0  0  0
    9.5260    9.5300   -3.2910 C   0  0  0  0  0  0  0  0  0  0  0  0
    9.5350   10.7360   -4.1900 C   0  0  0  0  0  1  0  0  0  0  0  0
   10.1530    9.5620   -2.0990 C   0  0  0  0  0  3  0  0  0  0  0  0
   10.1660    3.1780    1.5750 C   0  0  0  0  0  0  0  0  0  0  0  0
   10.1370    2.3870    0.5800 O   0  0  0  0  0  0  0  0  0  0  0  0
   10.2080    2.8300    2.7970 O   0  0  0  0  0  1  0  0  0  0  0  0
  1  9  1  0  0  0  0
  2  1  2  0  0  0  0
  2  3  1  0  0  0  0
  3  4  2  0  0  0  0
  3  8  1  0  0  0  0
  4  5  1  0  0  0  0
  5 20  1  0  0  0  0
  5  6  2  0  0  0  0
  7  6  1  0  0  0  0
  8  7  2  0  0  0  0
  9  8  1  0  0  0  0
  9 10  1  0  0  0  0
 10 15  1  0  0  0  0
 11 10  1  0  0  0  0
 11 12  1  0  0  0  0
 12 13  1  0  0  0  0
 13 14  1  0  0  0  0
 15 14  1  0  0  0  0
 16 17  1  0  0  0  0
 17 19  2  0  0  0  0
 18 17  1  0  0  0  0
 19  1  1  0  0  0  0
 20 22  1  0  0  0  0
 21 20  2  0  0  0  0
M  END
>  <minimizedAffinity>
-3.97946262

$$$$

 OpenBabel09122222153D

 22 24  0  0  0  0  0  0  0  0999 V2000
    9.8980    2.3020    3.0560 C   0  0  0  0  0  0  0  0  0  0  0  0
    9.8240    1.0090    3.2870 N   0  0  0  0  0  0  0  0  0  0  0  0
    9.8280    0.4020    2.0560 C   0  0  0  0  0  0  0  0  0  0  0  0
    9.7550   -0.9630    1.7360 C   0  0  0  0  0  3  0  0  0  0  0  0
    9.7750   -1.3720    0.3880 C   0  0  0  0  0  0  0  0  0  0  0  0
    9.8680   -0.3910   -0.6130 C   0  0  0  0  0  3  0  0  0  0  0  0
    9.9430    0.9750   -0.3150 C   0  0  0  0  0  3  0  0  0  0  0  0
    9.9220    1.3470    1.0350 C   0  0  0  0  0  0  0  0  0  0  0  0
    9.9800    2.5610    1.6960 N   0  0  0  0  0  0  0  0  0  0  0  0
   10.1010    3.8790    1.0740 C   0  0  0  0  0  3  0  0  0  0  0  0
    9.1270    4.0790   -0.1000 C   0  0  0  0  0  2  0  0  0  0  0  0
    9.3210    5.4450   -0.7540 C   0  0  0  0  0  2  0  0  0  0  0  0
    9.2270    6.5770    0.2650 C   0  0  0  0  0  2  0  0  0  0  0  0
   10.2090    6.3840    1.4170 C   0  0  0  0  0  2  0  0  0  0  0  0
   10.0250    5.0270    2.0940 C   0  0  0  0  0  2  0  0  0  0  0  0
   10.0560    1.7720    5.9880 C   0  0  0  0  0  1  0  0  0  0  0  0
   10.0070    3.1290    5.3350 C   0  0  0  0  0  0  0  0  0  0  0  0
   10.0730    4.2850    6.2970 C   0  0  0  0  0  1  0  0  0  0  0  0
    9.9330    3.3490    4.0080 C   0  0  0  0  0  3  0  0  0  0  0  0
    9.6970   -2.8410    0.0210 C   0  0  0  0  0  0  0  0  0  0  0  0
    9.1970   -3.6320    0.8820 O   0  0  0  0  0  1  0  0  0  0  0  0
   10.1390   -3.1750   -1.1240 O   0  0  0  0  0  0  0  0  0  0  0  0
  1  2  2  0  0  0  0
  1 19  1  0  0  0  0
  3  2  1  0  0  0  0
  4  3  1  0  0  0  0
  5  4  2  0  0  0  0
  6  7  2  0  0  0  0
  6  5  1  0  0  0  0
  7  8  1  0  0  0  0
  8  9  1  0  0  0  0
  8  3  2  0  0  0  0
  9  1  1  0  0  0  0
 10  9  1  0  0  0  0
 10 15  1  0  0  0  0
 11 10  1  0  0  0  0
 12 11  1  0  0  0  0
 12 13  1  0  0  0  0
 13 14  1  0  0  0  0
 14 15  1  0  0  0  0
 17 16  1  0  0  0  0
 17 18  1  0  0  0  0
 19 17  2  0  0  0  0
 20  5  1  0  0  0  0
 20 21  1  0  0  0  0
 22 20  2  0  0  0  0
M  END
>  <minimizedAffinity>
-3.57355785

$$$$

 OpenBabel09122222153D

 22 24  0  0  0  0  0  0  0  0999 V2000
    7.5460   -4.3320    1.9970 C   0  0  0  0  0  0  0  0  0  0  0  0
    6.3750   -4.9220    1.9050 N   0  0  0  0  0  0  0  0  0  0  0  0
    5.6690   -4.5420    3.0190 C   0  0  0  0  0  0  0  0  0  0  0  0
    4.3700   -4.8990    3.4150 C   0  0  0  0  0  3  0  0  0  0  0  0
    3.8330   -4.3850    4.6120 C   0  0  0  0  0  0  0  0  0  0  0  0
    4.6230   -3.5210    5.3890 C   0  0  0  0  0  3  0  0  0  0  0  0
    5.9200   -3.1530    5.0110 C   0  0  0  0  0  3  0  0  0  0  0  0
    6.4220   -3.6790    3.8140 C   0  0  0  0  0  0  0  0  0  0  0  0
    7.6190   -3.5440    3.1350 N   0  0  0  0  0  0  0  0  0  0  0  0
    8.7580   -2.7240    3.5470 C   0  0  0  0  0  3  0  0  0  0  0  0
    8.7180   -1.3050    2.9570 C   0  0  0  0  0  2  0  0  0  0  0  0
    9.9500   -0.4990    3.3670 C   0  0  0  0  0  2  0  0  0  0  0  0
   10.1350   -0.4830    4.8820 C   0  0  0  0  0  2  0  0  0  0  0  0
   10.1930   -1.8950    5.4590 C   0  0  0  0  0  2  0  0  0  0  0  0
    8.9640   -2.7150    5.0700 C   0  0  0  0  0  2  0  0  0  0  0  0
    7.1350   -4.9560   -0.8930 C   0  0  0  0  0  1  0  0  0  0  0  0
    8.4580   -4.6840   -0.2250 C   0  0  0  0  0  0  0  0  0  0  0  0
    9.6420   -4.7180   -1.1540 C   0  0  0  0  0  1  0  0  0  0  0  0
    8.6250   -4.4060    1.0820 C   0  0  0  0  0  3  0  0  0  0  0  0
    2.4330   -4.7580    5.0570 C   0  0  0  0  0  0  0  0  0  0  0  0
    2.2520   -4.9750    6.2970 O   0  0  0  0  0  1  0  0  0  0  0  0
    1.5400   -4.8280    4.1550 O   0  0  0  0  0  0  0  0  0  0  0  0
  1  9  1  0  0  0  0
  2  1  2  0  0  0  0
  2  3  1  0  0  0  0
  3  4  2  0  0  0  0
  3  8  1  0  0  0  0
  4  5  1  0  0  0  0
  5 20  1  0  0  0  0
  5  6  2  0  0  0  0
  7  6  1  0  0  0  0
  8  7  2  0  0  0  0
  9 10  1  0  0  0  0
  9  8  1  0  0  0  0
 10 15  1  0  0  0  0
 11 12  1  0  0  0  0
 11 10  1  0  0  0  0
 12 13  1  0  0  0  0
 13 14  1  0  0  0  0
 15 14  1  0  0  0  0
 16 17  1  0  0  0  0
 17 19  2  0  0  0  0
 18 17  1  0  0  0  0
 19  1  1  0  0  0  0
 20 21  1  0  0  0  0
 22 20  2  0  0  0  0
M  END
>  <minimizedAffinity>
-3.06170654

$$$$

 OpenBabel09122222153D

 22 24  0  0  0  0  0  0  0  0999 V2000
    9.5310    2.5030    0.9170 C   0  0  0  0  0  0  0  0  0  0  0  0
    9.3040    3.1900   -0.1820 N   0  0  0  0  0  0  0  0  0  0  0  0
    9.4660    4.5100    0.1550 C   0  0  0  0  0  0  0  0  0  0  0  0
    9.3270    5.6560   -0.6440 C   0  0  0  0  0  3  0  0  0  0  0  0
    9.5420    6.9330   -0.0870 C   0  0  0  0  0  0  0  0  0  0  0  0
    9.8910    7.0260    1.2700 C   0  0  0  0  0  3  0  0  0  0  0  0
   10.0340    5.8950    2.0840 C   0  0  0  0  0  3  0  0  0  0  0  0
    9.8160    4.6420    1.4980 C   0  0  0  0  0  0  0  0  0  0  0  0
    9.8670    3.3420    1.9680 N   0  0  0  0  0  0  0  0  0  0  0  0
   10.2080    2.9280    3.3290 C   0  0  0  0  0  3  0  0  0  0  0  0
    9.7110    3.9160    4.3980 C   0  0  0  0  0  2  0  0  0  0  0  0
   10.1330    3.4750    5.7990 C   0  0  0  0  0  2  0  0  0  0  0  0
    9.6930    2.0430    6.0950 C   0  0  0  0  0  2  0  0  0  0  0  0
   10.2060    1.0650    5.0420 C   0  0  0  0  0  2  0  0  0  0  0  0
    9.7860    1.4820    3.6330 C   0  0  0  0  0  2  0  0  0  0  0  0
   10.2100    0.6320   -1.3070 C   0  0  0  0  0  1  0  0  0  0  0  0
    9.8000    0.2370    0.0880 C   0  0  0  0  0  0  0  0  0  0  0  0
    9.7740   -1.2470    0.3320 C   0  0  0  0  0  1  0  0  0  0  0  0
    9.4950    1.0970    1.0790 C   0  0  0  0  0  3  0  0  0  0  0  0
    9.3980    8.1820   -0.9330 C   0  0  0  0  0  0  0  0  0  0  0  0
    9.5920    8.0670   -2.1840 O   0  0  0  0  0  0  0  0  0  0  0  0
    9.0930    9.2580   -0.3270 O   0  0  0  0  0  1  0  0  0  0  0  0
  1 19  1  0  0  0  0
  1  9  1  0  0  0  0
  2  3  1  0  0  0  0
  2  1  2  0  0  0  0
  3  8  1  0  0  0  0
  4  5  1  0  0  0  0
  4  3  2  0  0  0  0
  5  6  2  0  0  0  0
  6  7  1  0  0  0  0
  8  9  1  0  0  0  0
  8  7  2  0  0  0  0
  9 10  1  0  0  0  0
 10 15  1  0  0  0  0
 10 11  1  0  0  0  0
 11 12  1  0  0  0  0
 12 13  1  0  0  0  0
 14 13  1  0  0  0  0
 15 14  1  0  0  0  0
 16 17  1  0  0  0  0
 17 18  1  0  0  0  0
 17 19  2  0  0  0  0
 20 22  1  0  0  0  0
 20  5  1  0  0  0  0
 21 20  2  0  0  0  0
M  END
>  <minimizedAffinity>
-2.61316943

$$$$

 OpenBabel09122222153D

 22 24  0  0  0  0  0  0  0  0999 V2000
   10.0590    8.3140    0.6170 C   0  0  0  0  0  0  0  0  0  0  0  0
   10.1920    7.6970    1.7720 N   0  0  0  0  0  0  0  0  0  0  0  0
   10.1140    6.3550    1.4970 C   0  0  0  0  0  0  0  0  0  0  0  0
   10.1830    5.2610    2.3740 C   0  0  0  0  0  3  0  0  0  0  0  0
   10.0770    3.9490    1.8720 C   0  0  0  0  0  0  0  0  0  0  0  0
    9.9010    3.7680    0.4900 C   0  0  0  0  0  3  0  0  0  0  0  0
    9.8300    4.8450   -0.4010 C   0  0  0  0  0  3  0  0  0  0  0  0
    9.9410    6.1360    0.1310 C   0  0  0  0  0  0  0  0  0  0  0  0
    9.9230    7.4050   -0.4200 N   0  0  0  0  0  0  0  0  0  0  0  0
    9.7790    7.7290   -1.8390 C   0  0  0  0  0  3  0  0  0  0  0  0
    8.3840    7.3920   -2.3920 C   0  0  0  0  0  2  0  0  0  0  0  0
    8.2920    7.6960   -3.8870 C   0  0  0  0  0  2  0  0  0  0  0  0
    8.6970    9.1350   -4.1950 C   0  0  0  0  0  2  0  0  0  0  0  0
   10.0900    9.4570   -3.6620 C   0  0  0  0  0  2  0  0  0  0  0  0
   10.2010    9.1710   -2.1650 C   0  0  0  0  0  2  0  0  0  0  0  0
    9.0200   10.2820    2.6060 C   0  0  0  0  0  1  0  0  0  0  0  0
    9.6180   10.6120    1.2630 C   0  0  0  0  0  0  0  0  0  0  0  0
    9.6970   12.0850    0.9620 C   0  0  0  0  0  1  0  0  0  0  0  0
   10.0800    9.7090    0.3770 C   0  0  0  0  0  3  0  0  0  0  0  0
   10.1500    2.7540    2.8020 C   0  0  0  0  0  0  0  0  0  0  0  0
   10.2070    2.9880    4.0500 O   0  0  0  0  0  1  0  0  0  0  0  0
   10.1490    1.6020    2.2630 O   0  0  0  0  0  0  0  0  0  0  0  0
  1  2  2  0  0  0  0
  3  2  1  0  0  0  0
  3  4  1  0  0  0  0
  5  4  2  0  0  0  0
  5 20  1  0  0  0  0
  6  5  1  0  0  0  0
  7  8  1  0  0  0  0
  7  6  2  0  0  0  0
  8  3  2  0  0  0  0
  9  8  1  0  0  0  0
  9  1  1  0  0  0  0
 10  9  1  0  0  0  0
 11 10  1  0  0  0  0
 12 11  1  0  0  0  0
 13 12  1  0  0  0  0
 13 14  1  0  0  0  0
 14 15  1  0  0  0  0
 15 10  1  0  0  0  0
 17 16  1  0  0  0  0
 18 17  1  0  0  0  0
 19  1  1  0  0  0  0
 19 17  2  0  0  0  0
 20 21  1  0  0  0  0
 22 20  2  0  0  0  0
M  END
>  <minimizedAffinity>
-2.2731905

$$$$

 OpenBabel09122222153D

 22 24  0  0  0  0  0  0  0  0999 V2000
    9.7860    7.8440   -0.0530 C   0  0  0  0  0  0  0  0  0  0  0  0
    9.4600    7.4700   -1.2710 N   0  0  0  0  0  0  0  0  0  0  0  0
    9.2790    8.6270   -1.9880 C   0  0  0  0  0  0  0  0  0  0  0  0
    8.9110    8.7930   -3.3320 C   0  0  0  0  0  3  0  0  0  0  0  0
    8.7810   10.0880   -3.8720 C   0  0  0  0  0  0  0  0  0  0  0  0
    9.0230   11.1920   -3.0390 C   0  0  0  0  0  3  0  0  0  0  0  0
    9.3910   11.0480   -1.6950 C   0  0  0  0  0  3  0  0  0  0  0  0
    9.5140    9.7470   -1.1920 C   0  0  0  0  0  0  0  0  0  0  0  0
    9.8520    9.2250    0.0440 N   0  0  0  0  0  0  0  0  0  0  0  0
   10.2090    9.9910    1.2370 C   0  0  0  0  0  3  0  0  0  0  0  0
    9.7690   11.4630    1.1580 C   0  0  0  0  0  2  0  0  0  0  0  0
   10.2060   12.2400    2.3990 C   0  0  0  0  0  2  0  0  0  0  0  0
    9.7270   11.5680    3.6830 C   0  0  0  0  0  2  0  0  0  0  0  0
   10.1840   10.1140    3.7650 C   0  0  0  0  0  2  0  0  0  0  0  0
    9.7470    9.3150    2.5380 C   0  0  0  0  0  2  0  0  0  0  0  0
    9.2360    4.9110   -0.0790 C   0  0  0  0  0  1  0  0  0  0  0  0
    9.8430    5.6870    1.0600 C   0  0  0  0  0  0  0  0  0  0  0  0
   10.2090    4.8520    2.2570 C   0  0  0  0  0  1  0  0  0  0  0  0
   10.0820    7.0130    1.0550 C   0  0  0  0  0  3  0  0  0  0  0  0
    8.3850   10.2890   -5.3210 C   0  0  0  0  0  0  0  0  0  0  0  0
    8.2010   11.4820   -5.7170 O   0  0  0  0  0  1  0  0  0  0  0  0
    8.2650    9.2440   -6.0370 O   0  0  0  0  0  0  0  0  0  0  0  0
  1  9  1  0  0  0  0
  1 19  1  0  0  0  0
  2  1  2  0  0  0  0
  3  2  1  0  0  0  0
  3  8  1  0  0  0  0
  4  3  2  0  0  0  0
  5  4  1  0  0  0  0
  5  6  2  0  0  0  0
  6  7  1  0  0  0  0
  7  8  2  0  0  0  0
  8  9  1  0  0  0  0
  9 10  1  0  0  0  0
 10 15  1  0  0  0  0
 11 10  1  0  0  0  0
 11 12  1  0  0  0  0
 12 13  1  0  0  0  0
 13 14  1  0  0  0  0
 15 14  1  0  0  0  0
 16 17  1  0  0  0  0
 17 18  1  0  0  0  0
 19 17  2  0  0  0  0
 20  5  1  0  0  0  0
 21 20  1  0  0  0  0
 22 20  2  0  0  0  0
M  END
>  <minimizedAffinity>
-2.1190834

$$$$

 OpenBabel09122222153D

 22 24  0  0  0  0  0  0  0  0999 V2000
    9.2670    7.5830   -1.8220 C   0  0  0  0  0  0  0  0  0  0  0  0
    9.2030    6.2700   -1.8610 N   0  0  0  0  0  0  0  0  0  0  0  0
    9.4770    5.8380   -0.5880 C   0  0  0  0  0  0  0  0  0  0  0  0
    9.5500    4.5280   -0.0880 C   0  0  0  0  0  3  0  0  0  0  0  0
    9.8520    4.3090    1.2710 C   0  0  0  0  0  0  0  0  0  0  0  0
   10.0760    5.4210    2.0990 C   0  0  0  0  0  3  0  0  0  0  0  0
   10.0080    6.7350    1.6200 C   0  0  0  0  0  3  0  0  0  0  0  0
    9.7040    6.9180    0.2660 C   0  0  0  0  0  0  0  0  0  0  0  0
    9.5500    8.0310   -0.5410 N   0  0  0  0  0  0  0  0  0  0  0  0
    9.6710    9.4260   -0.1210 C   0  0  0  0  0  3  0  0  0  0  0  0
    9.5440   10.4170   -1.2900 C   0  0  0  0  0  2  0  0  0  0  0  0
    9.7290   11.8580   -0.8180 C   0  0  0  0  0  2  0  0  0  0  0  0
    8.7810   12.2020    0.3280 C   0  0  0  0  0  2  0  0  0  0  0  0
    8.9250   11.2270    1.4930 C   0  0  0  0  0  2  0  0  0  0  0  0
    8.7330    9.7790    1.0450 C   0  0  0  0  0  2  0  0  0  0  0  0
    7.5480    6.8970   -4.1640 C   0  0  0  0  0  1  0  0  0  0  0  0
    8.2760    8.1990   -3.9520 C   0  0  0  0  0  0  0  0  0  0  0  0
    8.0600    9.2170   -5.0380 C   0  0  0  0  0  1  0  0  0  0  0  0
    9.0500    8.4900   -2.8880 C   0  0  0  0  0  3  0  0  0  0  0  0
    9.9340    2.9030    1.8310 C   0  0  0  0  0  0  0  0  0  0  0  0
    9.7470    2.7590    3.0800 O   0  0  0  0  0  1  0  0  0  0  0  0
   10.1870    1.9680    1.0060 O   0  0  0  0  0  0  0  0  0  0  0  0
  1  9  1  0  0  0  0
  2  1  2  0  0  0  0
  2  3  1  0  0  0  0
  3  4  2  0  0  0  0
  3  8  1  0  0  0  0
  4  5  1  0  0  0  0
  5 20  1  0  0  0  0
  5  6  2  0  0  0  0
  7  6  1  0  0  0  0
  8  7  2  0  0  0  0
  9 10  1  0  0  0  0
  9  8  1  0  0  0  0
 10 15  1  0  0  0  0
 11 12  1  0  0  0  0
 11 10  1  0  0  0  0
 12 13  1  0  0  0  0
 13 14  1  0  0  0  0
 15 14  1  0  0  0  0
 16 17  1  0  0  0  0
 17 19  2  0  0  0  0
 18 17  1  0  0  0  0
 19  1  1  0  0  0  0
 20 21  1  0  0  0  0
 22 20  2  0  0  0  0
M  END
>  <minimizedAffinity>
-1.33221579

$$$$
