
 OpenBabel09122222393D

 22 24  0  0  0  0  0  0  0  0999 V2000
    9.5310    2.5030    0.9170 C   0  0  0  0  0  0  0  0  0  0  0  0
    9.3040    3.1900   -0.1820 N   0  0  0  0  0  0  0  0  0  0  0  0
    9.4660    4.5100    0.1550 C   0  0  0  0  0  0  0  0  0  0  0  0
    9.3270    5.6560   -0.6440 C   0  0  0  0  0  3  0  0  0  0  0  0
    9.5420    6.9330   -0.0870 C   0  0  0  0  0  0  0  0  0  0  0  0
    9.8910    7.0260    1.2700 C   0  0  0  0  0  3  0  0  0  0  0  0
   10.0340    5.8950    2.0840 C   0  0  0  0  0  3  0  0  0  0  0  0
    9.8160    4.6420    1.4980 C   0  0  0  0  0  0  0  0  0  0  0  0
    9.8670    3.3420    1.9680 N   0  0  0  0  0  0  0  0  0  0  0  0
   10.2080    2.9280    3.3290 C   0  0  0  0  0  3  0  0  0  0  0  0
    9.7110    3.9160    4.3980 C   0  0  0  0  0  2  0  0  0  0  0  0
   10.1330    3.4750    5.7990 C   0  0  0  0  0  2  0  0  0  0  0  0
    9.6930    2.0430    6.0950 C   0  0  0  0  0  2  0  0  0  0  0  0
   10.2060    1.0650    5.0420 C   0  0  0  0  0  2  0  0  0  0  0  0
    9.7860    1.4820    3.6330 C   0  0  0  0  0  2  0  0  0  0  0  0
   10.2100    0.6320   -1.3070 C   0  0  0  0  0  1  0  0  0  0  0  0
    9.8000    0.2370    0.0880 C   0  0  0  0  0  0  0  0  0  0  0  0
    9.7740   -1.2470    0.3320 C   0  0  0  0  0  1  0  0  0  0  0  0
    9.4950    1.0970    1.0790 C   0  0  0  0  0  3  0  0  0  0  0  0
    9.3980    8.1820   -0.9330 C   0  0  0  0  0  0  0  0  0  0  0  0
    9.5920    8.0670   -2.1840 O   0  0  0  0  0  0  0  0  0  0  0  0
    9.0930    9.2580   -0.3270 O   0  0  0  0  0  1  0  0  0  0  0  0
  1 19  1  0  0  0  0
  1  9  1  0  0  0  0
  2  3  1  0  0  0  0
  2  1  2  0  0  0  0
  3  8  1  0  0  0  0
  4  5  1  0  0  0  0
  4  3  2  0  0  0  0
  5  6  2  0  0  0  0
  6  7  1  0  0  0  0
  8  9  1  0  0  0  0
  8  7  2  0  0  0  0
  9 10  1  0  0  0  0
 10 15  1  0  0  0  0
 10 11  1  0  0  0  0
 11 12  1  0  0  0  0
 12 13  1  0  0  0  0
 14 13  1  0  0  0  0
 15 14  1  0  0  0  0
 16 17  1  0  0  0  0
 17 18  1  0  0  0  0
 17 19  2  0  0  0  0
 20 22  1  0  0  0  0
 20  5  1  0  0  0  0
 21 20  2  0  0  0  0
M  END
>  <minimizedAffinity>
-2.61316943

$$$$
