REMARK  Name = 
REMARK  12 active torsions:
REMARK  status: ('A' for Active; 'I' for Inactive)
REMARK    1  A    between atoms: C_1  and  C_2
REMARK    2  A    between atoms: C_2  and  C_3
REMARK    3  A    between atoms: C_2  and  C_4
REMARK    4  A    between atoms: C_4  and  C_5
REMARK    5  A    between atoms: C_5  and  N_6
REMARK    6  A    between atoms: C_9  and  C_10
REMARK    7  A    between atoms: C_17  and  N_18
REMARK    8  A    between atoms: N_18  and  S_19
REMARK    9  A    between atoms: S_19  and  N_22
REMARK   10  A    between atoms: N_22  and  C_23
REMARK   11  A    between atoms: C_23  and  C_24
REMARK   12  A    between atoms: C_34  and  O_35
REMARK                            x       y       z     vdW  Elec       q    Type
REMARK                         _______ _______ _______ _____ _____    ______ ____
ROOT
ATOM      1  C   UNL     1      -2.768  -3.368   3.500  0.00  0.00    +0.308 C 
ATOM      2  N   UNL     1      -2.113  -4.414   3.001  0.00  0.00    -0.131 N 
ATOM      3  S   UNL     1      -1.172  -4.219   1.667  0.00  0.00    +0.141 S 
ATOM      4  O   UNL     1       0.051  -4.975   1.826  0.00  0.00    -0.129 OA
ATOM      5  O   UNL     1      -1.936  -4.313   0.442  0.00  0.00    -0.129 OA
ATOM      6  C   UNL     1      -0.750  -2.511   1.864  0.00  0.00    +0.176 A 
ATOM      7  C   UNL     1       0.888  -1.842   2.176  0.00  0.00    +0.059 A 
ATOM      8  C   UNL     1       1.076  -0.129   2.731  0.00  0.00    +0.051 A 
ATOM      9  C   UNL     1      -0.389   0.939   2.891  0.00  0.00    +0.028 A 
ATOM     10  C   UNL     1      -2.064   0.211   2.704  0.00  0.00    +0.053 A 
ATOM     11  C   UNL     1      -2.225  -1.499   2.149  0.00  0.00    +0.148 A 
ATOM     12  N   UNL     1      -3.296  -2.341   2.631  0.00  0.00    -0.200 N 
ATOM     13  H   UNL     1      -1.664  -5.039   3.655  0.00  0.00    +0.339 HD
ATOM     14  H   UNL     1      -4.098  -1.817   2.977  0.00  0.00    +0.298 HD
ENDROOT
BRANCH   1  18
ATOM     15  N   UNL     1      -0.637  -1.073   3.444  0.00  0.00    -0.292 N 
ATOM     16  C   UNL     1      -0.644  -2.393   4.237  0.00  0.00    +0.271 A 
ATOM     17  O   UNL     1       0.210  -3.269   4.307  0.00  0.00    -0.267 OA
ATOM     18  C   UNL     1      -2.069  -2.715   4.668  0.00  0.00    +0.170 A 
ATOM     19  C   UNL     1      -2.591  -1.746   5.432  0.00  0.00    +0.148 A 
ATOM     20  C   UNL     1      -1.694  -0.666   5.839  0.00  0.00    +0.060 A 
ATOM     21  C   UNL     1      -1.756  -0.088   7.109  0.00  0.00    +0.016 A 
ATOM     22  C   UNL     1      -0.826   0.883   7.454  0.00  0.00    +0.021 A 
ATOM     23  C   UNL     1       0.136   1.226   6.521  0.00  0.00    +0.113 A 
ATOM     24  N   UNL     1       0.215   0.691   5.281  0.00  0.00    -0.237 NA
ATOM     25  C   UNL     1      -0.715  -0.225   4.903  0.00  0.00    +0.147 A 
BRANCH  19  26
ATOM     26  O   UNL     1      -3.946  -1.604   5.632  0.00  0.00    -0.505 OA
ATOM     27  H   UNL     1      -4.115  -0.786   6.136  0.00  0.00    +0.292 HD
ENDBRANCH  19  26
BRANCH  15  28
ATOM     28  C   UNL     1      -0.537  -0.447   1.431  0.00  0.00    +0.127 C 
BRANCH  28  29
ATOM     29  C   UNL     1      -1.359   0.828   0.510  0.00  0.00    +0.025 C 
BRANCH  29  31
ATOM     30  C   UNL     1      -0.911  -0.254  -1.789  0.00  0.00    +0.007 C 
ATOM     31  C   UNL     1      -0.769   0.996  -0.919  0.00  0.00    -0.016 C 
ATOM     32  C   UNL     1      -1.455   2.177  -1.615  0.00  0.00    +0.007 C 
ENDBRANCH  29  31
ENDBRANCH  28  29
ENDBRANCH  15  28
ENDBRANCH   1  18
BRANCH   8  33
ATOM     33  N   UNL     1       2.395   0.345   2.988  0.00  0.00    -0.207 N 
ATOM     34  H   UNL     1       3.087  -0.402   3.025  0.00  0.00    +0.175 HD
BRANCH  33  35
ATOM     35  S   UNL     1       2.989   1.584   2.041  0.00  0.00    +0.110 S 
ATOM     36  O   UNL     1       4.394   1.698   2.347  0.00  0.00    -0.138 OA
ATOM     37  O   UNL     1       2.531   1.407   0.685  0.00  0.00    -0.138 OA
BRANCH  35  38
ATOM     38  N   UNL     1       2.207   2.919   2.660  0.00  0.00    -0.173 NA
ATOM     39  H   UNL     1       2.373   3.716   2.046  0.00  0.00    +0.150 HD
BRANCH  38  40
ATOM     40  C   UNL     1       2.466   3.244   4.070  0.00  0.00    +0.142 C 
BRANCH  40  41
ATOM     41  C   UNL     1       3.419   4.400   4.237  0.00  0.00    -0.032 A 
ATOM     42  C   UNL     1       2.973   5.722   4.096  0.00  0.00    +0.005 A 
ATOM     43  C   UNL     1       3.865   6.788   4.234  0.00  0.00    +0.000 A 
ATOM     44  C   UNL     1       5.209   6.543   4.509  0.00  0.00    +0.000 A 
ATOM     45  C   UNL     1       5.665   5.234   4.640  0.00  0.00    +0.000 A 
ATOM     46  C   UNL     1       4.776   4.167   4.501  0.00  0.00    +0.005 A 
ENDBRANCH  40  41
ENDBRANCH  38  40
ENDBRANCH  35  38
ENDBRANCH  33  35
ENDBRANCH   8  33
TORSDOF 10
