
 OpenBabel09122222393D

 46 49  0  0  1  0  0  0  0  0999 V2000
    4.1270   -3.7160   10.3000 C   0  0  2  0  0  3  0  0  0  0  0  0
    5.4150   -3.8880   10.0110 N   0  0  0  0  0  0  0  0  0  0  0  0
    6.0730   -5.3910   10.1110 S   0  0  0  0  0  0  0  0  0  0  0  0
    6.9690   -5.6000    8.9950 O   0  0  0  0  0  0  0  0  0  0  0  0
    6.4940   -5.7140   11.4570 O   0  0  0  0  0  0  0  0  0  0  0  0
    4.6240   -6.3580    9.7950 C   0  0  0  0  0  0  0  0  0  0  0  0
    4.3320   -7.4160    8.3720 C   0  0  0  0  0  3  0  0  0  0  0  0
    2.6620   -8.0180    8.0190 C   0  0  0  0  0  0  0  0  0  0  0  0
    1.2950   -7.6200    9.1530 C   0  0  0  0  0  3  0  0  0  0  0  0
    1.5730   -6.4300   10.5230 C   0  0  0  0  0  3  0  0  0  0  0  0
    3.2480   -5.8450   10.8560 C   0  0  0  0  0  0  0  0  0  0  0  0
    3.4870   -4.5010   11.3310 N   0  0  0  0  0  0  0  0  0  0  0  0
    5.7820   -3.4010    9.2070 H   0  0  0  0  0  0  0  0  0  0  0  0
    2.6780   -4.0840   11.7880 H   0  0  0  0  0  0  0  0  0  0  0  0
    2.7060   -1.2320    9.0260 N   0  0  0  0  0  0  0  0  0  0  0  0
    2.1500   -2.6330    9.3390 C   0  0  0  0  0  0  0  0  0  0  0  0
    1.1530   -2.9570    9.9730 O   0  0  0  0  0  0  0  0  0  0  0  0
    3.2330   -3.6740    9.0850 C   0  0  1  0  0  3  0  0  0  0  0  0
    3.6610   -3.6490    7.8150 C   0  0  1  0  0  3  0  0  0  0  0  0
    2.9410   -2.7790    6.8880 C   0  0  1  0  0  3  0  0  0  0  0  0
    2.6900   -3.1490    5.5650 C   0  0  0  0  0  3  0  0  0  0  0  0
    1.9370   -2.3050    4.7600 C   0  0  0  0  0  3  0  0  0  0  0  0
    1.4530   -1.1340    5.3150 C   0  0  0  0  0  3  0  0  0  0  0  0
    1.6880   -0.7450    6.5890 N   0  0  0  0  0  0  0  0  0  0  0  0
    2.4640   -1.5300    7.3810 C   0  0  0  0  0  0  0  0  0  0  0  0
    4.8620   -4.1990    7.4240 O   0  0  0  0  0  0  0  0  0  0  0  0
    5.0240   -3.9880    6.4860 H   0  0  0  0  0  0  0  0  0  0  0  0
    3.4420    0.4400   10.0820 C   0  0  0  0  0  1  0  0  0  0  0  0
    4.9730    0.7790   10.9130 C   0  0  0  0  0  2  0  0  0  0  0  0
    7.1600    1.6120    9.8260 C   0  0  0  0  0  1  0  0  0  0  0  0
    6.2090    0.4330   10.0340 C   0  0  0  0  0  3  0  0  0  0  0  0
    6.9770   -0.7290   10.6740 C   0  0  0  0  0  1  0  0  0  0  0  0
    2.4800   -8.8340    6.8650 N   0  0  0  0  0  0  0  0  0  0  0  0
    1.7640   -9.5470    6.9900 H   0  0  0  0  0  0  0  0  0  0  0  0
    2.2420   -8.0820    5.3940 S   0  0  0  0  0  0  0  0  0  0  0  0
    1.4230   -8.9700    4.6060 O   0  0  0  0  0  0  0  0  0  0  0  0
    1.8540   -6.7110    5.6190 O   0  0  0  0  0  0  0  0  0  0  0  0
    3.7760   -8.0650    4.7440 N   0  0  0  0  0  0  0  0  0  0  0  0
    4.1270   -7.1080    4.7450 H   0  0  0  0  0  0  0  0  0  0  0  0
    3.9480   -8.7150    3.4370 C   0  0  0  0  0  2  0  0  0  0  0  0
    4.2250   -7.7330    2.3280 C   0  0  0  0  0  0  0  0  0  0  0  0
    4.1780   -8.1360    0.9860 C   0  0  0  0  0  3  0  0  0  0  0  0
    4.4540   -7.2240   -0.0360 C   0  0  0  0  0  3  0  0  0  0  0  0
    4.7830   -5.9060    0.2730 C   0  0  0  0  0  3  0  0  0  0  0  0
    4.8440   -5.4980    1.6030 C   0  0  0  0  0  3  0  0  0  0  0  0
    4.5700   -6.4070    2.6260 C   0  0  0  0  0  3  0  0  0  0  0  0
  1  2  1  6  0  0  0
  1 12  1  0  0  0  0
  2  3  1  0  0  0  0
  3  5  2  0  0  0  0
  4  3  2  0  0  0  0
  6  3  1  0  0  0  0
  6 11  1  0  0  0  0
  7  6  2  0  0  0  0
  8  7  1  0  0  0  0
  8  9  2  0  0  0  0
  9 10  1  0  0  0  0
 10 11  2  0  0  0  0
 11 12  1  0  0  0  0
 12 14  1  0  0  0  0
 13  2  1  0  0  0  0
 15 16  1  0  0  0  0
 16 17  2  0  0  0  0
 18 16  1  1  0  0  0
 18  1  1  0  0  0  0
 19 26  1  1  0  0  0
 19 18  1  0  0  0  0
 20 21  1  1  0  0  0
 20 25  1  0  0  0  0
 20 19  1  0  0  0  0
 22 23  1  0  0  0  0
 22 21  2  0  0  0  0
 23 24  2  0  0  0  0
 24 25  1  0  0  0  0
 25 15  2  0  0  0  0
 27 26  1  0  0  0  0
 28 29  1  0  0  0  0
 30 31  1  0  0  0  0
 31 32  1  0  0  0  0
 31 29  1  0  0  0  0
 33 34  1  0  0  0  0
 33  8  1  0  0  0  0
 35 37  2  0  0  0  0
 35 33  1  0  0  0  0
 36 35  2  0  0  0  0
 38 39  1  0  0  0  0
 38 35  1  0  0  0  0
 40 38  1  0  0  0  0
 41 46  1  0  0  0  0
 41 40  1  0  0  0  0
 42 41  2  0  0  0  0
 43 44  2  0  0  0  0
 43 42  1  0  0  0  0
 44 45  1  0  0  0  0
 45 46  2  0  0  0  0
M  END
>  <minimizedAffinity>
-7.78913641

$$$$
