
 OpenBabel09122222343D

 46 49  0  0  1  0  0  0  0  0999 V2000
    5.4750   -2.4380    9.6120 C   0  0  2  0  0  3  0  0  0  0  0  0
    5.7940   -3.6240   10.1270 N   0  0  0  0  0  0  0  0  0  0  0  0
    4.6910   -4.8430   10.0950 S   0  0  0  0  0  0  0  0  0  0  0  0
    5.3560   -6.0840    9.7640 O   0  0  0  0  0  0  0  0  0  0  0  0
    3.7750   -4.7790   11.2130 O   0  0  0  0  0  0  0  0  0  0  0  0
    3.7700   -4.3550    8.6650 C   0  0  0  0  0  0  0  0  0  0  0  0
    3.6600   -5.2450    7.1080 C   0  0  0  0  0  3  0  0  0  0  0  0
    2.9980   -4.4200    5.6380 C   0  0  0  0  0  0  0  0  0  0  0  0
    2.3670   -2.7180    5.7600 C   0  0  0  0  0  3  0  0  0  0  0  0
    2.6080   -1.7730    7.3150 C   0  0  0  0  0  3  0  0  0  0  0  0
    3.2690   -2.6180    8.7670 C   0  0  0  0  0  0  0  0  0  0  0  0
    4.1260   -1.9280    9.7040 N   0  0  0  0  0  0  0  0  0  0  0  0
    6.7170   -3.9840    9.9330 H   0  0  0  0  0  0  0  0  0  0  0  0
    4.0170   -0.9160    9.6830 H   0  0  0  0  0  0  0  0  0  0  0  0
    7.7310   -0.4940    8.6410 N   0  0  0  0  0  0  0  0  0  0  0  0
    6.3330   -0.7550    8.0510 C   0  0  0  0  0  0  0  0  0  0  0  0
    5.4420    0.0380    7.7680 O   0  0  0  0  0  0  0  0  0  0  0  0
    5.9870   -2.2300    8.2070 C   0  0  1  0  0  3  0  0  0  0  0  0
    6.8740   -3.0190    7.5870 C   0  0  1  0  0  3  0  0  0  0  0  0
    7.8900   -2.3610    6.7680 C   0  0  1  0  0  3  0  0  0  0  0  0
    8.3270   -2.8960    5.5540 C   0  0  0  0  0  3  0  0  0  0  0  0
    9.2410   -2.1810    4.7920 C   0  0  0  0  0  3  0  0  0  0  0  0
    9.6690   -0.9550    5.2680 C   0  0  0  0  0  3  0  0  0  0  0  0
    9.2720   -0.4160    6.4430 N   0  0  0  0  0  0  0  0  0  0  0  0
    8.4160   -1.1200    7.2300 C   0  0  0  0  0  0  0  0  0  0  0  0
    7.0140   -4.3570    7.8820 O   0  0  0  0  0  0  0  0  0  0  0  0
    7.7740   -4.7200    7.3900 H   0  0  0  0  0  0  0  0  0  0  0  0
    8.5710    0.3160   10.4000 C   0  0  0  0  0  1  0  0  0  0  0  0
    8.4400    1.8970   11.1960 C   0  0  0  0  0  2  0  0  0  0  0  0
    5.9730    2.6390   11.3430 C   0  0  0  0  0  1  0  0  0  0  0  0
    7.3000    2.7670   10.5930 C   0  0  0  0  0  3  0  0  0  0  0  0
    7.7360    4.2370   10.5840 C   0  0  0  0  0  1  0  0  0  0  0  0
    2.9550   -5.1630    4.4220 N   0  0  0  0  0  0  0  0  0  0  0  0
    2.1480   -4.9350    3.8450 H   0  0  0  0  0  0  0  0  0  0  0  0
    4.3180   -5.1840    3.4600 S   0  0  0  0  0  0  0  0  0  0  0  0
    4.1220   -4.1740    2.4480 O   0  0  0  0  0  0  0  0  0  0  0  0
    5.4920   -5.1840    4.2980 O   0  0  0  0  0  0  0  0  0  0  0  0
    4.2250   -6.6800    2.7340 N   0  0  0  0  0  0  0  0  0  0  0  0
    3.6560   -7.2970    3.3130 H   0  0  0  0  0  0  0  0  0  0  0  0
    5.4960   -7.3070    2.3420 C   0  0  0  0  0  2  0  0  0  0  0  0
    6.1710   -6.5940    1.1990 C   0  0  0  0  0  0  0  0  0  0  0  0
    7.4040   -5.9510    1.3840 C   0  0  0  0  0  3  0  0  0  0  0  0
    8.0150   -5.2760    0.3250 C   0  0  0  0  0  3  0  0  0  0  0  0
    7.4000   -5.2330   -0.9250 C   0  0  0  0  0  3  0  0  0  0  0  0
    6.1710   -5.8590   -1.1170 C   0  0  0  0  0  3  0  0  0  0  0  0
    5.5570   -6.5320   -0.0600 C   0  0  0  0  0  3  0  0  0  0  0  0
  1 12  1  6  0  0  0
  1  2  1  0  0  0  0
  3  2  1  0  0  0  0
  3  5  2  0  0  0  0
  4  3  2  0  0  0  0
  6 11  1  0  0  0  0
  6  3  1  0  0  0  0
  7  6  2  0  0  0  0
  8  9  2  0  0  0  0
  8  7  1  0  0  0  0
  9 10  1  0  0  0  0
 10 11  2  0  0  0  0
 11 12  1  0  0  0  0
 13  2  1  0  0  0  0
 14 12  1  0  0  0  0
 16 15  1  0  0  0  0
 17 16  2  0  0  0  0
 18 16  1  1  0  0  0
 18  1  1  0  0  0  0
 19 26  1  1  0  0  0
 19 18  1  0  0  0  0
 20 21  1  6  0  0  0
 20 25  1  0  0  0  0
 20 19  1  0  0  0  0
 22 23  1  0  0  0  0
 22 21  2  0  0  0  0
 23 24  2  0  0  0  0
 24 25  1  0  0  0  0
 25 15  2  0  0  0  0
 27 26  1  0  0  0  0
 28 29  1  0  0  0  0
 31 29  1  0  0  0  0
 31 30  1  0  0  0  0
 32 31  1  0  0  0  0
 33  8  1  0  0  0  0
 34 33  1  0  0  0  0
 35 37  2  0  0  0  0
 35 33  1  0  0  0  0
 36 35  2  0  0  0  0
 38 39  1  0  0  0  0
 38 35  1  0  0  0  0
 40 38  1  0  0  0  0
 41 42  1  0  0  0  0
 41 40  1  0  0  0  0
 43 42  2  0  0  0  0
 44 43  1  0  0  0  0
 45 44  2  0  0  0  0
 45 46  1  0  0  0  0
 46 41  2  0  0  0  0
M  END
>  <minimizedAffinity>
-9.08254147

$$$$

 OpenBabel09122222343D

 46 49  0  0  1  0  0  0  0  0999 V2000
    2.5380   -4.7220    8.8450 C   0  0  2  0  0  3  0  0  0  0  0  0
    1.9010   -3.5550    8.9110 N   0  0  0  0  0  0  0  0  0  0  0  0
    2.4280   -2.4030    9.9590 S   0  0  0  0  0  0  0  0  0  0  0  0
    2.3630   -1.1060    9.3210 O   0  0  0  0  0  0  0  0  0  0  0  0
    1.8940   -2.5910   11.2900 O   0  0  0  0  0  0  0  0  0  0  0  0
    4.1390   -2.8520   10.0380 C   0  0  0  0  0  0  0  0  0  0  0  0
    5.5300   -1.8740    9.4600 C   0  0  0  0  0  3  0  0  0  0  0  0
    7.1590   -2.6410    9.2660 C   0  0  0  0  0  0  0  0  0  0  0  0
    7.4030   -4.3820    9.7360 C   0  0  0  0  0  3  0  0  0  0  0  0
    5.9510   -5.4080   10.1930 C   0  0  0  0  0  3  0  0  0  0  0  0
    4.3390   -4.6190   10.3810 C   0  0  0  0  0  0  0  0  0  0  0  0
    3.1230   -5.3150   10.0260 N   0  0  0  0  0  0  0  0  0  0  0  0
    1.6150   -3.1290    8.0410 H   0  0  0  0  0  0  0  0  0  0  0  0
    3.2220   -6.3290   10.0270 H   0  0  0  0  0  0  0  0  0  0  0  0
    2.3490   -6.4610    6.2460 N   0  0  0  0  0  0  0  0  0  0  0  0
    3.5340   -6.2490    7.2070 C   0  0  0  0  0  0  0  0  0  0  0  0
    4.2320   -7.0750    7.7830 O   0  0  0  0  0  0  0  0  0  0  0  0
    3.5260   -4.8100    7.7070 C   0  0  1  0  0  3  0  0  0  0  0  0
    3.6200   -3.9310    6.7000 C   0  0  1  0  0  3  0  0  0  0  0  0
    3.8630   -4.4740    5.3650 C   0  0  1  0  0  3  0  0  0  0  0  0
    4.7010   -3.8380    4.4460 C   0  0  0  0  0  3  0  0  0  0  0  0
    4.9450   -4.4470    3.2230 C   0  0  0  0  0  3  0  0  0  0  0  0
    4.3540   -5.6730    2.9740 C   0  0  0  0  0  3  0  0  0  0  0  0
    3.5310   -6.3080    3.8400 N   0  0  0  0  0  0  0  0  0  0  0  0
    3.2370   -5.7070    5.0230 C   0  0  0  0  0  0  0  0  0  0  0  0
    3.2610   -2.6080    6.8310 O   0  0  0  0  0  0  0  0  0  0  0  0
    3.3150   -2.1700    5.9610 H   0  0  0  0  0  0  0  0  0  0  0  0
    0.4250   -7.3280    6.2880 C   0  0  0  0  0  1  0  0  0  0  0  0
   -1.0520   -7.0610    5.3400 C   0  0  0  0  0  2  0  0  0  0  0  0
   -3.3730   -6.4000    6.2520 C   0  0  0  0  0  1  0  0  0  0  0  0
   -2.3310   -7.5090    6.1020 C   0  0  0  0  0  3  0  0  0  0  0  0
   -2.9630   -8.7020    5.3750 C   0  0  0  0  0  1  0  0  0  0  0  0
    8.2230   -1.8270    8.7810 N   0  0  0  0  0  0  0  0  0  0  0  0
    9.1230   -2.0560    9.2000 H   0  0  0  0  0  0  0  0  0  0  0  0
    8.4190   -1.6810    7.1300 S   0  0  0  0  0  0  0  0  0  0  0  0
    9.7750   -2.0800    6.8400 O   0  0  0  0  0  0  0  0  0  0  0  0
    7.2990   -2.2980    6.4620 O   0  0  0  0  0  0  0  0  0  0  0  0
    8.2940   -0.0360    6.8950 N   0  0  0  0  0  0  0  0  0  0  0  0
    8.2630    0.1550    5.8930 H   0  0  0  0  0  0  0  0  0  0  0  0
    9.2760    0.8090    7.5890 C   0  0  0  0  0  2  0  0  0  0  0  0
    8.6370    1.9470    8.3420 C   0  0  0  0  0  0  0  0  0  0  0  0
    8.9490    3.2780    8.0290 C   0  0  0  0  0  3  0  0  0  0  0  0
    8.3670    4.3280    8.7430 C   0  0  0  0  0  3  0  0  0  0  0  0
    7.4730    4.0590    9.7780 C   0  0  0  0  0  3  0  0  0  0  0  0
    7.1650    2.7410   10.1050 C   0  0  0  0  0  3  0  0  0  0  0  0
    7.7460    1.6900    9.3940 C   0  0  0  0  0  3  0  0  0  0  0  0
  1  2  1  1  0  0  0
  1 12  1  0  0  0  0
  2  3  1  0  0  0  0
  3  6  1  0  0  0  0
  3  5  2  0  0  0  0
  4  3  2  0  0  0  0
  6 11  1  0  0  0  0
  7  6  2  0  0  0  0
  8  7  1  0  0  0  0
  8  9  2  0  0  0  0
  9 10  1  0  0  0  0
 10 11  2  0  0  0  0
 12 14  1  0  0  0  0
 12 11  1  0  0  0  0
 13  2  1  0  0  0  0
 15 16  1  0  0  0  0
 16 17  2  0  0  0  0
 18 16  1  6  0  0  0
 18  1  1  0  0  0  0
 19 26  1  6  0  0  0
 19 18  1  0  0  0  0
 20 21  1  1  0  0  0
 20 19  1  0  0  0  0
 22 21  2  0  0  0  0
 23 22  1  0  0  0  0
 23 24  2  0  0  0  0
 24 25  1  0  0  0  0
 25 20  1  0  0  0  0
 25 15  2  0  0  0  0
 27 26  1  0  0  0  0
 29 31  1  0  0  0  0
 29 28  1  0  0  0  0
 31 30  1  0  0  0  0
 32 31  1  0  0  0  0
 33 34  1  0  0  0  0
 33  8  1  0  0  0  0
 35 33  1  0  0  0  0
 36 35  2  0  0  0  0
 37 35  2  0  0  0  0
 38 35  1  0  0  0  0
 38 40  1  0  0  0  0
 39 38  1  0  0  0  0
 40 41  1  0  0  0  0
 41 46  1  0  0  0  0
 42 41  2  0  0  0  0
 42 43  1  0  0  0  0
 43 44  2  0  0  0  0
 44 45  1  0  0  0  0
 46 45  2  0  0  0  0
M  END
>  <minimizedAffinity>
-7.99566936

$$$$

 OpenBabel09122222343D

 46 49  0  0  1  0  0  0  0  0999 V2000
    3.5320   -1.6450   10.3260 C   0  0  2  0  0  3  0  0  0  0  0  0
    3.3360   -2.6230   11.2070 N   0  0  0  0  0  0  0  0  0  0  0  0
    2.1210   -3.7040   10.9610 S   0  0  0  0  0  0  0  0  0  0  0  0
    2.5810   -5.0320   11.3050 O   0  0  0  0  0  0  0  0  0  0  0  0
    0.8510   -3.2190   11.4550 O   0  0  0  0  0  0  0  0  0  0  0  0
    2.0320   -3.6330    9.1940 C   0  0  0  0  0  0  0  0  0  0  0  0
    2.4130   -4.9630    8.0490 C   0  0  0  0  0  3  0  0  0  0  0  0
    2.6400   -4.6050    6.2890 C   0  0  0  0  0  0  0  0  0  0  0  0
    2.3990   -2.9110    5.6690 C   0  0  0  0  0  3  0  0  0  0  0  0
    2.1450   -1.5390    6.8610 C   0  0  0  0  0  3  0  0  0  0  0  0
    1.9210   -1.9210    8.6110 C   0  0  0  0  0  0  0  0  0  0  0  0
    2.4180   -1.0340    9.6380 N   0  0  0  0  0  0  0  0  0  0  0  0
    4.1520   -3.0950   11.5710 H   0  0  0  0  0  0  0  0  0  0  0  0
    2.5490   -0.0760    9.3160 H   0  0  0  0  0  0  0  0  0  0  0  0
    6.2050   -0.0750    9.8770 N   0  0  0  0  0  0  0  0  0  0  0  0
    5.1860   -0.6020    8.8500 C   0  0  0  0  0  0  0  0  0  0  0  0
    4.6140   -0.0120    7.9410 O   0  0  0  0  0  0  0  0  0  0  0  0
    4.6290   -1.9350    9.3300 C   0  0  1  0  0  3  0  0  0  0  0  0
    5.5930   -2.8510    9.4950 C   0  0  1  0  0  3  0  0  0  0  0  0
    6.9380   -2.4840    9.0530 C   0  0  1  0  0  3  0  0  0  0  0  0
    7.7930   -3.4010    8.4380 C   0  0  0  0  0  3  0  0  0  0  0  0
    9.0290   -2.9670    7.9780 C   0  0  0  0  0  3  0  0  0  0  0  0
    9.3530   -1.6320    8.1390 C   0  0  0  0  0  3  0  0  0  0  0  0
    8.5500   -0.7230    8.7400 N   0  0  0  0  0  0  0  0  0  0  0  0
    7.3570   -1.1360    9.2430 C   0  0  0  0  0  0  0  0  0  0  0  0
    5.4240   -3.9820   10.2610 O   0  0  0  0  0  0  0  0  0  0  0  0
    6.2720   -4.4590   10.3260 H   0  0  0  0  0  0  0  0  0  0  0  0
    6.2820    1.3590   11.4240 C   0  0  0  0  0  1  0  0  0  0  0  0
    6.6450    3.0960   11.4570 C   0  0  0  0  0  2  0  0  0  0  0  0
    7.4860    4.1630    9.2650 C   0  0  0  0  0  1  0  0  0  0  0  0
    7.8670    3.4590   10.5680 C   0  0  0  0  0  3  0  0  0  0  0  0
    8.8260    4.3520   11.3640 C   0  0  0  0  0  1  0  0  0  0  0  0
    2.9660   -5.6920    5.4260 N   0  0  0  0  0  0  0  0  0  0  0  0
    2.1450   -6.1480    5.0330 H   0  0  0  0  0  0  0  0  0  0  0  0
    4.0740   -5.4290    4.2060 S   0  0  0  0  0  0  0  0  0  0  0  0
    3.4710   -4.4830    3.2990 O   0  0  0  0  0  0  0  0  0  0  0  0
    5.3710   -5.1850    4.7870 O   0  0  0  0  0  0  0  0  0  0  0  0
    4.1390   -6.9130    3.4510 N   0  0  0  0  0  0  0  0  0  0  0  0
    3.7120   -7.6130    4.0570 H   0  0  0  0  0  0  0  0  0  0  0  0
    5.4510   -7.3430    2.9470 C   0  0  0  0  0  2  0  0  0  0  0  0
    5.8020   -6.7140    1.6230 C   0  0  0  0  0  0  0  0  0  0  0  0
    4.8290   -6.5540    0.6250 C   0  0  0  0  0  3  0  0  0  0  0  0
    5.1660   -5.9870   -0.6060 C   0  0  0  0  0  3  0  0  0  0  0  0
    6.4760   -5.5800   -0.8530 C   0  0  0  0  0  3  0  0  0  0  0  0
    7.4520   -5.7450    0.1260 C   0  0  0  0  0  3  0  0  0  0  0  0
    7.1190   -6.3130    1.3560 C   0  0  0  0  0  3  0  0  0  0  0  0
  1 12  1  6  0  0  0
  1  2  1  0  0  0  0
  2 13  1  0  0  0  0
  3  2  1  0  0  0  0
  3  4  2  0  0  0  0
  3  5  2  0  0  0  0
  6  3  1  0  0  0  0
  7  6  2  0  0  0  0
  8  7  1  0  0  0  0
  9  8  2  0  0  0  0
  9 10  1  0  0  0  0
 10 11  2  0  0  0  0
 11  6  1  0  0  0  0
 11 12  1  0  0  0  0
 14 12  1  0  0  0  0
 16 15  1  0  0  0  0
 17 16  2  0  0  0  0
 18 16  1  1  0  0  0
 18 19  1  0  0  0  0
 18  1  1  0  0  0  0
 19 26  1  1  0  0  0
 20 21  1  6  0  0  0
 20 25  1  0  0  0  0
 20 19  1  0  0  0  0
 22 23  1  0  0  0  0
 22 21  2  0  0  0  0
 23 24  2  0  0  0  0
 24 25  1  0  0  0  0
 25 15  2  0  0  0  0
 26 27  1  0  0  0  0
 28 29  1  0  0  0  0
 30 31  1  0  0  0  0
 31 32  1  0  0  0  0
 31 29  1  0  0  0  0
 33  8  1  0  0  0  0
 34 33  1  0  0  0  0
 35 37  2  0  0  0  0
 35 33  1  0  0  0  0
 36 35  2  0  0  0  0
 38 39  1  0  0  0  0
 38 35  1  0  0  0  0
 40 38  1  0  0  0  0
 41 40  1  0  0  0  0
 42 41  2  0  0  0  0
 43 42  1  0  0  0  0
 44 43  2  0  0  0  0
 44 45  1  0  0  0  0
 45 46  2  0  0  0  0
 46 41  1  0  0  0  0
M  END
>  <minimizedAffinity>
-7.93530226

$$$$

 OpenBabel09122222343D

 46 49  0  0  1  0  0  0  0  0999 V2000
    2.4900   -4.7020    7.7990 C   0  0  2  0  0  3  0  0  0  0  0  0
    1.7770   -3.6280    7.4660 N   0  0  0  0  0  0  0  0  0  0  0  0
    2.2800   -2.1400    7.9540 S   0  0  0  0  0  0  0  0  0  0  0  0
    2.0890   -1.1910    6.8780 O   0  0  0  0  0  0  0  0  0  0  0  0
    1.8340   -1.8260    9.2940 O   0  0  0  0  0  0  0  0  0  0  0  0
    4.0190   -2.4490    8.0640 C   0  0  0  0  0  0  0  0  0  0  0  0
    5.3050   -1.7080    7.0520 C   0  0  0  0  0  3  0  0  0  0  0  0
    6.9700   -2.4190    7.0370 C   0  0  0  0  0  0  0  0  0  0  0  0
    7.3610   -3.8340    8.1130 C   0  0  0  0  0  3  0  0  0  0  0  0
    6.0120   -4.6690    9.0370 C   0  0  0  0  0  3  0  0  0  0  0  0
    4.3610   -3.9390    9.0360 C   0  0  0  0  0  0  0  0  0  0  0  0
    3.1790   -4.7700    9.0670 N   0  0  0  0  0  0  0  0  0  0  0  0
    1.4150   -3.5810    6.5250 H   0  0  0  0  0  0  0  0  0  0  0  0
    3.3490   -5.7010    9.4460 H   0  0  0  0  0  0  0  0  0  0  0  0
    2.3010   -7.3300    6.1050 N   0  0  0  0  0  0  0  0  0  0  0  0
    3.5150   -6.6940    6.8060 C   0  0  0  0  0  0  0  0  0  0  0  0
    4.3100   -7.1870    7.5970 O   0  0  0  0  0  0  0  0  0  0  0  0
    3.4180   -5.1770    6.7070 C   0  0  1  0  0  3  0  0  0  0  0  0
    3.3830   -4.7600    5.4340 C   0  0  1  0  0  3  0  0  0  0  0  0
    3.5960   -5.7710    4.3990 C   0  0  1  0  0  3  0  0  0  0  0  0
    4.3260   -5.5030    3.2390 C   0  0  0  0  0  3  0  0  0  0  0  0
    4.5520   -6.5290    2.3320 C   0  0  0  0  0  3  0  0  0  0  0  0
    4.0500   -7.7840    2.6290 C   0  0  0  0  0  3  0  0  0  0  0  0
    3.3320   -8.0710    3.7380 N   0  0  0  0  0  0  0  0  0  0  0  0
    3.0560   -7.0710    4.6160 C   0  0  0  0  0  0  0  0  0  0  0  0
    2.9240   -3.5140    5.0700 O   0  0  0  0  0  0  0  0  0  0  0  0
    2.8940   -3.4510    4.0970 H   0  0  0  0  0  0  0  0  0  0  0  0
    0.4600   -8.2120    6.6390 C   0  0  0  0  0  1  0  0  0  0  0  0
   -1.1340   -7.5500    7.0530 C   0  0  0  0  0  2  0  0  0  0  0  0
   -2.0150   -8.0510    4.6800 C   0  0  0  0  0  1  0  0  0  0  0  0
   -1.8940   -7.0200    5.8040 C   0  0  0  0  0  3  0  0  0  0  0  0
   -3.2950   -6.5600    6.2210 C   0  0  0  0  0  1  0  0  0  0  0  0
    7.9460   -1.8080    6.1990 N   0  0  0  0  0  0  0  0  0  0  0  0
    7.5520   -1.4300    5.3380 H   0  0  0  0  0  0  0  0  0  0  0  0
    8.9660   -0.6710    6.8700 S   0  0  0  0  0  0  0  0  0  0  0  0
    9.7740   -1.3660    7.8420 O   0  0  0  0  0  0  0  0  0  0  0  0
    9.5680    0.1090    5.8170 O   0  0  0  0  0  0  0  0  0  0  0  0
    7.9080    0.3270    7.6850 N   0  0  0  0  0  0  0  0  0  0  0  0
    7.8700    1.2290    7.2110 H   0  0  0  0  0  0  0  0  0  0  0  0
    8.1160    0.4720    9.1330 C   0  0  0  0  0  2  0  0  0  0  0  0
    6.8990    1.0020    9.8470 C   0  0  0  0  0  0  0  0  0  0  0  0
    6.9050    2.2820   10.4190 C   0  0  0  0  0  3  0  0  0  0  0  0
    5.7800    2.7610   11.0950 C   0  0  0  0  0  3  0  0  0  0  0  0
    4.6430    1.9640   11.2090 C   0  0  0  0  0  3  0  0  0  0  0  0
    4.6290    0.6870   10.6550 C   0  0  0  0  0  3  0  0  0  0  0  0
    5.7520    0.2060    9.9800 C   0  0  0  0  0  3  0  0  0  0  0  0
  1  2  1  6  0  0  0
  1 12  1  0  0  0  0
  2  3  1  0  0  0  0
  3  6  1  0  0  0  0
  3  5  2  0  0  0  0
  4  3  2  0  0  0  0
  6 11  1  0  0  0  0
  7  6  2  0  0  0  0
  8  7  1  0  0  0  0
  8  9  2  0  0  0  0
  9 10  1  0  0  0  0
 11 10  2  0  0  0  0
 11 12  1  0  0  0  0
 12 14  1  0  0  0  0
 13  2  1  0  0  0  0
 15 16  1  0  0  0  0
 16 17  2  0  0  0  0
 18 16  1  6  0  0  0
 18  1  1  0  0  0  0
 19 26  1  6  0  0  0
 19 18  1  0  0  0  0
 20 21  1  1  0  0  0
 20 25  1  0  0  0  0
 20 19  1  0  0  0  0
 22 23  1  0  0  0  0
 22 21  2  0  0  0  0
 23 24  2  0  0  0  0
 24 25  1  0  0  0  0
 25 15  2  0  0  0  0
 27 26  1  0  0  0  0
 28 29  1  0  0  0  0
 30 31  1  0  0  0  0
 31 32  1  0  0  0  0
 31 29  1  0  0  0  0
 33 35  1  0  0  0  0
 33  8  1  0  0  0  0
 34 33  1  0  0  0  0
 35 38  1  0  0  0  0
 35 36  2  0  0  0  0
 37 35  2  0  0  0  0
 38 40  1  0  0  0  0
 39 38  1  0  0  0  0
 40 41  1  0  0  0  0
 41 46  2  0  0  0  0
 41 42  1  0  0  0  0
 42 43  2  0  0  0  0
 43 44  1  0  0  0  0
 45 44  2  0  0  0  0
 46 45  1  0  0  0  0
M  END
>  <minimizedAffinity>
-7.89780617

$$$$

 OpenBabel09122222343D

 46 49  0  0  1  0  0  0  0  0999 V2000
    5.6320   -3.0120    6.8280 C   0  0  2  0  0  3  0  0  0  0  0  0
    6.6670   -3.5070    7.5040 N   0  0  0  0  0  0  0  0  0  0  0  0
    6.7900   -3.2200    9.1190 S   0  0  0  0  0  0  0  0  0  0  0  0
    7.2410   -4.4210    9.7870 O   0  0  0  0  0  0  0  0  0  0  0  0
    7.4170   -1.9470    9.4010 O   0  0  0  0  0  0  0  0  0  0  0  0
    5.0730   -3.0300    9.5060 C   0  0  0  0  0  0  0  0  0  0  0  0
    4.0850   -4.1080   10.5500 C   0  0  0  0  0  3  0  0  0  0  0  0
    2.2790   -3.9870   10.5250 C   0  0  0  0  0  0  0  0  0  0  0  0
    1.4690   -2.7160    9.5040 C   0  0  0  0  0  3  0  0  0  0  0  0
    2.4750   -1.7150    8.3400 C   0  0  0  0  0  3  0  0  0  0  0  0
    4.2740   -1.8530    8.3850 C   0  0  0  0  0  0  0  0  0  0  0  0
    5.0610   -1.7320    7.1790 N   0  0  0  0  0  0  0  0  0  0  0  0
    6.9510   -4.4530    7.2960 H   0  0  0  0  0  0  0  0  0  0  0  0
    4.5860   -1.2240    6.4350 H   0  0  0  0  0  0  0  0  0  0  0  0
    4.8790   -4.5300    4.1940 N   0  0  0  0  0  0  0  0  0  0  0  0
    3.9750   -3.7980    5.2030 C   0  0  0  0  0  0  0  0  0  0  0  0
    3.1360   -2.9250    5.0130 O   0  0  0  0  0  0  0  0  0  0  0  0
    4.5180   -4.0070    6.6110 C   0  0  1  0  0  3  0  0  0  0  0  0
    4.5720   -5.3050    6.9380 C   0  0  1  0  0  3  0  0  0  0  0  0
    3.9790   -6.2520    5.9950 C   0  0  1  0  0  3  0  0  0  0  0  0
    3.2710   -7.3780    6.4200 C   0  0  0  0  0  3  0  0  0  0  0  0
    2.6720   -8.1960    5.4720 C   0  0  0  0  0  3  0  0  0  0  0  0
    2.7940   -7.8470    4.1390 C   0  0  0  0  0  3  0  0  0  0  0  0
    3.4810   -6.7690    3.6970 N   0  0  0  0  0  0  0  0  0  0  0  0
    4.1180   -5.9820    4.6030 C   0  0  0  0  0  0  0  0  0  0  0  0
    5.3540   -5.7820    7.9660 O   0  0  0  0  0  0  0  0  0  0  0  0
    5.3220   -6.7570    7.9710 H   0  0  0  0  0  0  0  0  0  0  0  0
    6.4050   -4.0560    2.8150 C   0  0  0  0  0  1  0  0  0  0  0  0
    7.1830   -4.9610    1.5010 C   0  0  0  0  0  2  0  0  0  0  0  0
    6.1050   -6.0380   -0.5800 C   0  0  0  0  0  1  0  0  0  0  0  0
    6.2690   -6.0870    0.9390 C   0  0  0  0  0  3  0  0  0  0  0  0
    6.8390   -7.4510    1.3430 C   0  0  0  0  0  1  0  0  0  0  0  0
    1.5420   -4.8820   11.3530 N   0  0  0  0  0  0  0  0  0  0  0  0
    0.6740   -4.4780   11.7030 H   0  0  0  0  0  0  0  0  0  0  0  0
    1.2280   -6.4170   10.7780 S   0  0  0  0  0  0  0  0  0  0  0  0
    2.4870   -7.1210   10.7790 O   0  0  0  0  0  0  0  0  0  0  0  0
    0.0720   -6.9500   11.4540 O   0  0  0  0  0  0  0  0  0  0  0  0
    0.7900   -6.1270    9.1960 N   0  0  0  0  0  0  0  0  0  0  0  0
   -0.0050   -5.4890    9.1830 H   0  0  0  0  0  0  0  0  0  0  0  0
    0.5680   -7.3050    8.3450 C   0  0  0  0  0  2  0  0  0  0  0  0
   -0.8200   -7.3480    7.7600 C   0  0  0  0  0  0  0  0  0  0  0  0
   -1.0230   -7.1810    6.3820 C   0  0  0  0  0  3  0  0  0  0  0  0
   -2.3140   -7.2040    5.8490 C   0  0  0  0  0  3  0  0  0  0  0  0
   -3.4120   -7.3900    6.6860 C   0  0  0  0  0  3  0  0  0  0  0  0
   -3.2240   -7.5470    8.0570 C   0  0  0  0  0  3  0  0  0  0  0  0
   -1.9350   -7.5220    8.5920 C   0  0  0  0  0  3  0  0  0  0  0  0
  1 12  1  1  0  0  0
  1  2  1  0  0  0  0
  2  3  1  0  0  0  0
  3  5  2  0  0  0  0
  3  6  1  0  0  0  0
  3  4  2  0  0  0  0
  6  7  1  0  0  0  0
  8  7  2  0  0  0  0
  8 33  1  0  0  0  0
  9  8  1  0  0  0  0
 10 11  1  0  0  0  0
 10  9  2  0  0  0  0
 11  6  2  0  0  0  0
 12 11  1  0  0  0  0
 13  2  1  0  0  0  0
 14 12  1  0  0  0  0
 15 25  2  0  0  0  0
 15 16  1  0  0  0  0
 17 16  2  0  0  0  0
 18 16  1  6  0  0  0
 18  1  1  0  0  0  0
 18 19  1  0  0  0  0
 19 26  1  6  0  0  0
 20 21  1  1  0  0  0
 20 19  1  0  0  0  0
 22 21  2  0  0  0  0
 23 22  1  0  0  0  0
 24 23  2  0  0  0  0
 24 25  1  0  0  0  0
 25 20  1  0  0  0  0
 26 27  1  0  0  0  0
 29 28  1  0  0  0  0
 30 31  1  0  0  0  0
 31 32  1  0  0  0  0
 31 29  1  0  0  0  0
 33 34  1  0  0  0  0
 35 36  2  0  0  0  0
 35 33  1  0  0  0  0
 35 37  2  0  0  0  0
 38 35  1  0  0  0  0
 39 38  1  0  0  0  0
 40 38  1  0  0  0  0
 41 40  1  0  0  0  0
 41 46  1  0  0  0  0
 42 41  2  0  0  0  0
 43 42  1  0  0  0  0
 43 44  2  0  0  0  0
 44 45  1  0  0  0  0
 45 46  2  0  0  0  0
M  END
>  <minimizedAffinity>
-7.86961651

$$$$

 OpenBabel09122222343D

 46 49  0  0  1  0  0  0  0  0999 V2000
    4.1270   -3.7160   10.3000 C   0  0  2  0  0  3  0  0  0  0  0  0
    5.4150   -3.8880   10.0110 N   0  0  0  0  0  0  0  0  0  0  0  0
    6.0730   -5.3910   10.1110 S   0  0  0  0  0  0  0  0  0  0  0  0
    6.9690   -5.6000    8.9950 O   0  0  0  0  0  0  0  0  0  0  0  0
    6.4940   -5.7140   11.4570 O   0  0  0  0  0  0  0  0  0  0  0  0
    4.6240   -6.3580    9.7950 C   0  0  0  0  0  0  0  0  0  0  0  0
    4.3320   -7.4160    8.3720 C   0  0  0  0  0  3  0  0  0  0  0  0
    2.6620   -8.0180    8.0190 C   0  0  0  0  0  0  0  0  0  0  0  0
    1.2950   -7.6200    9.1530 C   0  0  0  0  0  3  0  0  0  0  0  0
    1.5730   -6.4300   10.5230 C   0  0  0  0  0  3  0  0  0  0  0  0
    3.2480   -5.8450   10.8560 C   0  0  0  0  0  0  0  0  0  0  0  0
    3.4870   -4.5010   11.3310 N   0  0  0  0  0  0  0  0  0  0  0  0
    5.7820   -3.4010    9.2070 H   0  0  0  0  0  0  0  0  0  0  0  0
    2.6780   -4.0840   11.7880 H   0  0  0  0  0  0  0  0  0  0  0  0
    2.7060   -1.2320    9.0260 N   0  0  0  0  0  0  0  0  0  0  0  0
    2.1500   -2.6330    9.3390 C   0  0  0  0  0  0  0  0  0  0  0  0
    1.1530   -2.9570    9.9730 O   0  0  0  0  0  0  0  0  0  0  0  0
    3.2330   -3.6740    9.0850 C   0  0  1  0  0  3  0  0  0  0  0  0
    3.6610   -3.6490    7.8150 C   0  0  1  0  0  3  0  0  0  0  0  0
    2.9410   -2.7790    6.8880 C   0  0  1  0  0  3  0  0  0  0  0  0
    2.6900   -3.1490    5.5650 C   0  0  0  0  0  3  0  0  0  0  0  0
    1.9370   -2.3050    4.7600 C   0  0  0  0  0  3  0  0  0  0  0  0
    1.4530   -1.1340    5.3150 C   0  0  0  0  0  3  0  0  0  0  0  0
    1.6880   -0.7450    6.5890 N   0  0  0  0  0  0  0  0  0  0  0  0
    2.4640   -1.5300    7.3810 C   0  0  0  0  0  0  0  0  0  0  0  0
    4.8620   -4.1990    7.4240 O   0  0  0  0  0  0  0  0  0  0  0  0
    5.0240   -3.9880    6.4860 H   0  0  0  0  0  0  0  0  0  0  0  0
    3.4420    0.4400   10.0820 C   0  0  0  0  0  1  0  0  0  0  0  0
    4.9730    0.7790   10.9130 C   0  0  0  0  0  2  0  0  0  0  0  0
    7.1600    1.6120    9.8260 C   0  0  0  0  0  1  0  0  0  0  0  0
    6.2090    0.4330   10.0340 C   0  0  0  0  0  3  0  0  0  0  0  0
    6.9770   -0.7290   10.6740 C   0  0  0  0  0  1  0  0  0  0  0  0
    2.4800   -8.8340    6.8650 N   0  0  0  0  0  0  0  0  0  0  0  0
    1.7640   -9.5470    6.9900 H   0  0  0  0  0  0  0  0  0  0  0  0
    2.2420   -8.0820    5.3940 S   0  0  0  0  0  0  0  0  0  0  0  0
    1.4230   -8.9700    4.6060 O   0  0  0  0  0  0  0  0  0  0  0  0
    1.8540   -6.7110    5.6190 O   0  0  0  0  0  0  0  0  0  0  0  0
    3.7760   -8.0650    4.7440 N   0  0  0  0  0  0  0  0  0  0  0  0
    4.1270   -7.1080    4.7450 H   0  0  0  0  0  0  0  0  0  0  0  0
    3.9480   -8.7150    3.4370 C   0  0  0  0  0  2  0  0  0  0  0  0
    4.2250   -7.7330    2.3280 C   0  0  0  0  0  0  0  0  0  0  0  0
    4.1780   -8.1360    0.9860 C   0  0  0  0  0  3  0  0  0  0  0  0
    4.4540   -7.2240   -0.0360 C   0  0  0  0  0  3  0  0  0  0  0  0
    4.7830   -5.9060    0.2730 C   0  0  0  0  0  3  0  0  0  0  0  0
    4.8440   -5.4980    1.6030 C   0  0  0  0  0  3  0  0  0  0  0  0
    4.5700   -6.4070    2.6260 C   0  0  0  0  0  3  0  0  0  0  0  0
  1  2  1  6  0  0  0
  1 12  1  0  0  0  0
  2  3  1  0  0  0  0
  3  5  2  0  0  0  0
  4  3  2  0  0  0  0
  6  3  1  0  0  0  0
  6 11  1  0  0  0  0
  7  6  2  0  0  0  0
  8  7  1  0  0  0  0
  8  9  2  0  0  0  0
  9 10  1  0  0  0  0
 10 11  2  0  0  0  0
 11 12  1  0  0  0  0
 12 14  1  0  0  0  0
 13  2  1  0  0  0  0
 15 16  1  0  0  0  0
 16 17  2  0  0  0  0
 18 16  1  1  0  0  0
 18  1  1  0  0  0  0
 19 26  1  1  0  0  0
 19 18  1  0  0  0  0
 20 21  1  1  0  0  0
 20 25  1  0  0  0  0
 20 19  1  0  0  0  0
 22 23  1  0  0  0  0
 22 21  2  0  0  0  0
 23 24  2  0  0  0  0
 24 25  1  0  0  0  0
 25 15  2  0  0  0  0
 27 26  1  0  0  0  0
 28 29  1  0  0  0  0
 30 31  1  0  0  0  0
 31 32  1  0  0  0  0
 31 29  1  0  0  0  0
 33 34  1  0  0  0  0
 33  8  1  0  0  0  0
 35 37  2  0  0  0  0
 35 33  1  0  0  0  0
 36 35  2  0  0  0  0
 38 39  1  0  0  0  0
 38 35  1  0  0  0  0
 40 38  1  0  0  0  0
 41 46  1  0  0  0  0
 41 40  1  0  0  0  0
 42 41  2  0  0  0  0
 43 44  2  0  0  0  0
 43 42  1  0  0  0  0
 44 45  1  0  0  0  0
 45 46  2  0  0  0  0
M  END
>  <minimizedAffinity>
-7.78913641

$$$$

 OpenBabel09122222343D

 46 49  0  0  1  0  0  0  0  0999 V2000
    2.1270   -5.1940    5.3740 C   0  0  2  0  0  3  0  0  0  0  0  0
    1.7290   -4.1460    4.6560 N   0  0  0  0  0  0  0  0  0  0  0  0
    2.0140   -2.6260    5.2150 S   0  0  0  0  0  0  0  0  0  0  0  0
    2.4260   -1.7790    4.1170 O   0  0  0  0  0  0  0  0  0  0  0  0
    0.9900   -2.1830    6.1360 O   0  0  0  0  0  0  0  0  0  0  0  0
    3.4580   -2.9470    6.1870 C   0  0  0  0  0  0  0  0  0  0  0  0
    5.1140   -2.3190    5.8840 C   0  0  0  0  0  3  0  0  0  0  0  0
    6.5310   -3.0510    6.7410 C   0  0  0  0  0  0  0  0  0  0  0  0
    6.2670   -4.3650    7.9730 C   0  0  0  0  0  3  0  0  0  0  0  0
    4.5930   -5.0920    8.1750 C   0  0  0  0  0  3  0  0  0  0  0  0
    3.1970   -4.3440    7.3090 C   0  0  0  0  0  0  0  0  0  0  0  0
    2.1050   -5.1540    6.8180 N   0  0  0  0  0  0  0  0  0  0  0  0
    1.8750   -4.1820    3.6570 H   0  0  0  0  0  0  0  0  0  0  0  0
    2.0150   -6.0470    7.3000 H   0  0  0  0  0  0  0  0  0  0  0  0
    2.6650   -8.0370    4.1750 N   0  0  0  0  0  0  0  0  0  0  0  0
    3.4340   -7.2640    5.2620 C   0  0  0  0  0  0  0  0  0  0  0  0
    3.7540   -7.6120    6.3930 O   0  0  0  0  0  0  0  0  0  0  0  0
    3.4410   -5.7800    4.9160 C   0  0  1  0  0  3  0  0  0  0  0  0
    4.0140   -5.5470    3.7280 C   0  0  1  0  0  3  0  0  0  0  0  0
    4.6520   -6.6820    3.0650 C   0  0  1  0  0  3  0  0  0  0  0  0
    5.8460   -6.5510    2.3520 C   0  0  0  0  0  3  0  0  0  0  0  0
    6.4350   -7.6840    1.8080 C   0  0  0  0  0  3  0  0  0  0  0  0
    5.8150   -8.9030    2.0110 C   0  0  0  0  0  3  0  0  0  0  0  0
    4.6540   -9.0600    2.6880 N   0  0  0  0  0  0  0  0  0  0  0  0
    4.0330   -7.9590    3.1870 C   0  0  0  0  0  0  0  0  0  0  0  0
    3.8160   -4.3810    3.0220 O   0  0  0  0  0  0  0  0  0  0  0  0
    4.2430   -4.4560    2.1480 H   0  0  0  0  0  0  0  0  0  0  0  0
    0.7600   -8.9070    3.9120 C   0  0  0  0  0  1  0  0  0  0  0  0
   -0.7980   -8.6990    4.7360 C   0  0  0  0  0  2  0  0  0  0  0  0
   -2.2360   -6.8210    5.7670 C   0  0  0  0  0  1  0  0  0  0  0  0
   -0.8350   -7.4140    5.6110 C   0  0  0  0  0  3  0  0  0  0  0  0
   -0.2610   -7.7270    6.9970 C   0  0  0  0  0  1  0  0  0  0  0  0
    7.8250   -2.5330    6.4470 N   0  0  0  0  0  0  0  0  0  0  0  0
    7.9930   -2.4220    5.4480 H   0  0  0  0  0  0  0  0  0  0  0  0
    8.3210   -1.1470    7.2340 S   0  0  0  0  0  0  0  0  0  0  0  0
    8.8590   -1.5670    8.5050 O   0  0  0  0  0  0  0  0  0  0  0  0
    9.0940   -0.3360    6.3260 O   0  0  0  0  0  0  0  0  0  0  0  0
    6.8820   -0.3540    7.5090 N   0  0  0  0  0  0  0  0  0  0  0  0
    6.8280    0.4590    6.8950 H   0  0  0  0  0  0  0  0  0  0  0  0
    6.5690   -0.0140    8.9040 C   0  0  0  0  0  2  0  0  0  0  0  0
    5.3570   -0.7440    9.4250 C   0  0  0  0  0  0  0  0  0  0  0  0
    5.4940   -1.7940   10.3440 C   0  0  0  0  0  3  0  0  0  0  0  0
    4.3680   -2.4790   10.8090 C   0  0  0  0  0  3  0  0  0  0  0  0
    3.0990   -2.1240   10.3560 C   0  0  0  0  0  3  0  0  0  0  0  0
    2.9520   -1.0900    9.4350 C   0  0  0  0  0  3  0  0  0  0  0  0
    4.0760   -0.4050    8.9680 C   0  0  0  0  0  3  0  0  0  0  0  0
  1  2  1  6  0  0  0
  1 12  1  0  0  0  0
  2  3  1  0  0  0  0
  3  5  2  0  0  0  0
  3  6  1  0  0  0  0
  4  3  2  0  0  0  0
  6 11  1  0  0  0  0
  7  6  2  0  0  0  0
  7  8  1  0  0  0  0
  8  9  2  0  0  0  0
  9 10  1  0  0  0  0
 11 10  2  0  0  0  0
 12 14  1  0  0  0  0
 12 11  1  0  0  0  0
 13  2  1  0  0  0  0
 15 16  1  0  0  0  0
 16 17  2  0  0  0  0
 18 16  1  6  0  0  0
 18  1  1  0  0  0  0
 19 26  1  6  0  0  0
 19 18  1  0  0  0  0
 20 21  1  1  0  0  0
 20 25  1  0  0  0  0
 20 19  1  0  0  0  0
 22 23  1  0  0  0  0
 22 21  2  0  0  0  0
 23 24  2  0  0  0  0
 24 25  1  0  0  0  0
 25 15  2  0  0  0  0
 27 26  1  0  0  0  0
 28 29  1  0  0  0  0
 29 31  1  0  0  0  0
 31 30  1  0  0  0  0
 31 32  1  0  0  0  0
 33  8  1  0  0  0  0
 33 35  1  0  0  0  0
 34 33  1  0  0  0  0
 35 38  1  0  0  0  0
 35 36  2  0  0  0  0
 37 35  2  0  0  0  0
 38 40  1  0  0  0  0
 39 38  1  0  0  0  0
 40 41  1  0  0  0  0
 41 42  1  0  0  0  0
 42 43  2  0  0  0  0
 44 43  1  0  0  0  0
 45 44  2  0  0  0  0
 46 41  2  0  0  0  0
 46 45  1  0  0  0  0
M  END
>  <minimizedAffinity>
-7.5637188

$$$$

 OpenBabel09122222343D

 46 49  0  0  1  0  0  0  0  0999 V2000
    5.7450   -2.6320    6.7790 C   0  0  2  0  0  3  0  0  0  0  0  0
    4.8270   -2.3160    5.8700 N   0  0  0  0  0  0  0  0  0  0  0  0
    3.6800   -3.4200    5.4590 S   0  0  0  0  0  0  0  0  0  0  0  0
    2.4020   -2.7570    5.3180 O   0  0  0  0  0  0  0  0  0  0  0  0
    4.1450   -4.3360    4.4410 O   0  0  0  0  0  0  0  0  0  0  0  0
    3.6170   -4.3400    6.9700 C   0  0  0  0  0  0  0  0  0  0  0  0
    2.2240   -4.4510    8.0990 C   0  0  0  0  0  3  0  0  0  0  0  0
    2.4620   -5.1110    9.7680 C   0  0  0  0  0  0  0  0  0  0  0  0
    4.0940   -5.7400   10.2720 C   0  0  0  0  0  3  0  0  0  0  0  0
    5.5380   -5.4980    9.1640 C   0  0  0  0  0  3  0  0  0  0  0  0
    5.2750   -4.8380    7.5040 C   0  0  0  0  0  0  0  0  0  0  0  0
    6.2560   -3.9810    6.8790 N   0  0  0  0  0  0  0  0  0  0  0  0
    4.4190   -1.3930    5.9190 H   0  0  0  0  0  0  0  0  0  0  0  0
    7.1920   -4.0880    7.2660 H   0  0  0  0  0  0  0  0  0  0  0  0
    7.3630   -0.5710    8.4960 N   0  0  0  0  0  0  0  0  0  0  0  0
    6.7500   -1.9240    8.9000 C   0  0  0  0  0  0  0  0  0  0  0  0
    7.2710   -2.8860    9.4510 O   0  0  0  0  0  0  0  0  0  0  0  0
    5.4300   -2.1200    8.1640 C   0  0  1  0  0  3  0  0  0  0  0  0
    4.5540   -1.1450    8.4420 C   0  0  1  0  0  3  0  0  0  0  0  0
    4.9330   -0.1880    9.4800 C   0  0  1  0  0  3  0  0  0  0  0  0
    4.0080    0.3230   10.3930 C   0  0  0  0  0  3  0  0  0  0  0  0
    4.4500    1.1720   11.3970 C   0  0  0  0  0  3  0  0  0  0  0  0
    5.8010    1.4640   11.4570 C   0  0  0  0  0  3  0  0  0  0  0  0
    6.7190    0.9930   10.5820 N   0  0  0  0  0  0  0  0  0  0  0  0
    6.3010    0.2000    9.5600 C   0  0  0  0  0  0  0  0  0  0  0  0
    3.4640   -0.8750    7.6460 O   0  0  0  0  0  0  0  0  0  0  0  0
    3.0150   -0.0730    7.9720 H   0  0  0  0  0  0  0  0  0  0  0  0
    8.8840    0.1510    7.2230 C   0  0  0  0  0  1  0  0  0  0  0  0
    9.7540    1.6940    7.1180 C   0  0  0  0  0  2  0  0  0  0  0  0
    9.3290    2.9210    9.3480 C   0  0  0  0  0  1  0  0  0  0  0  0
    9.0080    2.8420    7.8540 C   0  0  0  0  0  3  0  0  0  0  0  0
    9.3550    4.1800    7.1910 C   0  0  0  0  0  1  0  0  0  0  0  0
    1.3300   -5.1540   10.6330 N   0  0  0  0  0  0  0  0  0  0  0  0
    0.6660   -4.4020   10.4580 H   0  0  0  0  0  0  0  0  0  0  0  0
    0.4940   -6.5920   10.7700 S   0  0  0  0  0  0  0  0  0  0  0  0
    1.3670   -7.5120   11.4570 O   0  0  0  0  0  0  0  0  0  0  0  0
   -0.8380   -6.3220   11.2540 O   0  0  0  0  0  0  0  0  0  0  0  0
    0.3570   -7.0830    9.1840 N   0  0  0  0  0  0  0  0  0  0  0  0
    0.2730   -6.2610    8.5870 H   0  0  0  0  0  0  0  0  0  0  0  0
   -0.6740   -8.0890    8.8880 C   0  0  0  0  0  2  0  0  0  0  0  0
   -1.6660   -7.6210    7.8540 C   0  0  0  0  0  0  0  0  0  0  0  0
   -3.0060   -7.3930    8.1990 C   0  0  0  0  0  3  0  0  0  0  0  0
   -3.9240   -6.9770    7.2320 C   0  0  0  0  0  3  0  0  0  0  0  0
   -3.5130   -6.7900    5.9130 C   0  0  0  0  0  3  0  0  0  0  0  0
   -2.1880   -7.0240    5.5580 C   0  0  0  0  0  3  0  0  0  0  0  0
   -1.2690   -7.4410    6.5220 C   0  0  0  0  0  3  0  0  0  0  0  0
  1  2  1  6  0  0  0
  1 12  1  0  0  0  0
  1 18  1  0  0  0  0
  2 13  1  0  0  0  0
  3  2  1  0  0  0  0
  3  6  1  0  0  0  0
  4  3  2  0  0  0  0
  5  3  2  0  0  0  0
  6 11  2  0  0  0  0
  6  7  1  0  0  0  0
  7  8  2  0  0  0  0
  8  9  1  0  0  0  0
  8 33  1  0  0  0  0
 10  9  2  0  0  0  0
 11 10  1  0  0  0  0
 12 14  1  0  0  0  0
 12 11  1  0  0  0  0
 15 16  1  0  0  0  0
 15 25  2  0  0  0  0
 16 17  2  0  0  0  0
 18 19  1  0  0  0  0
 18 16  1  6  0  0  0
 19 26  1  6  0  0  0
 19 20  1  0  0  0  0
 20 25  1  0  0  0  0
 20 21  1  1  0  0  0
 21 22  2  0  0  0  0
 22 23  1  0  0  0  0
 24 23  2  0  0  0  0
 25 24  1  0  0  0  0
 26 27  1  0  0  0  0
 29 28  1  0  0  0  0
 29 31  1  0  0  0  0
 31 30  1  0  0  0  0
 32 31  1  0  0  0  0
 33 35  1  0  0  0  0
 34 33  1  0  0  0  0
 35 37  2  0  0  0  0
 35 36  2  0  0  0  0
 38 35  1  0  0  0  0
 39 38  1  0  0  0  0
 40 38  1  0  0  0  0
 41 42  1  0  0  0  0
 41 40  1  0  0  0  0
 43 42  2  0  0  0  0
 44 43  1  0  0  0  0
 45 44  2  0  0  0  0
 45 46  1  0  0  0  0
 46 41  2  0  0  0  0
M  END
>  <minimizedAffinity>
-7.55906153

$$$$

 OpenBabel09122222343D

 46 49  0  0  1  0  0  0  0  0999 V2000
    1.8170   -6.6960    8.8290 C   0  0  2  0  0  3  0  0  0  0  0  0
    0.9360   -5.7140    9.0060 N   0  0  0  0  0  0  0  0  0  0  0  0
    0.9540   -4.8520   10.4060 S   0  0  0  0  0  0  0  0  0  0  0  0
    0.7380   -3.4520   10.1110 O   0  0  0  0  0  0  0  0  0  0  0  0
    0.2030   -5.5020   11.4570 O   0  0  0  0  0  0  0  0  0  0  0  0
    2.6640   -5.0310   10.8270 C   0  0  0  0  0  0  0  0  0  0  0  0
    3.8920   -3.7210   10.9010 C   0  0  0  0  0  3  0  0  0  0  0  0
    5.6530   -4.1330   10.9680 C   0  0  0  0  0  0  0  0  0  0  0  0
    6.1750   -5.8750   11.0460 C   0  0  0  0  0  3  0  0  0  0  0  0
    4.9270   -7.2040   10.8320 C   0  0  0  0  0  3  0  0  0  0  0  0
    3.1760   -6.7670   10.7680 C   0  0  0  0  0  0  0  0  0  0  0  0
    2.2530   -7.5090    9.9410 N   0  0  0  0  0  0  0  0  0  0  0  0
    0.7550   -5.1020    8.2230 H   0  0  0  0  0  0  0  0  0  0  0  0
    2.5740   -8.4510    9.7210 H   0  0  0  0  0  0  0  0  0  0  0  0
    2.6120   -7.6480    5.9530 N   0  0  0  0  0  0  0  0  0  0  0  0
    3.4760   -7.5100    7.2200 C   0  0  0  0  0  0  0  0  0  0  0  0
    4.2080   -8.3300    7.7610 O   0  0  0  0  0  0  0  0  0  0  0  0
    3.0200   -6.2910    8.0120 C   0  0  1  0  0  3  0  0  0  0  0  0
    3.1180   -5.1640    7.2940 C   0  0  1  0  0  3  0  0  0  0  0  0
    3.7660   -5.2630    5.9880 C   0  0  1  0  0  3  0  0  0  0  0  0
    4.6080   -4.2620    5.4990 C   0  0  0  0  0  3  0  0  0  0  0  0
    5.2480   -4.4540    4.2820 C   0  0  0  0  0  3  0  0  0  0  0  0
    5.0320   -5.6440    3.6120 C   0  0  0  0  0  3  0  0  0  0  0  0
    4.2160   -6.6280    4.0560 N   0  0  0  0  0  0  0  0  0  0  0  0
    3.5400   -6.4410    5.2200 C   0  0  0  0  0  0  0  0  0  0  0  0
    2.4360   -4.0130    7.6190 O   0  0  0  0  0  0  0  0  0  0  0  0
    2.5720   -3.3480    6.9190 H   0  0  0  0  0  0  0  0  0  0  0  0
    0.9860   -8.8100    5.2750 C   0  0  0  0  0  1  0  0  0  0  0  0
   -0.7350   -8.8640    5.7050 C   0  0  0  0  0  2  0  0  0  0  0  0
   -2.6760   -8.5730    4.0310 C   0  0  0  0  0  1  0  0  0  0  0  0
   -1.5860   -7.8810    4.8510 C   0  0  0  0  0  3  0  0  0  0  0  0
   -2.2310   -6.8380    5.7710 C   0  0  0  0  0  1  0  0  0  0  0  0
    6.5860   -3.0570   11.0000 N   0  0  0  0  0  0  0  0  0  0  0  0
    7.1020   -3.0020   11.8780 H   0  0  0  0  0  0  0  0  0  0  0  0
    7.6620   -2.9030    9.7330 S   0  0  0  0  0  0  0  0  0  0  0  0
    8.9770   -3.1240   10.2810 O   0  0  0  0  0  0  0  0  0  0  0  0
    7.1820   -3.6680    8.6080 O   0  0  0  0  0  0  0  0  0  0  0  0
    7.5230   -1.2910    9.3340 N   0  0  0  0  0  0  0  0  0  0  0  0
    7.2040   -0.7730   10.1520 H   0  0  0  0  0  0  0  0  0  0  0  0
    6.7360   -0.9710    8.1350 C   0  0  0  0  0  2  0  0  0  0  0  0
    5.2710   -0.7780    8.4320 C   0  0  0  0  0  0  0  0  0  0  0  0
    4.8490   -0.3240    9.6900 C   0  0  0  0  0  3  0  0  0  0  0  0
    3.4890   -0.1650    9.9650 C   0  0  0  0  0  3  0  0  0  0  0  0
    2.5390   -0.4620    8.9890 C   0  0  0  0  0  3  0  0  0  0  0  0
    2.9460   -0.9240    7.7400 C   0  0  0  0  0  3  0  0  0  0  0  0
    4.3050   -1.0850    7.4630 C   0  0  0  0  0  3  0  0  0  0  0  0
  1  2  1  1  0  0  0
  1 12  1  0  0  0  0
  2  3  1  0  0  0  0
  3  6  1  0  0  0  0
  3  5  2  0  0  0  0
  4  3  2  0  0  0  0
  6  7  1  0  0  0  0
  7  8  2  0  0  0  0
  8 33  1  0  0  0  0
  8  9  1  0  0  0  0
 10  9  2  0  0  0  0
 11  6  2  0  0  0  0
 11 10  1  0  0  0  0
 12 11  1  0  0  0  0
 13  2  1  0  0  0  0
 14 12  1  0  0  0  0
 15 16  1  0  0  0  0
 16 17  2  0  0  0  0
 18 16  1  6  0  0  0
 18  1  1  0  0  0  0
 19 26  1  6  0  0  0
 19 18  1  0  0  0  0
 20 21  1  1  0  0  0
 20 19  1  0  0  0  0
 22 21  2  0  0  0  0
 23 24  2  0  0  0  0
 23 22  1  0  0  0  0
 24 25  1  0  0  0  0
 25 15  2  0  0  0  0
 25 20  1  0  0  0  0
 27 26  1  0  0  0  0
 28 29  1  0  0  0  0
 30 31  1  0  0  0  0
 31 29  1  0  0  0  0
 31 32  1  0  0  0  0
 33 34  1  0  0  0  0
 35 36  2  0  0  0  0
 35 33  1  0  0  0  0
 37 35  2  0  0  0  0
 38 35  1  0  0  0  0
 38 39  1  0  0  0  0
 40 41  1  0  0  0  0
 40 38  1  0  0  0  0
 41 42  1  0  0  0  0
 42 43  2  0  0  0  0
 44 43  1  0  0  0  0
 45 44  2  0  0  0  0
 46 45  1  0  0  0  0
 46 41  2  0  0  0  0
M  END
>  <minimizedAffinity>
-7.53211784

$$$$

 OpenBabel09122222343D

 46 49  0  0  1  0  0  0  0  0999 V2000
    5.0640   -1.8270    7.4130 C   0  0  2  0  0  3  0  0  0  0  0  0
    4.3390   -1.1000    8.2610 N   0  0  0  0  0  0  0  0  0  0  0  0
    2.7310   -1.4010    8.4170 S   0  0  0  0  0  0  0  0  0  0  0  0
    2.3590   -1.3180    9.8120 O   0  0  0  0  0  0  0  0  0  0  0  0
    1.9470   -0.7200    7.4090 O   0  0  0  0  0  0  0  0  0  0  0  0
    2.7200   -3.1180    7.9840 C   0  0  0  0  0  0  0  0  0  0  0  0
    2.3020   -4.4920    9.0630 C   0  0  0  0  0  3  0  0  0  0  0  0
    2.7150   -6.1860    8.5740 C   0  0  0  0  0  0  0  0  0  0  0  0
    3.4770   -6.5020    6.9520 C   0  0  0  0  0  3  0  0  0  0  0  0
    4.0240   -5.0860    5.9180 C   0  0  0  0  0  3  0  0  0  0  0  0
    3.6000   -3.4070    6.4270 C   0  0  0  0  0  0  0  0  0  0  0  0
    4.4960   -2.3030    6.1720 N   0  0  0  0  0  0  0  0  0  0  0  0
    4.7440   -0.8930    9.1630 H   0  0  0  0  0  0  0  0  0  0  0  0
    5.1470   -2.4780    5.4090 H   0  0  0  0  0  0  0  0  0  0  0  0
    8.1560   -2.1020    7.8280 N   0  0  0  0  0  0  0  0  0  0  0  0
    7.1330   -3.1370    7.3240 C   0  0  0  0  0  0  0  0  0  0  0  0
    7.1460   -3.8190    6.3060 O   0  0  0  0  0  0  0  0  0  0  0  0
    5.8200   -2.9540    8.0740 C   0  0  1  0  0  3  0  0  0  0  0  0
    5.9750   -3.1040    9.3960 C   0  0  1  0  0  3  0  0  0  0  0  0
    7.2840   -3.5550    9.8640 C   0  0  1  0  0  3  0  0  0  0  0  0
    7.4250   -4.4490   10.9280 C   0  0  0  0  0  3  0  0  0  0  0  0
    8.6950   -4.8920   11.2730 C   0  0  0  0  0  3  0  0  0  0  0  0
    9.7690   -4.4340   10.5310 C   0  0  0  0  0  3  0  0  0  0  0  0
    9.6650   -3.5610    9.5030 N   0  0  0  0  0  0  0  0  0  0  0  0
    8.4370   -3.0750    9.1800 C   0  0  0  0  0  0  0  0  0  0  0  0
    5.0620   -2.6290   10.3120 O   0  0  0  0  0  0  0  0  0  0  0  0
    5.4110   -2.7580   11.2140 H   0  0  0  0  0  0  0  0  0  0  0  0
    8.9740   -0.2620    7.1970 C   0  0  0  0  0  1  0  0  0  0  0  0
    9.2850    1.2790    8.0220 C   0  0  0  0  0  2  0  0  0  0  0  0
    7.6980    2.5710    9.5920 C   0  0  0  0  0  1  0  0  0  0  0  0
    8.0010    2.1460    8.1550 C   0  0  0  0  0  3  0  0  0  0  0  0
    8.1380    3.3940    7.2760 C   0  0  0  0  0  1  0  0  0  0  0  0
    2.3840   -7.2370    9.4770 N   0  0  0  0  0  0  0  0  0  0  0  0
    2.6850   -7.0510   10.4330 H   0  0  0  0  0  0  0  0  0  0  0  0
    0.8100   -7.7910    9.5050 S   0  0  0  0  0  0  0  0  0  0  0  0
    0.8140   -9.0020   10.2870 O   0  0  0  0  0  0  0  0  0  0  0  0
   -0.0720   -6.6960    9.8260 O   0  0  0  0  0  0  0  0  0  0  0  0
    0.5420   -8.1950    7.9110 N   0  0  0  0  0  0  0  0  0  0  0  0
    0.6250   -7.3570    7.3360 H   0  0  0  0  0  0  0  0  0  0  0  0
   -0.6860   -8.9480    7.6160 C   0  0  0  0  0  2  0  0  0  0  0  0
   -1.8780   -8.0530    7.3870 C   0  0  0  0  0  0  0  0  0  0  0  0
   -2.9400   -8.0250    8.3030 C   0  0  0  0  0  3  0  0  0  0  0  0
   -4.0490   -7.2080    8.0750 C   0  0  0  0  0  3  0  0  0  0  0  0
   -4.1100   -6.4150    6.9300 C   0  0  0  0  0  3  0  0  0  0  0  0
   -3.0660   -6.4430    6.0090 C   0  0  0  0  0  3  0  0  0  0  0  0
   -1.9570   -7.2600    6.2330 C   0  0  0  0  0  3  0  0  0  0  0  0
  1 12  1  6  0  0  0
  1 18  1  0  0  0  0
  1  2  1  0  0  0  0
  2  3  1  0  0  0  0
  2 13  1  0  0  0  0
  3  4  2  0  0  0  0
  5  3  2  0  0  0  0
  6  3  1  0  0  0  0
  6  7  1  0  0  0  0
  8  7  2  0  0  0  0
  8 33  1  0  0  0  0
  9  8  1  0  0  0  0
 10 11  1  0  0  0  0
 10  9  2  0  0  0  0
 11  6  2  0  0  0  0
 12 11  1  0  0  0  0
 14 12  1  0  0  0  0
 15 25  2  0  0  0  0
 16 15  1  0  0  0  0
 17 16  2  0  0  0  0
 18 16  1  6  0  0  0
 18 19  1  0  0  0  0
 19 20  1  0  0  0  0
 19 26  1  1  0  0  0
 20 21  1  6  0  0  0
 21 22  2  0  0  0  0
 23 22  1  0  0  0  0
 24 23  2  0  0  0  0
 25 24  1  0  0  0  0
 25 20  1  0  0  0  0
 26 27  1  0  0  0  0
 28 29  1  0  0  0  0
 29 31  1  0  0  0  0
 31 30  1  0  0  0  0
 32 31  1  0  0  0  0
 33 35  1  0  0  0  0
 33 34  1  0  0  0  0
 35 37  2  0  0  0  0
 35 36  2  0  0  0  0
 38 35  1  0  0  0  0
 39 38  1  0  0  0  0
 40 38  1  0  0  0  0
 41 40  1  0  0  0  0
 41 42  1  0  0  0  0
 43 42  2  0  0  0  0
 44 43  1  0  0  0  0
 45 46  1  0  0  0  0
 45 44  2  0  0  0  0
 46 41  2  0  0  0  0
M  END
>  <minimizedAffinity>
-7.51462269

$$$$
