
 OpenBabel09122222393D

 46 49  0  0  1  0  0  0  0  0999 V2000
    1.8170   -6.6960    8.8290 C   0  0  2  0  0  3  0  0  0  0  0  0
    0.9360   -5.7140    9.0060 N   0  0  0  0  0  0  0  0  0  0  0  0
    0.9540   -4.8520   10.4060 S   0  0  0  0  0  0  0  0  0  0  0  0
    0.7380   -3.4520   10.1110 O   0  0  0  0  0  0  0  0  0  0  0  0
    0.2030   -5.5020   11.4570 O   0  0  0  0  0  0  0  0  0  0  0  0
    2.6640   -5.0310   10.8270 C   0  0  0  0  0  0  0  0  0  0  0  0
    3.8920   -3.7210   10.9010 C   0  0  0  0  0  3  0  0  0  0  0  0
    5.6530   -4.1330   10.9680 C   0  0  0  0  0  0  0  0  0  0  0  0
    6.1750   -5.8750   11.0460 C   0  0  0  0  0  3  0  0  0  0  0  0
    4.9270   -7.2040   10.8320 C   0  0  0  0  0  3  0  0  0  0  0  0
    3.1760   -6.7670   10.7680 C   0  0  0  0  0  0  0  0  0  0  0  0
    2.2530   -7.5090    9.9410 N   0  0  0  0  0  0  0  0  0  0  0  0
    0.7550   -5.1020    8.2230 H   0  0  0  0  0  0  0  0  0  0  0  0
    2.5740   -8.4510    9.7210 H   0  0  0  0  0  0  0  0  0  0  0  0
    2.6120   -7.6480    5.9530 N   0  0  0  0  0  0  0  0  0  0  0  0
    3.4760   -7.5100    7.2200 C   0  0  0  0  0  0  0  0  0  0  0  0
    4.2080   -8.3300    7.7610 O   0  0  0  0  0  0  0  0  0  0  0  0
    3.0200   -6.2910    8.0120 C   0  0  1  0  0  3  0  0  0  0  0  0
    3.1180   -5.1640    7.2940 C   0  0  1  0  0  3  0  0  0  0  0  0
    3.7660   -5.2630    5.9880 C   0  0  1  0  0  3  0  0  0  0  0  0
    4.6080   -4.2620    5.4990 C   0  0  0  0  0  3  0  0  0  0  0  0
    5.2480   -4.4540    4.2820 C   0  0  0  0  0  3  0  0  0  0  0  0
    5.0320   -5.6440    3.6120 C   0  0  0  0  0  3  0  0  0  0  0  0
    4.2160   -6.6280    4.0560 N   0  0  0  0  0  0  0  0  0  0  0  0
    3.5400   -6.4410    5.2200 C   0  0  0  0  0  0  0  0  0  0  0  0
    2.4360   -4.0130    7.6190 O   0  0  0  0  0  0  0  0  0  0  0  0
    2.5720   -3.3480    6.9190 H   0  0  0  0  0  0  0  0  0  0  0  0
    0.9860   -8.8100    5.2750 C   0  0  0  0  0  1  0  0  0  0  0  0
   -0.7350   -8.8640    5.7050 C   0  0  0  0  0  2  0  0  0  0  0  0
   -2.6760   -8.5730    4.0310 C   0  0  0  0  0  1  0  0  0  0  0  0
   -1.5860   -7.8810    4.8510 C   0  0  0  0  0  3  0  0  0  0  0  0
   -2.2310   -6.8380    5.7710 C   0  0  0  0  0  1  0  0  0  0  0  0
    6.5860   -3.0570   11.0000 N   0  0  0  0  0  0  0  0  0  0  0  0
    7.1020   -3.0020   11.8780 H   0  0  0  0  0  0  0  0  0  0  0  0
    7.6620   -2.9030    9.7330 S   0  0  0  0  0  0  0  0  0  0  0  0
    8.9770   -3.1240   10.2810 O   0  0  0  0  0  0  0  0  0  0  0  0
    7.1820   -3.6680    8.6080 O   0  0  0  0  0  0  0  0  0  0  0  0
    7.5230   -1.2910    9.3340 N   0  0  0  0  0  0  0  0  0  0  0  0
    7.2040   -0.7730   10.1520 H   0  0  0  0  0  0  0  0  0  0  0  0
    6.7360   -0.9710    8.1350 C   0  0  0  0  0  2  0  0  0  0  0  0
    5.2710   -0.7780    8.4320 C   0  0  0  0  0  0  0  0  0  0  0  0
    4.8490   -0.3240    9.6900 C   0  0  0  0  0  3  0  0  0  0  0  0
    3.4890   -0.1650    9.9650 C   0  0  0  0  0  3  0  0  0  0  0  0
    2.5390   -0.4620    8.9890 C   0  0  0  0  0  3  0  0  0  0  0  0
    2.9460   -0.9240    7.7400 C   0  0  0  0  0  3  0  0  0  0  0  0
    4.3050   -1.0850    7.4630 C   0  0  0  0  0  3  0  0  0  0  0  0
  1  2  1  1  0  0  0
  1 12  1  0  0  0  0
  2  3  1  0  0  0  0
  3  6  1  0  0  0  0
  3  5  2  0  0  0  0
  4  3  2  0  0  0  0
  6  7  1  0  0  0  0
  7  8  2  0  0  0  0
  8 33  1  0  0  0  0
  8  9  1  0  0  0  0
 10  9  2  0  0  0  0
 11  6  2  0  0  0  0
 11 10  1  0  0  0  0
 12 11  1  0  0  0  0
 13  2  1  0  0  0  0
 14 12  1  0  0  0  0
 15 16  1  0  0  0  0
 16 17  2  0  0  0  0
 18 16  1  6  0  0  0
 18  1  1  0  0  0  0
 19 26  1  6  0  0  0
 19 18  1  0  0  0  0
 20 21  1  1  0  0  0
 20 19  1  0  0  0  0
 22 21  2  0  0  0  0
 23 24  2  0  0  0  0
 23 22  1  0  0  0  0
 24 25  1  0  0  0  0
 25 15  2  0  0  0  0
 25 20  1  0  0  0  0
 27 26  1  0  0  0  0
 28 29  1  0  0  0  0
 30 31  1  0  0  0  0
 31 29  1  0  0  0  0
 31 32  1  0  0  0  0
 33 34  1  0  0  0  0
 35 36  2  0  0  0  0
 35 33  1  0  0  0  0
 37 35  2  0  0  0  0
 38 35  1  0  0  0  0
 38 39  1  0  0  0  0
 40 41  1  0  0  0  0
 40 38  1  0  0  0  0
 41 42  1  0  0  0  0
 42 43  2  0  0  0  0
 44 43  1  0  0  0  0
 45 44  2  0  0  0  0
 46 45  1  0  0  0  0
 46 41  2  0  0  0  0
M  END
>  <minimizedAffinity>
-7.53211784

$$$$
