REMARK  Name = 
REMARK  3 active torsions:
REMARK  status: ('A' for Active; 'I' for Inactive)
REMARK    1  A    between atoms: C_2  and  CA_4
REMARK    2  A    between atoms: C_8  and  C_9
REMARK    3  A    between atoms: C_15  and  C_16
REMARK                            x       y       z     vdW  Elec       q    Type
REMARK                         _______ _______ _______ _____ _____    ______ ____
ROOT
ATOM      1  CA  UNL     1       3.024  -0.466  -1.145  0.00  0.00    +0.088 A 
ATOM      2  C   UNL     1       2.570  -0.008  -2.391  0.00  0.00    +0.030 A 
ATOM      3  C   UNL     1       3.235  -0.361  -3.571  0.00  0.00    +0.014 A 
ATOM      4  C   UNL     1       4.365  -1.184  -3.463  0.00  0.00    +0.023 A 
ATOM      5  C   UNL     1       5.316  -1.776  -4.368  0.00  0.00    -0.010 A 
ATOM      6  C   UNL     1       6.221  -2.498  -3.586  0.00  0.00    +0.052 A 
ATOM      7  N   UNL     1       5.828  -2.359  -2.274  0.00  0.00    -0.339 N 
ATOM      8  C   UNL     1       4.721  -1.574  -2.182  0.00  0.00    +0.140 A 
ATOM      9  N   UNL     1       4.125  -1.269  -1.020  0.00  0.00    -0.228 NA
ATOM     10  H   UNL     1       6.285  -2.753  -1.466  0.00  0.00    +0.167 HD
ENDROOT
BRANCH   5  11
ATOM     11  C   UNL     1       5.333  -1.662  -5.875  0.00  0.00    +0.022 C 
ATOM     12  C   UNL     1       4.068  -2.251  -6.523  0.00  0.00    +0.008 C 
ATOM     13  C   UNL     1       4.118  -2.146  -8.046  0.00  0.00    +0.001 C 
ATOM     14  C   UNL     1       4.362  -0.711  -8.503  0.00  0.00    +0.000 C 
ATOM     15  C   UNL     1       5.620  -0.125  -7.870  0.00  0.00    +0.001 C 
ATOM     16  C   UNL     1       5.581  -0.219  -6.346  0.00  0.00    +0.008 C 
ENDBRANCH   5  11
BRANCH   6  17
ATOM     17  C   UNL     1       7.400  -3.282  -3.941  0.00  0.00    -0.001 A 
ATOM     18  C   UNL     1       7.472  -4.641  -3.612  0.00  0.00    +0.010 A 
ATOM     19  C   UNL     1       8.603  -5.389  -3.944  0.00  0.00    +0.001 A 
ATOM     20  C   UNL     1       9.671  -4.784  -4.605  0.00  0.00    +0.000 A 
ATOM     21  C   UNL     1       9.609  -3.431  -4.933  0.00  0.00    +0.001 A 
ATOM     22  C   UNL     1       8.478  -2.682  -4.601  0.00  0.00    +0.010 A 
ENDBRANCH   6  17
BRANCH   1  24
ATOM     23  O   UNL     1       1.218   0.716  -0.062  0.00  0.00    -0.543 OA
ATOM     24  C   UNL     1       2.236  -0.036   0.118  0.00  0.00    +0.090 C 
ATOM     25  OXT UNL     1       2.638  -0.450   1.254  0.00  0.00    -0.543 OA
ENDBRANCH   1  24
TORSDOF 3
