
 OpenBabel09122218543D

 25 28  0  0  0  0  0  0  0  0999 V2000
    6.2980   -6.1390    0.1780 C   0  0  0  0  0  0  0  0  0  0  0  0
    6.3200   -5.6490    1.4930 C   0  0  0  0  0  3  0  0  0  0  0  0
    7.2720   -4.7030    1.8900 C   0  0  0  0  0  3  0  0  0  0  0  0
    8.1970   -4.2650    0.9320 C   0  0  0  0  0  0  0  0  0  0  0  0
    9.3020   -3.3420    0.8930 C   0  0  0  0  0  0  0  0  0  0  0  0
    9.8170   -3.3850   -0.4050 C   0  0  0  0  0  0  0  0  0  0  0  0
    9.0530   -4.2810   -1.1180 N   0  0  0  0  0  0  0  0  0  0  0  0
    8.0810   -4.8190   -0.3330 C   0  0  0  0  0  0  0  0  0  0  0  0
    7.1930   -5.7240   -0.7700 N   0  0  0  0  0  0  0  0  0  0  0  0
    9.1790   -4.5420   -2.0840 H   0  0  0  0  0  0  0  0  0  0  0  0
    9.8060   -2.4750    2.0230 C   0  0  0  0  0  3  0  0  0  0  0  0
    9.0740   -1.1240    2.0990 C   0  0  0  0  0  2  0  0  0  0  0  0
    9.6150   -0.2560    3.2330 C   0  0  0  0  0  2  0  0  0  0  0  0
    9.5730   -0.9880    4.5710 C   0  0  0  0  0  2  0  0  0  0  0  0
   10.3050   -2.3240    4.5040 C   0  0  0  0  0  2  0  0  0  0  0  0
    9.7700   -3.2050    3.3770 C   0  0  0  0  0  2  0  0  0  0  0  0
   10.9390   -2.6890   -1.0270 C   0  0  0  0  0  0  0  0  0  0  0  0
   10.8360   -1.3320   -1.3570 C   0  0  0  0  0  3  0  0  0  0  0  0
   11.9060   -0.6680   -1.9590 C   0  0  0  0  0  3  0  0  0  0  0  0
   13.0860   -1.3560   -2.2390 C   0  0  0  0  0  3  0  0  0  0  0  0
   13.1960   -2.7080   -1.9180 C   0  0  0  0  0  3  0  0  0  0  0  0
   12.1260   -3.3720   -1.3150 C   0  0  0  0  0  3  0  0  0  0  0  0
    5.4270   -7.8990   -1.2270 O   0  0  0  0  0  0  0  0  0  0  0  0
    5.2140   -7.1830   -0.1890 C   0  0  0  0  0  0  0  0  0  0  0  0
    4.1810   -7.2730    0.5520 O   0  0  0  0  0  1  0  0  0  0  0  0
  1  2  1  0  0  0  0
  2  3  2  0  0  0  0
  4  3  1  0  0  0  0
  5  4  1  0  0  0  0
  5 11  1  0  0  0  0
  6  5  2  0  0  0  0
  7  6  1  0  0  0  0
  7  8  1  0  0  0  0
  8  4  2  0  0  0  0
  9  8  1  0  0  0  0
  9  1  2  0  0  0  0
 10  7  1  0  0  0  0
 11 12  1  0  0  0  0
 11 16  1  0  0  0  0
 12 13  1  0  0  0  0
 13 14  1  0  0  0  0
 15 14  1  0  0  0  0
 16 15  1  0  0  0  0
 17  6  1  0  0  0  0
 18 17  2  0  0  0  0
 19 18  1  0  0  0  0
 20 19  2  0  0  0  0
 20 21  1  0  0  0  0
 21 22  2  0  0  0  0
 22 17  1  0  0  0  0
 23 24  2  0  0  0  0
 24  1  1  0  0  0  0
 24 25  1  0  0  0  0
M  END
>  <minimizedAffinity>
-8.53821564

$$$$

 OpenBabel09122218543D

 25 28  0  0  0  0  0  0  0  0999 V2000
    6.7710   -5.6960    1.6030 C   0  0  0  0  0  0  0  0  0  0  0  0
    7.6430   -5.8420    0.5130 C   0  0  0  0  0  3  0  0  0  0  0  0
    8.6290   -4.8840    0.2500 C   0  0  0  0  0  3  0  0  0  0  0  0
    8.7130   -3.7800    1.1100 C   0  0  0  0  0  0  0  0  0  0  0  0
    9.5370   -2.6030    1.2210 C   0  0  0  0  0  0  0  0  0  0  0  0
    9.0740   -1.8910    2.3310 C   0  0  0  0  0  0  0  0  0  0  0  0
    8.0310   -2.6090    2.8700 N   0  0  0  0  0  0  0  0  0  0  0  0
    7.8000   -3.7400    2.1510 C   0  0  0  0  0  0  0  0  0  0  0  0
    6.8380   -4.6250    2.4520 N   0  0  0  0  0  0  0  0  0  0  0  0
    7.4790   -2.3530    3.6740 H   0  0  0  0  0  0  0  0  0  0  0  0
   10.6920   -2.2120    0.3280 C   0  0  0  0  0  3  0  0  0  0  0  0
   11.6490   -3.3850    0.0570 C   0  0  0  0  0  2  0  0  0  0  0  0
   12.8200   -2.9610   -0.8270 C   0  0  0  0  0  2  0  0  0  0  0  0
   12.3400   -2.3200   -2.1260 C   0  0  0  0  0  2  0  0  0  0  0  0
   11.3980   -1.1500   -1.8620 C   0  0  0  0  0  2  0  0  0  0  0  0
   10.2190   -1.5630   -0.9830 C   0  0  0  0  0  2  0  0  0  0  0  0
    9.5010   -0.6240    2.9170 C   0  0  0  0  0  0  0  0  0  0  0  0
    9.9550   -0.5740    4.2400 C   0  0  0  0  0  3  0  0  0  0  0  0
   10.3550    0.6390    4.8040 C   0  0  0  0  0  3  0  0  0  0  0  0
   10.3020    1.8110    4.0500 C   0  0  0  0  0  3  0  0  0  0  0  0
    9.8480    1.7700    2.7330 C   0  0  0  0  0  3  0  0  0  0  0  0
    9.4480    0.5570    2.1680 C   0  0  0  0  0  3  0  0  0  0  0  0
    5.5110   -7.1710    3.0400 O   0  0  0  0  0  1  0  0  0  0  0  0
    5.7060   -6.7970    1.8330 C   0  0  0  0  0  0  0  0  0  0  0  0
    5.0880   -7.2650    0.8220 O   0  0  0  0  0  0  0  0  0  0  0  0
  1 24  1  0  0  0  0
  1  9  1  0  0  0  0
  2  1  2  0  0  0  0
  3  2  1  0  0  0  0
  3  4  2  0  0  0  0
  4  5  1  0  0  0  0
  4  8  1  0  0  0  0
  5  6  2  0  0  0  0
  6  7  1  0  0  0  0
  6 17  1  0  0  0  0
  7 10  1  0  0  0  0
  8  9  2  0  0  0  0
  8  7  1  0  0  0  0
 11  5  1  0  0  0  0
 12 11  1  0  0  0  0
 13 12  1  0  0  0  0
 14 15  1  0  0  0  0
 14 13  1  0  0  0  0
 15 16  1  0  0  0  0
 16 11  1  0  0  0  0
 17 18  1  0  0  0  0
 18 19  2  0  0  0  0
 20 19  1  0  0  0  0
 21 20  2  0  0  0  0
 22 21  1  0  0  0  0
 22 17  2  0  0  0  0
 24 23  1  0  0  0  0
 25 24  2  0  0  0  0
M  END
>  <minimizedAffinity>
-7.73880625

$$$$

 OpenBabel09122218543D

 25 28  0  0  0  0  0  0  0  0999 V2000
    9.5590   -3.8740    0.0860 C   0  0  0  0  0  0  0  0  0  0  0  0
    9.1870   -3.0850    1.1850 C   0  0  0  0  0  3  0  0  0  0  0  0
    8.0820   -3.4300    1.9730 C   0  0  0  0  0  3  0  0  0  0  0  0
    7.3660   -4.5840    1.6260 C   0  0  0  0  0  0  0  0  0  0  0  0
    6.2170   -5.2910    2.1300 C   0  0  0  0  0  0  0  0  0  0  0  0
    6.0230   -6.3930    1.2930 C   0  0  0  0  0  0  0  0  0  0  0  0
    7.0150   -6.3600    0.3380 N   0  0  0  0  0  0  0  0  0  0  0  0
    7.8250   -5.2830    0.5210 C   0  0  0  0  0  0  0  0  0  0  0  0
    8.8720   -5.0030   -0.2690 N   0  0  0  0  0  0  0  0  0  0  0  0
    7.1410   -7.0140   -0.4180 H   0  0  0  0  0  0  0  0  0  0  0  0
    5.3840   -4.9320    3.3390 C   0  0  0  0  0  3  0  0  0  0  0  0
    5.9900   -3.7710    4.1460 C   0  0  0  0  0  2  0  0  0  0  0  0
    5.1440   -3.4420    5.3750 C   0  0  0  0  0  2  0  0  0  0  0  0
    3.6920   -3.1630    5.0000 C   0  0  0  0  0  2  0  0  0  0  0  0
    3.0840   -4.3160    4.2070 C   0  0  0  0  0  2  0  0  0  0  0  0
    3.9170   -4.6520    2.9720 C   0  0  0  0  0  2  0  0  0  0  0  0
    5.0140   -7.4480    1.2960 C   0  0  0  0  0  0  0  0  0  0  0  0
    4.0200   -7.4790    0.3110 C   0  0  0  0  0  3  0  0  0  0  0  0
    3.0500   -8.4830    0.3180 C   0  0  0  0  0  3  0  0  0  0  0  0
    3.0650   -9.4610    1.3110 C   0  0  0  0  0  3  0  0  0  0  0  0
    4.0490   -9.4350    2.2980 C   0  0  0  0  0  3  0  0  0  0  0  0
    5.0200   -8.4310    2.2910 C   0  0  0  0  0  3  0  0  0  0  0  0
   10.6910   -2.3410   -1.3990 O   0  0  0  0  0  0  0  0  0  0  0  0
   10.7940   -3.4320   -0.7390 C   0  0  0  0  0  0  0  0  0  0  0  0
   11.8340   -4.1680   -0.7160 O   0  0  0  0  0  1  0  0  0  0  0  0
  1  2  1  0  0  0  0
  2  3  2  0  0  0  0
  4  3  1  0  0  0  0
  4  5  1  0  0  0  0
  5 11  1  0  0  0  0
  6 17  1  0  0  0  0
  6  5  2  0  0  0  0
  7  8  1  0  0  0  0
  7  6  1  0  0  0  0
  8  4  2  0  0  0  0
  9  1  2  0  0  0  0
  9  8  1  0  0  0  0
 10  7  1  0  0  0  0
 11 12  1  0  0  0  0
 12 13  1  0  0  0  0
 14 13  1  0  0  0  0
 15 14  1  0  0  0  0
 16 11  1  0  0  0  0
 16 15  1  0  0  0  0
 17 22  1  0  0  0  0
 18 19  1  0  0  0  0
 18 17  2  0  0  0  0
 19 20  2  0  0  0  0
 20 21  1  0  0  0  0
 22 21  2  0  0  0  0
 23 24  2  0  0  0  0
 24 25  1  0  0  0  0
 24  1  1  0  0  0  0
M  END
>  <minimizedAffinity>
-7.24408102

$$$$

 OpenBabel09122218543D

 25 28  0  0  0  0  0  0  0  0999 V2000
    6.9870   -5.6510    1.3860 C   0  0  0  0  0  0  0  0  0  0  0  0
    6.8790   -4.6510    2.3640 C   0  0  0  0  0  3  0  0  0  0  0  0
    7.6890   -3.5110    2.3170 C   0  0  0  0  0  3  0  0  0  0  0  0
    8.6080   -3.4050    1.2640 C   0  0  0  0  0  0  0  0  0  0  0  0
    9.5960   -2.4500    0.8320 C   0  0  0  0  0  0  0  0  0  0  0  0
   10.1830   -2.9720   -0.3230 C   0  0  0  0  0  0  0  0  0  0  0  0
    9.5710   -4.1770   -0.5830 N   0  0  0  0  0  0  0  0  0  0  0  0
    8.6270   -4.4530    0.3580 C   0  0  0  0  0  0  0  0  0  0  0  0
    7.8790   -5.5650    0.3510 N   0  0  0  0  0  0  0  0  0  0  0  0
    9.7800   -4.8050   -1.3440 H   0  0  0  0  0  0  0  0  0  0  0  0
    9.9300   -1.1270    1.4820 C   0  0  0  0  0  3  0  0  0  0  0  0
    9.3890    0.0720    0.6860 C   0  0  0  0  0  2  0  0  0  0  0  0
    9.7590    1.3980    1.3490 C   0  0  0  0  0  2  0  0  0  0  0  0
    9.3050    1.4440    2.8050 C   0  0  0  0  0  2  0  0  0  0  0  0
    9.8470    0.2620    3.6010 C   0  0  0  0  0  2  0  0  0  0  0  0
    9.4790   -1.0710    2.9520 C   0  0  0  0  0  2  0  0  0  0  0  0
   11.2480   -2.4660   -1.1840 C   0  0  0  0  0  0  0  0  0  0  0  0
   11.0380   -1.3320   -1.9770 C   0  0  0  0  0  3  0  0  0  0  0  0
   12.0540   -0.8530   -2.8070 C   0  0  0  0  0  3  0  0  0  0  0  0
   13.2850   -1.5050   -2.8510 C   0  0  0  0  0  3  0  0  0  0  0  0
   13.5010   -2.6370   -2.0680 C   0  0  0  0  0  3  0  0  0  0  0  0
   12.4850   -3.1170   -1.2380 C   0  0  0  0  0  3  0  0  0  0  0  0
    5.3580   -7.1810    0.4730 O   0  0  0  0  0  0  0  0  0  0  0  0
    6.0560   -6.8840    1.5010 C   0  0  0  0  0  0  0  0  0  0  0  0
    6.0370   -7.5290    2.6000 O   0  0  0  0  0  1  0  0  0  0  0  0
  1 24  1  0  0  0  0
  1  2  1  0  0  0  0
  3  2  2  0  0  0  0
  4  3  1  0  0  0  0
  5  4  1  0  0  0  0
  5 11  1  0  0  0  0
  6  5  2  0  0  0  0
  7  6  1  0  0  0  0
  7  8  1  0  0  0  0
  8  4  2  0  0  0  0
  9  8  1  0  0  0  0
  9  1  2  0  0  0  0
 10  7  1  0  0  0  0
 11 16  1  0  0  0  0
 12 13  1  0  0  0  0
 12 11  1  0  0  0  0
 13 14  1  0  0  0  0
 14 15  1  0  0  0  0
 16 15  1  0  0  0  0
 17  6  1  0  0  0  0
 18 17  2  0  0  0  0
 19 18  1  0  0  0  0
 20 19  2  0  0  0  0
 20 21  1  0  0  0  0
 21 22  2  0  0  0  0
 22 17  1  0  0  0  0
 23 24  2  0  0  0  0
 24 25  1  0  0  0  0
M  END
>  <minimizedAffinity>
-6.80076933

$$$$

 OpenBabel09122218543D

 25 28  0  0  0  0  0  0  0  0999 V2000
   10.4610   -2.8550   -0.5280 C   0  0  0  0  0  0  0  0  0  0  0  0
   10.3140   -2.2770    0.7420 C   0  0  0  0  0  3  0  0  0  0  0  0
    9.3410   -2.7420    1.6340 C   0  0  0  0  0  3  0  0  0  0  0  0
    8.5230   -3.8010    1.2150 C   0  0  0  0  0  0  0  0  0  0  0  0
    7.4410   -4.5700    1.7740 C   0  0  0  0  0  0  0  0  0  0  0  0
    7.0590   -5.4960    0.8000 C   0  0  0  0  0  0  0  0  0  0  0  0
    7.8790   -5.3040   -0.2890 N   0  0  0  0  0  0  0  0  0  0  0  0
    8.7580   -4.2920   -0.0590 C   0  0  0  0  0  0  0  0  0  0  0  0
    9.6720   -3.8890   -0.9540 N   0  0  0  0  0  0  0  0  0  0  0  0
    7.8460   -5.8100   -1.1610 H   0  0  0  0  0  0  0  0  0  0  0  0
    6.8390   -4.4260    3.1530 C   0  0  0  0  0  3  0  0  0  0  0  0
    7.5180   -3.3190    3.9780 C   0  0  0  0  0  2  0  0  0  0  0  0
    6.9080   -3.2080    5.3740 C   0  0  0  0  0  2  0  0  0  0  0  0
    5.3970   -3.0120    5.3140 C   0  0  0  0  0  2  0  0  0  0  0  0
    4.7180   -4.1110    4.5040 C   0  0  0  0  0  2  0  0  0  0  0  0
    5.3140   -4.2300    3.1030 C   0  0  0  0  0  2  0  0  0  0  0  0
    6.0160   -6.5170    0.7880 C   0  0  0  0  0  0  0  0  0  0  0  0
    6.0490   -7.5730    1.7060 C   0  0  0  0  0  3  0  0  0  0  0  0
    5.0550   -8.5540    1.6890 C   0  0  0  0  0  3  0  0  0  0  0  0
    4.0240   -8.4870    0.7540 C   0  0  0  0  0  3  0  0  0  0  0  0
    3.9850   -7.4410   -0.1650 C   0  0  0  0  0  3  0  0  0  0  0  0
    4.9790   -6.4590   -0.1490 C   0  0  0  0  0  3  0  0  0  0  0  0
   11.1720   -1.6090   -2.4700 O   0  0  0  0  0  0  0  0  0  0  0  0
   11.5620   -2.2900   -1.4610 C   0  0  0  0  0  0  0  0  0  0  0  0
   12.7800   -2.5280   -1.1750 O   0  0  0  0  0  1  0  0  0  0  0  0
  1  2  1  0  0  0  0
  2  3  2  0  0  0  0
  4  3  1  0  0  0  0
  4  5  1  0  0  0  0
  5 11  1  0  0  0  0
  6  5  2  0  0  0  0
  7  8  1  0  0  0  0
  7  6  1  0  0  0  0
  8  4  2  0  0  0  0
  9  1  2  0  0  0  0
  9  8  1  0  0  0  0
 10  7  1  0  0  0  0
 11 12  1  0  0  0  0
 12 13  1  0  0  0  0
 14 13  1  0  0  0  0
 15 14  1  0  0  0  0
 16 11  1  0  0  0  0
 16 15  1  0  0  0  0
 17  6  1  0  0  0  0
 17 18  1  0  0  0  0
 19 18  2  0  0  0  0
 20 19  1  0  0  0  0
 21 22  1  0  0  0  0
 21 20  2  0  0  0  0
 22 17  2  0  0  0  0
 23 24  2  0  0  0  0
 24 25  1  0  0  0  0
 24  1  1  0  0  0  0
M  END
>  <minimizedAffinity>
-6.48595572

$$$$

 OpenBabel09122218543D

 25 28  0  0  0  0  0  0  0  0999 V2000
    7.7120   -5.8130    1.1210 C   0  0  0  0  0  0  0  0  0  0  0  0
    7.2870   -4.9270    2.1220 C   0  0  0  0  0  3  0  0  0  0  0  0
    7.7230   -3.5970    2.1360 C   0  0  0  0  0  3  0  0  0  0  0  0
    8.5960   -3.1850    1.1190 C   0  0  0  0  0  0  0  0  0  0  0  0
    9.2680   -1.9660    0.7500 C   0  0  0  0  0  0  0  0  0  0  0  0
   10.0130   -2.2480   -0.3970 C   0  0  0  0  0  0  0  0  0  0  0  0
    9.7930   -3.5700   -0.7120 N   0  0  0  0  0  0  0  0  0  0  0  0
    8.9490   -4.1460    0.1860 C   0  0  0  0  0  0  0  0  0  0  0  0
    8.5650   -5.4300    0.1220 N   0  0  0  0  0  0  0  0  0  0  0  0
   10.1990   -4.0790   -1.4830 H   0  0  0  0  0  0  0  0  0  0  0  0
    9.1780   -0.6290    1.4480 C   0  0  0  0  0  3  0  0  0  0  0  0
    9.7470   -0.6720    2.8770 C   0  0  0  0  0  2  0  0  0  0  0  0
    9.6240    0.6830    3.5700 C   0  0  0  0  0  2  0  0  0  0  0  0
   10.2670    1.7960    2.7480 C   0  0  0  0  0  2  0  0  0  0  0  0
    9.7010    1.8490    1.3330 C   0  0  0  0  0  2  0  0  0  0  0  0
    9.8220    0.5010    0.6260 C   0  0  0  0  0  2  0  0  0  0  0  0
   10.9020   -1.4190   -1.2050 C   0  0  0  0  0  0  0  0  0  0  0  0
   12.2850   -1.6370   -1.1880 C   0  0  0  0  0  3  0  0  0  0  0  0
   13.1360   -0.8390   -1.9540 C   0  0  0  0  0  3  0  0  0  0  0  0
   12.6110    0.1850   -2.7410 C   0  0  0  0  0  3  0  0  0  0  0  0
   11.2370    0.4120   -2.7620 C   0  0  0  0  0  3  0  0  0  0  0  0
   10.3850   -0.3870   -1.9950 C   0  0  0  0  0  3  0  0  0  0  0  0
    7.8190   -8.0900    1.9180 O   0  0  0  0  0  1  0  0  0  0  0  0
    7.1860   -7.2700    1.1690 C   0  0  0  0  0  0  0  0  0  0  0  0
    6.1640   -7.5690    0.4700 O   0  0  0  0  0  0  0  0  0  0  0  0
  1 24  1  0  0  0  0
  1  2  1  0  0  0  0
  2  3  2  0  0  0  0
  4  3  1  0  0  0  0
  5  4  1  0  0  0  0
  5 11  1  0  0  0  0
  6  5  2  0  0  0  0
  7  6  1  0  0  0  0
  7  8  1  0  0  0  0
  8  4  2  0  0  0  0
  9  8  1  0  0  0  0
  9  1  2  0  0  0  0
 10  7  1  0  0  0  0
 11 12  1  0  0  0  0
 12 13  1  0  0  0  0
 14 13  1  0  0  0  0
 15 14  1  0  0  0  0
 16 15  1  0  0  0  0
 16 11  1  0  0  0  0
 17 18  1  0  0  0  0
 17  6  1  0  0  0  0
 19 18  2  0  0  0  0
 20 19  1  0  0  0  0
 21 20  2  0  0  0  0
 21 22  1  0  0  0  0
 22 17  2  0  0  0  0
 24 23  1  0  0  0  0
 25 24  2  0  0  0  0
M  END
>  <minimizedAffinity>
-6.2770834

$$$$

 OpenBabel09122218543D

 25 28  0  0  0  0  0  0  0  0999 V2000
    5.4710   -6.7000    0.4580 C   0  0  0  0  0  0  0  0  0  0  0  0
    6.1890   -6.5850   -0.7420 C   0  0  0  0  0  3  0  0  0  0  0  0
    7.2770   -5.7100   -0.8470 C   0  0  0  0  0  3  0  0  0  0  0  0
    7.6200   -4.9560    0.2840 C   0  0  0  0  0  0  0  0  0  0  0  0
    8.6200   -3.9770    0.6220 C   0  0  0  0  0  0  0  0  0  0  0  0
    8.3940   -3.6110    1.9520 C   0  0  0  0  0  0  0  0  0  0  0  0
    7.3160   -4.3430    2.3980 N   0  0  0  0  0  0  0  0  0  0  0  0
    6.8400   -5.1500    1.4130 C   0  0  0  0  0  0  0  0  0  0  0  0
    5.7910   -5.9710    1.5720 N   0  0  0  0  0  0  0  0  0  0  0  0
    6.8990   -4.2970    3.3150 H   0  0  0  0  0  0  0  0  0  0  0  0
    9.7200   -3.4510   -0.2710 C   0  0  0  0  0  3  0  0  0  0  0  0
    9.6730   -1.9210   -0.4230 C   0  0  0  0  0  2  0  0  0  0  0  0
   10.7780   -1.4160   -1.3490 C   0  0  0  0  0  2  0  0  0  0  0  0
   12.1550   -1.8880   -0.8910 C   0  0  0  0  0  2  0  0  0  0  0  0
   12.2090   -3.4060   -0.7470 C   0  0  0  0  0  2  0  0  0  0  0  0
   11.1120   -3.9250    0.1800 C   0  0  0  0  0  2  0  0  0  0  0  0
    9.0690   -2.6540    2.8230 C   0  0  0  0  0  0  0  0  0  0  0  0
    9.7630   -3.0960    3.9560 C   0  0  0  0  0  3  0  0  0  0  0  0
   10.4020   -2.1810    4.7950 C   0  0  0  0  0  3  0  0  0  0  0  0
   10.3500   -0.8180    4.5090 C   0  0  0  0  0  3  0  0  0  0  0  0
    9.6580   -0.3690    3.3850 C   0  0  0  0  0  3  0  0  0  0  0  0
    9.0180   -1.2840    2.5460 C   0  0  0  0  0  3  0  0  0  0  0  0
    4.3830   -8.6860    1.2970 O   0  0  0  0  0  1  0  0  0  0  0  0
    4.2810   -7.6910    0.5010 C   0  0  0  0  0  0  0  0  0  0  0  0
    3.2760   -7.4640   -0.2490 O   0  0  0  0  0  0  0  0  0  0  0  0
  1 24  1  0  0  0  0
  1  9  1  0  0  0  0
  2  1  2  0  0  0  0
  3  2  1  0  0  0  0
  3  4  2  0  0  0  0
  4  5  1  0  0  0  0
  4  8  1  0  0  0  0
  5  6  2  0  0  0  0
  6  7  1  0  0  0  0
  6 17  1  0  0  0  0
  7 10  1  0  0  0  0
  8  9  2  0  0  0  0
  8  7  1  0  0  0  0
 11 16  1  0  0  0  0
 11  5  1  0  0  0  0
 12 11  1  0  0  0  0
 13 14  1  0  0  0  0
 13 12  1  0  0  0  0
 14 15  1  0  0  0  0
 15 16  1  0  0  0  0
 17 18  1  0  0  0  0
 18 19  2  0  0  0  0
 20 19  1  0  0  0  0
 21 20  2  0  0  0  0
 22 17  2  0  0  0  0
 22 21  1  0  0  0  0
 24 23  1  0  0  0  0
 25 24  2  0  0  0  0
M  END
>  <minimizedAffinity>
-6.22372389

$$$$

 OpenBabel09122218543D

 25 28  0  0  0  0  0  0  0  0999 V2000
    7.3050   -5.3310    1.6500 C   0  0  0  0  0  0  0  0  0  0  0  0
    7.9830   -5.6440    0.4620 C   0  0  0  0  0  3  0  0  0  0  0  0
    8.7980   -4.6970   -0.1690 C   0  0  0  0  0  3  0  0  0  0  0  0
    8.9110   -3.4320    0.4260 C   0  0  0  0  0  0  0  0  0  0  0  0
    9.6090   -2.2040    0.1430 C   0  0  0  0  0  0  0  0  0  0  0  0
    9.2740   -1.3080    1.1610 C   0  0  0  0  0  0  0  0  0  0  0  0
    8.4260   -1.9660    2.0220 N   0  0  0  0  0  0  0  0  0  0  0  0
    8.1960   -3.2370    1.5960 C   0  0  0  0  0  0  0  0  0  0  0  0
    7.4030   -4.1030    2.2450 N   0  0  0  0  0  0  0  0  0  0  0  0
    7.9980   -1.5840    2.8520 H   0  0  0  0  0  0  0  0  0  0  0  0
   10.5400   -1.9310   -1.0150 C   0  0  0  0  0  3  0  0  0  0  0  0
   10.1750   -0.6420   -1.7710 C   0  0  0  0  0  2  0  0  0  0  0  0
   11.1150   -0.3980   -2.9500 C   0  0  0  0  0  2  0  0  0  0  0  0
   12.5760   -0.3930   -2.5130 C   0  0  0  0  0  2  0  0  0  0  0  0
   12.9460   -1.6740   -1.7710 C   0  0  0  0  0  2  0  0  0  0  0  0
   12.0170   -1.9260   -0.5850 C   0  0  0  0  0  2  0  0  0  0  0  0
    9.6570    0.0820    1.3940 C   0  0  0  0  0  0  0  0  0  0  0  0
   10.0060    0.9100    0.3210 C   0  0  0  0  0  3  0  0  0  0  0  0
   10.3800    2.2360    0.5450 C   0  0  0  0  0  3  0  0  0  0  0  0
   10.4100    2.7430    1.8430 C   0  0  0  0  0  3  0  0  0  0  0  0
   10.0680    1.9250    2.9180 C   0  0  0  0  0  3  0  0  0  0  0  0
    9.6930    0.5980    2.6940 C   0  0  0  0  0  3  0  0  0  0  0  0
    6.6940   -7.6430    1.9910 O   0  0  0  0  0  0  0  0  0  0  0  0
    6.4220   -6.4310    2.2940 C   0  0  0  0  0  0  0  0  0  0  0  0
    5.4860   -6.0740    3.0810 O   0  0  0  0  0  1  0  0  0  0  0  0
  1  9  1  0  0  0  0
  1 24  1  0  0  0  0
  2  1  2  0  0  0  0
  3  4  2  0  0  0  0
  3  2  1  0  0  0  0
  4  8  1  0  0  0  0
  5  4  1  0  0  0  0
  5  6  2  0  0  0  0
  6 17  1  0  0  0  0
  6  7  1  0  0  0  0
  7 10  1  0  0  0  0
  8  7  1  0  0  0  0
  8  9  2  0  0  0  0
 11 16  1  0  0  0  0
 11  5  1  0  0  0  0
 12 11  1  0  0  0  0
 13 14  1  0  0  0  0
 13 12  1  0  0  0  0
 14 15  1  0  0  0  0
 15 16  1  0  0  0  0
 17 22  1  0  0  0  0
 18 19  1  0  0  0  0
 18 17  2  0  0  0  0
 19 20  2  0  0  0  0
 20 21  1  0  0  0  0
 22 21  2  0  0  0  0
 23 24  2  0  0  0  0
 24 25  1  0  0  0  0
M  END
>  <minimizedAffinity>
-5.85952425

$$$$
