
 OpenBabel09122222393D

 25 28  0  0  0  0  0  0  0  0999 V2000
    7.7120   -5.8130    1.1210 C   0  0  0  0  0  0  0  0  0  0  0  0
    7.2870   -4.9270    2.1220 C   0  0  0  0  0  3  0  0  0  0  0  0
    7.7230   -3.5970    2.1360 C   0  0  0  0  0  3  0  0  0  0  0  0
    8.5960   -3.1850    1.1190 C   0  0  0  0  0  0  0  0  0  0  0  0
    9.2680   -1.9660    0.7500 C   0  0  0  0  0  0  0  0  0  0  0  0
   10.0130   -2.2480   -0.3970 C   0  0  0  0  0  0  0  0  0  0  0  0
    9.7930   -3.5700   -0.7120 N   0  0  0  0  0  0  0  0  0  0  0  0
    8.9490   -4.1460    0.1860 C   0  0  0  0  0  0  0  0  0  0  0  0
    8.5650   -5.4300    0.1220 N   0  0  0  0  0  0  0  0  0  0  0  0
   10.1990   -4.0790   -1.4830 H   0  0  0  0  0  0  0  0  0  0  0  0
    9.1780   -0.6290    1.4480 C   0  0  0  0  0  3  0  0  0  0  0  0
    9.7470   -0.6720    2.8770 C   0  0  0  0  0  2  0  0  0  0  0  0
    9.6240    0.6830    3.5700 C   0  0  0  0  0  2  0  0  0  0  0  0
   10.2670    1.7960    2.7480 C   0  0  0  0  0  2  0  0  0  0  0  0
    9.7010    1.8490    1.3330 C   0  0  0  0  0  2  0  0  0  0  0  0
    9.8220    0.5010    0.6260 C   0  0  0  0  0  2  0  0  0  0  0  0
   10.9020   -1.4190   -1.2050 C   0  0  0  0  0  0  0  0  0  0  0  0
   12.2850   -1.6370   -1.1880 C   0  0  0  0  0  3  0  0  0  0  0  0
   13.1360   -0.8390   -1.9540 C   0  0  0  0  0  3  0  0  0  0  0  0
   12.6110    0.1850   -2.7410 C   0  0  0  0  0  3  0  0  0  0  0  0
   11.2370    0.4120   -2.7620 C   0  0  0  0  0  3  0  0  0  0  0  0
   10.3850   -0.3870   -1.9950 C   0  0  0  0  0  3  0  0  0  0  0  0
    7.8190   -8.0900    1.9180 O   0  0  0  0  0  1  0  0  0  0  0  0
    7.1860   -7.2700    1.1690 C   0  0  0  0  0  0  0  0  0  0  0  0
    6.1640   -7.5690    0.4700 O   0  0  0  0  0  0  0  0  0  0  0  0
  1 24  1  0  0  0  0
  1  2  1  0  0  0  0
  2  3  2  0  0  0  0
  4  3  1  0  0  0  0
  5  4  1  0  0  0  0
  5 11  1  0  0  0  0
  6  5  2  0  0  0  0
  7  6  1  0  0  0  0
  7  8  1  0  0  0  0
  8  4  2  0  0  0  0
  9  8  1  0  0  0  0
  9  1  2  0  0  0  0
 10  7  1  0  0  0  0
 11 12  1  0  0  0  0
 12 13  1  0  0  0  0
 14 13  1  0  0  0  0
 15 14  1  0  0  0  0
 16 15  1  0  0  0  0
 16 11  1  0  0  0  0
 17 18  1  0  0  0  0
 17  6  1  0  0  0  0
 19 18  2  0  0  0  0
 20 19  1  0  0  0  0
 21 20  2  0  0  0  0
 21 22  1  0  0  0  0
 22 17  2  0  0  0  0
 24 23  1  0  0  0  0
 25 24  2  0  0  0  0
M  END
>  <minimizedAffinity>
-6.2770834

$$$$
