
 OpenBabel09122222393D

 25 28  0  0  0  0  0  0  0  0999 V2000
    6.9870   -5.6510    1.3860 C   0  0  0  0  0  0  0  0  0  0  0  0
    6.8790   -4.6510    2.3640 C   0  0  0  0  0  3  0  0  0  0  0  0
    7.6890   -3.5110    2.3170 C   0  0  0  0  0  3  0  0  0  0  0  0
    8.6080   -3.4050    1.2640 C   0  0  0  0  0  0  0  0  0  0  0  0
    9.5960   -2.4500    0.8320 C   0  0  0  0  0  0  0  0  0  0  0  0
   10.1830   -2.9720   -0.3230 C   0  0  0  0  0  0  0  0  0  0  0  0
    9.5710   -4.1770   -0.5830 N   0  0  0  0  0  0  0  0  0  0  0  0
    8.6270   -4.4530    0.3580 C   0  0  0  0  0  0  0  0  0  0  0  0
    7.8790   -5.5650    0.3510 N   0  0  0  0  0  0  0  0  0  0  0  0
    9.7800   -4.8050   -1.3440 H   0  0  0  0  0  0  0  0  0  0  0  0
    9.9300   -1.1270    1.4820 C   0  0  0  0  0  3  0  0  0  0  0  0
    9.3890    0.0720    0.6860 C   0  0  0  0  0  2  0  0  0  0  0  0
    9.7590    1.3980    1.3490 C   0  0  0  0  0  2  0  0  0  0  0  0
    9.3050    1.4440    2.8050 C   0  0  0  0  0  2  0  0  0  0  0  0
    9.8470    0.2620    3.6010 C   0  0  0  0  0  2  0  0  0  0  0  0
    9.4790   -1.0710    2.9520 C   0  0  0  0  0  2  0  0  0  0  0  0
   11.2480   -2.4660   -1.1840 C   0  0  0  0  0  0  0  0  0  0  0  0
   11.0380   -1.3320   -1.9770 C   0  0  0  0  0  3  0  0  0  0  0  0
   12.0540   -0.8530   -2.8070 C   0  0  0  0  0  3  0  0  0  0  0  0
   13.2850   -1.5050   -2.8510 C   0  0  0  0  0  3  0  0  0  0  0  0
   13.5010   -2.6370   -2.0680 C   0  0  0  0  0  3  0  0  0  0  0  0
   12.4850   -3.1170   -1.2380 C   0  0  0  0  0  3  0  0  0  0  0  0
    5.3580   -7.1810    0.4730 O   0  0  0  0  0  0  0  0  0  0  0  0
    6.0560   -6.8840    1.5010 C   0  0  0  0  0  0  0  0  0  0  0  0
    6.0370   -7.5290    2.6000 O   0  0  0  0  0  1  0  0  0  0  0  0
  1 24  1  0  0  0  0
  1  2  1  0  0  0  0
  3  2  2  0  0  0  0
  4  3  1  0  0  0  0
  5  4  1  0  0  0  0
  5 11  1  0  0  0  0
  6  5  2  0  0  0  0
  7  6  1  0  0  0  0
  7  8  1  0  0  0  0
  8  4  2  0  0  0  0
  9  8  1  0  0  0  0
  9  1  2  0  0  0  0
 10  7  1  0  0  0  0
 11 16  1  0  0  0  0
 12 13  1  0  0  0  0
 12 11  1  0  0  0  0
 13 14  1  0  0  0  0
 14 15  1  0  0  0  0
 16 15  1  0  0  0  0
 17  6  1  0  0  0  0
 18 17  2  0  0  0  0
 19 18  1  0  0  0  0
 20 19  2  0  0  0  0
 20 21  1  0  0  0  0
 21 22  2  0  0  0  0
 22 17  1  0  0  0  0
 23 24  2  0  0  0  0
 24 25  1  0  0  0  0
M  END
>  <minimizedAffinity>
-6.80076933

$$$$
