
 OpenBabel09122222393D

 25 28  0  0  0  0  0  0  0  0999 V2000
    7.3050   -5.3310    1.6500 C   0  0  0  0  0  0  0  0  0  0  0  0
    7.9830   -5.6440    0.4620 C   0  0  0  0  0  3  0  0  0  0  0  0
    8.7980   -4.6970   -0.1690 C   0  0  0  0  0  3  0  0  0  0  0  0
    8.9110   -3.4320    0.4260 C   0  0  0  0  0  0  0  0  0  0  0  0
    9.6090   -2.2040    0.1430 C   0  0  0  0  0  0  0  0  0  0  0  0
    9.2740   -1.3080    1.1610 C   0  0  0  0  0  0  0  0  0  0  0  0
    8.4260   -1.9660    2.0220 N   0  0  0  0  0  0  0  0  0  0  0  0
    8.1960   -3.2370    1.5960 C   0  0  0  0  0  0  0  0  0  0  0  0
    7.4030   -4.1030    2.2450 N   0  0  0  0  0  0  0  0  0  0  0  0
    7.9980   -1.5840    2.8520 H   0  0  0  0  0  0  0  0  0  0  0  0
   10.5400   -1.9310   -1.0150 C   0  0  0  0  0  3  0  0  0  0  0  0
   10.1750   -0.6420   -1.7710 C   0  0  0  0  0  2  0  0  0  0  0  0
   11.1150   -0.3980   -2.9500 C   0  0  0  0  0  2  0  0  0  0  0  0
   12.5760   -0.3930   -2.5130 C   0  0  0  0  0  2  0  0  0  0  0  0
   12.9460   -1.6740   -1.7710 C   0  0  0  0  0  2  0  0  0  0  0  0
   12.0170   -1.9260   -0.5850 C   0  0  0  0  0  2  0  0  0  0  0  0
    9.6570    0.0820    1.3940 C   0  0  0  0  0  0  0  0  0  0  0  0
   10.0060    0.9100    0.3210 C   0  0  0  0  0  3  0  0  0  0  0  0
   10.3800    2.2360    0.5450 C   0  0  0  0  0  3  0  0  0  0  0  0
   10.4100    2.7430    1.8430 C   0  0  0  0  0  3  0  0  0  0  0  0
   10.0680    1.9250    2.9180 C   0  0  0  0  0  3  0  0  0  0  0  0
    9.6930    0.5980    2.6940 C   0  0  0  0  0  3  0  0  0  0  0  0
    6.6940   -7.6430    1.9910 O   0  0  0  0  0  0  0  0  0  0  0  0
    6.4220   -6.4310    2.2940 C   0  0  0  0  0  0  0  0  0  0  0  0
    5.4860   -6.0740    3.0810 O   0  0  0  0  0  1  0  0  0  0  0  0
  1  9  1  0  0  0  0
  1 24  1  0  0  0  0
  2  1  2  0  0  0  0
  3  4  2  0  0  0  0
  3  2  1  0  0  0  0
  4  8  1  0  0  0  0
  5  4  1  0  0  0  0
  5  6  2  0  0  0  0
  6 17  1  0  0  0  0
  6  7  1  0  0  0  0
  7 10  1  0  0  0  0
  8  7  1  0  0  0  0
  8  9  2  0  0  0  0
 11 16  1  0  0  0  0
 11  5  1  0  0  0  0
 12 11  1  0  0  0  0
 13 14  1  0  0  0  0
 13 12  1  0  0  0  0
 14 15  1  0  0  0  0
 15 16  1  0  0  0  0
 17 22  1  0  0  0  0
 18 19  1  0  0  0  0
 18 17  2  0  0  0  0
 19 20  2  0  0  0  0
 20 21  1  0  0  0  0
 22 21  2  0  0  0  0
 23 24  2  0  0  0  0
 24 25  1  0  0  0  0
M  END
>  <minimizedAffinity>
-5.85952425

$$$$
