REMARK  Name = 
REMARK  13 active torsions:
REMARK  status: ('A' for Active; 'I' for Inactive)
REMARK    1  A    between atoms: C_1  and  C_2
REMARK    2  A    between atoms: C_2  and  C_3
REMARK    3  A    between atoms: C_2  and  C_4
REMARK    4  A    between atoms: C_4  and  C_5
REMARK    5  A    between atoms: C_5  and  N_6
REMARK    6  A    between atoms: C_9  and  C_10
REMARK    7  A    between atoms: C_17  and  N_18
REMARK    8  A    between atoms: N_18  and  S_19
REMARK    9  A    between atoms: S_19  and  N_22
REMARK   10  A    between atoms: N_22  and  C_23
REMARK   11  A    between atoms: C_23  and  C_24
REMARK   12  A    between atoms: C_24  and  C_25
REMARK   13  A    between atoms: C_32  and  O_33
REMARK                            x       y       z     vdW  Elec       q    Type
REMARK                         _______ _______ _______ _____ _____    ______ ____
ROOT
ATOM      1  C   UNL     1       0.577  -1.118  -5.370  0.00  0.00    +0.308 C 
ATOM      2  N   UNL     1       0.209  -2.385  -5.387  0.00  0.00    -0.131 N 
ATOM      3  S   UNL     1      -0.961  -2.906  -4.356  0.00  0.00    +0.141 S 
ATOM      4  O   UNL     1      -2.247  -2.954  -5.008  0.00  0.00    -0.129 OA
ATOM      5  O   UNL     1      -0.457  -4.056  -3.637  0.00  0.00    -0.129 OA
ATOM      6  C   UNL     1      -0.978  -1.575  -3.172  0.00  0.00    +0.176 A 
ATOM      7  C   UNL     1      -2.514  -0.895  -2.531  0.00  0.00    +0.059 A 
ATOM      8  C   UNL     1      -2.486   0.700  -1.675  0.00  0.00    +0.051 A 
ATOM      9  C   UNL     1      -0.932   1.616  -1.462  0.00  0.00    +0.028 A 
ATOM     10  C   UNL     1       0.604   0.979  -2.214  0.00  0.00    +0.053 A 
ATOM     11  C   UNL     1       0.570  -0.597  -3.094  0.00  0.00    +0.148 A 
ATOM     12  N   UNL     1       1.426  -0.821  -4.243  0.00  0.00    -0.200 N 
ATOM     13  H   UNL     1       0.978  -3.033  -5.312  0.00  0.00    +0.339 HD
ATOM     14  H   UNL     1       2.089  -0.049  -4.347  0.00  0.00    +0.298 HD
ENDROOT
BRANCH   1  18
ATOM     15  N   UNL     1      -1.138   0.517  -3.279  0.00  0.00    -0.292 N 
ATOM     16  C   UNL     1      -1.558   0.093  -4.694  0.00  0.00    +0.271 A 
ATOM     17  O   UNL     1      -2.692  -0.112  -5.104  0.00  0.00    -0.267 OA
ATOM     18  C   UNL     1      -0.361   0.043  -5.617  0.00  0.00    +0.170 A 
ATOM     19  C   UNL     1       0.132   1.287  -5.773  0.00  0.00    +0.148 A 
ATOM     20  C   UNL     1      -0.497   2.389  -5.038  0.00  0.00    +0.060 A 
ATOM     21  C   UNL     1      -0.476   3.693  -5.543  0.00  0.00    +0.016 A 
ATOM     22  C   UNL     1      -1.117   4.703  -4.842  0.00  0.00    +0.021 A 
ATOM     23  C   UNL     1      -1.760   4.367  -3.669  0.00  0.00    +0.113 A 
ATOM     24  N   UNL     1      -1.785   3.115  -3.151  0.00  0.00    -0.237 NA
ATOM     25  C   UNL     1      -1.113   2.122  -3.783  0.00  0.00    +0.147 A 
BRANCH  19  26
ATOM     26  O   UNL     1       1.353   1.568  -6.349  0.00  0.00    -0.505 OA
ATOM     27  H   UNL     1       1.472   0.999  -7.132  0.00  0.00    +0.292 HD
ENDBRANCH  19  26
BRANCH  15  28
ATOM     28  C   UNL     1      -0.725  -0.437  -1.445  0.00  0.00    +0.127 C 
BRANCH  28  29
ATOM     29  C   UNL     1       0.416  -1.717  -0.975  0.00  0.00    +0.025 C 
BRANCH  29  31
ATOM     30  C   UNL     1       1.649  -0.487   0.922  0.00  0.00    +0.007 C 
ATOM     31  C   UNL     1       1.784  -1.294  -0.371  0.00  0.00    -0.016 C 
ATOM     32  C   UNL     1       2.614  -2.554  -0.090  0.00  0.00    +0.007 C 
ENDBRANCH  29  31
ENDBRANCH  28  29
ENDBRANCH  15  28
ENDBRANCH   1  18
BRANCH   8  33
ATOM     33  N   UNL     1      -3.682   0.999  -0.964  0.00  0.00    -0.207 N 
ATOM     34  H   UNL     1      -4.551   0.697  -1.397  0.00  0.00    +0.175 HD
BRANCH  33  35
ATOM     35  S   UNL     1      -3.867   2.298   0.043  0.00  0.00    +0.109 S 
ATOM     36  O   UNL     1      -5.184   2.181   0.625  0.00  0.00    -0.138 OA
ATOM     37  O   UNL     1      -2.695   2.466   0.865  0.00  0.00    -0.138 OA
BRANCH  35  38
ATOM     38  N   UNL     1      -3.923   3.549  -1.033  0.00  0.00    -0.177 NA
ATOM     39  H   UNL     1      -3.465   4.400  -0.702  0.00  0.00    +0.149 HD
BRANCH  38  40
ATOM     40  C   UNL     1      -5.104   3.755  -1.881  0.00  0.00    +0.116 C 
BRANCH  40  41
ATOM     41  C   UNL     1      -6.096   4.718  -1.242  0.00  0.00    +0.112 C 
BRANCH  41  42
ATOM     42  C   UNL     1      -5.573   6.135  -1.206  0.00  0.00    +0.212 C 
ATOM     43  N   UNL     1      -6.452   7.047  -0.700  0.00  0.00    -0.329 N 
ATOM     44  O   UNL     1      -4.453   6.472  -1.575  0.00  0.00    -0.276 OA
ATOM     45  H   UNL     1      -6.157   8.013  -0.638  0.00  0.00    +0.145 HD
ATOM     46  H   UNL     1      -7.369   6.800  -0.353  0.00  0.00    +0.145 HD
ENDBRANCH  41  42
ENDBRANCH  40  41
ENDBRANCH  38  40
ENDBRANCH  35  38
ENDBRANCH  33  35
ENDBRANCH   8  33
TORSDOF 11
