REMARK  Name = 
REMARK  8 active torsions:
REMARK  status: ('A' for Active; 'I' for Inactive)
REMARK    1  A    between atoms: C_2  and  C_4
REMARK    2  A    between atoms: C_7  and  C_8
REMARK    3  A    between atoms: C_15  and  C_16
REMARK    4  A    between atoms: C_16  and  O_17
REMARK    5  A    between atoms: O_17  and  C_18
REMARK    6  A    between atoms: C_21  and  C_22
REMARK    7  A    between atoms: C_26  and  C_27
REMARK    8  A    between atoms: N_33  and  C_34
REMARK                            x       y       z     vdW  Elec       q    Type
REMARK                         _______ _______ _______ _____ _____    ______ ____
ROOT
ATOM      1  C   UNL     1       4.557   3.828   2.005  0.00  0.00    +0.121 A 
ATOM      2  C   UNL     1       4.131   4.159   3.289  0.00  0.00    +0.046 A 
ATOM      3  C   UNL     1       4.727   3.544   4.394  0.00  0.00    +0.015 A 
ATOM      4  C   UNL     1       5.776   2.629   4.217  0.00  0.00    +0.018 A 
ATOM      5  C   UNL     1       6.165   2.282   2.916  0.00  0.00    +0.015 A 
ATOM      6  C   UNL     1       5.564   2.888   1.810  0.00  0.00    +0.046 A 
ENDROOT
BRANCH   4   7
ATOM      7  C   UNL     1       6.486   2.050   5.362  0.00  0.00    +0.142 A 
ATOM      8  N   UNL     1       6.594   0.755   5.589  0.00  0.00    -0.228 NA
ATOM      9  C   UNL     1       7.341   0.621   6.733  0.00  0.00    +0.090 A 
ATOM     10  C   UNL     1       7.737  -0.544   7.413  0.00  0.00    +0.039 A 
ATOM     11  C   UNL     1       8.518  -0.445   8.583  0.00  0.00    -0.001 A 
ATOM     12  C   UNL     1       8.880   0.830   9.045  0.00  0.00    +0.012 A 
ATOM     13  C   UNL     1       8.496   2.002   8.383  0.00  0.00    +0.028 A 
ATOM     14  C   UNL     1       7.726   1.867   7.220  0.00  0.00    +0.069 A 
ATOM     15  N   UNL     1       7.199   2.768   6.314  0.00  0.00    -0.320 N 
BRANCH  15  16
ATOM     16  C   UNL     1       7.408   4.214   6.315  0.00  0.00    +0.089 C 
ATOM     17  C   UNL     1       6.738   4.903   7.514  0.00  0.00    +0.025 C 
ATOM     18  C   UNL     1       6.924   6.418   7.463  0.00  0.00    +0.002 C 
ATOM     19  C   UNL     1       8.395   6.802   7.331  0.00  0.00    +0.000 C 
ATOM     20  C   UNL     1       9.046   6.133   6.123  0.00  0.00    +0.002 C 
ATOM     21  C   UNL     1       8.886   4.614   6.166  0.00  0.00    +0.025 C 
ENDBRANCH  15  16
BRANCH  11  22
ATOM     22  C   UNL     1       8.966  -1.686   9.330  0.00  0.00    +0.072 C 
ATOM     23  O   UNL     1       8.610  -2.814   8.864  0.00  0.00    -0.545 OA
ATOM     24  O   UNL     1       9.671  -1.508  10.376  0.00  0.00    -0.545 OA
ENDBRANCH  11  22
ENDBRANCH   4   7
BRANCH   1  25
ATOM     25  O   UNL     1       4.071   4.519   0.933  0.00  0.00    -0.487 OA
BRANCH  25  26
ATOM     26  C   UNL     1       2.863   3.952   0.411  0.00  0.00    +0.265 C 
BRANCH  26  31
ATOM     27  C   UNL     1       2.347   1.418  -2.400  0.00  0.00    -0.002 A 
ATOM     28  C   UNL     1       3.188   1.918  -3.398  0.00  0.00    +0.010 A 
ATOM     29  C   UNL     1       3.926   3.084  -3.190  0.00  0.00    +0.009 A 
ATOM     30  C   UNL     1       3.853   3.793  -1.976  0.00  0.00    -0.011 A 
ATOM     31  C   UNL     1       3.051   3.274  -0.934  0.00  0.00    -0.002 A 
ATOM     32  C   UNL     1       2.303   2.100  -1.172  0.00  0.00    +0.017 A 
BRANCH  30  33
ATOM     33  C   UNL     1       4.589   5.062  -1.878  0.00  0.00    -0.017 A 
ATOM     34  C   UNL     1       3.927   6.285  -2.069  0.00  0.00    +0.010 A 
ATOM     35  C   UNL     1       4.627   7.493  -2.006  0.00  0.00    +0.020 A 
ATOM     36  C   UNL     1       5.996   7.485  -1.751  0.00  0.00    +0.041 A 
ATOM     37 CL   UNL     1       6.860   8.973  -1.677  0.00  0.00    -0.084 Cl
ATOM     38  C   UNL     1       6.672   6.282  -1.561  0.00  0.00    +0.020 A 
ATOM     39  C   UNL     1       5.970   5.076  -1.630  0.00  0.00    +0.010 A 
ENDBRANCH  30  33
BRANCH  27  41
ATOM     40  O   UNL     1       0.665  -0.132  -1.734  0.00  0.00    -0.545 OA
ATOM     41  C   UNL     1       1.485   0.194  -2.649  0.00  0.00    +0.072 C 
ATOM     42  O   UNL     1       1.629  -0.399  -3.765  0.00  0.00    -0.545 OA
ENDBRANCH  27  41
ENDBRANCH  26  31
ENDBRANCH  25  26
ENDBRANCH   1  25
TORSDOF 8
