
 OpenBabel09122221363D

 42 47  0  0  0  0  0  0  0  0999 V2000
    5.5530    1.6450   12.1640 C   0  0  0  0  0  0  0  0  0  0  0  0
    6.3150    0.4810   12.1050 C   0  0  0  0  0  3  0  0  0  0  0  0
    6.0020   -0.5020   11.1620 C   0  0  0  0  0  3  0  0  0  0  0  0
    4.9530   -0.3040   10.2520 C   0  0  0  0  0  0  0  0  0  0  0  0
    4.1750    0.8570   10.3510 C   0  0  0  0  0  3  0  0  0  0  0  0
    4.4800    1.8370   11.3000 C   0  0  0  0  0  3  0  0  0  0  0  0
    4.6710   -1.2730    9.1880 C   0  0  0  0  0  0  0  0  0  0  0  0
    5.3100   -1.3130    8.0340 N   0  0  0  0  0  0  0  0  0  0  0  0
    4.7750   -2.3620    7.3290 C   0  0  0  0  0  0  0  0  0  0  0  0
    5.0900   -2.8290    6.0410 C   0  0  0  0  0  3  0  0  0  0  0  0
    4.4080   -3.9430    5.5090 C   0  0  0  0  0  0  0  0  0  0  0  0
    3.4160   -4.5600    6.2880 C   0  0  0  0  0  3  0  0  0  0  0  0
    3.0870   -4.1100    7.5720 C   0  0  0  0  0  3  0  0  0  0  0  0
    3.7900   -3.0060    8.0720 C   0  0  0  0  0  0  0  0  0  0  0  0
    3.7590   -2.3170    9.2710 N   0  0  0  0  0  0  0  0  0  0  0  0
    2.9590   -2.6640   10.4430 C   0  0  0  0  0  3  0  0  0  0  0  0
    1.5700   -3.2020   10.0680 C   0  0  0  0  0  2  0  0  0  0  0  0
    0.7340   -3.5040   11.3110 C   0  0  0  0  0  2  0  0  0  0  0  0
    1.4690   -4.4350   12.2720 C   0  0  0  0  0  2  0  0  0  0  0  0
    2.8370   -3.8800   12.6590 C   0  0  0  0  0  2  0  0  0  0  0  0
    3.6950   -3.5880   11.4280 C   0  0  0  0  0  2  0  0  0  0  0  0
    4.7350   -4.4720    4.1260 C   0  0  0  0  0  0  0  0  0  0  0  0
    4.5030   -3.7100    3.1350 O   0  0  0  0  0  0  0  0  0  0  0  0
    5.2210   -5.6470    4.0570 O   0  0  0  0  0  1  0  0  0  0  0  0
    5.9340    2.6610   12.9920 O   0  0  0  0  0  0  0  0  0  0  0  0
    7.3440    2.9150   12.9430 C   0  0  0  0  0  2  0  0  0  0  0  0
    8.0100    6.5720   12.0660 C   0  0  0  0  0  0  0  0  0  0  0  0
    8.4270    6.4790   10.7350 C   0  0  0  0  0  3  0  0  0  0  0  0
    8.5130    5.2390   10.1000 C   0  0  0  0  0  3  0  0  0  0  0  0
    8.1840    4.0460   10.7710 C   0  0  0  0  0  0  0  0  0  0  0  0
    7.7070    4.1230   12.0990 C   0  0  0  0  0  0  0  0  0  0  0  0
    7.6410    5.3880   12.7250 C   0  0  0  0  0  3  0  0  0  0  0  0
    8.3950    2.7780   10.0570 C   0  0  0  0  0  0  0  0  0  0  0  0
    7.5620    2.4170    8.9860 C   0  0  0  0  0  3  0  0  0  0  0  0
    7.7400    1.1990    8.3230 C   0  0  0  0  0  3  0  0  0  0  0  0
    8.7530    0.3340    8.7280 C   0  0  0  0  0  0  0  0  0  0  0  0
    8.9700   -1.1680    7.9130 Cl  0  0  0  0  0  0  0  0  0  0  0  0
    9.5890    0.6730    9.7900 C   0  0  0  0  0  3  0  0  0  0  0  0
    9.4050    1.8890   10.4540 C   0  0  0  0  0  3  0  0  0  0  0  0
    7.1020    8.0700   13.6800 O   0  0  0  0  0  1  0  0  0  0  0  0
    7.9880    7.9090   12.7830 C   0  0  0  0  0  0  0  0  0  0  0  0
    8.8750    8.7590   12.4520 O   0  0  0  0  0  0  0  0  0  0  0  0
  1 25  1  0  0  0  0
  2  1  1  0  0  0  0
  3  2  2  0  0  0  0
  4  5  2  0  0  0  0
  4  3  1  0  0  0  0
  5  6  1  0  0  0  0
  6  1  2  0  0  0  0
  7 15  1  0  0  0  0
  7  4  1  0  0  0  0
  8  7  2  0  0  0  0
  9  8  1  0  0  0  0
  9 14  1  0  0  0  0
 10  9  2  0  0  0  0
 11 10  1  0  0  0  0
 11 12  2  0  0  0  0
 12 13  1  0  0  0  0
 13 14  2  0  0  0  0
 14 15  1  0  0  0  0
 15 16  1  0  0  0  0
 16 21  1  0  0  0  0
 17 16  1  0  0  0  0
 17 18  1  0  0  0  0
 18 19  1  0  0  0  0
 19 20  1  0  0  0  0
 21 20  1  0  0  0  0
 22 11  1  0  0  0  0
 23 22  2  0  0  0  0
 24 22  1  0  0  0  0
 26 25  1  0  0  0  0
 27 32  1  0  0  0  0
 27 41  1  0  0  0  0
 28 27  2  0  0  0  0
 29 28  1  0  0  0  0
 29 30  2  0  0  0  0
 30 31  1  0  0  0  0
 31 32  2  0  0  0  0
 31 26  1  0  0  0  0
 33 39  1  0  0  0  0
 33 30  1  0  0  0  0
 34 33  2  0  0  0  0
 35 36  2  0  0  0  0
 35 34  1  0  0  0  0
 36 38  1  0  0  0  0
 37 36  1  0  0  0  0
 38 39  2  0  0  0  0
 41 40  1  0  0  0  0
 42 41  2  0  0  0  0
M  END
>  <minimizedAffinity>
-7.97319317

$$$$

 OpenBabel09122221363D

 42 47  0  0  0  0  0  0  0  0999 V2000
    9.5850    4.9730    9.6400 C   0  0  0  0  0  0  0  0  0  0  0  0
    8.3070    5.0210    9.0860 C   0  0  0  0  0  3  0  0  0  0  0  0
    7.4030    3.9870    9.3460 C   0  0  0  0  0  3  0  0  0  0  0  0
    7.7610    2.9260   10.1920 C   0  0  0  0  0  0  0  0  0  0  0  0
    9.0630    2.8770   10.7090 C   0  0  0  0  0  3  0  0  0  0  0  0
    9.9720    3.9040   10.4430 C   0  0  0  0  0  3  0  0  0  0  0  0
    6.7970    1.8860   10.5620 C   0  0  0  0  0  0  0  0  0  0  0  0
    5.7280    2.0970   11.3060 N   0  0  0  0  0  0  0  0  0  0  0  0
    5.0780    0.8920   11.4060 C   0  0  0  0  0  0  0  0  0  0  0  0
    3.8970    0.5650   12.0940 C   0  0  0  0  0  3  0  0  0  0  0  0
    3.4020   -0.7550   12.0560 C   0  0  0  0  0  0  0  0  0  0  0  0
    4.1130   -1.7200   11.3250 C   0  0  0  0  0  3  0  0  0  0  0  0
    5.2910   -1.4150   10.6330 C   0  0  0  0  0  3  0  0  0  0  0  0
    5.7510   -0.0930   10.6880 C   0  0  0  0  0  0  0  0  0  0  0  0
    6.8290    0.5660   10.1270 N   0  0  0  0  0  0  0  0  0  0  0  0
    7.7950   -0.0020    9.1900 C   0  0  0  0  0  3  0  0  0  0  0  0
    8.7880   -0.9540    9.8760 C   0  0  0  0  0  2  0  0  0  0  0  0
    9.8200   -1.4920    8.8870 C   0  0  0  0  0  2  0  0  0  0  0  0
    9.1570   -2.1340    7.6720 C   0  0  0  0  0  2  0  0  0  0  0  0
    8.1920   -1.1730    6.9830 C   0  0  0  0  0  2  0  0  0  0  0  0
    7.1400   -0.6380    7.9530 C   0  0  0  0  0  2  0  0  0  0  0  0
    2.1250   -1.1310   12.7810 C   0  0  0  0  0  0  0  0  0  0  0  0
    1.6030   -2.2580   12.5090 O   0  0  0  0  0  0  0  0  0  0  0  0
    1.6640   -0.2860   13.6160 O   0  0  0  0  0  1  0  0  0  0  0  0
   10.4240    6.0390    9.4970 O   0  0  0  0  0  0  0  0  0  0  0  0
   11.0840    6.3920   10.7190 C   0  0  0  0  0  2  0  0  0  0  0  0
   10.4960   10.1230   11.2860 C   0  0  0  0  0  0  0  0  0  0  0  0
    9.5680   10.1140   12.3310 C   0  0  0  0  0  3  0  0  0  0  0  0
    9.1060    8.9090   12.8630 C   0  0  0  0  0  3  0  0  0  0  0  0
    9.5560    7.6690   12.3730 C   0  0  0  0  0  0  0  0  0  0  0  0
   10.5350    7.6560   11.3540 C   0  0  0  0  0  0  0  0  0  0  0  0
   10.9780    8.8870   10.8210 C   0  0  0  0  0  3  0  0  0  0  0  0
    8.9450    6.4510   12.9260 C   0  0  0  0  0  0  0  0  0  0  0  0
    9.6980    5.5790   13.7280 C   0  0  0  0  0  3  0  0  0  0  0  0
    9.1310    4.4050   14.2320 C   0  0  0  0  0  3  0  0  0  0  0  0
    7.8060    4.0960   13.9370 C   0  0  0  0  0  0  0  0  0  0  0  0
    7.1080    2.6480   14.5550 Cl  0  0  0  0  0  0  0  0  0  0  0  0
    7.0430    4.9470   13.1410 C   0  0  0  0  0  3  0  0  0  0  0  0
    7.6140    6.1170   12.6340 C   0  0  0  0  0  3  0  0  0  0  0  0
   10.0750   12.3510   10.5570 O   0  0  0  0  0  1  0  0  0  0  0  0
   10.9430   11.4280   10.6530 C   0  0  0  0  0  0  0  0  0  0  0  0
   12.1590   11.5080   10.2890 O   0  0  0  0  0  0  0  0  0  0  0  0
  1  6  1  0  0  0  0
  2  3  1  0  0  0  0
  2  1  2  0  0  0  0
  3  4  2  0  0  0  0
  4  7  1  0  0  0  0
  4  5  1  0  0  0  0
  6  5  2  0  0  0  0
  7  8  2  0  0  0  0
  8  9  1  0  0  0  0
  9 10  1  0  0  0  0
 11 10  2  0  0  0  0
 11 22  1  0  0  0  0
 12 11  1  0  0  0  0
 13 14  1  0  0  0  0
 13 12  2  0  0  0  0
 14  9  2  0  0  0  0
 15  7  1  0  0  0  0
 15 14  1  0  0  0  0
 16 17  1  0  0  0  0
 16 15  1  0  0  0  0
 18 17  1  0  0  0  0
 19 18  1  0  0  0  0
 20 19  1  0  0  0  0
 20 21  1  0  0  0  0
 21 16  1  0  0  0  0
 22 24  1  0  0  0  0
 23 22  2  0  0  0  0
 25  1  1  0  0  0  0
 25 26  1  0  0  0  0
 26 31  1  0  0  0  0
 27 28  1  0  0  0  0
 28 29  2  0  0  0  0
 30 29  1  0  0  0  0
 30 33  1  0  0  0  0
 31 30  2  0  0  0  0
 32 27  2  0  0  0  0
 32 31  1  0  0  0  0
 33 34  1  0  0  0  0
 34 35  2  0  0  0  0
 36 35  1  0  0  0  0
 36 37  1  0  0  0  0
 38 36  2  0  0  0  0
 39 33  2  0  0  0  0
 39 38  1  0  0  0  0
 40 41  1  0  0  0  0
 41 27  1  0  0  0  0
 42 41  2  0  0  0  0
M  END
>  <minimizedAffinity>
-7.84001541

$$$$

 OpenBabel09122221363D

 42 47  0  0  0  0  0  0  0  0999 V2000
    4.4690   -0.1610   11.7670 C   0  0  0  0  0  0  0  0  0  0  0  0
    4.0430    0.9400   11.0280 C   0  0  0  0  0  3  0  0  0  0  0  0
    4.7420    2.1480   11.1240 C   0  0  0  0  0  3  0  0  0  0  0  0
    5.8890    2.2420   11.9260 C   0  0  0  0  0  0  0  0  0  0  0  0
    6.2790    1.1340   12.6900 C   0  0  0  0  0  3  0  0  0  0  0  0
    5.5770   -0.0700   12.6040 C   0  0  0  0  0  3  0  0  0  0  0  0
    6.6970    3.4650   11.9620 C   0  0  0  0  0  0  0  0  0  0  0  0
    6.8140    4.2460   13.0190 N   0  0  0  0  0  0  0  0  0  0  0  0
    7.6630    5.2630   12.6600 C   0  0  0  0  0  0  0  0  0  0  0  0
    8.1100    6.3640   13.4120 C   0  0  0  0  0  3  0  0  0  0  0  0
    8.9970    7.2960   12.8360 C   0  0  0  0  0  0  0  0  0  0  0  0
    9.4130    7.1000   11.5100 C   0  0  0  0  0  3  0  0  0  0  0  0
    8.9790    6.0110   10.7440 C   0  0  0  0  0  3  0  0  0  0  0  0
    8.1030    5.1000   11.3500 C   0  0  0  0  0  0  0  0  0  0  0  0
    7.5020    3.9290   10.9290 N   0  0  0  0  0  0  0  0  0  0  0  0
    7.7240    3.2570    9.6500 C   0  0  0  0  0  3  0  0  0  0  0  0
    7.6640    4.2270    8.4600 C   0  0  0  0  0  2  0  0  0  0  0  0
    7.8430    3.4940    7.1320 C   0  0  0  0  0  2  0  0  0  0  0  0
    9.1160    2.6520    7.1200 C   0  0  0  0  0  2  0  0  0  0  0  0
    9.1560    1.6740    8.2920 C   0  0  0  0  0  2  0  0  0  0  0  0
    8.9960    2.3920    9.6310 C   0  0  0  0  0  2  0  0  0  0  0  0
    9.5010    8.4870   13.6280 C   0  0  0  0  0  0  0  0  0  0  0  0
    9.0470    9.6330   13.3200 O   0  0  0  0  0  0  0  0  0  0  0  0
   10.3480    8.2510   14.5500 O   0  0  0  0  0  1  0  0  0  0  0  0
    3.8720   -1.3730   11.5780 O   0  0  0  0  0  0  0  0  0  0  0  0
    4.7850   -2.3730   11.1110 C   0  0  0  0  0  2  0  0  0  0  0  0
    4.0140   -2.0000    7.3880 C   0  0  0  0  0  0  0  0  0  0  0  0
    5.2900   -2.0690    6.8210 C   0  0  0  0  0  3  0  0  0  0  0  0
    6.4200   -2.2240    7.6240 C   0  0  0  0  0  3  0  0  0  0  0  0
    6.3180   -2.3180    9.0250 C   0  0  0  0  0  0  0  0  0  0  0  0
    5.0340   -2.3070    9.6150 C   0  0  0  0  0  0  0  0  0  0  0  0
    3.9050   -2.1350    8.7830 C   0  0  0  0  0  3  0  0  0  0  0  0
    7.5660   -2.3840    9.8000 C   0  0  0  0  0  0  0  0  0  0  0  0
    8.1560   -1.2110   10.2980 C   0  0  0  0  0  3  0  0  0  0  0  0
    9.3580   -1.2640   11.0100 C   0  0  0  0  0  3  0  0  0  0  0  0
    9.9770   -2.4920   11.2290 C   0  0  0  0  0  0  0  0  0  0  0  0
   11.4590   -2.5570   12.1030 Cl  0  0  0  0  0  0  0  0  0  0  0  0
    9.4090   -3.6660   10.7410 C   0  0  0  0  0  3  0  0  0  0  0  0
    8.2110   -3.6090   10.0250 C   0  0  0  0  0  3  0  0  0  0  0  0
    2.7600   -2.3230    5.3890 O   0  0  0  0  0  0  0  0  0  0  0  0
    2.7900   -1.7550    6.5260 C   0  0  0  0  0  0  0  0  0  0  0  0
    1.8740   -1.0200    7.0150 O   0  0  0  0  0  1  0  0  0  0  0  0
  1  6  1  0  0  0  0
  2  3  1  0  0  0  0
  2  1  2  0  0  0  0
  3  4  2  0  0  0  0
  4  7  1  0  0  0  0
  4  5  1  0  0  0  0
  6  5  2  0  0  0  0
  7  8  2  0  0  0  0
  9  8  1  0  0  0  0
  9 10  1  0  0  0  0
 11 10  2  0  0  0  0
 11 22  1  0  0  0  0
 12 11  1  0  0  0  0
 13 14  1  0  0  0  0
 13 12  2  0  0  0  0
 14  9  2  0  0  0  0
 15 14  1  0  0  0  0
 15  7  1  0  0  0  0
 16 15  1  0  0  0  0
 17 16  1  0  0  0  0
 18 17  1  0  0  0  0
 19 18  1  0  0  0  0
 19 20  1  0  0  0  0
 20 21  1  0  0  0  0
 21 16  1  0  0  0  0
 22 24  1  0  0  0  0
 23 22  2  0  0  0  0
 25  1  1  0  0  0  0
 26 25  1  0  0  0  0
 27 32  1  0  0  0  0
 28 27  2  0  0  0  0
 28 29  1  0  0  0  0
 29 30  2  0  0  0  0
 30 31  1  0  0  0  0
 30 33  1  0  0  0  0
 31 26  1  0  0  0  0
 32 31  2  0  0  0  0
 33 39  2  0  0  0  0
 33 34  1  0  0  0  0
 34 35  2  0  0  0  0
 35 36  1  0  0  0  0
 36 37  1  0  0  0  0
 38 36  2  0  0  0  0
 39 38  1  0  0  0  0
 40 41  2  0  0  0  0
 41 42  1  0  0  0  0
 41 27  1  0  0  0  0
M  END
>  <minimizedAffinity>
-7.54565716

$$$$

 OpenBabel09122221363D

 42 47  0  0  0  0  0  0  0  0999 V2000
    7.2030   -2.1370    7.6490 C   0  0  0  0  0  0  0  0  0  0  0  0
    8.2830   -1.9230    8.5010 C   0  0  0  0  0  3  0  0  0  0  0  0
    8.3200   -0.7720    9.2930 C   0  0  0  0  0  3  0  0  0  0  0  0
    7.2580    0.1450    9.2630 C   0  0  0  0  0  0  0  0  0  0  0  0
    6.1980   -0.0700    8.3710 C   0  0  0  0  0  3  0  0  0  0  0  0
    6.1640   -1.2150    7.5720 C   0  0  0  0  0  3  0  0  0  0  0  0
    7.2240    1.3050   10.1590 C   0  0  0  0  0  0  0  0  0  0  0  0
    7.8310    2.4500    9.9120 N   0  0  0  0  0  0  0  0  0  0  0  0
    7.5450    3.2790   10.9690 C   0  0  0  0  0  0  0  0  0  0  0  0
    7.9540    4.6030   11.2050 C   0  0  0  0  0  3  0  0  0  0  0  0
    7.5300    5.2730   12.3710 C   0  0  0  0  0  0  0  0  0  0  0  0
    6.7040    4.5900   13.2770 C   0  0  0  0  0  3  0  0  0  0  0  0
    6.2860    3.2720   13.0610 C   0  0  0  0  0  3  0  0  0  0  0  0
    6.7200    2.6380   11.8890 C   0  0  0  0  0  0  0  0  0  0  0  0
    6.4980    1.3890   11.3400 N   0  0  0  0  0  0  0  0  0  0  0  0
    5.6050    0.3610   11.8700 C   0  0  0  0  0  3  0  0  0  0  0  0
    6.0350   -0.1290   13.2620 C   0  0  0  0  0  2  0  0  0  0  0  0
    5.1200   -1.2410   13.7700 C   0  0  0  0  0  2  0  0  0  0  0  0
    3.6530   -0.8220   13.7390 C   0  0  0  0  0  2  0  0  0  0  0  0
    3.2270   -0.3600   12.3480 C   0  0  0  0  0  2  0  0  0  0  0  0
    4.1210    0.7650   11.8300 C   0  0  0  0  0  2  0  0  0  0  0  0
    7.9500    6.7040   12.6460 C   0  0  0  0  0  0  0  0  0  0  0  0
    9.0460    7.1030   12.1410 O   0  0  0  0  0  0  0  0  0  0  0  0
    7.1690    7.4070   13.3660 O   0  0  0  0  0  1  0  0  0  0  0  0
    7.1000   -3.3190    6.9730 O   0  0  0  0  0  0  0  0  0  0  0  0
    5.9050   -4.0400    7.3000 C   0  0  0  0  0  2  0  0  0  0  0  0
    4.6570   -4.5920    3.7320 C   0  0  0  0  0  0  0  0  0  0  0  0
    3.2750   -4.4450    3.8830 C   0  0  0  0  0  3  0  0  0  0  0  0
    2.7190   -4.1780    5.1360 C   0  0  0  0  0  3  0  0  0  0  0  0
    3.5240   -4.0460    6.2830 C   0  0  0  0  0  0  0  0  0  0  0  0
    4.9270   -4.1360    6.1420 C   0  0  0  0  0  0  0  0  0  0  0  0
    5.4660   -4.4190    4.8680 C   0  0  0  0  0  3  0  0  0  0  0  0
    2.8480   -3.8610    7.5760 C   0  0  0  0  0  0  0  0  0  0  0  0
    2.6110   -2.5710    8.0770 C   0  0  0  0  0  3  0  0  0  0  0  0
    1.9950   -2.3900    9.3180 C   0  0  0  0  0  3  0  0  0  0  0  0
    1.6130   -3.4990   10.0680 C   0  0  0  0  0  0  0  0  0  0  0  0
    0.8590   -3.2760   11.6000 Cl  0  0  0  0  0  0  0  0  0  0  0  0
    1.8430   -4.7870    9.5900 C   0  0  0  0  0  3  0  0  0  0  0  0
    2.4630   -4.9650    8.3510 C   0  0  0  0  0  3  0  0  0  0  0  0
    6.5260   -4.9260    2.2940 O   0  0  0  0  0  1  0  0  0  0  0  0
    5.2590   -4.9570    2.3880 C   0  0  0  0  0  0  0  0  0  0  0  0
    4.4520   -5.2920    1.4630 O   0  0  0  0  0  0  0  0  0  0  0  0
  1  2  1  0  0  0  0
  2  3  2  0  0  0  0
  4  3  1  0  0  0  0
  4  7  1  0  0  0  0
  5  4  2  0  0  0  0
  6  1  2  0  0  0  0
  6  5  1  0  0  0  0
  7 15  1  0  0  0  0
  8  7  2  0  0  0  0
  8  9  1  0  0  0  0
  9 10  2  0  0  0  0
  9 14  1  0  0  0  0
 10 11  1  0  0  0  0
 11 22  1  0  0  0  0
 11 12  2  0  0  0  0
 13 12  1  0  0  0  0
 14 13  2  0  0  0  0
 15 16  1  0  0  0  0
 15 14  1  0  0  0  0
 16 17  1  0  0  0  0
 17 18  1  0  0  0  0
 19 18  1  0  0  0  0
 20 19  1  0  0  0  0
 21 16  1  0  0  0  0
 21 20  1  0  0  0  0
 22 24  1  0  0  0  0
 23 22  2  0  0  0  0
 25 26  1  0  0  0  0
 25  1  1  0  0  0  0
 27 28  2  0  0  0  0
 27 32  1  0  0  0  0
 28 29  1  0  0  0  0
 29 30  2  0  0  0  0
 30 33  1  0  0  0  0
 31 30  1  0  0  0  0
 31 26  1  0  0  0  0
 32 31  2  0  0  0  0
 33 34  2  0  0  0  0
 33 39  1  0  0  0  0
 34 35  1  0  0  0  0
 35 36  2  0  0  0  0
 36 37  1  0  0  0  0
 38 36  1  0  0  0  0
 39 38  2  0  0  0  0
 40 41  1  0  0  0  0
 41 27  1  0  0  0  0
 42 41  2  0  0  0  0
M  END
>  <minimizedAffinity>
-7.3865819

$$$$

 OpenBabel09122221363D

 42 47  0  0  0  0  0  0  0  0999 V2000
    9.8210   -2.1080    4.8790 C   0  0  0  0  0  0  0  0  0  0  0  0
    8.6200   -2.5350    5.4390 C   0  0  0  0  0  3  0  0  0  0  0  0
    8.0970   -1.8620    6.5470 C   0  0  0  0  0  3  0  0  0  0  0  0
    8.7530   -0.7370    7.0690 C   0  0  0  0  0  0  0  0  0  0  0  0
    9.9790   -0.3450    6.5140 C   0  0  0  0  0  3  0  0  0  0  0  0
   10.5090   -1.0220    5.4130 C   0  0  0  0  0  3  0  0  0  0  0  0
    8.1710    0.0480    8.1630 C   0  0  0  0  0  0  0  0  0  0  0  0
    8.6970    1.1610    8.6370 N   0  0  0  0  0  0  0  0  0  0  0  0
    7.8540    1.5980    9.6290 C   0  0  0  0  0  0  0  0  0  0  0  0
    7.9570    2.7280   10.4580 C   0  0  0  0  0  3  0  0  0  0  0  0
    6.9580    2.9900   11.4190 C   0  0  0  0  0  0  0  0  0  0  0  0
    5.8770    2.1010   11.5250 C   0  0  0  0  0  3  0  0  0  0  0  0
    5.7560    0.9700   10.7090 C   0  0  0  0  0  3  0  0  0  0  0  0
    6.7620    0.7440    9.7610 C   0  0  0  0  0  0  0  0  0  0  0  0
    6.9640   -0.2240    8.7940 N   0  0  0  0  0  0  0  0  0  0  0  0
    6.0410   -1.3030    8.4490 C   0  0  0  0  0  3  0  0  0  0  0  0
    5.9560   -2.3750    9.5460 C   0  0  0  0  0  2  0  0  0  0  0  0
    5.0280   -3.5180    9.1390 C   0  0  0  0  0  2  0  0  0  0  0  0
    3.6500   -3.0080    8.7280 C   0  0  0  0  0  2  0  0  0  0  0  0
    3.7430   -1.9620    7.6200 C   0  0  0  0  0  2  0  0  0  0  0  0
    4.6530   -0.8000    8.0170 C   0  0  0  0  0  2  0  0  0  0  0  0
    7.0400    4.2070   12.3190 C   0  0  0  0  0  0  0  0  0  0  0  0
    7.6440    5.2310   11.8700 O   0  0  0  0  0  0  0  0  0  0  0  0
    6.4940    4.1150   13.4670 O   0  0  0  0  0  1  0  0  0  0  0  0
   10.2680   -2.6780    3.7220 O   0  0  0  0  0  0  0  0  0  0  0  0
    9.5930   -2.1760    2.5620 C   0  0  0  0  0  2  0  0  0  0  0  0
    7.1580   -4.9280    1.5200 C   0  0  0  0  0  0  0  0  0  0  0  0
    7.6270   -5.2620    0.2460 C   0  0  0  0  0  3  0  0  0  0  0  0
    8.7260   -4.6010   -0.3050 C   0  0  0  0  0  3  0  0  0  0  0  0
    9.3980   -3.5830    0.3970 C   0  0  0  0  0  0  0  0  0  0  0  0
    8.9750   -3.2680    1.7080 C   0  0  0  0  0  0  0  0  0  0  0  0
    7.8530   -3.9410    2.2400 C   0  0  0  0  0  3  0  0  0  0  0  0
   10.4840   -2.8750   -0.2970 C   0  0  0  0  0  0  0  0  0  0  0  0
   10.2430   -1.6420   -0.9240 C   0  0  0  0  0  3  0  0  0  0  0  0
   11.2630   -0.9780   -1.6100 C   0  0  0  0  0  3  0  0  0  0  0  0
   12.5340   -1.5440   -1.6720 C   0  0  0  0  0  0  0  0  0  0  0  0
   13.7920   -0.7280   -2.5200 Cl  0  0  0  0  0  0  0  0  0  0  0  0
   12.7940   -2.7670   -1.0580 C   0  0  0  0  0  3  0  0  0  0  0  0
   11.7700   -3.4310   -0.3780 C   0  0  0  0  0  3  0  0  0  0  0  0
    5.8130   -6.8490    1.9420 O   0  0  0  0  0  0  0  0  0  0  0  0
    5.9180   -5.5910    2.0920 C   0  0  0  0  0  0  0  0  0  0  0  0
    5.0900   -4.8420    2.7010 O   0  0  0  0  0  1  0  0  0  0  0  0
  1  6  2  0  0  0  0
  1  2  1  0  0  0  0
  2  3  2  0  0  0  0
  3  4  1  0  0  0  0
  4  7  1  0  0  0  0
  5  4  2  0  0  0  0
  6  5  1  0  0  0  0
  7  8  2  0  0  0  0
  7 15  1  0  0  0  0
  8  9  1  0  0  0  0
  9 14  2  0  0  0  0
  9 10  1  0  0  0  0
 10 11  2  0  0  0  0
 11 12  1  0  0  0  0
 11 22  1  0  0  0  0
 13 12  2  0  0  0  0
 14 13  1  0  0  0  0
 15 14  1  0  0  0  0
 16 15  1  0  0  0  0
 16 17  1  0  0  0  0
 18 17  1  0  0  0  0
 19 18  1  0  0  0  0
 20 21  1  0  0  0  0
 20 19  1  0  0  0  0
 21 16  1  0  0  0  0
 22 24  1  0  0  0  0
 23 22  2  0  0  0  0
 25  1  1  0  0  0  0
 26 25  1  0  0  0  0
 27 41  1  0  0  0  0
 27 32  1  0  0  0  0
 28 27  2  0  0  0  0
 29 28  1  0  0  0  0
 29 30  2  0  0  0  0
 30 31  1  0  0  0  0
 31 32  2  0  0  0  0
 31 26  1  0  0  0  0
 33 30  1  0  0  0  0
 34 33  2  0  0  0  0
 35 34  1  0  0  0  0
 36 35  2  0  0  0  0
 36 38  1  0  0  0  0
 37 36  1  0  0  0  0
 38 39  2  0  0  0  0
 39 33  1  0  0  0  0
 40 41  2  0  0  0  0
 41 42  1  0  0  0  0
M  END
>  <minimizedAffinity>
-7.35282755

$$$$

 OpenBabel09122221363D

 42 47  0  0  0  0  0  0  0  0999 V2000
    9.9050    1.7260    7.9610 C   0  0  0  0  0  0  0  0  0  0  0  0
   11.1380    2.2180    8.3820 C   0  0  0  0  0  3  0  0  0  0  0  0
   11.2250    3.5160    8.8960 C   0  0  0  0  0  3  0  0  0  0  0  0
   10.0730    4.3060    9.0260 C   0  0  0  0  0  0  0  0  0  0  0  0
    8.8480    3.8070    8.5620 C   0  0  0  0  0  3  0  0  0  0  0  0
    8.7610    2.5140    8.0400 C   0  0  0  0  0  3  0  0  0  0  0  0
   10.1220    5.6290    9.6560 C   0  0  0  0  0  0  0  0  0  0  0  0
   10.5530    6.7210    9.0550 N   0  0  0  0  0  0  0  0  0  0  0  0
   10.4210    7.7430    9.9620 C   0  0  0  0  0  0  0  0  0  0  0  0
   10.7460    9.1050    9.8310 C   0  0  0  0  0  3  0  0  0  0  0  0
   10.5180    9.9890   10.9050 C   0  0  0  0  0  0  0  0  0  0  0  0
    9.9690    9.4800   12.0920 C   0  0  0  0  0  3  0  0  0  0  0  0
    9.6380    8.1280   12.2430 C   0  0  0  0  0  3  0  0  0  0  0  0
    9.8720    7.2780   11.1540 C   0  0  0  0  0  0  0  0  0  0  0  0
    9.6560    5.9310   10.9300 N   0  0  0  0  0  0  0  0  0  0  0  0
    8.9950    5.0010   11.8420 C   0  0  0  0  0  3  0  0  0  0  0  0
    9.8710    4.6440   13.0530 C   0  0  0  0  0  2  0  0  0  0  0  0
    9.1810    3.6290   13.9620 C   0  0  0  0  0  2  0  0  0  0  0  0
    7.7910    4.1000   14.3800 C   0  0  0  0  0  2  0  0  0  0  0  0
    6.9190    4.4280   13.1710 C   0  0  0  0  0  2  0  0  0  0  0  0
    7.5860    5.4560   12.2580 C   0  0  0  0  0  2  0  0  0  0  0  0
   10.8510   11.4640   10.7870 C   0  0  0  0  0  0  0  0  0  0  0  0
    9.8830   12.2760   10.6460 O   0  0  0  0  0  0  0  0  0  0  0  0
   12.0830   11.7840   10.8370 O   0  0  0  0  0  1  0  0  0  0  0  0
    9.7930    0.4200    7.5830 O   0  0  0  0  0  0  0  0  0  0  0  0
   10.8260    0.0160    6.6760 C   0  0  0  0  0  2  0  0  0  0  0  0
    9.3020   -1.4130    3.4780 C   0  0  0  0  0  0  0  0  0  0  0  0
    9.3730   -0.3200    2.6100 C   0  0  0  0  0  3  0  0  0  0  0  0
    9.9000    0.8990    3.0410 C   0  0  0  0  0  3  0  0  0  0  0  0
   10.3780    1.0700    4.3540 C   0  0  0  0  0  0  0  0  0  0  0  0
   10.3670   -0.0390    5.2300 C   0  0  0  0  0  0  0  0  0  0  0  0
    9.8170   -1.2590    4.7770 C   0  0  0  0  0  3  0  0  0  0  0  0
   10.8270    2.4130    4.7500 C   0  0  0  0  0  0  0  0  0  0  0  0
    9.9030    3.4610    4.8810 C   0  0  0  0  0  3  0  0  0  0  0  0
   10.3270    4.7470    5.2290 C   0  0  0  0  0  3  0  0  0  0  0  0
   11.6800    4.9910    5.4500 C   0  0  0  0  0  0  0  0  0  0  0  0
   12.2040    6.5760    5.8750 Cl  0  0  0  0  0  0  0  0  0  0  0  0
   12.6130    3.9640    5.3220 C   0  0  0  0  0  3  0  0  0  0  0  0
   12.1860    2.6820    4.9690 C   0  0  0  0  0  3  0  0  0  0  0  0
    8.0770   -3.4050    3.9330 O   0  0  0  0  0  1  0  0  0  0  0  0
    8.6610   -2.7160    3.0380 C   0  0  0  0  0  0  0  0  0  0  0  0
    8.7320   -3.0090    1.8020 O   0  0  0  0  0  0  0  0  0  0  0  0
  1  6  2  0  0  0  0
  1  2  1  0  0  0  0
  2  3  2  0  0  0  0
  3  4  1  0  0  0  0
  4  7  1  0  0  0  0
  5  4  2  0  0  0  0
  6  5  1  0  0  0  0
  7 15  1  0  0  0  0
  8  7  2  0  0  0  0
  8  9  1  0  0  0  0
  9 14  1  0  0  0  0
 10  9  2  0  0  0  0
 10 11  1  0  0  0  0
 11 12  2  0  0  0  0
 12 13  1  0  0  0  0
 14 13  2  0  0  0  0
 15 14  1  0  0  0  0
 15 16  1  0  0  0  0
 16 21  1  0  0  0  0
 16 17  1  0  0  0  0
 17 18  1  0  0  0  0
 18 19  1  0  0  0  0
 20 19  1  0  0  0  0
 21 20  1  0  0  0  0
 22 24  1  0  0  0  0
 22 11  1  0  0  0  0
 23 22  2  0  0  0  0
 25  1  1  0  0  0  0
 26 25  1  0  0  0  0
 27 32  1  0  0  0  0
 28 29  1  0  0  0  0
 28 27  2  0  0  0  0
 29 30  2  0  0  0  0
 30 33  1  0  0  0  0
 30 31  1  0  0  0  0
 31 26  1  0  0  0  0
 32 31  2  0  0  0  0
 33 34  2  0  0  0  0
 33 39  1  0  0  0  0
 34 35  1  0  0  0  0
 35 36  2  0  0  0  0
 36 37  1  0  0  0  0
 38 36  1  0  0  0  0
 39 38  2  0  0  0  0
 41 27  1  0  0  0  0
 41 40  1  0  0  0  0
 42 41  2  0  0  0  0
M  END
>  <minimizedAffinity>
-7.23286343

$$$$

 OpenBabel09122221363D

 42 47  0  0  0  0  0  0  0  0999 V2000
    4.8630    0.2470   12.4460 C   0  0  0  0  0  0  0  0  0  0  0  0
    6.1220    0.3900   13.0240 C   0  0  0  0  0  3  0  0  0  0  0  0
    6.8600    1.5550   12.7930 C   0  0  0  0  0  3  0  0  0  0  0  0
    6.3220    2.5940   12.0180 C   0  0  0  0  0  0  0  0  0  0  0  0
    5.0690    2.4150   11.4150 C   0  0  0  0  0  3  0  0  0  0  0  0
    4.3350    1.2470   11.6360 C   0  0  0  0  0  3  0  0  0  0  0  0
    7.0310    3.8660   11.8470 C   0  0  0  0  0  0  0  0  0  0  0  0
    7.0880    4.8110   12.7650 N   0  0  0  0  0  0  0  0  0  0  0  0
    7.8540    5.8210   12.2370 C   0  0  0  0  0  0  0  0  0  0  0  0
    8.2140    7.0590   12.7980 C   0  0  0  0  0  3  0  0  0  0  0  0
    9.0240    7.9530   12.0680 C   0  0  0  0  0  0  0  0  0  0  0  0
    9.4500    7.5810   10.7840 C   0  0  0  0  0  3  0  0  0  0  0  0
    9.1020    6.3540   10.2070 C   0  0  0  0  0  3  0  0  0  0  0  0
    8.3020    5.4860   10.9630 C   0  0  0  0  0  0  0  0  0  0  0  0
    7.7950    4.2200   10.7420 N   0  0  0  0  0  0  0  0  0  0  0  0
    8.0650    3.3730    9.5820 C   0  0  0  0  0  3  0  0  0  0  0  0
    7.7110    4.0620    8.2560 C   0  0  0  0  0  2  0  0  0  0  0  0
    7.9510    3.1380    7.0640 C   0  0  0  0  0  2  0  0  0  0  0  0
    9.3720    2.5820    7.0580 C   0  0  0  0  0  2  0  0  0  0  0  0
    9.7070    1.8770    8.3700 C   0  0  0  0  0  2  0  0  0  0  0  0
    9.4900    2.7930    9.5730 C   0  0  0  0  0  2  0  0  0  0  0  0
    9.4340    9.2900   12.6540 C   0  0  0  0  0  0  0  0  0  0  0  0
    9.0790    9.5440   13.8480 O   0  0  0  0  0  1  0  0  0  0  0  0
   10.1090   10.0670   11.9030 O   0  0  0  0  0  0  0  0  0  0  0  0
    4.0880   -0.8270   12.7730 O   0  0  0  0  0  0  0  0  0  0  0  0
    3.0050   -1.0280   11.8560 C   0  0  0  0  0  2  0  0  0  0  0  0
    1.3130   -4.4510   11.9510 C   0  0  0  0  0  0  0  0  0  0  0  0
    2.0630   -5.1700   11.0170 C   0  0  0  0  0  3  0  0  0  0  0  0
    3.1170   -4.5650   10.3310 C   0  0  0  0  0  3  0  0  0  0  0  0
    3.4630   -3.2190   10.5560 C   0  0  0  0  0  0  0  0  0  0  0  0
    2.7530   -2.4900   11.5360 C   0  0  0  0  0  0  0  0  0  0  0  0
    1.6810   -3.1190   12.2080 C   0  0  0  0  0  3  0  0  0  0  0  0
    4.5240   -2.6360    9.7210 C   0  0  0  0  0  0  0  0  0  0  0  0
    5.8530   -2.6130   10.1730 C   0  0  0  0  0  3  0  0  0  0  0  0
    6.8600   -2.0330    9.3970 C   0  0  0  0  0  3  0  0  0  0  0  0
    6.5440   -1.4720    8.1620 C   0  0  0  0  0  0  0  0  0  0  0  0
    7.7850   -0.7550    7.2070 Cl  0  0  0  0  0  0  0  0  0  0  0  0
    5.2310   -1.4830    7.6970 C   0  0  0  0  0  3  0  0  0  0  0  0
    4.2260   -2.0580    8.4780 C   0  0  0  0  0  3  0  0  0  0  0  0
   -0.9060   -5.3170   11.9280 O   0  0  0  0  0  0  0  0  0  0  0  0
    0.1180   -5.0810   12.6430 C   0  0  0  0  0  0  0  0  0  0  0  0
    0.2400   -5.3510   13.8800 O   0  0  0  0  0  1  0  0  0  0  0  0
  1 25  1  0  0  0  0
  1  2  1  0  0  0  0
  3  2  2  0  0  0  0
  4  3  1  0  0  0  0
  5  6  1  0  0  0  0
  5  4  2  0  0  0  0
  6  1  2  0  0  0  0
  7  4  1  0  0  0  0
  7  8  2  0  0  0  0
  9  8  1  0  0  0  0
  9 10  1  0  0  0  0
 11 22  1  0  0  0  0
 11 10  2  0  0  0  0
 12 11  1  0  0  0  0
 13 12  2  0  0  0  0
 13 14  1  0  0  0  0
 14  9  2  0  0  0  0
 15 14  1  0  0  0  0
 15  7  1  0  0  0  0
 16 15  1  0  0  0  0
 17 16  1  0  0  0  0
 18 17  1  0  0  0  0
 19 18  1  0  0  0  0
 19 20  1  0  0  0  0
 20 21  1  0  0  0  0
 21 16  1  0  0  0  0
 22 23  1  0  0  0  0
 24 22  2  0  0  0  0
 26 25  1  0  0  0  0
 27 32  1  0  0  0  0
 27 41  1  0  0  0  0
 28 27  2  0  0  0  0
 29 30  2  0  0  0  0
 29 28  1  0  0  0  0
 30 31  1  0  0  0  0
 31 26  1  0  0  0  0
 31 32  2  0  0  0  0
 33 34  1  0  0  0  0
 33 30  1  0  0  0  0
 35 34  2  0  0  0  0
 36 35  1  0  0  0  0
 37 36  1  0  0  0  0
 38 36  2  0  0  0  0
 38 39  1  0  0  0  0
 39 33  2  0  0  0  0
 40 41  2  0  0  0  0
 41 42  1  0  0  0  0
M  END
>  <minimizedAffinity>
-7.22157812

$$$$

 OpenBabel09122221363D

 42 47  0  0  0  0  0  0  0  0999 V2000
   11.5380    3.4700    4.6420 C   0  0  0  0  0  0  0  0  0  0  0  0
   10.2770    3.7020    5.1870 C   0  0  0  0  0  3  0  0  0  0  0  0
   10.1350    4.6180    6.2340 C   0  0  0  0  0  3  0  0  0  0  0  0
   11.2460    5.3320    6.7080 C   0  0  0  0  0  0  0  0  0  0  0  0
   12.5120    5.0570    6.1720 C   0  0  0  0  0  3  0  0  0  0  0  0
   12.6580    4.1350    5.1330 C   0  0  0  0  0  3  0  0  0  0  0  0
   11.1050    6.3710    7.7330 C   0  0  0  0  0  0  0  0  0  0  0  0
   11.4920    7.6230    7.5760 N   0  0  0  0  0  0  0  0  0  0  0  0
   11.1730    8.2780    8.7400 C   0  0  0  0  0  0  0  0  0  0  0  0
   11.3800    9.6210    9.0970 C   0  0  0  0  0  3  0  0  0  0  0  0
   10.9610   10.0860   10.3610 C   0  0  0  0  0  0  0  0  0  0  0  0
   10.3440    9.1830   11.2400 C   0  0  0  0  0  3  0  0  0  0  0  0
   10.1280    7.8410   10.9030 C   0  0  0  0  0  3  0  0  0  0  0  0
   10.5510    7.4140    9.6370 C   0  0  0  0  0  0  0  0  0  0  0  0
   10.4860    6.2080    8.9660 N   0  0  0  0  0  0  0  0  0  0  0  0
    9.8260    4.9930    9.4370 C   0  0  0  0  0  3  0  0  0  0  0  0
   10.4970    4.4080   10.6890 C   0  0  0  0  0  2  0  0  0  0  0  0
    9.8230    3.1100   11.1290 C   0  0  0  0  0  2  0  0  0  0  0  0
    8.3200    3.2910   11.3180 C   0  0  0  0  0  2  0  0  0  0  0  0
    7.6570    3.8490   10.0610 C   0  0  0  0  0  2  0  0  0  0  0  0
    8.3070    5.1580    9.6160 C   0  0  0  0  0  2  0  0  0  0  0  0
   11.1650   11.5330   10.7680 C   0  0  0  0  0  0  0  0  0  0  0  0
   10.2320   12.3550   10.5040 O   0  0  0  0  0  0  0  0  0  0  0  0
   12.2610   11.8210   11.3480 O   0  0  0  0  0  1  0  0  0  0  0  0
   11.6610    2.6780    3.5380 O   0  0  0  0  0  0  0  0  0  0  0  0
   12.2310    3.3720    2.4210 C   0  0  0  0  0  2  0  0  0  0  0  0
   10.1290    6.4160    1.4680 C   0  0  0  0  0  0  0  0  0  0  0  0
    9.4580    5.9590    0.3300 C   0  0  0  0  0  3  0  0  0  0  0  0
    9.6770    4.6700   -0.1570 C   0  0  0  0  0  3  0  0  0  0  0  0
   10.5750    3.7880    0.4750 C   0  0  0  0  0  0  0  0  0  0  0  0
   11.2220    4.2110    1.6580 C   0  0  0  0  0  0  0  0  0  0  0  0
   10.9940    5.5240    2.1250 C   0  0  0  0  0  3  0  0  0  0  0  0
   10.8170    2.4850   -0.1610 C   0  0  0  0  0  0  0  0  0  0  0  0
   11.8200    2.3430   -1.1330 C   0  0  0  0  0  3  0  0  0  0  0  0
   12.0360    1.1140   -1.7610 C   0  0  0  0  0  3  0  0  0  0  0  0
   11.2490    0.0170   -1.4220 C   0  0  0  0  0  0  0  0  0  0  0  0
   11.5120   -1.4970   -2.1990 Cl  0  0  0  0  0  0  0  0  0  0  0  0
   10.2460    0.1370   -0.4620 C   0  0  0  0  0  3  0  0  0  0  0  0
   10.0300    1.3690    0.1610 C   0  0  0  0  0  3  0  0  0  0  0  0
    9.1460    8.0250    2.9230 O   0  0  0  0  0  1  0  0  0  0  0  0
    9.9520    7.8410    1.9570 C   0  0  0  0  0  0  0  0  0  0  0  0
   10.6410    8.7420    1.3810 O   0  0  0  0  0  0  0  0  0  0  0  0
  1  6  2  0  0  0  0
  1  2  1  0  0  0  0
  2  3  2  0  0  0  0
  3  4  1  0  0  0  0
  4  7  1  0  0  0  0
  5  4  2  0  0  0  0
  6  5  1  0  0  0  0
  7 15  1  0  0  0  0
  8  7  2  0  0  0  0
  8  9  1  0  0  0  0
  9 10  2  0  0  0  0
  9 14  1  0  0  0  0
 10 11  1  0  0  0  0
 11 22  1  0  0  0  0
 11 12  2  0  0  0  0
 13 12  1  0  0  0  0
 14 13  2  0  0  0  0
 15 16  1  0  0  0  0
 15 14  1  0  0  0  0
 16 21  1  0  0  0  0
 16 17  1  0  0  0  0
 17 18  1  0  0  0  0
 18 19  1  0  0  0  0
 20 19  1  0  0  0  0
 21 20  1  0  0  0  0
 22 24  1  0  0  0  0
 23 22  2  0  0  0  0
 25  1  1  0  0  0  0
 26 25  1  0  0  0  0
 27 41  1  0  0  0  0
 27 32  1  0  0  0  0
 28 27  2  0  0  0  0
 29 28  1  0  0  0  0
 29 30  2  0  0  0  0
 30 31  1  0  0  0  0
 31 32  2  0  0  0  0
 31 26  1  0  0  0  0
 33 39  1  0  0  0  0
 33 30  1  0  0  0  0
 34 33  2  0  0  0  0
 35 36  2  0  0  0  0
 35 34  1  0  0  0  0
 36 38  1  0  0  0  0
 37 36  1  0  0  0  0
 38 39  2  0  0  0  0
 41 40  1  0  0  0  0
 42 41  2  0  0  0  0
M  END
>  <minimizedAffinity>
-7.09713364

$$$$

 OpenBabel09122221363D

 42 47  0  0  0  0  0  0  0  0999 V2000
    7.2570    2.3200   13.6770 C   0  0  0  0  0  0  0  0  0  0  0  0
    8.6380    2.5040   13.6830 C   0  0  0  0  0  3  0  0  0  0  0  0
    9.1900    3.6080   13.0270 C   0  0  0  0  0  3  0  0  0  0  0  0
    8.3600    4.5500   12.4000 C   0  0  0  0  0  0  0  0  0  0  0  0
    6.9760    4.3280   12.3740 C   0  0  0  0  0  3  0  0  0  0  0  0
    6.4230    3.2200   13.0210 C   0  0  0  0  0  3  0  0  0  0  0  0
    8.9070    5.7690   11.7960 C   0  0  0  0  0  0  0  0  0  0  0  0
    9.1370    6.8860   12.4600 N   0  0  0  0  0  0  0  0  0  0  0  0
    9.6630    7.7750   11.5560 C   0  0  0  0  0  0  0  0  0  0  0  0
   10.0690    9.1080   11.7430 C   0  0  0  0  0  3  0  0  0  0  0  0
   10.5930    9.8420   10.6590 C   0  0  0  0  0  0  0  0  0  0  0  0
   10.6920    9.2160    9.4060 C   0  0  0  0  0  3  0  0  0  0  0  0
   10.2930    7.8910    9.1990 C   0  0  0  0  0  3  0  0  0  0  0  0
    9.7830    7.1880   10.2990 C   0  0  0  0  0  0  0  0  0  0  0  0
    9.3270    5.8960   10.4780 N   0  0  0  0  0  0  0  0  0  0  0  0
    9.3430    4.8300    9.4790 C   0  0  0  0  0  3  0  0  0  0  0  0
    8.0550    4.7910    8.6410 C   0  0  0  0  0  2  0  0  0  0  0  0
    8.0730    3.6350    7.6430 C   0  0  0  0  0  2  0  0  0  0  0  0
    9.3240    3.6640    6.7690 C   0  0  0  0  0  2  0  0  0  0  0  0
   10.5980    3.6760    7.6100 C   0  0  0  0  0  2  0  0  0  0  0  0
   10.6070    4.8380    8.6030 C   0  0  0  0  0  2  0  0  0  0  0  0
   11.0470   11.2780   10.8360 C   0  0  0  0  0  0  0  0  0  0  0  0
   12.2780   11.4800   11.0830 O   0  0  0  0  0  1  0  0  0  0  0  0
   10.1580   12.1830   10.7220 O   0  0  0  0  0  0  0  0  0  0  0  0
    6.7060    1.3200   14.4230 O   0  0  0  0  0  0  0  0  0  0  0  0
    7.0370    0.0150   13.9310 C   0  0  0  0  0  2  0  0  0  0  0  0
    3.7540   -1.1020   12.3320 C   0  0  0  0  0  0  0  0  0  0  0  0
    4.1380   -1.3180   11.0050 C   0  0  0  0  0  3  0  0  0  0  0  0
    5.4540   -1.0970   10.5990 C   0  0  0  0  0  3  0  0  0  0  0  0
    6.4380   -0.6540   11.5030 C   0  0  0  0  0  0  0  0  0  0  0  0
    6.0830   -0.4830   12.8610 C   0  0  0  0  0  0  0  0  0  0  0  0
    4.7420   -0.7000   13.2460 C   0  0  0  0  0  3  0  0  0  0  0  0
    7.7750   -0.3540   10.9700 C   0  0  0  0  0  0  0  0  0  0  0  0
    8.0750    0.9270   10.4820 C   0  0  0  0  0  3  0  0  0  0  0  0
    9.3350    1.2090    9.9470 C   0  0  0  0  0  3  0  0  0  0  0  0
   10.3040    0.2100    9.8970 C   0  0  0  0  0  0  0  0  0  0  0  0
   11.8550    0.5560    9.2340 Cl  0  0  0  0  0  0  0  0  0  0  0  0
   10.0240   -1.0690   10.3730 C   0  0  0  0  0  3  0  0  0  0  0  0
    8.7620   -1.3490   10.9030 C   0  0  0  0  0  3  0  0  0  0  0  0
    1.7720   -0.2940   13.3780 O   0  0  0  0  0  1  0  0  0  0  0  0
    2.3080   -1.2680   12.7610 C   0  0  0  0  0  0  0  0  0  0  0  0
    1.7320   -2.3580   12.4490 O   0  0  0  0  0  0  0  0  0  0  0  0
  1  2  1  0  0  0  0
  1 25  1  0  0  0  0
  3  2  2  0  0  0  0
  4  3  1  0  0  0  0
  5  4  2  0  0  0  0
  5  6  1  0  0  0  0
  6  1  2  0  0  0  0
  7  4  1  0  0  0  0
  7  8  2  0  0  0  0
  9 10  1  0  0  0  0
  9  8  1  0  0  0  0
 11 22  1  0  0  0  0
 11 10  2  0  0  0  0
 12 11  1  0  0  0  0
 13 12  2  0  0  0  0
 13 14  1  0  0  0  0
 14 15  1  0  0  0  0
 14  9  2  0  0  0  0
 15  7  1  0  0  0  0
 16 15  1  0  0  0  0
 17 16  1  0  0  0  0
 18 17  1  0  0  0  0
 19 20  1  0  0  0  0
 19 18  1  0  0  0  0
 20 21  1  0  0  0  0
 21 16  1  0  0  0  0
 22 23  1  0  0  0  0
 24 22  2  0  0  0  0
 26 25  1  0  0  0  0
 27 41  1  0  0  0  0
 27 32  1  0  0  0  0
 28 27  2  0  0  0  0
 29 28  1  0  0  0  0
 29 30  2  0  0  0  0
 30 31  1  0  0  0  0
 31 32  2  0  0  0  0
 31 26  1  0  0  0  0
 33 30  1  0  0  0  0
 34 33  2  0  0  0  0
 35 34  1  0  0  0  0
 36 35  2  0  0  0  0
 36 38  1  0  0  0  0
 37 36  1  0  0  0  0
 38 39  2  0  0  0  0
 39 33  1  0  0  0  0
 41 40  1  0  0  0  0
 42 41  2  0  0  0  0
M  END
>  <minimizedAffinity>
-7.03442144

$$$$

 OpenBabel09122221363D

 42 47  0  0  0  0  0  0  0  0999 V2000
    5.1170   -0.0440   12.5750 C   0  0  0  0  0  0  0  0  0  0  0  0
    4.4630    0.9400   11.8370 C   0  0  0  0  0  3  0  0  0  0  0  0
    5.0440    2.2040   11.7020 C   0  0  0  0  0  3  0  0  0  0  0  0
    6.2990    2.4720   12.2710 C   0  0  0  0  0  0  0  0  0  0  0  0
    6.9240    1.4810   13.0400 C   0  0  0  0  0  3  0  0  0  0  0  0
    6.3400    0.2200   13.1840 C   0  0  0  0  0  3  0  0  0  0  0  0
    6.9760    3.7550   12.0560 C   0  0  0  0  0  0  0  0  0  0  0  0
    7.0340    4.7210   12.9520 N   0  0  0  0  0  0  0  0  0  0  0  0
    7.7650    5.7350   12.3850 C   0  0  0  0  0  0  0  0  0  0  0  0
    8.1110    6.9920   12.9100 C   0  0  0  0  0  3  0  0  0  0  0  0
    8.8850    7.8870   12.1430 C   0  0  0  0  0  0  0  0  0  0  0  0
    9.2890    7.4960   10.8570 C   0  0  0  0  0  3  0  0  0  0  0  0
    8.9550    6.2490   10.3150 C   0  0  0  0  0  3  0  0  0  0  0  0
    8.1920    5.3820   11.1080 C   0  0  0  0  0  0  0  0  0  0  0  0
    7.7070    4.1000   10.9260 N   0  0  0  0  0  0  0  0  0  0  0  0
    7.9690    3.2340    9.7790 C   0  0  0  0  0  3  0  0  0  0  0  0
    7.7690    3.9570    8.4390 C   0  0  0  0  0  2  0  0  0  0  0  0
    7.9960    3.0170    7.2570 C   0  0  0  0  0  2  0  0  0  0  0  0
    9.3540    2.3260    7.3380 C   0  0  0  0  0  2  0  0  0  0  0  0
    9.5340    1.5890    8.6620 C   0  0  0  0  0  2  0  0  0  0  0  0
    9.3290    2.5190    9.8570 C   0  0  0  0  0  2  0  0  0  0  0  0
    9.2790    9.2450   12.6890 C   0  0  0  0  0  0  0  0  0  0  0  0
    9.7810   10.0840   11.8760 O   0  0  0  0  0  0  0  0  0  0  0  0
    9.0790    9.4490   13.9310 O   0  0  0  0  0  1  0  0  0  0  0  0
    4.6180   -1.3140   12.6000 O   0  0  0  0  0  0  0  0  0  0  0  0
    4.2870   -1.8040   11.2950 C   0  0  0  0  0  2  0  0  0  0  0  0
    7.4480   -3.9330   11.0450 C   0  0  0  0  0  0  0  0  0  0  0  0
    7.5130   -4.1950    9.6740 C   0  0  0  0  0  3  0  0  0  0  0  0
    6.5350   -3.7040    8.8070 C   0  0  0  0  0  3  0  0  0  0  0  0
    5.4590   -2.9290    9.2790 C   0  0  0  0  0  0  0  0  0  0  0  0
    5.4050   -2.6060   10.6540 C   0  0  0  0  0  0  0  0  0  0  0  0
    6.3980   -3.1250   11.5130 C   0  0  0  0  0  3  0  0  0  0  0  0
    4.4240   -2.5330    8.3120 C   0  0  0  0  0  0  0  0  0  0  0  0
    3.7200   -3.5060    7.5850 C   0  0  0  0  0  3  0  0  0  0  0  0
    2.7560   -3.1360    6.6430 C   0  0  0  0  0  3  0  0  0  0  0  0
    2.4900   -1.7870    6.4220 C   0  0  0  0  0  0  0  0  0  0  0  0
    1.3050   -1.3290    5.2590 Cl  0  0  0  0  0  0  0  0  0  0  0  0
    3.1790   -0.8060    7.1310 C   0  0  0  0  0  3  0  0  0  0  0  0
    4.1460   -1.1800    8.0680 C   0  0  0  0  0  3  0  0  0  0  0  0
    8.5240   -5.7970   12.0660 O   0  0  0  0  0  0  0  0  0  0  0  0
    8.4660   -4.5290   12.0010 C   0  0  0  0  0  0  0  0  0  0  0  0
    9.2010   -3.7160   12.6450 O   0  0  0  0  0  1  0  0  0  0  0  0
  1 25  1  0  0  0  0
  1  6  1  0  0  0  0
  2  1  2  0  0  0  0
  3  2  1  0  0  0  0
  3  4  2  0  0  0  0
  4  5  1  0  0  0  0
  5  6  2  0  0  0  0
  7  4  1  0  0  0  0
  7  8  2  0  0  0  0
  9 10  1  0  0  0  0
  9  8  1  0  0  0  0
 11 22  1  0  0  0  0
 11 10  2  0  0  0  0
 12 11  1  0  0  0  0
 13 12  2  0  0  0  0
 13 14  1  0  0  0  0
 14  9  2  0  0  0  0
 15 14  1  0  0  0  0
 15  7  1  0  0  0  0
 16 21  1  0  0  0  0
 16 15  1  0  0  0  0
 17 16  1  0  0  0  0
 18 19  1  0  0  0  0
 18 17  1  0  0  0  0
 19 20  1  0  0  0  0
 20 21  1  0  0  0  0
 22 24  1  0  0  0  0
 23 22  2  0  0  0  0
 26 25  1  0  0  0  0
 27 32  1  0  0  0  0
 27 41  1  0  0  0  0
 28 27  2  0  0  0  0
 29 30  2  0  0  0  0
 29 28  1  0  0  0  0
 30 31  1  0  0  0  0
 31 26  1  0  0  0  0
 31 32  2  0  0  0  0
 33 30  1  0  0  0  0
 34 33  2  0  0  0  0
 35 34  1  0  0  0  0
 36 35  2  0  0  0  0
 36 38  1  0  0  0  0
 37 36  1  0  0  0  0
 38 39  2  0  0  0  0
 39 33  1  0  0  0  0
 41 40  2  0  0  0  0
 41 42  1  0  0  0  0
M  END
>  <minimizedAffinity>
-6.99146891

$$$$
