
 OpenBabel09122222393D

 42 47  0  0  0  0  0  0  0  0999 V2000
    5.5530    1.6450   12.1640 C   0  0  0  0  0  0  0  0  0  0  0  0
    6.3150    0.4810   12.1050 C   0  0  0  0  0  3  0  0  0  0  0  0
    6.0020   -0.5020   11.1620 C   0  0  0  0  0  3  0  0  0  0  0  0
    4.9530   -0.3040   10.2520 C   0  0  0  0  0  0  0  0  0  0  0  0
    4.1750    0.8570   10.3510 C   0  0  0  0  0  3  0  0  0  0  0  0
    4.4800    1.8370   11.3000 C   0  0  0  0  0  3  0  0  0  0  0  0
    4.6710   -1.2730    9.1880 C   0  0  0  0  0  0  0  0  0  0  0  0
    5.3100   -1.3130    8.0340 N   0  0  0  0  0  0  0  0  0  0  0  0
    4.7750   -2.3620    7.3290 C   0  0  0  0  0  0  0  0  0  0  0  0
    5.0900   -2.8290    6.0410 C   0  0  0  0  0  3  0  0  0  0  0  0
    4.4080   -3.9430    5.5090 C   0  0  0  0  0  0  0  0  0  0  0  0
    3.4160   -4.5600    6.2880 C   0  0  0  0  0  3  0  0  0  0  0  0
    3.0870   -4.1100    7.5720 C   0  0  0  0  0  3  0  0  0  0  0  0
    3.7900   -3.0060    8.0720 C   0  0  0  0  0  0  0  0  0  0  0  0
    3.7590   -2.3170    9.2710 N   0  0  0  0  0  0  0  0  0  0  0  0
    2.9590   -2.6640   10.4430 C   0  0  0  0  0  3  0  0  0  0  0  0
    1.5700   -3.2020   10.0680 C   0  0  0  0  0  2  0  0  0  0  0  0
    0.7340   -3.5040   11.3110 C   0  0  0  0  0  2  0  0  0  0  0  0
    1.4690   -4.4350   12.2720 C   0  0  0  0  0  2  0  0  0  0  0  0
    2.8370   -3.8800   12.6590 C   0  0  0  0  0  2  0  0  0  0  0  0
    3.6950   -3.5880   11.4280 C   0  0  0  0  0  2  0  0  0  0  0  0
    4.7350   -4.4720    4.1260 C   0  0  0  0  0  0  0  0  0  0  0  0
    4.5030   -3.7100    3.1350 O   0  0  0  0  0  0  0  0  0  0  0  0
    5.2210   -5.6470    4.0570 O   0  0  0  0  0  1  0  0  0  0  0  0
    5.9340    2.6610   12.9920 O   0  0  0  0  0  0  0  0  0  0  0  0
    7.3440    2.9150   12.9430 C   0  0  0  0  0  2  0  0  0  0  0  0
    8.0100    6.5720   12.0660 C   0  0  0  0  0  0  0  0  0  0  0  0
    8.4270    6.4790   10.7350 C   0  0  0  0  0  3  0  0  0  0  0  0
    8.5130    5.2390   10.1000 C   0  0  0  0  0  3  0  0  0  0  0  0
    8.1840    4.0460   10.7710 C   0  0  0  0  0  0  0  0  0  0  0  0
    7.7070    4.1230   12.0990 C   0  0  0  0  0  0  0  0  0  0  0  0
    7.6410    5.3880   12.7250 C   0  0  0  0  0  3  0  0  0  0  0  0
    8.3950    2.7780   10.0570 C   0  0  0  0  0  0  0  0  0  0  0  0
    7.5620    2.4170    8.9860 C   0  0  0  0  0  3  0  0  0  0  0  0
    7.7400    1.1990    8.3230 C   0  0  0  0  0  3  0  0  0  0  0  0
    8.7530    0.3340    8.7280 C   0  0  0  0  0  0  0  0  0  0  0  0
    8.9700   -1.1680    7.9130 Cl  0  0  0  0  0  0  0  0  0  0  0  0
    9.5890    0.6730    9.7900 C   0  0  0  0  0  3  0  0  0  0  0  0
    9.4050    1.8890   10.4540 C   0  0  0  0  0  3  0  0  0  0  0  0
    7.1020    8.0700   13.6800 O   0  0  0  0  0  1  0  0  0  0  0  0
    7.9880    7.9090   12.7830 C   0  0  0  0  0  0  0  0  0  0  0  0
    8.8750    8.7590   12.4520 O   0  0  0  0  0  0  0  0  0  0  0  0
  1 25  1  0  0  0  0
  2  1  1  0  0  0  0
  3  2  2  0  0  0  0
  4  5  2  0  0  0  0
  4  3  1  0  0  0  0
  5  6  1  0  0  0  0
  6  1  2  0  0  0  0
  7 15  1  0  0  0  0
  7  4  1  0  0  0  0
  8  7  2  0  0  0  0
  9  8  1  0  0  0  0
  9 14  1  0  0  0  0
 10  9  2  0  0  0  0
 11 10  1  0  0  0  0
 11 12  2  0  0  0  0
 12 13  1  0  0  0  0
 13 14  2  0  0  0  0
 14 15  1  0  0  0  0
 15 16  1  0  0  0  0
 16 21  1  0  0  0  0
 17 16  1  0  0  0  0
 17 18  1  0  0  0  0
 18 19  1  0  0  0  0
 19 20  1  0  0  0  0
 21 20  1  0  0  0  0
 22 11  1  0  0  0  0
 23 22  2  0  0  0  0
 24 22  1  0  0  0  0
 26 25  1  0  0  0  0
 27 32  1  0  0  0  0
 27 41  1  0  0  0  0
 28 27  2  0  0  0  0
 29 28  1  0  0  0  0
 29 30  2  0  0  0  0
 30 31  1  0  0  0  0
 31 32  2  0  0  0  0
 31 26  1  0  0  0  0
 33 39  1  0  0  0  0
 33 30  1  0  0  0  0
 34 33  2  0  0  0  0
 35 36  2  0  0  0  0
 35 34  1  0  0  0  0
 36 38  1  0  0  0  0
 37 36  1  0  0  0  0
 38 39  2  0  0  0  0
 41 40  1  0  0  0  0
 42 41  2  0  0  0  0
M  END
>  <minimizedAffinity>
-7.97319317

$$$$
