
 OpenBabel09122222393D

 42 47  0  0  0  0  0  0  0  0999 V2000
    9.5850    4.9730    9.6400 C   0  0  0  0  0  0  0  0  0  0  0  0
    8.3070    5.0210    9.0860 C   0  0  0  0  0  3  0  0  0  0  0  0
    7.4030    3.9870    9.3460 C   0  0  0  0  0  3  0  0  0  0  0  0
    7.7610    2.9260   10.1920 C   0  0  0  0  0  0  0  0  0  0  0  0
    9.0630    2.8770   10.7090 C   0  0  0  0  0  3  0  0  0  0  0  0
    9.9720    3.9040   10.4430 C   0  0  0  0  0  3  0  0  0  0  0  0
    6.7970    1.8860   10.5620 C   0  0  0  0  0  0  0  0  0  0  0  0
    5.7280    2.0970   11.3060 N   0  0  0  0  0  0  0  0  0  0  0  0
    5.0780    0.8920   11.4060 C   0  0  0  0  0  0  0  0  0  0  0  0
    3.8970    0.5650   12.0940 C   0  0  0  0  0  3  0  0  0  0  0  0
    3.4020   -0.7550   12.0560 C   0  0  0  0  0  0  0  0  0  0  0  0
    4.1130   -1.7200   11.3250 C   0  0  0  0  0  3  0  0  0  0  0  0
    5.2910   -1.4150   10.6330 C   0  0  0  0  0  3  0  0  0  0  0  0
    5.7510   -0.0930   10.6880 C   0  0  0  0  0  0  0  0  0  0  0  0
    6.8290    0.5660   10.1270 N   0  0  0  0  0  0  0  0  0  0  0  0
    7.7950   -0.0020    9.1900 C   0  0  0  0  0  3  0  0  0  0  0  0
    8.7880   -0.9540    9.8760 C   0  0  0  0  0  2  0  0  0  0  0  0
    9.8200   -1.4920    8.8870 C   0  0  0  0  0  2  0  0  0  0  0  0
    9.1570   -2.1340    7.6720 C   0  0  0  0  0  2  0  0  0  0  0  0
    8.1920   -1.1730    6.9830 C   0  0  0  0  0  2  0  0  0  0  0  0
    7.1400   -0.6380    7.9530 C   0  0  0  0  0  2  0  0  0  0  0  0
    2.1250   -1.1310   12.7810 C   0  0  0  0  0  0  0  0  0  0  0  0
    1.6030   -2.2580   12.5090 O   0  0  0  0  0  0  0  0  0  0  0  0
    1.6640   -0.2860   13.6160 O   0  0  0  0  0  1  0  0  0  0  0  0
   10.4240    6.0390    9.4970 O   0  0  0  0  0  0  0  0  0  0  0  0
   11.0840    6.3920   10.7190 C   0  0  0  0  0  2  0  0  0  0  0  0
   10.4960   10.1230   11.2860 C   0  0  0  0  0  0  0  0  0  0  0  0
    9.5680   10.1140   12.3310 C   0  0  0  0  0  3  0  0  0  0  0  0
    9.1060    8.9090   12.8630 C   0  0  0  0  0  3  0  0  0  0  0  0
    9.5560    7.6690   12.3730 C   0  0  0  0  0  0  0  0  0  0  0  0
   10.5350    7.6560   11.3540 C   0  0  0  0  0  0  0  0  0  0  0  0
   10.9780    8.8870   10.8210 C   0  0  0  0  0  3  0  0  0  0  0  0
    8.9450    6.4510   12.9260 C   0  0  0  0  0  0  0  0  0  0  0  0
    9.6980    5.5790   13.7280 C   0  0  0  0  0  3  0  0  0  0  0  0
    9.1310    4.4050   14.2320 C   0  0  0  0  0  3  0  0  0  0  0  0
    7.8060    4.0960   13.9370 C   0  0  0  0  0  0  0  0  0  0  0  0
    7.1080    2.6480   14.5550 Cl  0  0  0  0  0  0  0  0  0  0  0  0
    7.0430    4.9470   13.1410 C   0  0  0  0  0  3  0  0  0  0  0  0
    7.6140    6.1170   12.6340 C   0  0  0  0  0  3  0  0  0  0  0  0
   10.0750   12.3510   10.5570 O   0  0  0  0  0  1  0  0  0  0  0  0
   10.9430   11.4280   10.6530 C   0  0  0  0  0  0  0  0  0  0  0  0
   12.1590   11.5080   10.2890 O   0  0  0  0  0  0  0  0  0  0  0  0
  1  6  1  0  0  0  0
  2  3  1  0  0  0  0
  2  1  2  0  0  0  0
  3  4  2  0  0  0  0
  4  7  1  0  0  0  0
  4  5  1  0  0  0  0
  6  5  2  0  0  0  0
  7  8  2  0  0  0  0
  8  9  1  0  0  0  0
  9 10  1  0  0  0  0
 11 10  2  0  0  0  0
 11 22  1  0  0  0  0
 12 11  1  0  0  0  0
 13 14  1  0  0  0  0
 13 12  2  0  0  0  0
 14  9  2  0  0  0  0
 15  7  1  0  0  0  0
 15 14  1  0  0  0  0
 16 17  1  0  0  0  0
 16 15  1  0  0  0  0
 18 17  1  0  0  0  0
 19 18  1  0  0  0  0
 20 19  1  0  0  0  0
 20 21  1  0  0  0  0
 21 16  1  0  0  0  0
 22 24  1  0  0  0  0
 23 22  2  0  0  0  0
 25  1  1  0  0  0  0
 25 26  1  0  0  0  0
 26 31  1  0  0  0  0
 27 28  1  0  0  0  0
 28 29  2  0  0  0  0
 30 29  1  0  0  0  0
 30 33  1  0  0  0  0
 31 30  2  0  0  0  0
 32 27  2  0  0  0  0
 32 31  1  0  0  0  0
 33 34  1  0  0  0  0
 34 35  2  0  0  0  0
 36 35  1  0  0  0  0
 36 37  1  0  0  0  0
 38 36  2  0  0  0  0
 39 33  2  0  0  0  0
 39 38  1  0  0  0  0
 40 41  1  0  0  0  0
 41 27  1  0  0  0  0
 42 41  2  0  0  0  0
M  END
>  <minimizedAffinity>
-7.84001541

$$$$
