REMARK  Name = 
REMARK  12 active torsions:
REMARK  status: ('A' for Active; 'I' for Inactive)
REMARK    1  A    between atoms: C_1  and  C_2
REMARK    2  A    between atoms: C_2  and  C_3
REMARK    3  A    between atoms: C_2  and  C_4
REMARK    4  A    between atoms: C_2  and  C_5
REMARK    5  A    between atoms: C_5  and  C_6
REMARK    6  A    between atoms: C_6  and  N_7
REMARK    7  A    between atoms: C_10  and  C_11
REMARK    8  A    between atoms: C_23  and  O_24
REMARK    9  A    between atoms: C_27  and  N_28
REMARK   10  A    between atoms: N_28  and  C_29
REMARK   11  A    between atoms: C_29  and  C_30
REMARK   12  A    between atoms: C_30  and  O_31
REMARK                            x       y       z     vdW  Elec       q    Type
REMARK                         _______ _______ _______ _____ _____    ______ ____
ROOT
ATOM      1  N   UNL     1      -0.753   0.887   1.259  0.00  0.00    -0.307 N 
ATOM      2  C   UNL     1       0.443   1.343   1.807  0.00  0.00    +0.270 A 
ATOM      3  O   UNL     1       0.800   2.523   1.741  0.00  0.00    -0.267 OA
ATOM      4  C   UNL     1       1.330   0.377   2.526  0.00  0.00    +0.169 A 
ATOM      5  C   UNL     1       0.913  -0.892   2.680  0.00  0.00    +0.146 A 
ATOM      6  C   UNL     1      -0.346  -1.378   2.089  0.00  0.00    +0.043 A 
ATOM      7  C   UNL     1      -0.705  -2.747   2.143  0.00  0.00    +0.036 A 
ATOM      8  C   UNL     1      -1.913  -3.224   1.631  0.00  0.00    +0.028 A 
ATOM      9  C   UNL     1      -2.770  -2.288   1.060  0.00  0.00    +0.025 A 
ATOM     10  C   UNL     1      -2.415  -0.938   0.950  0.00  0.00    +0.028 A 
ATOM     11  C   UNL     1      -1.189  -0.466   1.432  0.00  0.00    +0.056 A 
ENDROOT
BRANCH   4  12
ATOM     12  C   UNL     1       2.651   0.874   3.072  0.00  0.00    +0.308 C 
ATOM     13  N   UNL     1       3.447   0.035   3.687  0.00  0.00    -0.131 N 
ATOM     14  S   UNL     1       4.877   0.372   4.330  0.00  0.00    +0.141 S 
ATOM     15  O   UNL     1       4.783   0.246   5.771  0.00  0.00    -0.129 OA
ATOM     16  O   UNL     1       5.898  -0.370   3.616  0.00  0.00    -0.129 OA
ATOM     17  C   UNL     1       5.198   2.072   4.010  0.00  0.00    +0.175 A 
ATOM     18  C   UNL     1       6.404   2.640   4.435  0.00  0.00    +0.035 A 
ATOM     19  C   UNL     1       6.648   3.986   4.176  0.00  0.00    +0.002 A 
ATOM     20  C   UNL     1       5.692   4.744   3.502  0.00  0.00    +0.004 A 
ATOM     21  C   UNL     1       4.492   4.159   3.084  0.00  0.00    +0.051 A 
ATOM     22  C   UNL     1       4.233   2.809   3.336  0.00  0.00    +0.147 A 
ATOM     23  N   UNL     1       3.048   2.219   2.916  0.00  0.00    -0.200 N 
ATOM     24  H   UNL     1       3.136  -0.922   3.768  0.00  0.00    +0.339 HD
ATOM     25  H   UNL     1       2.368   2.814   2.429  0.00  0.00    +0.298 HD
ENDBRANCH   4  12
BRANCH   5  26
ATOM     26  O   UNL     1       1.651  -1.778   3.460  0.00  0.00    -0.505 OA
ATOM     27  H   UNL     1       1.022  -2.378   3.908  0.00  0.00    +0.292 HD
ENDBRANCH   5  26
BRANCH   8  28
ATOM     28  N   UNL     1      -2.317  -4.539   1.701  0.00  0.00    -0.342 N 
ATOM     29  H   UNL     1      -3.147  -4.802   1.175  0.00  0.00    +0.146 HD
BRANCH  28  30
ATOM     30  C   UNL     1      -1.566  -5.654   2.275  0.00  0.00    +0.129 C 
BRANCH  30  31
ATOM     31  C   UNL     1      -1.680  -5.665   3.803  0.00  0.00    +0.174 C 
BRANCH  31  32
ATOM     32  O   UNL     1      -3.047  -5.589   4.197  0.00  0.00    -0.393 OA
ATOM     33  H   UNL     1      -3.426  -4.868   3.658  0.00  0.00    +0.209 HD
ENDBRANCH  31  32
ENDBRANCH  30  31
ENDBRANCH  28  30
ENDBRANCH   8  28
BRANCH   1  34
ATOM     34  C   UNL     1      -1.565   1.881   0.543  0.00  0.00    +0.126 C 
BRANCH  34  35
ATOM     35  C   UNL     1      -0.945   2.454  -0.750  0.00  0.00    +0.028 C 
BRANCH  35  37
ATOM     36  C   UNL     1       0.130   0.387  -1.820  0.00  0.00    +0.010 C 
ATOM     37  C   UNL     1      -0.845   1.558  -2.014  0.00  0.00    -0.036 C 
ATOM     38  C   UNL     1      -0.301   2.436  -3.164  0.00  0.00    +0.010 C 
ATOM     39  C   UNL     1      -2.221   1.022  -2.436  0.00  0.00    +0.010 C 
ENDBRANCH  35  37
ENDBRANCH  34  35
ENDBRANCH   1  34
TORSDOF 9
