
 OpenBabel09132204463D

 39 42  0  0  1  0  0  0  0  0999 V2000
    3.0630   -5.4860    7.5030 N   0  0  0  0  0  0  0  0  0  0  0  0
    3.6360   -5.8530    6.2890 C   0  0  0  0  0  0  0  0  0  0  0  0
    4.6980   -5.3740    5.8810 O   0  0  0  0  0  0  0  0  0  0  0  0
    2.9570   -6.8840    5.4450 C   0  0  0  0  0  0  0  0  0  0  0  0
    1.8460   -7.4760    5.9170 C   0  0  0  0  0  0  0  0  0  0  0  0
    1.2310   -7.0780    7.1950 C   0  0  0  0  0  0  0  0  0  0  0  0
   -0.0110   -7.6130    7.6130 C   0  0  0  0  0  3  0  0  0  0  0  0
   -0.5910   -7.2870    8.8410 C   0  0  0  0  0  0  0  0  0  0  0  0
    0.1120   -6.4050    9.6560 C   0  0  0  0  0  3  0  0  0  0  0  0
    1.3170   -5.8250    9.2430 C   0  0  0  0  0  3  0  0  0  0  0  0
    1.8800   -6.1250    7.9980 C   0  0  0  0  0  0  0  0  0  0  0  0
    3.5630   -7.2360    4.1040 C   0  0  1  0  0  3  0  0  0  0  0  0
    3.7500   -8.4960    3.7960 N   0  0  0  0  0  0  0  0  0  0  0  0
    4.3760   -9.0630    2.4320 S   0  0  0  0  0  0  0  0  0  0  0  0
    5.6590   -9.6720    2.7240 O   0  0  0  0  0  0  0  0  0  0  0  0
    3.3640   -9.8340    1.7380 O   0  0  0  0  0  0  0  0  0  0  0  0
    4.7180   -7.6750    1.4060 C   0  0  0  0  0  0  0  0  0  0  0  0
    5.2480   -7.8750    0.1270 C   0  0  0  0  0  3  0  0  0  0  0  0
    5.5150   -6.7700   -0.6770 C   0  0  0  0  0  3  0  0  0  0  0  0
    5.2530   -5.4870   -0.1970 C   0  0  0  0  0  3  0  0  0  0  0  0
    4.7220   -5.3070    1.0850 C   0  0  0  0  0  3  0  0  0  0  0  0
    4.4490   -6.4060    1.9030 C   0  0  0  0  0  0  0  0  0  0  0  0
    3.9140   -6.2350    3.1730 N   0  0  0  0  0  0  0  0  0  0  0  0
    3.4750   -9.1850    4.4800 H   0  0  0  0  0  0  0  0  0  0  0  0
    3.7420   -5.2740    3.4900 H   0  0  0  0  0  0  0  0  0  0  0  0
    1.2690   -8.5330    5.2180 O   0  0  0  0  0  0  0  0  0  0  0  0
    0.8960   -9.1560    5.8730 H   0  0  0  0  0  0  0  0  0  0  0  0
   -1.7760   -7.8170    9.3020 N   0  0  0  0  0  0  0  0  0  0  0  0
   -2.0130   -7.6560   10.2780 H   0  0  0  0  0  0  0  0  0  0  0  0
   -2.8420   -8.4070    8.4930 C   0  0  0  0  0  2  0  0  0  0  0  0
   -3.9340   -7.3770    8.1880 C   0  0  0  0  0  2  0  0  0  0  0  0
   -3.7300   -6.8070    6.8990 O   0  0  0  0  0  0  0  0  0  0  0  0
   -2.7820   -6.5740    6.8730 H   0  0  0  0  0  0  0  0  0  0  0  0
    3.7660   -4.4480    8.2710 C   0  0  0  0  0  2  0  0  0  0  0  0
    3.1420   -3.0360    8.2270 C   0  0  0  0  0  2  0  0  0  0  0  0
    5.1040   -2.0690    6.8900 C   0  0  0  0  0  1  0  0  0  0  0  0
    3.5860   -2.0360    7.1260 C   0  0  0  0  0  0  0  0  0  0  0  0
    3.2180   -0.6160    7.6120 C   0  0  0  0  0  1  0  0  0  0  0  0
    2.8500   -2.2910    5.8020 C   0  0  0  0  0  1  0  0  0  0  0  0
  1 11  1  0  0  0  0
  1 34  1  0  0  0  0
  2  1  1  0  0  0  0
  3  2  2  0  0  0  0
  4  5  2  0  0  0  0
  4  2  1  0  0  0  0
  5  6  1  0  0  0  0
  6  7  2  0  0  0  0
  6 11  1  0  0  0  0
  7  8  1  0  0  0  0
  8 28  1  0  0  0  0
  8  9  2  0  0  0  0
 10  9  1  0  0  0  0
 11 10  2  0  0  0  0
 12  4  1  6  0  0  0
 13 12  1  0  0  0  0
 13 24  1  0  0  0  0
 14 15  2  0  0  0  0
 14 13  1  0  0  0  0
 16 14  2  0  0  0  0
 17 22  1  0  0  0  0
 17 14  1  0  0  0  0
 18 17  2  0  0  0  0
 19 20  2  0  0  0  0
 19 18  1  0  0  0  0
 20 21  1  0  0  0  0
 21 22  2  0  0  0  0
 22 23  1  0  0  0  0
 23 25  1  0  0  0  0
 23 12  1  0  0  0  0
 26 27  1  0  0  0  0
 26  5  1  0  0  0  0
 28 29  1  0  0  0  0
 30 28  1  0  0  0  0
 31 30  1  0  0  0  0
 32 31  1  0  0  0  0
 33 32  1  0  0  0  0
 35 34  1  0  0  0  0
 36 37  1  0  0  0  0
 37 38  1  0  0  0  0
 37 35  1  0  0  0  0
 39 37  1  0  0  0  0
M  END
>  <minimizedAffinity>
-7.58451843

$$$$
