
 OpenBabel09132204463D

 39 42  0  0  1  0  0  0  0  0999 V2000
    3.5400   -5.7310    6.2910 N   0  0  0  0  0  0  0  0  0  0  0  0
    4.2470   -5.6250    5.0970 C   0  0  0  0  0  0  0  0  0  0  0  0
    5.1480   -4.7980    4.9260 O   0  0  0  0  0  0  0  0  0  0  0  0
    3.9260   -6.5590    3.9740 C   0  0  0  0  0  0  0  0  0  0  0  0
    3.0070   -7.5200    4.1750 C   0  0  0  0  0  0  0  0  0  0  0  0
    2.2490   -7.6240    5.4340 C   0  0  0  0  0  0  0  0  0  0  0  0
    1.1900   -8.5540    5.5820 C   0  0  0  0  0  3  0  0  0  0  0  0
    0.4880   -8.7030    6.7790 C   0  0  0  0  0  0  0  0  0  0  0  0
    0.8750   -7.8940    7.8430 C   0  0  0  0  0  3  0  0  0  0  0  0
    1.8850   -6.9340    7.7060 C   0  0  0  0  0  3  0  0  0  0  0  0
    2.5650   -6.7600    6.4960 C   0  0  0  0  0  0  0  0  0  0  0  0
    4.6670   -6.4000    2.6640 C   0  0  1  0  0  3  0  0  0  0  0  0
    4.1700   -6.9360    1.5770 N   0  0  0  0  0  0  0  0  0  0  0  0
    4.8050   -6.8760    0.1060 S   0  0  0  0  0  0  0  0  0  0  0  0
    5.2290   -8.2090   -0.2750 O   0  0  0  0  0  0  0  0  0  0  0  0
    3.9070   -6.1400   -0.7630 O   0  0  0  0  0  0  0  0  0  0  0  0
    6.2720   -5.9120    0.2170 C   0  0  0  0  0  0  0  0  0  0  0  0
    7.0260   -5.6640   -0.9350 C   0  0  0  0  0  3  0  0  0  0  0  0
    8.1850   -4.8990   -0.8360 C   0  0  0  0  0  3  0  0  0  0  0  0
    8.5760   -4.3960    0.4040 C   0  0  0  0  0  3  0  0  0  0  0  0
    7.8100   -4.6530    1.5450 C   0  0  0  0  0  3  0  0  0  0  0  0
    6.6440   -5.4190    1.4610 C   0  0  0  0  0  0  0  0  0  0  0  0
    5.8730   -5.6710    2.5890 N   0  0  0  0  0  0  0  0  0  0  0  0
    3.2990   -7.4380    1.6670 H   0  0  0  0  0  0  0  0  0  0  0  0
    6.1990   -5.2870    3.4830 H   0  0  0  0  0  0  0  0  0  0  0  0
    2.7850   -8.4870    3.1990 O   0  0  0  0  0  0  0  0  0  0  0  0
    2.5740   -9.3270    3.6530 H   0  0  0  0  0  0  0  0  0  0  0  0
   -0.5190   -9.6230    6.9750 N   0  0  0  0  0  0  0  0  0  0  0  0
   -0.3630  -10.3440    7.6750 H   0  0  0  0  0  0  0  0  0  0  0  0
   -1.8790   -9.5560    6.4430 C   0  0  0  0  0  2  0  0  0  0  0  0
   -2.4450   -8.1370    6.5590 C   0  0  0  0  0  2  0  0  0  0  0  0
   -3.8240   -8.1250    6.1990 O   0  0  0  0  0  0  0  0  0  0  0  0
   -3.8720   -8.6320    5.3650 H   0  0  0  0  0  0  0  0  0  0  0  0
    3.8860   -4.7660    7.3440 C   0  0  0  0  0  2  0  0  0  0  0  0
    2.8500   -3.6500    7.6040 C   0  0  0  0  0  2  0  0  0  0  0  0
    2.4150   -2.4570    5.3770 C   0  0  0  0  0  1  0  0  0  0  0  0
    2.9440   -2.3180    6.8120 C   0  0  0  0  0  0  0  0  0  0  0  0
    4.4390   -1.9330    6.7260 C   0  0  0  0  0  1  0  0  0  0  0  0
    2.2020   -1.1810    7.5300 C   0  0  0  0  0  1  0  0  0  0  0  0
  1 11  1  0  0  0  0
  1 34  1  0  0  0  0
  2  1  1  0  0  0  0
  3  2  2  0  0  0  0
  4  5  2  0  0  0  0
  4  2  1  0  0  0  0
  5  6  1  0  0  0  0
  6  7  2  0  0  0  0
  6 11  1  0  0  0  0
  7  8  1  0  0  0  0
  8 28  1  0  0  0  0
  8  9  2  0  0  0  0
 10  9  1  0  0  0  0
 11 10  2  0  0  0  0
 12  4  1  6  0  0  0
 13 24  1  0  0  0  0
 13 12  1  0  0  0  0
 14 17  1  0  0  0  0
 14 13  1  0  0  0  0
 15 14  2  0  0  0  0
 16 14  2  0  0  0  0
 17 22  1  0  0  0  0
 18 19  1  0  0  0  0
 18 17  2  0  0  0  0
 19 20  2  0  0  0  0
 20 21  1  0  0  0  0
 22 21  2  0  0  0  0
 22 23  1  0  0  0  0
 23 12  1  0  0  0  0
 23 25  1  0  0  0  0
 26 27  1  0  0  0  0
 26  5  1  0  0  0  0
 28 29  1  0  0  0  0
 30 31  1  0  0  0  0
 30 28  1  0  0  0  0
 32 31  1  0  0  0  0
 33 32  1  0  0  0  0
 34 35  1  0  0  0  0
 36 37  1  0  0  0  0
 37 39  1  0  0  0  0
 37 35  1  0  0  0  0
 38 37  1  0  0  0  0
M  END
>  <minimizedAffinity>
-7.38902426

$$$$
