
 OpenBabel09132204463D

 39 42  0  0  1  0  0  0  0  0999 V2000
    6.0170   -5.2400    2.0480 N   0  0  0  0  0  0  0  0  0  0  0  0
    5.5350   -4.8540    3.2960 C   0  0  0  0  0  0  0  0  0  0  0  0
    4.5320   -5.3590    3.8090 O   0  0  0  0  0  0  0  0  0  0  0  0
    6.2660   -3.8000    4.0650 C   0  0  0  0  0  0  0  0  0  0  0  0
    7.4080   -3.3040    3.5560 C   0  0  0  0  0  0  0  0  0  0  0  0
    7.9110   -3.7030    2.2300 C   0  0  0  0  0  0  0  0  0  0  0  0
    9.0380   -3.0720    1.6490 C   0  0  0  0  0  3  0  0  0  0  0  0
    9.5610   -3.4630    0.4150 C   0  0  0  0  0  0  0  0  0  0  0  0
    8.9260   -4.5180   -0.2330 C   0  0  0  0  0  3  0  0  0  0  0  0
    7.7800   -5.1230    0.2970 C   0  0  0  0  0  3  0  0  0  0  0  0
    7.2360   -4.7080    1.5170 C   0  0  0  0  0  0  0  0  0  0  0  0
    5.7040   -3.3520    5.3960 C   0  0  1  0  0  3  0  0  0  0  0  0
    6.4010   -3.5530    6.4870 N   0  0  0  0  0  0  0  0  0  0  0  0
    5.9740   -3.1520    7.9800 S   0  0  0  0  0  0  0  0  0  0  0  0
    5.7480   -4.3640    8.7430 O   0  0  0  0  0  0  0  0  0  0  0  0
    6.9030   -2.1580    8.4820 O   0  0  0  0  0  0  0  0  0  0  0  0
    4.4130   -2.3470    7.8720 C   0  0  0  0  0  0  0  0  0  0  0  0
    3.8060   -1.8560    9.0330 C   0  0  0  0  0  3  0  0  0  0  0  0
    2.5710   -1.2210    8.9350 C   0  0  0  0  0  3  0  0  0  0  0  0
    1.9610   -1.0850    7.6900 C   0  0  0  0  0  3  0  0  0  0  0  0
    2.5830   -1.5820    6.5390 C   0  0  0  0  0  3  0  0  0  0  0  0
    3.8230   -2.2210    6.6210 C   0  0  0  0  0  0  0  0  0  0  0  0
    4.4510   -2.7090    5.4820 N   0  0  0  0  0  0  0  0  0  0  0  0
    7.2980   -4.0040    6.3850 H   0  0  0  0  0  0  0  0  0  0  0  0
    3.9640   -2.5940    4.5860 H   0  0  0  0  0  0  0  0  0  0  0  0
    8.1810   -2.4240    4.3080 O   0  0  0  0  0  0  0  0  0  0  0  0
    9.1200   -2.5970    4.0990 H   0  0  0  0  0  0  0  0  0  0  0  0
   10.6790   -2.9040   -0.1630 N   0  0  0  0  0  0  0  0  0  0  0  0
   11.5770   -3.3360    0.0420 H   0  0  0  0  0  0  0  0  0  0  0  0
   10.7040   -1.8870   -1.2130 C   0  0  0  0  0  2  0  0  0  0  0  0
   10.3830   -0.5010   -0.6440 C   0  0  0  0  0  2  0  0  0  0  0  0
   10.0380    0.3970   -1.6940 O   0  0  0  0  0  0  0  0  0  0  0  0
   10.7270    0.2670   -2.3750 H   0  0  0  0  0  0  0  0  0  0  0  0
    5.2370   -6.2610    1.3330 C   0  0  0  0  0  2  0  0  0  0  0  0
    5.6850   -7.7240    1.5460 C   0  0  0  0  0  2  0  0  0  0  0  0
    3.5950   -8.1080    2.9810 C   0  0  0  0  0  1  0  0  0  0  0  0
    4.6720   -8.7610    2.1030 C   0  0  0  0  0  0  0  0  0  0  0  0
    5.4620   -9.7520    2.9880 C   0  0  0  0  0  1  0  0  0  0  0  0
    4.0060   -9.5610    0.9730 C   0  0  0  0  0  1  0  0  0  0  0  0
  1  2  1  0  0  0  0
  2  3  2  0  0  0  0
  2  4  1  0  0  0  0
  5  4  2  0  0  0  0
  5 26  1  0  0  0  0
  6  5  1  0  0  0  0
  7  6  1  0  0  0  0
  8  7  2  0  0  0  0
  9 10  2  0  0  0  0
  9  8  1  0  0  0  0
 10 11  1  0  0  0  0
 11  1  1  0  0  0  0
 11  6  2  0  0  0  0
 12  4  1  6  0  0  0
 12 23  1  0  0  0  0
 12 13  1  0  0  0  0
 13 14  1  0  0  0  0
 14 16  2  0  0  0  0
 14 15  2  0  0  0  0
 17 14  1  0  0  0  0
 17 18  1  0  0  0  0
 19 18  2  0  0  0  0
 20 19  1  0  0  0  0
 21 22  1  0  0  0  0
 21 20  2  0  0  0  0
 22 17  2  0  0  0  0
 23 22  1  0  0  0  0
 24 13  1  0  0  0  0
 25 23  1  0  0  0  0
 27 26  1  0  0  0  0
 28 29  1  0  0  0  0
 28  8  1  0  0  0  0
 30 31  1  0  0  0  0
 30 28  1  0  0  0  0
 32 31  1  0  0  0  0
 33 32  1  0  0  0  0
 34 35  1  0  0  0  0
 34  1  1  0  0  0  0
 35 37  1  0  0  0  0
 37 36  1  0  0  0  0
 37 38  1  0  0  0  0
 39 37  1  0  0  0  0
M  END
>  <minimizedAffinity>
-7.85607004

$$$$
