
 OpenBabel09132204463D

 39 42  0  0  1  0  0  0  0  0999 V2000
    3.2120   -6.2710    6.4770 N   0  0  0  0  0  0  0  0  0  0  0  0
    3.8260   -6.3980    5.2340 C   0  0  0  0  0  0  0  0  0  0  0  0
    4.0440   -7.4920    4.7060 O   0  0  0  0  0  0  0  0  0  0  0  0
    4.2230   -5.1630    4.4880 C   0  0  0  0  0  0  0  0  0  0  0  0
    3.9140   -3.9640    5.0120 C   0  0  0  0  0  0  0  0  0  0  0  0
    3.2760   -3.8300    6.3330 C   0  0  0  0  0  0  0  0  0  0  0  0
    3.0800   -2.5610    6.9310 C   0  0  0  0  0  3  0  0  0  0  0  0
    2.4380   -2.4040    8.1600 C   0  0  0  0  0  0  0  0  0  0  0  0
    1.9830   -3.5610    8.7860 C   0  0  0  0  0  3  0  0  0  0  0  0
    2.2090   -4.8300    8.2390 C   0  0  0  0  0  3  0  0  0  0  0  0
    2.8840   -4.9890    7.0230 C   0  0  0  0  0  0  0  0  0  0  0  0
    4.9360   -5.3160    3.1620 C   0  0  1  0  0  3  0  0  0  0  0  0
    4.3800   -6.0250    2.2120 N   0  0  0  0  0  0  0  0  0  0  0  0
    4.9780   -6.3010    0.7500 S   0  0  0  0  0  0  0  0  0  0  0  0
    5.3130   -7.7070    0.6390 O   0  0  0  0  0  0  0  0  0  0  0  0
    4.1020   -5.6980   -0.2360 O   0  0  0  0  0  0  0  0  0  0  0  0
    6.5020   -5.4270    0.6440 C   0  0  0  0  0  0  0  0  0  0  0  0
    7.2380   -5.4620   -0.5450 C   0  0  0  0  0  3  0  0  0  0  0  0
    8.4420   -4.7670   -0.6180 C   0  0  0  0  0  3  0  0  0  0  0  0
    8.8950   -4.0520    0.4890 C   0  0  0  0  0  3  0  0  0  0  0  0
    8.1450   -4.0280    1.6700 C   0  0  0  0  0  3  0  0  0  0  0  0
    6.9340   -4.7200    1.7580 C   0  0  0  0  0  0  0  0  0  0  0  0
    6.1800   -4.6930    2.9240 N   0  0  0  0  0  0  0  0  0  0  0  0
    3.4840   -6.4450    2.4140 H   0  0  0  0  0  0  0  0  0  0  0  0
    6.5530   -4.1600    3.7180 H   0  0  0  0  0  0  0  0  0  0  0  0
    4.1470   -2.8030    4.2800 O   0  0  0  0  0  0  0  0  0  0  0  0
    3.4340   -2.1680    4.4910 H   0  0  0  0  0  0  0  0  0  0  0  0
    2.1910   -1.1870    8.7550 N   0  0  0  0  0  0  0  0  0  0  0  0
    1.3470   -0.6930    8.4770 H   0  0  0  0  0  0  0  0  0  0  0  0
    2.8960   -0.6160    9.9010 C   0  0  0  0  0  2  0  0  0  0  0  0
    4.4140   -0.7170    9.7190 C   0  0  0  0  0  2  0  0  0  0  0  0
    4.8350    0.0860    8.6200 O   0  0  0  0  0  0  0  0  0  0  0  0
    4.2140   -0.1290    7.8970 H   0  0  0  0  0  0  0  0  0  0  0  0
    2.8710   -7.5220    7.1680 C   0  0  0  0  0  2  0  0  0  0  0  0
    1.8410   -8.4270    6.4580 C   0  0  0  0  0  2  0  0  0  0  0  0
   -0.0690   -6.9820    5.5440 C   0  0  0  0  0  1  0  0  0  0  0  0
    0.3300   -8.0800    6.5410 C   0  0  0  0  0  0  0  0  0  0  0  0
    0.0540   -7.5450    7.9650 C   0  0  0  0  0  1  0  0  0  0  0  0
   -0.5470   -9.3220    6.3220 C   0  0  0  0  0  1  0  0  0  0  0  0
  1 11  1  0  0  0  0
  1 34  1  0  0  0  0
  2  1  1  0  0  0  0
  3  2  2  0  0  0  0
  4  5  2  0  0  0  0
  4  2  1  0  0  0  0
  5  6  1  0  0  0  0
  6  7  2  0  0  0  0
  6 11  1  0  0  0  0
  7  8  1  0  0  0  0
  8 28  1  0  0  0  0
  8  9  2  0  0  0  0
 10  9  1  0  0  0  0
 11 10  2  0  0  0  0
 12  4  1  6  0  0  0
 13 24  1  0  0  0  0
 13 12  1  0  0  0  0
 14 13  1  0  0  0  0
 15 14  2  0  0  0  0
 16 14  2  0  0  0  0
 17 14  1  0  0  0  0
 17 22  1  0  0  0  0
 18 17  2  0  0  0  0
 19 18  1  0  0  0  0
 19 20  2  0  0  0  0
 20 21  1  0  0  0  0
 21 22  2  0  0  0  0
 22 23  1  0  0  0  0
 23 12  1  0  0  0  0
 23 25  1  0  0  0  0
 26 27  1  0  0  0  0
 26  5  1  0  0  0  0
 28 30  1  0  0  0  0
 29 28  1  0  0  0  0
 31 30  1  0  0  0  0
 32 31  1  0  0  0  0
 33 32  1  0  0  0  0
 35 37  1  0  0  0  0
 35 34  1  0  0  0  0
 36 37  1  0  0  0  0
 37 38  1  0  0  0  0
 39 37  1  0  0  0  0
M  END
>  <minimizedAffinity>
-7.33160114

$$$$
