
 OpenBabel09132200033D

 39 42  0  0  1  0  0  0  0  0999 V2000
    7.3200   -4.8290    1.8530 N   0  0  0  0  0  0  0  0  0  0  0  0
    7.1070   -4.0420    2.9810 C   0  0  0  0  0  0  0  0  0  0  0  0
    7.9210   -3.1990    3.3700 O   0  0  0  0  0  0  0  0  0  0  0  0
    5.8330   -4.1980    3.7490 C   0  0  0  0  0  0  0  0  0  0  0  0
    4.9000   -5.0500    3.2880 C   0  0  0  0  0  0  0  0  0  0  0  0
    5.1310   -5.8940    2.1020 C   0  0  0  0  0  0  0  0  0  0  0  0
    4.1970   -6.8830    1.7080 C   0  0  0  0  0  3  0  0  0  0  0  0
    4.3710   -7.6620    0.5630 C   0  0  0  0  0  0  0  0  0  0  0  0
    5.5140   -7.4250   -0.1940 C   0  0  0  0  0  3  0  0  0  0  0  0
    6.4760   -6.4880    0.2020 C   0  0  0  0  0  3  0  0  0  0  0  0
    6.3180   -5.7310    1.3690 C   0  0  0  0  0  0  0  0  0  0  0  0
    5.6360   -3.3730    5.0020 C   0  0  1  0  0  3  0  0  0  0  0  0
    6.6690   -3.0990    5.7590 N   0  0  0  0  0  0  0  0  0  0  0  0
    6.6600   -2.2460    7.1170 S   0  0  0  0  0  0  0  0  0  0  0  0
    6.9700   -3.1280    8.2250 O   0  0  0  0  0  0  0  0  0  0  0  0
    7.4480   -1.0450    6.9210 O   0  0  0  0  0  0  0  0  0  0  0  0
    5.0050   -1.7060    7.3740 C   0  0  0  0  0  0  0  0  0  0  0  0
    4.7030   -0.9050    8.4810 C   0  0  0  0  0  3  0  0  0  0  0  0
    3.3910   -0.4820    8.6740 C   0  0  0  0  0  3  0  0  0  0  0  0
    2.4020   -0.8620    7.7680 C   0  0  0  0  0  3  0  0  0  0  0  0
    2.7230   -1.6620    6.6660 C   0  0  0  0  0  3  0  0  0  0  0  0
    4.0360   -2.0940    6.4580 C   0  0  0  0  0  0  0  0  0  0  0  0
    4.3630   -2.8800    5.3620 N   0  0  0  0  0  0  0  0  0  0  0  0
    7.5660   -3.4570    5.4630 H   0  0  0  0  0  0  0  0  0  0  0  0
    3.6050   -3.1430    4.7220 H   0  0  0  0  0  0  0  0  0  0  0  0
    3.6530   -5.1180    3.9020 O   0  0  0  0  0  0  0  0  0  0  0  0
    2.9870   -5.2950    3.2090 H   0  0  0  0  0  0  0  0  0  0  0  0
    3.4670   -8.6040    0.1240 N   0  0  0  0  0  0  0  0  0  0  0  0
    3.5590   -8.9290   -0.8350 H   0  0  0  0  0  0  0  0  0  0  0  0
    2.5160   -9.3520    0.9450 C   0  0  0  0  0  2  0  0  0  0  0  0
    3.1730   -9.8350    2.2430 C   0  0  0  0  0  2  0  0  0  0  0  0
    2.3600   -9.4980    3.3630 O   0  0  0  0  0  0  0  0  0  0  0  0
    2.1170   -8.5620    3.2270 H   0  0  0  0  0  0  0  0  0  0  0  0
    8.6020   -4.6450    1.1600 C   0  0  0  0  0  2  0  0  0  0  0  0
    8.6970   -3.4140    0.2320 C   0  0  0  0  0  2  0  0  0  0  0  0
   10.6650   -2.1770   -0.8490 C   0  0  0  0  0  1  0  0  0  0  0  0
    9.8470   -2.3900    0.4330 C   0  0  0  0  0  0  0  0  0  0  0  0
   10.7980   -2.9650    1.5070 C   0  0  0  0  0  1  0  0  0  0  0  0
    9.3180   -1.0400    0.9410 C   0  0  0  0  0  1  0  0  0  0  0  0
  1  2  1  0  0  0  0
  2  3  2  0  0  0  0
  2  4  1  0  0  0  0
  5  4  2  0  0  0  0
  5 26  1  0  0  0  0
  6  5  1  0  0  0  0
  7  6  1  0  0  0  0
  8  7  2  0  0  0  0
  9 10  2  0  0  0  0
  9  8  1  0  0  0  0
 10 11  1  0  0  0  0
 11  1  1  0  0  0  0
 11  6  2  0  0  0  0
 12  4  1  6  0  0  0
 12 23  1  0  0  0  0
 12 13  1  0  0  0  0
 13 14  1  0  0  0  0
 14 17  1  0  0  0  0
 14 15  2  0  0  0  0
 16 14  2  0  0  0  0
 17 18  1  0  0  0  0
 18 19  2  0  0  0  0
 20 19  1  0  0  0  0
 21 20  2  0  0  0  0
 22 21  1  0  0  0  0
 22 17  2  0  0  0  0
 23 22  1  0  0  0  0
 24 13  1  0  0  0  0
 25 23  1  0  0  0  0
 27 26  1  0  0  0  0
 28  8  1  0  0  0  0
 28 30  1  0  0  0  0
 29 28  1  0  0  0  0
 30 31  1  0  0  0  0
 31 32  1  0  0  0  0
 33 32  1  0  0  0  0
 34  1  1  0  0  0  0
 35 37  1  0  0  0  0
 35 34  1  0  0  0  0
 36 37  1  0  0  0  0
 37 39  1  0  0  0  0
 37 38  1  0  0  0  0
M  END
>  <minimizedAffinity>
-7.87550831

$$$$

 OpenBabel09132200033D

 39 42  0  0  1  0  0  0  0  0999 V2000
    6.0170   -5.2400    2.0480 N   0  0  0  0  0  0  0  0  0  0  0  0
    5.5350   -4.8540    3.2960 C   0  0  0  0  0  0  0  0  0  0  0  0
    4.5320   -5.3590    3.8090 O   0  0  0  0  0  0  0  0  0  0  0  0
    6.2660   -3.8000    4.0650 C   0  0  0  0  0  0  0  0  0  0  0  0
    7.4080   -3.3040    3.5560 C   0  0  0  0  0  0  0  0  0  0  0  0
    7.9110   -3.7030    2.2300 C   0  0  0  0  0  0  0  0  0  0  0  0
    9.0380   -3.0720    1.6490 C   0  0  0  0  0  3  0  0  0  0  0  0
    9.5610   -3.4630    0.4150 C   0  0  0  0  0  0  0  0  0  0  0  0
    8.9260   -4.5180   -0.2330 C   0  0  0  0  0  3  0  0  0  0  0  0
    7.7800   -5.1230    0.2970 C   0  0  0  0  0  3  0  0  0  0  0  0
    7.2360   -4.7080    1.5170 C   0  0  0  0  0  0  0  0  0  0  0  0
    5.7040   -3.3520    5.3960 C   0  0  1  0  0  3  0  0  0  0  0  0
    6.4010   -3.5530    6.4870 N   0  0  0  0  0  0  0  0  0  0  0  0
    5.9740   -3.1520    7.9800 S   0  0  0  0  0  0  0  0  0  0  0  0
    5.7480   -4.3640    8.7430 O   0  0  0  0  0  0  0  0  0  0  0  0
    6.9030   -2.1580    8.4820 O   0  0  0  0  0  0  0  0  0  0  0  0
    4.4130   -2.3470    7.8720 C   0  0  0  0  0  0  0  0  0  0  0  0
    3.8060   -1.8560    9.0330 C   0  0  0  0  0  3  0  0  0  0  0  0
    2.5710   -1.2210    8.9350 C   0  0  0  0  0  3  0  0  0  0  0  0
    1.9610   -1.0850    7.6900 C   0  0  0  0  0  3  0  0  0  0  0  0
    2.5830   -1.5820    6.5390 C   0  0  0  0  0  3  0  0  0  0  0  0
    3.8230   -2.2210    6.6210 C   0  0  0  0  0  0  0  0  0  0  0  0
    4.4510   -2.7090    5.4820 N   0  0  0  0  0  0  0  0  0  0  0  0
    7.2980   -4.0040    6.3850 H   0  0  0  0  0  0  0  0  0  0  0  0
    3.9640   -2.5940    4.5860 H   0  0  0  0  0  0  0  0  0  0  0  0
    8.1810   -2.4240    4.3080 O   0  0  0  0  0  0  0  0  0  0  0  0
    9.1200   -2.5970    4.0990 H   0  0  0  0  0  0  0  0  0  0  0  0
   10.6790   -2.9040   -0.1630 N   0  0  0  0  0  0  0  0  0  0  0  0
   11.5770   -3.3360    0.0420 H   0  0  0  0  0  0  0  0  0  0  0  0
   10.7040   -1.8870   -1.2130 C   0  0  0  0  0  2  0  0  0  0  0  0
   10.3830   -0.5010   -0.6440 C   0  0  0  0  0  2  0  0  0  0  0  0
   10.0380    0.3970   -1.6940 O   0  0  0  0  0  0  0  0  0  0  0  0
   10.7270    0.2670   -2.3750 H   0  0  0  0  0  0  0  0  0  0  0  0
    5.2370   -6.2610    1.3330 C   0  0  0  0  0  2  0  0  0  0  0  0
    5.6850   -7.7240    1.5460 C   0  0  0  0  0  2  0  0  0  0  0  0
    3.5950   -8.1080    2.9810 C   0  0  0  0  0  1  0  0  0  0  0  0
    4.6720   -8.7610    2.1030 C   0  0  0  0  0  0  0  0  0  0  0  0
    5.4620   -9.7520    2.9880 C   0  0  0  0  0  1  0  0  0  0  0  0
    4.0060   -9.5610    0.9730 C   0  0  0  0  0  1  0  0  0  0  0  0
  1  2  1  0  0  0  0
  2  3  2  0  0  0  0
  2  4  1  0  0  0  0
  5  4  2  0  0  0  0
  5 26  1  0  0  0  0
  6  5  1  0  0  0  0
  7  6  1  0  0  0  0
  8  7  2  0  0  0  0
  9 10  2  0  0  0  0
  9  8  1  0  0  0  0
 10 11  1  0  0  0  0
 11  1  1  0  0  0  0
 11  6  2  0  0  0  0
 12  4  1  6  0  0  0
 12 23  1  0  0  0  0
 12 13  1  0  0  0  0
 13 14  1  0  0  0  0
 14 16  2  0  0  0  0
 14 15  2  0  0  0  0
 17 14  1  0  0  0  0
 17 18  1  0  0  0  0
 19 18  2  0  0  0  0
 20 19  1  0  0  0  0
 21 22  1  0  0  0  0
 21 20  2  0  0  0  0
 22 17  2  0  0  0  0
 23 22  1  0  0  0  0
 24 13  1  0  0  0  0
 25 23  1  0  0  0  0
 27 26  1  0  0  0  0
 28 29  1  0  0  0  0
 28  8  1  0  0  0  0
 30 31  1  0  0  0  0
 30 28  1  0  0  0  0
 32 31  1  0  0  0  0
 33 32  1  0  0  0  0
 34 35  1  0  0  0  0
 34  1  1  0  0  0  0
 35 37  1  0  0  0  0
 37 36  1  0  0  0  0
 37 38  1  0  0  0  0
 39 37  1  0  0  0  0
M  END
>  <minimizedAffinity>
-7.85607004

$$$$

 OpenBabel09132200033D

 39 42  0  0  1  0  0  0  0  0999 V2000
    3.5480   -7.1740    4.7140 N   0  0  0  0  0  0  0  0  0  0  0  0
    3.5140   -6.1290    5.6330 C   0  0  0  0  0  0  0  0  0  0  0  0
    3.0010   -6.2400    6.7500 O   0  0  0  0  0  0  0  0  0  0  0  0
    4.1410   -4.8200    5.2710 C   0  0  0  0  0  0  0  0  0  0  0  0
    4.7780   -4.7120    4.0920 C   0  0  0  0  0  0  0  0  0  0  0  0
    4.8030   -5.8130    3.1140 C   0  0  0  0  0  0  0  0  0  0  0  0
    5.3600   -5.6400    1.8230 C   0  0  0  0  0  3  0  0  0  0  0  0
    5.4360   -6.6800    0.8960 C   0  0  0  0  0  0  0  0  0  0  0  0
    4.9410   -7.9180    1.2940 C   0  0  0  0  0  3  0  0  0  0  0  0
    4.3410   -8.1010    2.5460 C   0  0  0  0  0  3  0  0  0  0  0  0
    4.2330   -7.0490    3.4620 C   0  0  0  0  0  0  0  0  0  0  0  0
    4.0520   -3.6760    6.2590 C   0  0  1  0  0  3  0  0  0  0  0  0
    2.8740   -3.2440    6.6350 N   0  0  0  0  0  0  0  0  0  0  0  0
    2.5780   -2.0510    7.6650 S   0  0  0  0  0  0  0  0  0  0  0  0
    1.9730   -0.9490    6.9420 O   0  0  0  0  0  0  0  0  0  0  0  0
    1.9060   -2.5930    8.8300 O   0  0  0  0  0  0  0  0  0  0  0  0
    4.1360   -1.4620    8.2320 C   0  0  0  0  0  0  0  0  0  0  0  0
    4.1840   -0.4300    9.1750 C   0  0  0  0  0  3  0  0  0  0  0  0
    5.4220    0.0280    9.6170 C   0  0  0  0  0  3  0  0  0  0  0  0
    6.5900   -0.5460    9.1160 C   0  0  0  0  0  3  0  0  0  0  0  0
    6.5230   -1.5780    8.1750 C   0  0  0  0  0  3  0  0  0  0  0  0
    5.2870   -2.0480    7.7210 C   0  0  0  0  0  0  0  0  0  0  0  0
    5.2130   -3.0790    6.7930 N   0  0  0  0  0  0  0  0  0  0  0  0
    2.0660   -3.7040    6.2420 H   0  0  0  0  0  0  0  0  0  0  0  0
    6.0960   -3.4690    6.4450 H   0  0  0  0  0  0  0  0  0  0  0  0
    5.4860   -3.5530    3.7870 O   0  0  0  0  0  0  0  0  0  0  0  0
    6.2690   -3.8110    3.2590 H   0  0  0  0  0  0  0  0  0  0  0  0
    6.0070   -6.5630   -0.3520 N   0  0  0  0  0  0  0  0  0  0  0  0
    5.8220   -7.3050   -1.0230 H   0  0  0  0  0  0  0  0  0  0  0  0
    6.6770   -5.3850   -0.8990 C   0  0  0  0  0  2  0  0  0  0  0  0
    8.0580   -5.1930   -0.2640 C   0  0  0  0  0  2  0  0  0  0  0  0
    8.9470   -4.5780   -1.1910 O   0  0  0  0  0  0  0  0  0  0  0  0
    8.8290   -5.0750   -2.0230 H   0  0  0  0  0  0  0  0  0  0  0  0
    2.8910   -8.4240    5.1210 C   0  0  0  0  0  2  0  0  0  0  0  0
    1.4920   -8.6780    4.5200 C   0  0  0  0  0  2  0  0  0  0  0  0
   -0.2150   -6.9970    5.4330 C   0  0  0  0  0  1  0  0  0  0  0  0
    0.2300   -8.4660    5.4000 C   0  0  0  0  0  0  0  0  0  0  0  0
    0.5970   -8.8780    6.8440 C   0  0  0  0  0  1  0  0  0  0  0  0
   -0.9360   -9.3510    4.9370 C   0  0  0  0  0  1  0  0  0  0  0  0
  1 34  1  0  0  0  0
  1  2  1  0  0  0  0
  2  3  2  0  0  0  0
  4  2  1  0  0  0  0
  5  4  2  0  0  0  0
  6 11  1  0  0  0  0
  6  5  1  0  0  0  0
  7  6  2  0  0  0  0
  8  9  2  0  0  0  0
  8  7  1  0  0  0  0
  9 10  1  0  0  0  0
 10 11  2  0  0  0  0
 11  1  1  0  0  0  0
 12  4  1  1  0  0  0
 12 13  1  0  0  0  0
 12 23  1  0  0  0  0
 13 14  1  0  0  0  0
 14 17  1  0  0  0  0
 14 16  2  0  0  0  0
 15 14  2  0  0  0  0
 17 18  1  0  0  0  0
 18 19  2  0  0  0  0
 20 19  1  0  0  0  0
 21 20  2  0  0  0  0
 22 21  1  0  0  0  0
 22 17  2  0  0  0  0
 23 22  1  0  0  0  0
 24 13  1  0  0  0  0
 25 23  1  0  0  0  0
 26  5  1  0  0  0  0
 27 26  1  0  0  0  0
 28  8  1  0  0  0  0
 29 28  1  0  0  0  0
 30 28  1  0  0  0  0
 30 31  1  0  0  0  0
 32 31  1  0  0  0  0
 33 32  1  0  0  0  0
 35 34  1  0  0  0  0
 35 37  1  0  0  0  0
 37 36  1  0  0  0  0
 37 38  1  0  0  0  0
 39 37  1  0  0  0  0
M  END
>  <minimizedAffinity>
-7.6081233

$$$$

 OpenBabel09132200033D

 39 42  0  0  1  0  0  0  0  0999 V2000
    3.0630   -5.4860    7.5030 N   0  0  0  0  0  0  0  0  0  0  0  0
    3.6360   -5.8530    6.2890 C   0  0  0  0  0  0  0  0  0  0  0  0
    4.6980   -5.3740    5.8810 O   0  0  0  0  0  0  0  0  0  0  0  0
    2.9570   -6.8840    5.4450 C   0  0  0  0  0  0  0  0  0  0  0  0
    1.8460   -7.4760    5.9170 C   0  0  0  0  0  0  0  0  0  0  0  0
    1.2310   -7.0780    7.1950 C   0  0  0  0  0  0  0  0  0  0  0  0
   -0.0110   -7.6130    7.6130 C   0  0  0  0  0  3  0  0  0  0  0  0
   -0.5910   -7.2870    8.8410 C   0  0  0  0  0  0  0  0  0  0  0  0
    0.1120   -6.4050    9.6560 C   0  0  0  0  0  3  0  0  0  0  0  0
    1.3170   -5.8250    9.2430 C   0  0  0  0  0  3  0  0  0  0  0  0
    1.8800   -6.1250    7.9980 C   0  0  0  0  0  0  0  0  0  0  0  0
    3.5630   -7.2360    4.1040 C   0  0  1  0  0  3  0  0  0  0  0  0
    3.7500   -8.4960    3.7960 N   0  0  0  0  0  0  0  0  0  0  0  0
    4.3760   -9.0630    2.4320 S   0  0  0  0  0  0  0  0  0  0  0  0
    5.6590   -9.6720    2.7240 O   0  0  0  0  0  0  0  0  0  0  0  0
    3.3640   -9.8340    1.7380 O   0  0  0  0  0  0  0  0  0  0  0  0
    4.7180   -7.6750    1.4060 C   0  0  0  0  0  0  0  0  0  0  0  0
    5.2480   -7.8750    0.1270 C   0  0  0  0  0  3  0  0  0  0  0  0
    5.5150   -6.7700   -0.6770 C   0  0  0  0  0  3  0  0  0  0  0  0
    5.2530   -5.4870   -0.1970 C   0  0  0  0  0  3  0  0  0  0  0  0
    4.7220   -5.3070    1.0850 C   0  0  0  0  0  3  0  0  0  0  0  0
    4.4490   -6.4060    1.9030 C   0  0  0  0  0  0  0  0  0  0  0  0
    3.9140   -6.2350    3.1730 N   0  0  0  0  0  0  0  0  0  0  0  0
    3.4750   -9.1850    4.4800 H   0  0  0  0  0  0  0  0  0  0  0  0
    3.7420   -5.2740    3.4900 H   0  0  0  0  0  0  0  0  0  0  0  0
    1.2690   -8.5330    5.2180 O   0  0  0  0  0  0  0  0  0  0  0  0
    0.8960   -9.1560    5.8730 H   0  0  0  0  0  0  0  0  0  0  0  0
   -1.7760   -7.8170    9.3020 N   0  0  0  0  0  0  0  0  0  0  0  0
   -2.0130   -7.6560   10.2780 H   0  0  0  0  0  0  0  0  0  0  0  0
   -2.8420   -8.4070    8.4930 C   0  0  0  0  0  2  0  0  0  0  0  0
   -3.9340   -7.3770    8.1880 C   0  0  0  0  0  2  0  0  0  0  0  0
   -3.7300   -6.8070    6.8990 O   0  0  0  0  0  0  0  0  0  0  0  0
   -2.7820   -6.5740    6.8730 H   0  0  0  0  0  0  0  0  0  0  0  0
    3.7660   -4.4480    8.2710 C   0  0  0  0  0  2  0  0  0  0  0  0
    3.1420   -3.0360    8.2270 C   0  0  0  0  0  2  0  0  0  0  0  0
    5.1040   -2.0690    6.8900 C   0  0  0  0  0  1  0  0  0  0  0  0
    3.5860   -2.0360    7.1260 C   0  0  0  0  0  0  0  0  0  0  0  0
    3.2180   -0.6160    7.6120 C   0  0  0  0  0  1  0  0  0  0  0  0
    2.8500   -2.2910    5.8020 C   0  0  0  0  0  1  0  0  0  0  0  0
  1 11  1  0  0  0  0
  1 34  1  0  0  0  0
  2  1  1  0  0  0  0
  3  2  2  0  0  0  0
  4  5  2  0  0  0  0
  4  2  1  0  0  0  0
  5  6  1  0  0  0  0
  6  7  2  0  0  0  0
  6 11  1  0  0  0  0
  7  8  1  0  0  0  0
  8 28  1  0  0  0  0
  8  9  2  0  0  0  0
 10  9  1  0  0  0  0
 11 10  2  0  0  0  0
 12  4  1  6  0  0  0
 13 12  1  0  0  0  0
 13 24  1  0  0  0  0
 14 15  2  0  0  0  0
 14 13  1  0  0  0  0
 16 14  2  0  0  0  0
 17 22  1  0  0  0  0
 17 14  1  0  0  0  0
 18 17  2  0  0  0  0
 19 20  2  0  0  0  0
 19 18  1  0  0  0  0
 20 21  1  0  0  0  0
 21 22  2  0  0  0  0
 22 23  1  0  0  0  0
 23 25  1  0  0  0  0
 23 12  1  0  0  0  0
 26 27  1  0  0  0  0
 26  5  1  0  0  0  0
 28 29  1  0  0  0  0
 30 28  1  0  0  0  0
 31 30  1  0  0  0  0
 32 31  1  0  0  0  0
 33 32  1  0  0  0  0
 35 34  1  0  0  0  0
 36 37  1  0  0  0  0
 37 38  1  0  0  0  0
 37 35  1  0  0  0  0
 39 37  1  0  0  0  0
M  END
>  <minimizedAffinity>
-7.58451843

$$$$

 OpenBabel09132200033D

 39 42  0  0  1  0  0  0  0  0999 V2000
    3.5400   -5.7310    6.2910 N   0  0  0  0  0  0  0  0  0  0  0  0
    4.2470   -5.6250    5.0970 C   0  0  0  0  0  0  0  0  0  0  0  0
    5.1480   -4.7980    4.9260 O   0  0  0  0  0  0  0  0  0  0  0  0
    3.9260   -6.5590    3.9740 C   0  0  0  0  0  0  0  0  0  0  0  0
    3.0070   -7.5200    4.1750 C   0  0  0  0  0  0  0  0  0  0  0  0
    2.2490   -7.6240    5.4340 C   0  0  0  0  0  0  0  0  0  0  0  0
    1.1900   -8.5540    5.5820 C   0  0  0  0  0  3  0  0  0  0  0  0
    0.4880   -8.7030    6.7790 C   0  0  0  0  0  0  0  0  0  0  0  0
    0.8750   -7.8940    7.8430 C   0  0  0  0  0  3  0  0  0  0  0  0
    1.8850   -6.9340    7.7060 C   0  0  0  0  0  3  0  0  0  0  0  0
    2.5650   -6.7600    6.4960 C   0  0  0  0  0  0  0  0  0  0  0  0
    4.6670   -6.4000    2.6640 C   0  0  1  0  0  3  0  0  0  0  0  0
    4.1700   -6.9360    1.5770 N   0  0  0  0  0  0  0  0  0  0  0  0
    4.8050   -6.8760    0.1060 S   0  0  0  0  0  0  0  0  0  0  0  0
    5.2290   -8.2090   -0.2750 O   0  0  0  0  0  0  0  0  0  0  0  0
    3.9070   -6.1400   -0.7630 O   0  0  0  0  0  0  0  0  0  0  0  0
    6.2720   -5.9120    0.2170 C   0  0  0  0  0  0  0  0  0  0  0  0
    7.0260   -5.6640   -0.9350 C   0  0  0  0  0  3  0  0  0  0  0  0
    8.1850   -4.8990   -0.8360 C   0  0  0  0  0  3  0  0  0  0  0  0
    8.5760   -4.3960    0.4040 C   0  0  0  0  0  3  0  0  0  0  0  0
    7.8100   -4.6530    1.5450 C   0  0  0  0  0  3  0  0  0  0  0  0
    6.6440   -5.4190    1.4610 C   0  0  0  0  0  0  0  0  0  0  0  0
    5.8730   -5.6710    2.5890 N   0  0  0  0  0  0  0  0  0  0  0  0
    3.2990   -7.4380    1.6670 H   0  0  0  0  0  0  0  0  0  0  0  0
    6.1990   -5.2870    3.4830 H   0  0  0  0  0  0  0  0  0  0  0  0
    2.7850   -8.4870    3.1990 O   0  0  0  0  0  0  0  0  0  0  0  0
    2.5740   -9.3270    3.6530 H   0  0  0  0  0  0  0  0  0  0  0  0
   -0.5190   -9.6230    6.9750 N   0  0  0  0  0  0  0  0  0  0  0  0
   -0.3630  -10.3440    7.6750 H   0  0  0  0  0  0  0  0  0  0  0  0
   -1.8790   -9.5560    6.4430 C   0  0  0  0  0  2  0  0  0  0  0  0
   -2.4450   -8.1370    6.5590 C   0  0  0  0  0  2  0  0  0  0  0  0
   -3.8240   -8.1250    6.1990 O   0  0  0  0  0  0  0  0  0  0  0  0
   -3.8720   -8.6320    5.3650 H   0  0  0  0  0  0  0  0  0  0  0  0
    3.8860   -4.7660    7.3440 C   0  0  0  0  0  2  0  0  0  0  0  0
    2.8500   -3.6500    7.6040 C   0  0  0  0  0  2  0  0  0  0  0  0
    2.4150   -2.4570    5.3770 C   0  0  0  0  0  1  0  0  0  0  0  0
    2.9440   -2.3180    6.8120 C   0  0  0  0  0  0  0  0  0  0  0  0
    4.4390   -1.9330    6.7260 C   0  0  0  0  0  1  0  0  0  0  0  0
    2.2020   -1.1810    7.5300 C   0  0  0  0  0  1  0  0  0  0  0  0
  1 11  1  0  0  0  0
  1 34  1  0  0  0  0
  2  1  1  0  0  0  0
  3  2  2  0  0  0  0
  4  5  2  0  0  0  0
  4  2  1  0  0  0  0
  5  6  1  0  0  0  0
  6  7  2  0  0  0  0
  6 11  1  0  0  0  0
  7  8  1  0  0  0  0
  8 28  1  0  0  0  0
  8  9  2  0  0  0  0
 10  9  1  0  0  0  0
 11 10  2  0  0  0  0
 12  4  1  6  0  0  0
 13 24  1  0  0  0  0
 13 12  1  0  0  0  0
 14 17  1  0  0  0  0
 14 13  1  0  0  0  0
 15 14  2  0  0  0  0
 16 14  2  0  0  0  0
 17 22  1  0  0  0  0
 18 19  1  0  0  0  0
 18 17  2  0  0  0  0
 19 20  2  0  0  0  0
 20 21  1  0  0  0  0
 22 21  2  0  0  0  0
 22 23  1  0  0  0  0
 23 12  1  0  0  0  0
 23 25  1  0  0  0  0
 26 27  1  0  0  0  0
 26  5  1  0  0  0  0
 28 29  1  0  0  0  0
 30 31  1  0  0  0  0
 30 28  1  0  0  0  0
 32 31  1  0  0  0  0
 33 32  1  0  0  0  0
 34 35  1  0  0  0  0
 36 37  1  0  0  0  0
 37 39  1  0  0  0  0
 37 35  1  0  0  0  0
 38 37  1  0  0  0  0
M  END
>  <minimizedAffinity>
-7.38902426

$$$$

 OpenBabel09132200033D

 39 42  0  0  1  0  0  0  0  0999 V2000
    1.7700   -6.9130    7.2300 N   0  0  0  0  0  0  0  0  0  0  0  0
    2.2760   -7.3050    5.9940 C   0  0  0  0  0  0  0  0  0  0  0  0
    1.8440   -8.2830    5.3760 O   0  0  0  0  0  0  0  0  0  0  0  0
    3.3730   -6.5040    5.3680 C   0  0  0  0  0  0  0  0  0  0  0  0
    3.7940   -5.3880    5.9900 C   0  0  0  0  0  0  0  0  0  0  0  0
    3.2680   -4.9810    7.3040 C   0  0  0  0  0  0  0  0  0  0  0  0
    3.8160   -3.8810    8.0080 C   0  0  0  0  0  3  0  0  0  0  0  0
    3.3060   -3.4470    9.2330 C   0  0  0  0  0  0  0  0  0  0  0  0
    2.2160   -4.1450    9.7450 C   0  0  0  0  0  3  0  0  0  0  0  0
    1.6890   -5.2660    9.0920 C   0  0  0  0  0  3  0  0  0  0  0  0
    2.2230   -5.7210    7.8820 C   0  0  0  0  0  0  0  0  0  0  0  0
    3.9490   -6.9700    4.0490 C   0  0  1  0  0  3  0  0  0  0  0  0
    4.2150   -8.2410    3.8780 N   0  0  0  0  0  0  0  0  0  0  0  0
    4.8260   -8.9210    2.5600 S   0  0  0  0  0  0  0  0  0  0  0  0
    6.1600   -9.4040    2.8590 O   0  0  0  0  0  0  0  0  0  0  0  0
    3.8450   -9.8350    2.0080 O   0  0  0  0  0  0  0  0  0  0  0  0
    5.0260   -7.6430    1.3670 C   0  0  0  0  0  0  0  0  0  0  0  0
    5.5170   -7.9560    0.0950 C   0  0  0  0  0  3  0  0  0  0  0  0
    5.6710   -6.9370   -0.8410 C   0  0  0  0  0  3  0  0  0  0  0  0
    5.3360   -5.6280   -0.4990 C   0  0  0  0  0  3  0  0  0  0  0  0
    4.8450   -5.3350    0.7770 C   0  0  0  0  0  3  0  0  0  0  0  0
    4.6850   -6.3460    1.7280 C   0  0  0  0  0  0  0  0  0  0  0  0
    4.1890   -6.0640    2.9940 N   0  0  0  0  0  0  0  0  0  0  0  0
    4.0180   -8.8620    4.6500 H   0  0  0  0  0  0  0  0  0  0  0  0
    3.9610   -5.0860    3.2080 H   0  0  0  0  0  0  0  0  0  0  0  0
    4.7150   -4.5500    5.3680 O   0  0  0  0  0  0  0  0  0  0  0  0
    4.5000   -3.6300    5.6200 H   0  0  0  0  0  0  0  0  0  0  0  0
    3.7840   -2.3580    9.9280 N   0  0  0  0  0  0  0  0  0  0  0  0
    3.1720   -1.9440   10.6270 H   0  0  0  0  0  0  0  0  0  0  0  0
    5.1570   -1.8560    9.9280 C   0  0  0  0  0  2  0  0  0  0  0  0
    5.3170   -0.6930    8.9440 C   0  0  0  0  0  2  0  0  0  0  0  0
    4.0690   -0.0340    8.7510 O   0  0  0  0  0  0  0  0  0  0  0  0
    3.4240   -0.7520    8.5980 H   0  0  0  0  0  0  0  0  0  0  0  0
    0.7120   -7.7580    7.8010 C   0  0  0  0  0  2  0  0  0  0  0  0
   -0.7250   -7.2020    7.6980 C   0  0  0  0  0  2  0  0  0  0  0  0
   -1.4380   -6.9950    5.2440 C   0  0  0  0  0  1  0  0  0  0  0  0
   -1.6680   -7.7200    6.5790 C   0  0  0  0  0  0  0  0  0  0  0  0
   -3.1200   -7.4320    7.0250 C   0  0  0  0  0  1  0  0  0  0  0  0
   -1.5250   -9.2350    6.3760 C   0  0  0  0  0  1  0  0  0  0  0  0
  1 34  1  0  0  0  0
  1 11  1  0  0  0  0
  2  1  1  0  0  0  0
  3  2  2  0  0  0  0
  4  5  2  0  0  0  0
  4  2  1  0  0  0  0
  5  6  1  0  0  0  0
  6 11  2  0  0  0  0
  6  7  1  0  0  0  0
  7  8  2  0  0  0  0
  8  9  1  0  0  0  0
  8 28  1  0  0  0  0
 10  9  2  0  0  0  0
 11 10  1  0  0  0  0
 12  4  1  6  0  0  0
 13 12  1  0  0  0  0
 13 24  1  0  0  0  0
 14 15  2  0  0  0  0
 14 13  1  0  0  0  0
 16 14  2  0  0  0  0
 17 22  1  0  0  0  0
 17 14  1  0  0  0  0
 18 17  2  0  0  0  0
 19 20  2  0  0  0  0
 19 18  1  0  0  0  0
 20 21  1  0  0  0  0
 21 22  2  0  0  0  0
 22 23  1  0  0  0  0
 23 25  1  0  0  0  0
 23 12  1  0  0  0  0
 26 27  1  0  0  0  0
 26  5  1  0  0  0  0
 28 29  1  0  0  0  0
 30 28  1  0  0  0  0
 31 30  1  0  0  0  0
 32 31  1  0  0  0  0
 33 32  1  0  0  0  0
 35 34  1  0  0  0  0
 36 37  1  0  0  0  0
 37 38  1  0  0  0  0
 37 35  1  0  0  0  0
 39 37  1  0  0  0  0
M  END
>  <minimizedAffinity>
-7.38847065

$$$$

 OpenBabel09132200033D

 39 42  0  0  1  0  0  0  0  0999 V2000
    3.2120   -6.2710    6.4770 N   0  0  0  0  0  0  0  0  0  0  0  0
    3.8260   -6.3980    5.2340 C   0  0  0  0  0  0  0  0  0  0  0  0
    4.0440   -7.4920    4.7060 O   0  0  0  0  0  0  0  0  0  0  0  0
    4.2230   -5.1630    4.4880 C   0  0  0  0  0  0  0  0  0  0  0  0
    3.9140   -3.9640    5.0120 C   0  0  0  0  0  0  0  0  0  0  0  0
    3.2760   -3.8300    6.3330 C   0  0  0  0  0  0  0  0  0  0  0  0
    3.0800   -2.5610    6.9310 C   0  0  0  0  0  3  0  0  0  0  0  0
    2.4380   -2.4040    8.1600 C   0  0  0  0  0  0  0  0  0  0  0  0
    1.9830   -3.5610    8.7860 C   0  0  0  0  0  3  0  0  0  0  0  0
    2.2090   -4.8300    8.2390 C   0  0  0  0  0  3  0  0  0  0  0  0
    2.8840   -4.9890    7.0230 C   0  0  0  0  0  0  0  0  0  0  0  0
    4.9360   -5.3160    3.1620 C   0  0  1  0  0  3  0  0  0  0  0  0
    4.3800   -6.0250    2.2120 N   0  0  0  0  0  0  0  0  0  0  0  0
    4.9780   -6.3010    0.7500 S   0  0  0  0  0  0  0  0  0  0  0  0
    5.3130   -7.7070    0.6390 O   0  0  0  0  0  0  0  0  0  0  0  0
    4.1020   -5.6980   -0.2360 O   0  0  0  0  0  0  0  0  0  0  0  0
    6.5020   -5.4270    0.6440 C   0  0  0  0  0  0  0  0  0  0  0  0
    7.2380   -5.4620   -0.5450 C   0  0  0  0  0  3  0  0  0  0  0  0
    8.4420   -4.7670   -0.6180 C   0  0  0  0  0  3  0  0  0  0  0  0
    8.8950   -4.0520    0.4890 C   0  0  0  0  0  3  0  0  0  0  0  0
    8.1450   -4.0280    1.6700 C   0  0  0  0  0  3  0  0  0  0  0  0
    6.9340   -4.7200    1.7580 C   0  0  0  0  0  0  0  0  0  0  0  0
    6.1800   -4.6930    2.9240 N   0  0  0  0  0  0  0  0  0  0  0  0
    3.4840   -6.4450    2.4140 H   0  0  0  0  0  0  0  0  0  0  0  0
    6.5530   -4.1600    3.7180 H   0  0  0  0  0  0  0  0  0  0  0  0
    4.1470   -2.8030    4.2800 O   0  0  0  0  0  0  0  0  0  0  0  0
    3.4340   -2.1680    4.4910 H   0  0  0  0  0  0  0  0  0  0  0  0
    2.1910   -1.1870    8.7550 N   0  0  0  0  0  0  0  0  0  0  0  0
    1.3470   -0.6930    8.4770 H   0  0  0  0  0  0  0  0  0  0  0  0
    2.8960   -0.6160    9.9010 C   0  0  0  0  0  2  0  0  0  0  0  0
    4.4140   -0.7170    9.7190 C   0  0  0  0  0  2  0  0  0  0  0  0
    4.8350    0.0860    8.6200 O   0  0  0  0  0  0  0  0  0  0  0  0
    4.2140   -0.1290    7.8970 H   0  0  0  0  0  0  0  0  0  0  0  0
    2.8710   -7.5220    7.1680 C   0  0  0  0  0  2  0  0  0  0  0  0
    1.8410   -8.4270    6.4580 C   0  0  0  0  0  2  0  0  0  0  0  0
   -0.0690   -6.9820    5.5440 C   0  0  0  0  0  1  0  0  0  0  0  0
    0.3300   -8.0800    6.5410 C   0  0  0  0  0  0  0  0  0  0  0  0
    0.0540   -7.5450    7.9650 C   0  0  0  0  0  1  0  0  0  0  0  0
   -0.5470   -9.3220    6.3220 C   0  0  0  0  0  1  0  0  0  0  0  0
  1 11  1  0  0  0  0
  1 34  1  0  0  0  0
  2  1  1  0  0  0  0
  3  2  2  0  0  0  0
  4  5  2  0  0  0  0
  4  2  1  0  0  0  0
  5  6  1  0  0  0  0
  6  7  2  0  0  0  0
  6 11  1  0  0  0  0
  7  8  1  0  0  0  0
  8 28  1  0  0  0  0
  8  9  2  0  0  0  0
 10  9  1  0  0  0  0
 11 10  2  0  0  0  0
 12  4  1  6  0  0  0
 13 24  1  0  0  0  0
 13 12  1  0  0  0  0
 14 13  1  0  0  0  0
 15 14  2  0  0  0  0
 16 14  2  0  0  0  0
 17 14  1  0  0  0  0
 17 22  1  0  0  0  0
 18 17  2  0  0  0  0
 19 18  1  0  0  0  0
 19 20  2  0  0  0  0
 20 21  1  0  0  0  0
 21 22  2  0  0  0  0
 22 23  1  0  0  0  0
 23 12  1  0  0  0  0
 23 25  1  0  0  0  0
 26 27  1  0  0  0  0
 26  5  1  0  0  0  0
 28 30  1  0  0  0  0
 29 28  1  0  0  0  0
 31 30  1  0  0  0  0
 32 31  1  0  0  0  0
 33 32  1  0  0  0  0
 35 37  1  0  0  0  0
 35 34  1  0  0  0  0
 36 37  1  0  0  0  0
 37 38  1  0  0  0  0
 39 37  1  0  0  0  0
M  END
>  <minimizedAffinity>
-7.33160114

$$$$

 OpenBabel09132200033D

 39 42  0  0  1  0  0  0  0  0999 V2000
    4.0550   -4.0290    5.3860 N   0  0  0  0  0  0  0  0  0  0  0  0
    3.0130   -4.5910    6.1190 C   0  0  0  0  0  0  0  0  0  0  0  0
    2.4590   -4.0010    7.0510 O   0  0  0  0  0  0  0  0  0  0  0  0
    2.5220   -5.9570    5.7570 C   0  0  0  0  0  0  0  0  0  0  0  0
    3.0570   -6.5750    4.6900 C   0  0  0  0  0  0  0  0  0  0  0  0
    4.1690   -5.9860    3.9230 C   0  0  0  0  0  0  0  0  0  0  0  0
    4.8130   -6.7080    2.8880 C   0  0  0  0  0  3  0  0  0  0  0  0
    5.8370   -6.1550    2.1170 C   0  0  0  0  0  0  0  0  0  0  0  0
    6.2060   -4.8440    2.4030 C   0  0  0  0  0  3  0  0  0  0  0  0
    5.6190   -4.1290    3.4540 C   0  0  0  0  0  3  0  0  0  0  0  0
    4.6160   -4.6950    4.2490 C   0  0  0  0  0  0  0  0  0  0  0  0
    1.4240   -6.5770    6.5930 C   0  0  1  0  0  3  0  0  0  0  0  0
    1.6430   -6.8190    7.8620 N   0  0  0  0  0  0  0  0  0  0  0  0
    0.6100   -7.4690    8.9030 S   0  0  0  0  0  0  0  0  0  0  0  0
    1.0990   -8.7770    9.2910 O   0  0  0  0  0  0  0  0  0  0  0  0
    0.3010   -6.4910    9.9280 O   0  0  0  0  0  0  0  0  0  0  0  0
   -0.8920   -7.7500    8.0310 C   0  0  0  0  0  0  0  0  0  0  0  0
   -1.9930   -8.2880    8.7060 C   0  0  0  0  0  3  0  0  0  0  0  0
   -3.1770   -8.5050    8.0060 C   0  0  0  0  0  3  0  0  0  0  0  0
   -3.2470   -8.1870    6.6510 C   0  0  0  0  0  3  0  0  0  0  0  0
   -2.1360   -7.6500    5.9920 C   0  0  0  0  0  3  0  0  0  0  0  0
   -0.9410   -7.4250    6.6810 C   0  0  0  0  0  0  0  0  0  0  0  0
    0.1640   -6.8830    6.0370 N   0  0  0  0  0  0  0  0  0  0  0  0
    2.5510   -6.5750    8.2290 H   0  0  0  0  0  0  0  0  0  0  0  0
    0.0720   -6.6690    5.0370 H   0  0  0  0  0  0  0  0  0  0  0  0
    2.5290   -7.7840    4.2470 O   0  0  0  0  0  0  0  0  0  0  0  0
    2.6030   -7.8040    3.2720 H   0  0  0  0  0  0  0  0  0  0  0  0
    6.4590   -6.8080    1.0750 N   0  0  0  0  0  0  0  0  0  0  0  0
    6.9500   -7.6720    1.2920 H   0  0  0  0  0  0  0  0  0  0  0  0
    6.3160   -6.5150   -0.3490 C   0  0  0  0  0  2  0  0  0  0  0  0
    5.0800   -7.2080   -0.9320 C   0  0  0  0  0  2  0  0  0  0  0  0
    5.2480   -8.6230   -0.9020 O   0  0  0  0  0  0  0  0  0  0  0  0
    6.1430   -8.7800   -1.2610 H   0  0  0  0  0  0  0  0  0  0  0  0
    4.5080   -2.6970    5.8100 C   0  0  0  0  0  2  0  0  0  0  0  0
    5.5070   -2.6670    6.9880 C   0  0  0  0  0  2  0  0  0  0  0  0
    4.0130   -0.8390    7.9880 C   0  0  0  0  0  1  0  0  0  0  0  0
    5.3420   -1.6000    8.1040 C   0  0  0  0  0  0  0  0  0  0  0  0
    6.4870   -0.5750    7.9390 C   0  0  0  0  0  1  0  0  0  0  0  0
    5.4620   -2.2240    9.5020 C   0  0  0  0  0  1  0  0  0  0  0  0
  1 34  1  0  0  0  0
  1  2  1  0  0  0  0
  2  3  2  0  0  0  0
  4  2  1  0  0  0  0
  5  4  2  0  0  0  0
  6 11  1  0  0  0  0
  6  5  1  0  0  0  0
  7  6  2  0  0  0  0
  8  9  2  0  0  0  0
  8  7  1  0  0  0  0
  9 10  1  0  0  0  0
 10 11  2  0  0  0  0
 11  1  1  0  0  0  0
 12  4  1  1  0  0  0
 12 13  1  0  0  0  0
 13 24  1  0  0  0  0
 13 14  1  0  0  0  0
 14 15  2  0  0  0  0
 14 16  2  0  0  0  0
 17 18  1  0  0  0  0
 17 14  1  0  0  0  0
 19 18  2  0  0  0  0
 20 19  1  0  0  0  0
 21 20  2  0  0  0  0
 21 22  1  0  0  0  0
 22 17  2  0  0  0  0
 23 12  1  0  0  0  0
 23 22  1  0  0  0  0
 25 23  1  0  0  0  0
 26  5  1  0  0  0  0
 27 26  1  0  0  0  0
 28 29  1  0  0  0  0
 28  8  1  0  0  0  0
 30 28  1  0  0  0  0
 31 32  1  0  0  0  0
 31 30  1  0  0  0  0
 33 32  1  0  0  0  0
 34 35  1  0  0  0  0
 35 37  1  0  0  0  0
 36 37  1  0  0  0  0
 37 39  1  0  0  0  0
 38 37  1  0  0  0  0
M  END
>  <minimizedAffinity>
-7.03038979

$$$$

 OpenBabel09132200033D

 39 42  0  0  1  0  0  0  0  0999 V2000
    4.4880   -5.0000    4.1820 N   0  0  0  0  0  0  0  0  0  0  0  0
    5.5840   -4.1540    4.3280 C   0  0  0  0  0  0  0  0  0  0  0  0
    6.2730   -3.7850    3.3730 O   0  0  0  0  0  0  0  0  0  0  0  0
    5.9370   -3.6480    5.6900 C   0  0  0  0  0  0  0  0  0  0  0  0
    5.1440   -3.9720    6.7260 C   0  0  0  0  0  0  0  0  0  0  0  0
    3.9920   -4.8780    6.5750 C   0  0  0  0  0  0  0  0  0  0  0  0
    3.2490   -5.3180    7.6970 C   0  0  0  0  0  3  0  0  0  0  0  0
    2.1260   -6.1390    7.5750 C   0  0  0  0  0  0  0  0  0  0  0  0
    1.7540   -6.5110    6.2870 C   0  0  0  0  0  3  0  0  0  0  0  0
    2.5020   -6.1300    5.1660 C   0  0  0  0  0  3  0  0  0  0  0  0
    3.6470   -5.3360    5.2920 C   0  0  0  0  0  0  0  0  0  0  0  0
    7.1610   -2.7710    5.8430 C   0  0  1  0  0  3  0  0  0  0  0  0
    8.0540   -2.7430    4.8840 N   0  0  0  0  0  0  0  0  0  0  0  0
    9.4070   -1.8830    4.8640 S   0  0  0  0  0  0  0  0  0  0  0  0
   10.5370   -2.7880    4.9330 O   0  0  0  0  0  0  0  0  0  0  0  0
    9.3330   -0.9180    3.7840 O   0  0  0  0  0  0  0  0  0  0  0  0
    9.4440   -0.9450    6.3520 C   0  0  0  0  0  0  0  0  0  0  0  0
   10.5080   -0.0690    6.5910 C   0  0  0  0  0  3  0  0  0  0  0  0
   10.5270    0.6690    7.7720 C   0  0  0  0  0  3  0  0  0  0  0  0
    9.4910    0.5240    8.6930 C   0  0  0  0  0  3  0  0  0  0  0  0
    8.4340   -0.3550    8.4360 C   0  0  0  0  0  3  0  0  0  0  0  0
    8.4010   -1.1020    7.2560 C   0  0  0  0  0  0  0  0  0  0  0  0
    7.3500   -1.9710    6.9900 N   0  0  0  0  0  0  0  0  0  0  0  0
    7.8780   -3.3180    4.0730 H   0  0  0  0  0  0  0  0  0  0  0  0
    6.6110   -2.0520    7.6970 H   0  0  0  0  0  0  0  0  0  0  0  0
    5.3680   -3.4070    7.9790 O   0  0  0  0  0  0  0  0  0  0  0  0
    4.4990   -3.2780    8.4090 H   0  0  0  0  0  0  0  0  0  0  0  0
    1.3530   -6.5550    8.6360 N   0  0  0  0  0  0  0  0  0  0  0  0
    1.5910   -6.1960    9.5580 H   0  0  0  0  0  0  0  0  0  0  0  0
    0.0900   -7.2870    8.5630 C   0  0  0  0  0  2  0  0  0  0  0  0
   -0.6560   -7.2330    9.9000 C   0  0  0  0  0  2  0  0  0  0  0  0
   -2.0230   -7.5890    9.7180 O   0  0  0  0  0  0  0  0  0  0  0  0
   -2.3180   -7.0730    8.9440 H   0  0  0  0  0  0  0  0  0  0  0  0
    4.2110   -5.4820    2.8220 C   0  0  0  0  0  2  0  0  0  0  0  0
    4.7700   -6.8790    2.4740 C   0  0  0  0  0  2  0  0  0  0  0  0
    4.8450   -8.1020    0.2220 C   0  0  0  0  0  1  0  0  0  0  0  0
    5.5390   -7.0860    1.1420 C   0  0  0  0  0  0  0  0  0  0  0  0
    6.9350   -7.6490    1.4940 C   0  0  0  0  0  1  0  0  0  0  0  0
    5.7370   -5.7600    0.3930 C   0  0  0  0  0  1  0  0  0  0  0  0
  1  2  1  0  0  0  0
  1 11  1  0  0  0  0
  2  4  1  0  0  0  0
  3  2  2  0  0  0  0
  4  5  2  0  0  0  0
  5 26  1  0  0  0  0
  6  5  1  0  0  0  0
  6  7  1  0  0  0  0
  8  7  2  0  0  0  0
  8 28  1  0  0  0  0
  9  8  1  0  0  0  0
 10 11  1  0  0  0  0
 10  9  2  0  0  0  0
 11  6  2  0  0  0  0
 12  4  1  6  0  0  0
 12 23  1  0  0  0  0
 13 12  1  0  0  0  0
 14 13  1  0  0  0  0
 14 15  2  0  0  0  0
 14 17  1  0  0  0  0
 16 14  2  0  0  0  0
 17 18  2  0  0  0  0
 17 22  1  0  0  0  0
 18 19  1  0  0  0  0
 19 20  2  0  0  0  0
 21 20  1  0  0  0  0
 22 21  2  0  0  0  0
 23 22  1  0  0  0  0
 23 25  1  0  0  0  0
 24 13  1  0  0  0  0
 26 27  1  0  0  0  0
 28 29  1  0  0  0  0
 30 28  1  0  0  0  0
 30 31  1  0  0  0  0
 32 31  1  0  0  0  0
 33 32  1  0  0  0  0
 34  1  1  0  0  0  0
 35 34  1  0  0  0  0
 36 37  1  0  0  0  0
 37 38  1  0  0  0  0
 37 35  1  0  0  0  0
 39 37  1  0  0  0  0
M  END
>  <minimizedAffinity>
-6.88371754

$$$$

 OpenBabel09132200033D

 39 42  0  0  1  0  0  0  0  0999 V2000
    3.5170   -7.0080    5.2420 N   0  0  0  0  0  0  0  0  0  0  0  0
    3.8230   -5.9740    6.1230 C   0  0  0  0  0  0  0  0  0  0  0  0
    3.5350   -6.0140    7.3230 O   0  0  0  0  0  0  0  0  0  0  0  0
    4.5490   -4.7710    5.6110 C   0  0  0  0  0  0  0  0  0  0  0  0
    4.9440   -4.7520    4.3260 C   0  0  0  0  0  0  0  0  0  0  0  0
    4.6090   -5.8400    3.3900 C   0  0  0  0  0  0  0  0  0  0  0  0
    4.9140   -5.7440    2.0100 C   0  0  0  0  0  3  0  0  0  0  0  0
    4.6480   -6.7790    1.1120 C   0  0  0  0  0  0  0  0  0  0  0  0
    4.0670   -7.9320    1.6320 C   0  0  0  0  0  3  0  0  0  0  0  0
    3.7120   -8.0300    2.9820 C   0  0  0  0  0  3  0  0  0  0  0  0
    3.9460   -6.9790    3.8760 C   0  0  0  0  0  0  0  0  0  0  0  0
    4.8300   -3.6320    6.5680 C   0  0  1  0  0  3  0  0  0  0  0  0
    6.0630   -3.2250    6.7360 N   0  0  0  0  0  0  0  0  0  0  0  0
    6.5560   -2.0420    7.7000 S   0  0  0  0  0  0  0  0  0  0  0  0
    7.3410   -2.6130    8.7760 O   0  0  0  0  0  0  0  0  0  0  0  0
    7.1240   -0.9830    6.8890 O   0  0  0  0  0  0  0  0  0  0  0  0
    5.1200   -1.3610    8.4540 C   0  0  0  0  0  0  0  0  0  0  0  0
    5.2470   -0.2790    9.3320 C   0  0  0  0  0  3  0  0  0  0  0  0
    4.1040    0.2530    9.9230 C   0  0  0  0  0  3  0  0  0  0  0  0
    2.8570   -0.2980    9.6340 C   0  0  0  0  0  3  0  0  0  0  0  0
    2.7490   -1.3790    8.7520 C   0  0  0  0  0  3  0  0  0  0  0  0
    3.8870   -1.9230    8.1510 C   0  0  0  0  0  0  0  0  0  0  0  0
    3.7860   -2.9910    7.2690 N   0  0  0  0  0  0  0  0  0  0  0  0
    6.7820   -3.6990    6.2080 H   0  0  0  0  0  0  0  0  0  0  0  0
    2.8500   -3.3710    7.0880 H   0  0  0  0  0  0  0  0  0  0  0  0
    5.7380   -3.7100    3.8560 O   0  0  0  0  0  0  0  0  0  0  0  0
    6.3520   -4.0780    3.1900 H   0  0  0  0  0  0  0  0  0  0  0  0
    4.9660   -6.7410   -0.2280 N   0  0  0  0  0  0  0  0  0  0  0  0
    4.4720   -7.3820   -0.8440 H   0  0  0  0  0  0  0  0  0  0  0  0
    5.7810   -5.7330   -0.9040 C   0  0  0  0  0  2  0  0  0  0  0  0
    7.2670   -5.9170   -0.5750 C   0  0  0  0  0  2  0  0  0  0  0  0
    8.0590   -5.0270   -1.3550 O   0  0  0  0  0  0  0  0  0  0  0  0
    7.7190   -5.1170   -2.2660 H   0  0  0  0  0  0  0  0  0  0  0  0
    2.7800   -8.1490    5.8020 C   0  0  0  0  0  2  0  0  0  0  0  0
    1.4380   -7.8140    6.4880 C   0  0  0  0  0  2  0  0  0  0  0  0
   -1.1250   -7.7490    6.4440 C   0  0  0  0  0  1  0  0  0  0  0  0
    0.1650   -7.6090    5.6220 C   0  0  0  0  0  0  0  0  0  0  0  0
    0.1560   -8.7140    4.5420 C   0  0  0  0  0  1  0  0  0  0  0  0
    0.1800   -6.2480    4.9100 C   0  0  0  0  0  1  0  0  0  0  0  0
  1 34  1  0  0  0  0
  1  2  1  0  0  0  0
  2  3  2  0  0  0  0
  4  2  1  0  0  0  0
  5  4  2  0  0  0  0
  6 11  1  0  0  0  0
  6  5  1  0  0  0  0
  7  6  2  0  0  0  0
  8  9  2  0  0  0  0
  8  7  1  0  0  0  0
  9 10  1  0  0  0  0
 10 11  2  0  0  0  0
 11  1  1  0  0  0  0
 12  4  1  6  0  0  0
 12 13  1  0  0  0  0
 12 23  1  0  0  0  0
 13 14  1  0  0  0  0
 14 17  1  0  0  0  0
 14 15  2  0  0  0  0
 16 14  2  0  0  0  0
 17 18  1  0  0  0  0
 18 19  2  0  0  0  0
 20 19  1  0  0  0  0
 21 20  2  0  0  0  0
 22 17  2  0  0  0  0
 22 21  1  0  0  0  0
 23 22  1  0  0  0  0
 24 13  1  0  0  0  0
 25 23  1  0  0  0  0
 26  5  1  0  0  0  0
 27 26  1  0  0  0  0
 28  8  1  0  0  0  0
 29 28  1  0  0  0  0
 30 31  1  0  0  0  0
 30 28  1  0  0  0  0
 32 31  1  0  0  0  0
 33 32  1  0  0  0  0
 34 35  1  0  0  0  0
 37 36  1  0  0  0  0
 37 35  1  0  0  0  0
 38 37  1  0  0  0  0
 39 37  1  0  0  0  0
M  END
>  <minimizedAffinity>
-6.69291496

$$$$
