
 OpenBabel09132204463D

 39 42  0  0  1  0  0  0  0  0999 V2000
    3.5480   -7.1740    4.7140 N   0  0  0  0  0  0  0  0  0  0  0  0
    3.5140   -6.1290    5.6330 C   0  0  0  0  0  0  0  0  0  0  0  0
    3.0010   -6.2400    6.7500 O   0  0  0  0  0  0  0  0  0  0  0  0
    4.1410   -4.8200    5.2710 C   0  0  0  0  0  0  0  0  0  0  0  0
    4.7780   -4.7120    4.0920 C   0  0  0  0  0  0  0  0  0  0  0  0
    4.8030   -5.8130    3.1140 C   0  0  0  0  0  0  0  0  0  0  0  0
    5.3600   -5.6400    1.8230 C   0  0  0  0  0  3  0  0  0  0  0  0
    5.4360   -6.6800    0.8960 C   0  0  0  0  0  0  0  0  0  0  0  0
    4.9410   -7.9180    1.2940 C   0  0  0  0  0  3  0  0  0  0  0  0
    4.3410   -8.1010    2.5460 C   0  0  0  0  0  3  0  0  0  0  0  0
    4.2330   -7.0490    3.4620 C   0  0  0  0  0  0  0  0  0  0  0  0
    4.0520   -3.6760    6.2590 C   0  0  1  0  0  3  0  0  0  0  0  0
    2.8740   -3.2440    6.6350 N   0  0  0  0  0  0  0  0  0  0  0  0
    2.5780   -2.0510    7.6650 S   0  0  0  0  0  0  0  0  0  0  0  0
    1.9730   -0.9490    6.9420 O   0  0  0  0  0  0  0  0  0  0  0  0
    1.9060   -2.5930    8.8300 O   0  0  0  0  0  0  0  0  0  0  0  0
    4.1360   -1.4620    8.2320 C   0  0  0  0  0  0  0  0  0  0  0  0
    4.1840   -0.4300    9.1750 C   0  0  0  0  0  3  0  0  0  0  0  0
    5.4220    0.0280    9.6170 C   0  0  0  0  0  3  0  0  0  0  0  0
    6.5900   -0.5460    9.1160 C   0  0  0  0  0  3  0  0  0  0  0  0
    6.5230   -1.5780    8.1750 C   0  0  0  0  0  3  0  0  0  0  0  0
    5.2870   -2.0480    7.7210 C   0  0  0  0  0  0  0  0  0  0  0  0
    5.2130   -3.0790    6.7930 N   0  0  0  0  0  0  0  0  0  0  0  0
    2.0660   -3.7040    6.2420 H   0  0  0  0  0  0  0  0  0  0  0  0
    6.0960   -3.4690    6.4450 H   0  0  0  0  0  0  0  0  0  0  0  0
    5.4860   -3.5530    3.7870 O   0  0  0  0  0  0  0  0  0  0  0  0
    6.2690   -3.8110    3.2590 H   0  0  0  0  0  0  0  0  0  0  0  0
    6.0070   -6.5630   -0.3520 N   0  0  0  0  0  0  0  0  0  0  0  0
    5.8220   -7.3050   -1.0230 H   0  0  0  0  0  0  0  0  0  0  0  0
    6.6770   -5.3850   -0.8990 C   0  0  0  0  0  2  0  0  0  0  0  0
    8.0580   -5.1930   -0.2640 C   0  0  0  0  0  2  0  0  0  0  0  0
    8.9470   -4.5780   -1.1910 O   0  0  0  0  0  0  0  0  0  0  0  0
    8.8290   -5.0750   -2.0230 H   0  0  0  0  0  0  0  0  0  0  0  0
    2.8910   -8.4240    5.1210 C   0  0  0  0  0  2  0  0  0  0  0  0
    1.4920   -8.6780    4.5200 C   0  0  0  0  0  2  0  0  0  0  0  0
   -0.2150   -6.9970    5.4330 C   0  0  0  0  0  1  0  0  0  0  0  0
    0.2300   -8.4660    5.4000 C   0  0  0  0  0  0  0  0  0  0  0  0
    0.5970   -8.8780    6.8440 C   0  0  0  0  0  1  0  0  0  0  0  0
   -0.9360   -9.3510    4.9370 C   0  0  0  0  0  1  0  0  0  0  0  0
  1 34  1  0  0  0  0
  1  2  1  0  0  0  0
  2  3  2  0  0  0  0
  4  2  1  0  0  0  0
  5  4  2  0  0  0  0
  6 11  1  0  0  0  0
  6  5  1  0  0  0  0
  7  6  2  0  0  0  0
  8  9  2  0  0  0  0
  8  7  1  0  0  0  0
  9 10  1  0  0  0  0
 10 11  2  0  0  0  0
 11  1  1  0  0  0  0
 12  4  1  1  0  0  0
 12 13  1  0  0  0  0
 12 23  1  0  0  0  0
 13 14  1  0  0  0  0
 14 17  1  0  0  0  0
 14 16  2  0  0  0  0
 15 14  2  0  0  0  0
 17 18  1  0  0  0  0
 18 19  2  0  0  0  0
 20 19  1  0  0  0  0
 21 20  2  0  0  0  0
 22 21  1  0  0  0  0
 22 17  2  0  0  0  0
 23 22  1  0  0  0  0
 24 13  1  0  0  0  0
 25 23  1  0  0  0  0
 26  5  1  0  0  0  0
 27 26  1  0  0  0  0
 28  8  1  0  0  0  0
 29 28  1  0  0  0  0
 30 28  1  0  0  0  0
 30 31  1  0  0  0  0
 32 31  1  0  0  0  0
 33 32  1  0  0  0  0
 35 34  1  0  0  0  0
 35 37  1  0  0  0  0
 37 36  1  0  0  0  0
 37 38  1  0  0  0  0
 39 37  1  0  0  0  0
M  END
>  <minimizedAffinity>
-7.6081233

$$$$
