REMARK  Name = 
REMARK  5 active torsions:
REMARK  status: ('A' for Active; 'I' for Inactive)
REMARK    1  A    between atoms: C_2  and  CA_4
REMARK    2  A    between atoms: CA_4  and  N_18
REMARK    3  A    between atoms: C_5  and  C_6
REMARK    4  A    between atoms: C_9  and  C_10
REMARK    5  A    between atoms: C_19  and  C_21
REMARK                            x       y       z     vdW  Elec       q    Type
REMARK                         _______ _______ _______ _____ _____    ______ ____
ROOT
ATOM      1  CA  UNL     1       3.267  -0.837  -1.043  0.00  0.00    +0.059 C 
ATOM      2  C   UNL     1       2.834  -1.868  -1.797  0.00  0.00    +0.060 C 
ENDROOT
BRANCH   2   3
ATOM      3  C   UNL     1       3.606  -3.028  -2.099  0.00  0.00    +0.103 A 
ATOM      4  N   UNL     1       4.832  -3.310  -1.685  0.00  0.00    -0.247 NA
ATOM      5  C   UNL     1       5.261  -4.512  -2.210  0.00  0.00    +0.127 A 
ATOM      6  C   UNL     1       4.375  -5.153  -3.049  0.00  0.00    +0.041 A 
ATOM      7  S   UNL     1       2.932  -4.235  -3.148  0.00  0.00    -0.068 S 
BRANCH   6   8
ATOM      8  C   UNL     1       4.519  -6.403  -3.794  0.00  0.00    +0.009 A 
ATOM      9  C   UNL     1       4.527  -6.358  -5.200  0.00  0.00    +0.010 A 
ATOM     10  C   UNL     1       4.678  -7.522  -5.957  0.00  0.00    +0.001 A 
ATOM     11  C   UNL     1       4.827  -8.751  -5.321  0.00  0.00    +0.001 A 
ATOM     12  C   UNL     1       4.824  -8.815  -3.927  0.00  0.00    +0.020 A 
ATOM     13  C   UNL     1       4.673  -7.650  -3.165  0.00  0.00    +0.049 A 
ATOM     14 CL   UNL     1       4.666  -7.828  -1.444  0.00  0.00    -0.083 Cl
ENDBRANCH   6   8
ENDBRANCH   2   3
BRANCH   1  15
ATOM     15  N   UNL     1       4.540  -0.805  -0.490  0.00  0.00    -0.280 N 
ATOM     16  C   UNL     1       5.164   0.113   0.323  0.00  0.00    +0.248 C 
ATOM     17  O   UNL     1       6.386   0.059   0.492  0.00  0.00    -0.270 OA
ATOM     18  H   UNL     1       5.157  -1.562  -0.778  0.00  0.00    +0.155 HD
BRANCH  16  19
ATOM     19  C   UNL     1       4.410   1.127   1.089  0.00  0.00    +0.037 A 
ATOM     20  C   UNL     1       4.878   2.446   1.098  0.00  0.00    +0.013 A 
ATOM     21  C   UNL     1       4.234   3.410   1.874  0.00  0.00    +0.001 A 
ATOM     22  C   UNL     1       3.134   3.053   2.656  0.00  0.00    +0.000 A 
ATOM     23  C   UNL     1       2.682   1.733   2.668  0.00  0.00    +0.001 A 
ATOM     24  C   UNL     1       3.328   0.765   1.897  0.00  0.00    +0.013 A 
ENDBRANCH  16  19
ENDBRANCH   1  15
BRANCH   1  26
ATOM     25  O   UNL     1       1.113  -0.012  -0.447  0.00  0.00    -0.543 OA
ATOM     26  C   UNL     1       2.215   0.305  -0.985  0.00  0.00    +0.086 C 
ATOM     27  OXT UNL     1       2.564   1.381  -1.548  0.00  0.00    -0.543 OA
ENDBRANCH   1  26
TORSDOF 5
