
 OpenBabel09122223583D

 27 29  0  0  0  0  0  0  0  0999 V2000
    3.9800   -8.9990    1.2320 C   0  0  0  0  0  0  0  0  0  0  0  0
    4.4960   -8.0360    0.4400 C   0  0  0  0  0  2  0  0  0  0  0  0
    5.7550   -7.4030    0.6550 C   0  0  0  0  0  0  0  0  0  0  0  0
    6.8380   -7.9290    1.2050 N   0  0  0  0  0  0  0  0  0  0  0  0
    7.8550   -6.9980    1.2690 C   0  0  0  0  0  3  0  0  0  0  0  0
    7.5540   -5.7430    0.7870 C   0  0  0  0  0  0  0  0  0  0  0  0
    5.9480   -5.7420    0.1900 S   0  0  0  0  0  0  0  0  0  0  0  0
    8.3710   -4.5310    0.7380 C   0  0  0  0  0  0  0  0  0  0  0  0
    9.2560   -4.3520   -0.3400 C   0  0  0  0  0  3  0  0  0  0  0  0
   10.0460   -3.2040   -0.4410 C   0  0  0  0  0  3  0  0  0  0  0  0
    9.9620   -2.2140    0.5340 C   0  0  0  0  0  3  0  0  0  0  0  0
    9.0880   -2.3730    1.6100 C   0  0  0  0  0  3  0  0  0  0  0  0
    8.2940   -3.5230    1.7140 C   0  0  0  0  0  0  0  0  0  0  0  0
    7.2520   -3.6400    3.0900 Cl  0  0  0  0  0  0  0  0  0  0  0  0
    4.6390   -9.4620    2.3630 N   0  0  0  0  0  4  0  0  0  0  0  0
    4.7160   -8.9700    3.6460 C   0  0  0  0  0  0  0  0  0  0  0  0
    5.5630   -9.4120    4.4280 O   0  0  0  0  0  0  0  0  0  0  0  0
    5.2260  -10.2810    2.2180 H   0  0  0  0  0  0  0  0  0  0  0  0
    3.7520   -7.9780    4.1670 C   0  0  0  0  0  0  0  0  0  0  0  0
    4.0400   -6.6170    4.0130 C   0  0  0  0  0  3  0  0  0  0  0  0
    3.1910   -5.6570    4.5630 C   0  0  0  0  0  3  0  0  0  0  0  0
    2.0630   -6.0560    5.2830 C   0  0  0  0  0  3  0  0  0  0  0  0
    1.7880   -7.4130    5.4590 C   0  0  0  0  0  3  0  0  0  0  0  0
    2.6400   -8.3760    4.9150 C   0  0  0  0  0  3  0  0  0  0  0  0
    2.1940  -10.5710    1.1250 O   0  0  0  0  0  1  0  0  0  0  0  0
    2.5540   -9.4100    0.7710 C   0  0  0  0  0  0  0  0  0  0  0  0
    1.9660   -8.5640    0.0390 O   0  0  0  0  0  0  0  0  0  0  0  0
  1 15  2  3  0  0  0
  2  3  1  0  0  0  0
  2  1  1  0  0  0  0
  3  4  2  0  0  0  0
  4  5  1  0  0  0  0
  6  5  2  0  0  0  0
  7  3  1  0  0  0  0
  7  6  1  0  0  0  0
  8  6  1  0  0  0  0
  8 13  1  0  0  0  0
  9  8  2  0  0  0  0
 10  9  1  0  0  0  0
 10 11  2  0  0  0  0
 11 12  1  0  0  0  0
 12 13  2  0  0  0  0
 13 14  1  0  0  0  0
 15 16  1  0  0  0  0
 16 19  1  0  0  0  0
 16 17  2  0  0  0  0
 18 15  1  0  0  0  0
 19 24  1  0  0  0  0
 20 19  2  0  0  0  0
 20 21  1  0  0  0  0
 21 22  2  0  0  0  0
 22 23  1  0  0  0  0
 24 23  2  0  0  0  0
 26 25  1  0  0  0  0
 26  1  1  0  0  0  0
 27 26  2  0  0  0  0
M  END
>  <minimizedAffinity>
-6.76253653

$$$$

 OpenBabel09122223583D

 27 29  0  0  0  0  0  0  0  0999 V2000
    3.4910  -10.6980    5.2400 C   0  0  0  0  0  0  0  0  0  0  0  0
    4.6760  -10.2090    4.8210 C   0  0  0  0  0  2  0  0  0  0  0  0
    4.8380   -8.9980    4.0870 C   0  0  0  0  0  0  0  0  0  0  0  0
    4.2180   -7.8450    4.2900 N   0  0  0  0  0  0  0  0  0  0  0  0
    4.6130   -6.9070    3.3570 C   0  0  0  0  0  3  0  0  0  0  0  0
    5.5240   -7.3400    2.4180 C   0  0  0  0  0  0  0  0  0  0  0  0
    5.9340   -8.9710    2.7430 S   0  0  0  0  0  0  0  0  0  0  0  0
    6.1160   -6.6310    1.2830 C   0  0  0  0  0  0  0  0  0  0  0  0
    7.3610   -5.9990    1.4530 C   0  0  0  0  0  3  0  0  0  0  0  0
    7.9760   -5.3230    0.3970 C   0  0  0  0  0  3  0  0  0  0  0  0
    7.3580   -5.2710   -0.8490 C   0  0  0  0  0  3  0  0  0  0  0  0
    6.1240   -5.8950   -1.0370 C   0  0  0  0  0  3  0  0  0  0  0  0
    5.5050   -6.5730    0.0200 C   0  0  0  0  0  0  0  0  0  0  0  0
    3.9690   -7.3030   -0.3020 Cl  0  0  0  0  0  0  0  0  0  0  0  0
    2.2890  -10.0550    4.9750 N   0  0  0  0  0  4  0  0  0  0  0  0
    1.5590   -9.9150    3.8170 C   0  0  0  0  0  0  0  0  0  0  0  0
    0.6420   -9.0910    3.7600 O   0  0  0  0  0  0  0  0  0  0  0  0
    1.8920   -9.5380    5.7570 H   0  0  0  0  0  0  0  0  0  0  0  0
    1.7710  -10.7870    2.6430 C   0  0  0  0  0  0  0  0  0  0  0  0
    2.4700  -10.2750    1.5440 C   0  0  0  0  0  3  0  0  0  0  0  0
    2.6190  -11.0450    0.3900 C   0  0  0  0  0  3  0  0  0  0  0  0
    2.0540  -12.3200    0.3270 C   0  0  0  0  0  3  0  0  0  0  0  0
    1.3350  -12.8220    1.4120 C   0  0  0  0  0  3  0  0  0  0  0  0
    1.1790  -12.0520    2.5650 C   0  0  0  0  0  3  0  0  0  0  0  0
    4.8570  -12.4360    6.1260 O   0  0  0  0  0  0  0  0  0  0  0  0
    3.6580  -12.0790    5.9310 C   0  0  0  0  0  0  0  0  0  0  0  0
    2.5800  -12.7040    6.1420 O   0  0  0  0  0  1  0  0  0  0  0  0
  1 26  1  0  0  0  0
  2  1  1  0  0  0  0
  3  4  2  0  0  0  0
  3  2  1  0  0  0  0
  5  4  1  0  0  0  0
  6  7  1  0  0  0  0
  6  5  2  0  0  0  0
  7  3  1  0  0  0  0
  8  9  1  0  0  0  0
  8  6  1  0  0  0  0
 10  9  2  0  0  0  0
 11 10  1  0  0  0  0
 12 11  2  0  0  0  0
 12 13  1  0  0  0  0
 13  8  2  0  0  0  0
 14 13  1  0  0  0  0
 15  1  2  0  0  0  0
 15 18  1  0  0  0  0
 16 15  1  0  0  0  0
 17 16  2  0  0  0  0
 19 16  1  0  0  0  0
 20 19  2  0  0  0  0
 21 20  1  0  0  0  0
 22 21  2  0  0  0  0
 22 23  1  0  0  0  0
 23 24  2  0  0  0  0
 24 19  1  0  0  0  0
 26 25  2  0  0  0  0
 26 27  1  0  0  0  0
M  END
>  <minimizedAffinity>
-6.53409767

$$$$

 OpenBabel09122223583D

 27 29  0  0  0  0  0  0  0  0999 V2000
    4.7050   -7.3230    0.6070 C   0  0  0  0  0  0  0  0  0  0  0  0
    5.3980   -6.4740    1.3920 C   0  0  0  0  0  2  0  0  0  0  0  0
    4.9250   -5.9500    2.6300 C   0  0  0  0  0  0  0  0  0  0  0  0
    4.6970   -6.6150    3.7520 N   0  0  0  0  0  0  0  0  0  0  0  0
    4.2150   -5.7710    4.7320 C   0  0  0  0  0  3  0  0  0  0  0  0
    4.0500   -4.4540    4.3640 C   0  0  0  0  0  0  0  0  0  0  0  0
    4.5590   -4.2570    2.7400 S   0  0  0  0  0  0  0  0  0  0  0  0
    3.5330   -3.3190    5.1280 C   0  0  0  0  0  0  0  0  0  0  0  0
    2.1970   -2.9220    4.9340 C   0  0  0  0  0  3  0  0  0  0  0  0
    1.6520   -1.8550    5.6520 C   0  0  0  0  0  3  0  0  0  0  0  0
    2.4310   -1.1690    6.5780 C   0  0  0  0  0  3  0  0  0  0  0  0
    3.7580   -1.5500    6.7860 C   0  0  0  0  0  3  0  0  0  0  0  0
    4.3080   -2.6200    6.0690 C   0  0  0  0  0  0  0  0  0  0  0  0
    5.9640   -3.0110    6.3810 Cl  0  0  0  0  0  0  0  0  0  0  0  0
    3.4300   -7.7650    0.9360 N   0  0  0  0  0  4  0  0  0  0  0  0
    2.9610   -8.9930    1.3420 C   0  0  0  0  0  0  0  0  0  0  0  0
    1.7480   -9.2220    1.3410 O   0  0  0  0  0  0  0  0  0  0  0  0
    2.6860   -7.0830    0.7980 H   0  0  0  0  0  0  0  0  0  0  0  0
    3.8560  -10.0410    1.8740 C   0  0  0  0  0  0  0  0  0  0  0  0
    3.8330  -11.3080    1.2820 C   0  0  0  0  0  3  0  0  0  0  0  0
    4.6080  -12.3410    1.8100 C   0  0  0  0  0  3  0  0  0  0  0  0
    5.3920  -12.1130    2.9420 C   0  0  0  0  0  3  0  0  0  0  0  0
    5.3970  -10.8570    3.5500 C   0  0  0  0  0  3  0  0  0  0  0  0
    4.6180   -9.8230    3.0270 C   0  0  0  0  0  3  0  0  0  0  0  0
    5.4700   -8.8470   -1.0570 O   0  0  0  0  0  1  0  0  0  0  0  0
    5.4670   -7.6280   -0.7120 C   0  0  0  0  0  0  0  0  0  0  0  0
    6.0500   -6.6360   -1.2330 O   0  0  0  0  0  0  0  0  0  0  0  0
  1 15  2  0  0  0  0
  1  2  1  0  0  0  0
  2  3  1  0  0  0  0
  3  7  1  0  0  0  0
  3  4  2  0  0  0  0
  4  5  1  0  0  0  0
  6  5  2  0  0  0  0
  6  8  1  0  0  0  0
  7  6  1  0  0  0  0
  8 13  1  0  0  0  0
  9  8  2  0  0  0  0
  9 10  1  0  0  0  0
 10 11  2  0  0  0  0
 11 12  1  0  0  0  0
 13 14  1  0  0  0  0
 13 12  2  0  0  0  0
 15 16  1  0  0  0  0
 16 19  1  0  0  0  0
 17 16  2  0  0  0  0
 18 15  1  0  0  0  0
 19 24  1  0  0  0  0
 20 21  1  0  0  0  0
 20 19  2  0  0  0  0
 21 22  2  0  0  0  0
 22 23  1  0  0  0  0
 24 23  2  0  0  0  0
 25 26  1  0  0  0  0
 26  1  1  0  0  0  0
 27 26  2  0  0  0  0
M  END
>  <minimizedAffinity>
-6.28162622

$$$$

 OpenBabel09122223583D

 27 29  0  0  0  0  0  0  0  0999 V2000
    3.7890   -8.3850    1.4290 C   0  0  0  0  0  0  0  0  0  0  0  0
    4.7350   -8.1700    0.4920 C   0  0  0  0  0  2  0  0  0  0  0  0
    5.9580   -7.4750    0.7240 C   0  0  0  0  0  0  0  0  0  0  0  0
    7.0050   -7.8950    1.4190 N   0  0  0  0  0  0  0  0  0  0  0  0
    7.9920   -6.9310    1.4460 C   0  0  0  0  0  3  0  0  0  0  0  0
    7.7030   -5.7540    0.7910 C   0  0  0  0  0  0  0  0  0  0  0  0
    6.1510   -5.8770    0.0750 S   0  0  0  0  0  0  0  0  0  0  0  0
    8.4930   -4.5310    0.6570 C   0  0  0  0  0  0  0  0  0  0  0  0
    9.3280   -4.3820   -0.4660 C   0  0  0  0  0  3  0  0  0  0  0  0
   10.0900   -3.2260   -0.6480 C   0  0  0  0  0  3  0  0  0  0  0  0
   10.0300   -2.1980    0.2880 C   0  0  0  0  0  3  0  0  0  0  0  0
    9.2060   -2.3270    1.4070 C   0  0  0  0  0  3  0  0  0  0  0  0
    8.4400   -3.4840    1.5930 C   0  0  0  0  0  0  0  0  0  0  0  0
    7.4600   -3.5630    3.0170 Cl  0  0  0  0  0  0  0  0  0  0  0  0
    3.9170   -7.9250    2.7330 N   0  0  0  0  0  4  0  0  0  0  0  0
    3.9040   -8.5810    3.9420 C   0  0  0  0  0  0  0  0  0  0  0  0
    3.7870   -7.9410    4.9910 O   0  0  0  0  0  0  0  0  0  0  0  0
    3.9700   -6.9130    2.8320 H   0  0  0  0  0  0  0  0  0  0  0  0
    4.1180  -10.0390    4.0490 C   0  0  0  0  0  0  0  0  0  0  0  0
    5.2660  -10.5930    3.4700 C   0  0  0  0  0  3  0  0  0  0  0  0
    5.4580  -11.9750    3.4860 C   0  0  0  0  0  3  0  0  0  0  0  0
    4.4940  -12.8050    4.0620 C   0  0  0  0  0  3  0  0  0  0  0  0
    3.3380  -12.2560    4.6160 C   0  0  0  0  0  3  0  0  0  0  0  0
    3.1400  -10.8750    4.5970 C   0  0  0  0  0  3  0  0  0  0  0  0
    2.3310  -10.2620    1.2630 O   0  0  0  0  0  1  0  0  0  0  0  0
    2.5440   -9.0920    0.8260 C   0  0  0  0  0  0  0  0  0  0  0  0
    1.9450   -8.4410   -0.0770 O   0  0  0  0  0  0  0  0  0  0  0  0
  1 15  2  0  0  0  0
  2  3  1  0  0  0  0
  2  1  1  0  0  0  0
  3  4  2  0  0  0  0
  4  5  1  0  0  0  0
  6  5  2  0  0  0  0
  7  3  1  0  0  0  0
  7  6  1  0  0  0  0
  8  6  1  0  0  0  0
  8 13  1  0  0  0  0
  9  8  2  0  0  0  0
 10  9  1  0  0  0  0
 10 11  2  0  0  0  0
 11 12  1  0  0  0  0
 12 13  2  0  0  0  0
 13 14  1  0  0  0  0
 15 18  1  0  0  0  0
 15 16  1  0  0  0  0
 16 19  1  0  0  0  0
 16 17  2  0  0  0  0
 19 24  1  0  0  0  0
 20 21  1  0  0  0  0
 20 19  2  0  0  0  0
 21 22  2  0  0  0  0
 22 23  1  0  0  0  0
 24 23  2  0  0  0  0
 26 25  1  0  0  0  0
 26  1  1  0  0  0  0
 27 26  2  0  0  0  0
M  END
>  <minimizedAffinity>
-6.23434019

$$$$

 OpenBabel09122223583D

 27 29  0  0  0  0  0  0  0  0999 V2000
    3.7100   -8.5970    3.6440 C   0  0  0  0  0  0  0  0  0  0  0  0
    3.8690   -7.3600    3.1310 C   0  0  0  0  0  2  0  0  0  0  0  0
    5.0430   -6.9090    2.4600 C   0  0  0  0  0  0  0  0  0  0  0  0
    5.8620   -7.6220    1.7020 N   0  0  0  0  0  0  0  0  0  0  0  0
    6.9090   -6.8450    1.2480 C   0  0  0  0  0  3  0  0  0  0  0  0
    6.9120   -5.5330    1.6700 C   0  0  0  0  0  0  0  0  0  0  0  0
    5.5270   -5.2520    2.6380 S   0  0  0  0  0  0  0  0  0  0  0  0
    7.8750   -4.4630    1.4130 C   0  0  0  0  0  0  0  0  0  0  0  0
    8.3240   -3.6800    2.4930 C   0  0  0  0  0  3  0  0  0  0  0  0
    9.2550   -2.6570    2.3020 C   0  0  0  0  0  3  0  0  0  0  0  0
    9.7560   -2.4010    1.0290 C   0  0  0  0  0  3  0  0  0  0  0  0
    9.3250   -3.1690   -0.0530 C   0  0  0  0  0  3  0  0  0  0  0  0
    8.3920   -4.1960    0.1340 C   0  0  0  0  0  0  0  0  0  0  0  0
    7.9040   -5.0850   -1.2680 Cl  0  0  0  0  0  0  0  0  0  0  0  0
    4.7050   -9.5630    3.5760 N   0  0  0  0  0  4  0  0  0  0  0  0
    4.6890  -10.8670    3.1370 C   0  0  0  0  0  0  0  0  0  0  0  0
    5.6330  -11.6180    3.3990 O   0  0  0  0  0  0  0  0  0  0  0  0
    5.6010   -9.2910    3.9750 H   0  0  0  0  0  0  0  0  0  0  0  0
    3.6130  -11.3940    2.2730 C   0  0  0  0  0  0  0  0  0  0  0  0
    2.6590  -12.2500    2.8360 C   0  0  0  0  0  3  0  0  0  0  0  0
    1.6770  -12.8270    2.0310 C   0  0  0  0  0  3  0  0  0  0  0  0
    1.6570  -12.5620    0.6600 C   0  0  0  0  0  3  0  0  0  0  0  0
    2.6220  -11.7290    0.0940 C   0  0  0  0  0  3  0  0  0  0  0  0
    3.6100  -11.1560    0.8960 C   0  0  0  0  0  3  0  0  0  0  0  0
    1.3820   -9.1050    3.6620 O   0  0  0  0  0  0  0  0  0  0  0  0
    2.3520   -8.7330    4.3870 C   0  0  0  0  0  0  0  0  0  0  0  0
    2.3710   -8.3850    5.6020 O   0  0  0  0  0  1  0  0  0  0  0  0
  1 26  1  0  0  0  0
  2  1  1  0  0  0  0
  3  7  1  0  0  0  0
  3  2  1  0  0  0  0
  4  3  2  0  0  0  0
  5  6  2  0  0  0  0
  5  4  1  0  0  0  0
  6  7  1  0  0  0  0
  8  6  1  0  0  0  0
  8  9  1  0  0  0  0
 10  9  2  0  0  0  0
 11 10  1  0  0  0  0
 12 13  1  0  0  0  0
 12 11  2  0  0  0  0
 13  8  2  0  0  0  0
 14 13  1  0  0  0  0
 15  1  2  0  0  0  0
 15 18  1  0  0  0  0
 16 17  2  0  0  0  0
 16 15  1  0  0  0  0
 19 20  1  0  0  0  0
 19 16  1  0  0  0  0
 21 20  2  0  0  0  0
 22 21  1  0  0  0  0
 23 22  2  0  0  0  0
 23 24  1  0  0  0  0
 24 19  2  0  0  0  0
 25 26  2  0  0  0  0
 26 27  1  0  0  0  0
M  END
>  <minimizedAffinity>
-6.14747858

$$$$

 OpenBabel09122223583D

 27 29  0  0  0  0  0  0  0  0999 V2000
    4.0400  -11.0200    4.1660 C   0  0  0  0  0  0  0  0  0  0  0  0
    4.7840   -9.9770    4.5890 C   0  0  0  0  0  2  0  0  0  0  0  0
    4.9670   -8.7670    3.8590 C   0  0  0  0  0  0  0  0  0  0  0  0
    4.3220   -7.6220    4.0230 N   0  0  0  0  0  0  0  0  0  0  0  0
    4.7540   -6.6820    3.1090 C   0  0  0  0  0  3  0  0  0  0  0  0
    5.7200   -7.1050    2.2220 C   0  0  0  0  0  0  0  0  0  0  0  0
    6.1350   -8.7290    2.5760 S   0  0  0  0  0  0  0  0  0  0  0  0
    6.3630   -6.3920    1.1180 C   0  0  0  0  0  0  0  0  0  0  0  0
    7.5920   -5.7500    1.3500 C   0  0  0  0  0  3  0  0  0  0  0  0
    8.2540   -5.0700    0.3250 C   0  0  0  0  0  3  0  0  0  0  0  0
    7.6990   -5.0240   -0.9510 C   0  0  0  0  0  3  0  0  0  0  0  0
    6.4810   -5.6570   -1.2000 C   0  0  0  0  0  3  0  0  0  0  0  0
    5.8150   -6.3400   -0.1750 C   0  0  0  0  0  0  0  0  0  0  0  0
    4.3030   -7.0820   -0.5720 Cl  0  0  0  0  0  0  0  0  0  0  0  0
    3.3800  -11.0130    2.9440 N   0  0  0  0  0  4  0  0  0  0  0  0
    2.0450  -10.9270    2.6240 C   0  0  0  0  0  0  0  0  0  0  0  0
    1.6660  -11.1890    1.4780 O   0  0  0  0  0  0  0  0  0  0  0  0
    3.9740  -11.1580    2.1300 H   0  0  0  0  0  0  0  0  0  0  0  0
    1.0340  -10.4380    3.5850 C   0  0  0  0  0  0  0  0  0  0  0  0
    0.0040  -11.3020    3.9730 C   0  0  0  0  0  3  0  0  0  0  0  0
   -1.0080  -10.8460    4.8170 C   0  0  0  0  0  3  0  0  0  0  0  0
   -1.0030   -9.5220    5.2590 C   0  0  0  0  0  3  0  0  0  0  0  0
    0.0100   -8.6520    4.8520 C   0  0  0  0  0  3  0  0  0  0  0  0
    1.0210   -9.1040    4.0030 C   0  0  0  0  0  3  0  0  0  0  0  0
    5.2450  -12.8030    5.1880 O   0  0  0  0  0  0  0  0  0  0  0  0
    4.1230  -12.2150    5.1550 C   0  0  0  0  0  0  0  0  0  0  0  0
    3.0410  -12.4970    5.7430 O   0  0  0  0  0  1  0  0  0  0  0  0
  1  2  1  0  0  0  0
  1 26  1  0  0  0  0
  3  4  2  0  0  0  0
  3  2  1  0  0  0  0
  5  4  1  0  0  0  0
  6  7  1  0  0  0  0
  6  5  2  0  0  0  0
  7  3  1  0  0  0  0
  8  9  1  0  0  0  0
  8  6  1  0  0  0  0
 10  9  2  0  0  0  0
 11 10  1  0  0  0  0
 12 11  2  0  0  0  0
 12 13  1  0  0  0  0
 13  8  2  0  0  0  0
 14 13  1  0  0  0  0
 15  1  2  0  0  0  0
 16 15  1  0  0  0  0
 16 19  1  0  0  0  0
 17 16  2  0  0  0  0
 18 15  1  0  0  0  0
 19 20  2  0  0  0  0
 19 24  1  0  0  0  0
 20 21  1  0  0  0  0
 21 22  2  0  0  0  0
 23 22  1  0  0  0  0
 24 23  2  0  0  0  0
 26 25  2  0  0  0  0
 26 27  1  0  0  0  0
M  END
>  <minimizedAffinity>
-6.11576271

$$$$

 OpenBabel09122223583D

 27 29  0  0  0  0  0  0  0  0999 V2000
    4.0770   -9.8090    1.5240 C   0  0  0  0  0  0  0  0  0  0  0  0
    4.0050   -8.6040    0.9220 C   0  0  0  0  0  2  0  0  0  0  0  0
    4.7600   -7.4600    1.3120 C   0  0  0  0  0  0  0  0  0  0  0  0
    4.4690   -6.5880    2.2650 N   0  0  0  0  0  0  0  0  0  0  0  0
    5.4250   -5.5950    2.3290 C   0  0  0  0  0  3  0  0  0  0  0  0
    6.4480   -5.6850    1.4110 C   0  0  0  0  0  0  0  0  0  0  0  0
    6.2260   -7.0920    0.4590 S   0  0  0  0  0  0  0  0  0  0  0  0
    7.5860   -4.7960    1.1780 C   0  0  0  0  0  0  0  0  0  0  0  0
    8.3180   -4.9300   -0.0160 C   0  0  0  0  0  3  0  0  0  0  0  0
    9.4030   -4.0950   -0.2920 C   0  0  0  0  0  3  0  0  0  0  0  0
    9.7730   -3.1090    0.6190 C   0  0  0  0  0  3  0  0  0  0  0  0
    9.0570   -2.9610    1.8070 C   0  0  0  0  0  3  0  0  0  0  0  0
    7.9680   -3.7960    2.0880 C   0  0  0  0  0  0  0  0  0  0  0  0
    7.1500   -3.5480    3.5920 Cl  0  0  0  0  0  0  0  0  0  0  0  0
    4.9050  -10.0460    2.6130 N   0  0  0  0  0  4  0  0  0  0  0  0
    4.6990   -9.9160    3.9670 C   0  0  0  0  0  0  0  0  0  0  0  0
    5.6590   -9.9460    4.7440 O   0  0  0  0  0  0  0  0  0  0  0  0
    5.8620  -10.3060    2.3820 H   0  0  0  0  0  0  0  0  0  0  0  0
    3.3450   -9.8290    4.5530 C   0  0  0  0  0  0  0  0  0  0  0  0
    2.6730  -11.0150    4.8670 C   0  0  0  0  0  3  0  0  0  0  0  0
    1.3640  -10.9690    5.3480 C   0  0  0  0  0  3  0  0  0  0  0  0
    0.7200   -9.7400    5.4970 C   0  0  0  0  0  3  0  0  0  0  0  0
    1.3800   -8.5580    5.1600 C   0  0  0  0  0  3  0  0  0  0  0  0
    2.6880   -8.6010    4.6730 C   0  0  0  0  0  3  0  0  0  0  0  0
    1.9060  -10.7860    1.4390 O   0  0  0  0  0  1  0  0  0  0  0  0
    3.0590  -10.8110    0.9140 C   0  0  0  0  0  0  0  0  0  0  0  0
    3.5290  -11.5750    0.0240 O   0  0  0  0  0  0  0  0  0  0  0  0
  1 15  2  3  0  0  0
  2  3  1  0  0  0  0
  2  1  1  0  0  0  0
  3  4  2  0  0  0  0
  4  5  1  0  0  0  0
  6  5  2  0  0  0  0
  7  3  1  0  0  0  0
  7  6  1  0  0  0  0
  8  6  1  0  0  0  0
  8 13  1  0  0  0  0
  9  8  2  0  0  0  0
 10  9  1  0  0  0  0
 10 11  2  0  0  0  0
 11 12  1  0  0  0  0
 12 13  2  0  0  0  0
 13 14  1  0  0  0  0
 15 16  1  0  0  0  0
 16 19  1  0  0  0  0
 16 17  2  0  0  0  0
 18 15  1  0  0  0  0
 19 24  2  0  0  0  0
 19 20  1  0  0  0  0
 20 21  2  0  0  0  0
 21 22  1  0  0  0  0
 23 22  2  0  0  0  0
 24 23  1  0  0  0  0
 26 25  1  0  0  0  0
 26  1  1  0  0  0  0
 27 26  2  0  0  0  0
M  END
>  <minimizedAffinity>
-6.01083374

$$$$

 OpenBabel09122223583D

 27 29  0  0  0  0  0  0  0  0999 V2000
    8.1990   -4.4590    1.1160 C   0  0  0  0  0  0  0  0  0  0  0  0
    6.9290   -4.9120    1.0710 C   0  0  0  0  0  2  0  0  0  0  0  0
    6.0620   -4.9990    2.2000 C   0  0  0  0  0  0  0  0  0  0  0  0
    6.0510   -4.2180    3.2690 N   0  0  0  0  0  0  0  0  0  0  0  0
    5.0870   -4.6310    4.1660 C   0  0  0  0  0  3  0  0  0  0  0  0
    4.3630   -5.7460    3.8010 C   0  0  0  0  0  0  0  0  0  0  0  0
    4.8810   -6.2690    2.2550 S   0  0  0  0  0  0  0  0  0  0  0  0
    3.3100   -6.4620    4.5200 C   0  0  0  0  0  0  0  0  0  0  0  0
    3.4710   -7.8380    4.7650 C   0  0  0  0  0  3  0  0  0  0  0  0
    2.5010   -8.5630    5.4610 C   0  0  0  0  0  3  0  0  0  0  0  0
    1.3550   -7.9250    5.9260 C   0  0  0  0  0  3  0  0  0  0  0  0
    1.1790   -6.5600    5.6950 C   0  0  0  0  0  3  0  0  0  0  0  0
    2.1490   -5.8300    4.9980 C   0  0  0  0  0  0  0  0  0  0  0  0
    1.8390   -4.1470    4.7440 Cl  0  0  0  0  0  0  0  0  0  0  0  0
    8.7960   -4.0390    2.2970 N   0  0  0  0  0  4  0  0  0  0  0  0
    9.5370   -2.9210    2.6030 C   0  0  0  0  0  0  0  0  0  0  0  0
   10.1790   -2.8750    3.6570 O   0  0  0  0  0  0  0  0  0  0  0  0
    8.7340   -4.6970    3.0720 H   0  0  0  0  0  0  0  0  0  0  0  0
    9.5280   -1.7140    1.7520 C   0  0  0  0  0  0  0  0  0  0  0  0
   10.1180   -1.7820    0.4850 C   0  0  0  0  0  3  0  0  0  0  0  0
   10.1950   -0.6390   -0.3120 C   0  0  0  0  0  3  0  0  0  0  0  0
    9.7010    0.5770    0.1650 C   0  0  0  0  0  3  0  0  0  0  0  0
    9.1360    0.6520    1.4380 C   0  0  0  0  0  3  0  0  0  0  0  0
    9.0620   -0.4890    2.2400 C   0  0  0  0  0  3  0  0  0  0  0  0
   10.1600   -4.6050   -0.2290 O   0  0  0  0  0  1  0  0  0  0  0  0
    8.8940   -4.5800   -0.2680 C   0  0  0  0  0  0  0  0  0  0  0  0
    8.1120   -4.5630   -1.2610 O   0  0  0  0  0  0  0  0  0  0  0  0
  1 15  2  0  0  0  0
  2  1  1  0  0  0  0
  2  3  1  0  0  0  0
  3  7  1  0  0  0  0
  3  4  2  0  0  0  0
  4  5  1  0  0  0  0
  6  5  2  0  0  0  0
  6  8  1  0  0  0  0
  7  6  1  0  0  0  0
  8  9  2  0  0  0  0
  8 13  1  0  0  0  0
  9 10  1  0  0  0  0
 10 11  2  0  0  0  0
 12 11  1  0  0  0  0
 13 12  2  0  0  0  0
 14 13  1  0  0  0  0
 15 16  1  0  0  0  0
 15 18  1  0  0  0  0
 16 17  2  0  0  0  0
 19 24  1  0  0  0  0
 19 16  1  0  0  0  0
 20 19  2  0  0  0  0
 21 22  2  0  0  0  0
 21 20  1  0  0  0  0
 22 23  1  0  0  0  0
 23 24  2  0  0  0  0
 26 25  1  0  0  0  0
 26  1  1  0  0  0  0
 27 26  2  0  0  0  0
M  END
>  <minimizedAffinity>
-5.99083376

$$$$

 OpenBabel09122223583D

 27 29  0  0  0  0  0  0  0  0999 V2000
    5.7640   -6.2680    0.4800 C   0  0  0  0  0  0  0  0  0  0  0  0
    6.8550   -5.8160   -0.1710 C   0  0  0  0  0  2  0  0  0  0  0  0
    7.7920   -4.8870    0.3710 C   0  0  0  0  0  0  0  0  0  0  0  0
    8.9350   -4.4900   -0.1670 N   0  0  0  0  0  0  0  0  0  0  0  0
    9.5860   -3.6040    0.6680 C   0  0  0  0  0  3  0  0  0  0  0  0
    8.9580   -3.3310    1.8640 C   0  0  0  0  0  0  0  0  0  0  0  0
    7.4720   -4.1820    1.9240 S   0  0  0  0  0  0  0  0  0  0  0  0
    9.3790   -2.4820    2.9770 C   0  0  0  0  0  0  0  0  0  0  0  0
    9.8120   -3.0920    4.1690 C   0  0  0  0  0  3  0  0  0  0  0  0
   10.2400   -2.3260    5.2560 C   0  0  0  0  0  3  0  0  0  0  0  0
   10.2460   -0.9370    5.1690 C   0  0  0  0  0  3  0  0  0  0  0  0
    9.8230   -0.3150    3.9930 C   0  0  0  0  0  3  0  0  0  0  0  0
    9.3940   -1.0790    2.9020 C   0  0  0  0  0  0  0  0  0  0  0  0
    8.8730   -0.2210    1.4930 Cl  0  0  0  0  0  0  0  0  0  0  0  0
    5.4390   -5.8500    1.7630 N   0  0  0  0  0  4  0  0  0  0  0  0
    4.8320   -6.5000    2.8140 C   0  0  0  0  0  0  0  0  0  0  0  0
    4.4190   -5.8560    3.7830 O   0  0  0  0  0  0  0  0  0  0  0  0
    5.6220   -4.8680    1.9590 H   0  0  0  0  0  0  0  0  0  0  0  0
    4.7310   -7.9730    2.8750 C   0  0  0  0  0  0  0  0  0  0  0  0
    3.4610   -8.5600    2.8400 C   0  0  0  0  0  3  0  0  0  0  0  0
    3.3270   -9.9420    2.9750 C   0  0  0  0  0  3  0  0  0  0  0  0
    4.4600  -10.7360    3.1640 C   0  0  0  0  0  3  0  0  0  0  0  0
    5.7240  -10.1500    3.2240 C   0  0  0  0  0  3  0  0  0  0  0  0
    5.8610   -8.7660    3.0950 C   0  0  0  0  0  3  0  0  0  0  0  0
    5.5720   -7.9480   -1.1980 O   0  0  0  0  0  0  0  0  0  0  0  0
    4.9080   -7.1960   -0.4250 C   0  0  0  0  0  0  0  0  0  0  0  0
    3.6590   -7.0300   -0.3290 O   0  0  0  0  0  1  0  0  0  0  0  0
  1 15  2  0  0  0  0
  2  3  1  0  0  0  0
  2  1  1  0  0  0  0
  3  7  1  0  0  0  0
  4  3  2  0  0  0  0
  4  5  1  0  0  0  0
  5  6  2  0  0  0  0
  6  7  1  0  0  0  0
  6  8  1  0  0  0  0
  8  9  1  0  0  0  0
  9 10  2  0  0  0  0
 11 10  1  0  0  0  0
 12 11  2  0  0  0  0
 13  8  2  0  0  0  0
 13 12  1  0  0  0  0
 14 13  1  0  0  0  0
 15 18  1  0  0  0  0
 15 16  1  0  0  0  0
 16 19  1  0  0  0  0
 16 17  2  0  0  0  0
 19 24  1  0  0  0  0
 20 19  2  0  0  0  0
 20 21  1  0  0  0  0
 21 22  2  0  0  0  0
 22 23  1  0  0  0  0
 24 23  2  0  0  0  0
 25 26  2  0  0  0  0
 26 27  1  0  0  0  0
 26  1  1  0  0  0  0
M  END
>  <minimizedAffinity>
-5.8589654

$$$$

 OpenBabel09122223583D

 27 29  0  0  0  0  0  0  0  0999 V2000
    3.3600   -9.7950    1.6460 C   0  0  0  0  0  0  0  0  0  0  0  0
    4.2350   -9.3720    0.7110 C   0  0  0  0  0  2  0  0  0  0  0  0
    4.7210   -8.0360    0.6060 C   0  0  0  0  0  0  0  0  0  0  0  0
    4.1250   -7.0040    0.0280 N   0  0  0  0  0  0  0  0  0  0  0  0
    4.9190   -5.8770    0.1000 C   0  0  0  0  0  3  0  0  0  0  0  0
    6.1410   -6.0400    0.7160 C   0  0  0  0  0  0  0  0  0  0  0  0
    6.2820   -7.6570    1.2640 S   0  0  0  0  0  0  0  0  0  0  0  0
    7.2250   -5.0820    0.9260 C   0  0  0  0  0  0  0  0  0  0  0  0
    8.2490   -4.9940   -0.0350 C   0  0  0  0  0  3  0  0  0  0  0  0
    9.2980   -4.0840    0.1120 C   0  0  0  0  0  3  0  0  0  0  0  0
    9.3400   -3.2430    1.2200 C   0  0  0  0  0  3  0  0  0  0  0  0
    8.3310   -3.3130    2.1820 C   0  0  0  0  0  3  0  0  0  0  0  0
    7.2780   -4.2250    2.0380 C   0  0  0  0  0  0  0  0  0  0  0  0
    6.0820   -4.2520    3.2880 Cl  0  0  0  0  0  0  0  0  0  0  0  0
    2.8310   -8.9440    2.6070 N   0  0  0  0  0  4  0  0  0  0  0  0
    2.6500   -9.0900    3.9630 C   0  0  0  0  0  0  0  0  0  0  0  0
    1.9320   -8.2980    4.5800 O   0  0  0  0  0  0  0  0  0  0  0  0
    2.4470   -8.0710    2.2490 H   0  0  0  0  0  0  0  0  0  0  0  0
    3.3630  -10.1220    4.7450 C   0  0  0  0  0  0  0  0  0  0  0  0
    4.7340   -9.9590    4.9780 C   0  0  0  0  0  3  0  0  0  0  0  0
    5.4510  -10.9520    5.6450 C   0  0  0  0  0  3  0  0  0  0  0  0
    4.8050  -12.1160    6.0630 C   0  0  0  0  0  3  0  0  0  0  0  0
    3.4440  -12.2920    5.8080 C   0  0  0  0  0  3  0  0  0  0  0  0
    2.7250  -11.3020    5.1360 C   0  0  0  0  0  3  0  0  0  0  0  0
    1.7210  -11.5050    1.3960 O   0  0  0  0  0  1  0  0  0  0  0  0
    2.9670  -11.2820    1.4250 C   0  0  0  0  0  0  0  0  0  0  0  0
    3.9380  -12.0890    1.3770 O   0  0  0  0  0  0  0  0  0  0  0  0
  1 15  2  0  0  0  0
  2  1  1  0  0  0  0
  3  2  1  0  0  0  0
  3  7  1  0  0  0  0
  4  5  1  0  0  0  0
  4  3  2  0  0  0  0
  5  6  2  0  0  0  0
  6  8  1  0  0  0  0
  6  7  1  0  0  0  0
  8 13  1  0  0  0  0
  9 10  1  0  0  0  0
  9  8  2  0  0  0  0
 10 11  2  0  0  0  0
 11 12  1  0  0  0  0
 13 12  2  0  0  0  0
 13 14  1  0  0  0  0
 15 16  1  0  0  0  0
 16 17  2  0  0  0  0
 16 19  1  0  0  0  0
 18 15  1  0  0  0  0
 19 20  2  0  0  0  0
 19 24  1  0  0  0  0
 20 21  1  0  0  0  0
 21 22  2  0  0  0  0
 23 22  1  0  0  0  0
 24 23  2  0  0  0  0
 25 26  1  0  0  0  0
 26  1  1  0  0  0  0
 27 26  2  0  0  0  0
M  END
>  <minimizedAffinity>
-5.83679914

$$$$
