
 OpenBabel09132204463D

 27 29  0  0  0  0  0  0  0  0999 V2000
    3.4910  -10.6980    5.2400 C   0  0  0  0  0  0  0  0  0  0  0  0
    4.6760  -10.2090    4.8210 C   0  0  0  0  0  2  0  0  0  0  0  0
    4.8380   -8.9980    4.0870 C   0  0  0  0  0  0  0  0  0  0  0  0
    4.2180   -7.8450    4.2900 N   0  0  0  0  0  0  0  0  0  0  0  0
    4.6130   -6.9070    3.3570 C   0  0  0  0  0  3  0  0  0  0  0  0
    5.5240   -7.3400    2.4180 C   0  0  0  0  0  0  0  0  0  0  0  0
    5.9340   -8.9710    2.7430 S   0  0  0  0  0  0  0  0  0  0  0  0
    6.1160   -6.6310    1.2830 C   0  0  0  0  0  0  0  0  0  0  0  0
    7.3610   -5.9990    1.4530 C   0  0  0  0  0  3  0  0  0  0  0  0
    7.9760   -5.3230    0.3970 C   0  0  0  0  0  3  0  0  0  0  0  0
    7.3580   -5.2710   -0.8490 C   0  0  0  0  0  3  0  0  0  0  0  0
    6.1240   -5.8950   -1.0370 C   0  0  0  0  0  3  0  0  0  0  0  0
    5.5050   -6.5730    0.0200 C   0  0  0  0  0  0  0  0  0  0  0  0
    3.9690   -7.3030   -0.3020 Cl  0  0  0  0  0  0  0  0  0  0  0  0
    2.2890  -10.0550    4.9750 N   0  0  0  0  0  4  0  0  0  0  0  0
    1.5590   -9.9150    3.8170 C   0  0  0  0  0  0  0  0  0  0  0  0
    0.6420   -9.0910    3.7600 O   0  0  0  0  0  0  0  0  0  0  0  0
    1.8920   -9.5380    5.7570 H   0  0  0  0  0  0  0  0  0  0  0  0
    1.7710  -10.7870    2.6430 C   0  0  0  0  0  0  0  0  0  0  0  0
    2.4700  -10.2750    1.5440 C   0  0  0  0  0  3  0  0  0  0  0  0
    2.6190  -11.0450    0.3900 C   0  0  0  0  0  3  0  0  0  0  0  0
    2.0540  -12.3200    0.3270 C   0  0  0  0  0  3  0  0  0  0  0  0
    1.3350  -12.8220    1.4120 C   0  0  0  0  0  3  0  0  0  0  0  0
    1.1790  -12.0520    2.5650 C   0  0  0  0  0  3  0  0  0  0  0  0
    4.8570  -12.4360    6.1260 O   0  0  0  0  0  0  0  0  0  0  0  0
    3.6580  -12.0790    5.9310 C   0  0  0  0  0  0  0  0  0  0  0  0
    2.5800  -12.7040    6.1420 O   0  0  0  0  0  1  0  0  0  0  0  0
  1 26  1  0  0  0  0
  2  1  1  0  0  0  0
  3  4  2  0  0  0  0
  3  2  1  0  0  0  0
  5  4  1  0  0  0  0
  6  7  1  0  0  0  0
  6  5  2  0  0  0  0
  7  3  1  0  0  0  0
  8  9  1  0  0  0  0
  8  6  1  0  0  0  0
 10  9  2  0  0  0  0
 11 10  1  0  0  0  0
 12 11  2  0  0  0  0
 12 13  1  0  0  0  0
 13  8  2  0  0  0  0
 14 13  1  0  0  0  0
 15  1  2  0  0  0  0
 15 18  1  0  0  0  0
 16 15  1  0  0  0  0
 17 16  2  0  0  0  0
 19 16  1  0  0  0  0
 20 19  2  0  0  0  0
 21 20  1  0  0  0  0
 22 21  2  0  0  0  0
 22 23  1  0  0  0  0
 23 24  2  0  0  0  0
 24 19  1  0  0  0  0
 26 25  2  0  0  0  0
 26 27  1  0  0  0  0
M  END
>  <minimizedAffinity>
-6.53409767

$$$$
