
 OpenBabel09132204463D

 27 29  0  0  0  0  0  0  0  0999 V2000
    3.3600   -9.7950    1.6460 C   0  0  0  0  0  0  0  0  0  0  0  0
    4.2350   -9.3720    0.7110 C   0  0  0  0  0  2  0  0  0  0  0  0
    4.7210   -8.0360    0.6060 C   0  0  0  0  0  0  0  0  0  0  0  0
    4.1250   -7.0040    0.0280 N   0  0  0  0  0  0  0  0  0  0  0  0
    4.9190   -5.8770    0.1000 C   0  0  0  0  0  3  0  0  0  0  0  0
    6.1410   -6.0400    0.7160 C   0  0  0  0  0  0  0  0  0  0  0  0
    6.2820   -7.6570    1.2640 S   0  0  0  0  0  0  0  0  0  0  0  0
    7.2250   -5.0820    0.9260 C   0  0  0  0  0  0  0  0  0  0  0  0
    8.2490   -4.9940   -0.0350 C   0  0  0  0  0  3  0  0  0  0  0  0
    9.2980   -4.0840    0.1120 C   0  0  0  0  0  3  0  0  0  0  0  0
    9.3400   -3.2430    1.2200 C   0  0  0  0  0  3  0  0  0  0  0  0
    8.3310   -3.3130    2.1820 C   0  0  0  0  0  3  0  0  0  0  0  0
    7.2780   -4.2250    2.0380 C   0  0  0  0  0  0  0  0  0  0  0  0
    6.0820   -4.2520    3.2880 Cl  0  0  0  0  0  0  0  0  0  0  0  0
    2.8310   -8.9440    2.6070 N   0  0  0  0  0  4  0  0  0  0  0  0
    2.6500   -9.0900    3.9630 C   0  0  0  0  0  0  0  0  0  0  0  0
    1.9320   -8.2980    4.5800 O   0  0  0  0  0  0  0  0  0  0  0  0
    2.4470   -8.0710    2.2490 H   0  0  0  0  0  0  0  0  0  0  0  0
    3.3630  -10.1220    4.7450 C   0  0  0  0  0  0  0  0  0  0  0  0
    4.7340   -9.9590    4.9780 C   0  0  0  0  0  3  0  0  0  0  0  0
    5.4510  -10.9520    5.6450 C   0  0  0  0  0  3  0  0  0  0  0  0
    4.8050  -12.1160    6.0630 C   0  0  0  0  0  3  0  0  0  0  0  0
    3.4440  -12.2920    5.8080 C   0  0  0  0  0  3  0  0  0  0  0  0
    2.7250  -11.3020    5.1360 C   0  0  0  0  0  3  0  0  0  0  0  0
    1.7210  -11.5050    1.3960 O   0  0  0  0  0  1  0  0  0  0  0  0
    2.9670  -11.2820    1.4250 C   0  0  0  0  0  0  0  0  0  0  0  0
    3.9380  -12.0890    1.3770 O   0  0  0  0  0  0  0  0  0  0  0  0
  1 15  2  0  0  0  0
  2  1  1  0  0  0  0
  3  2  1  0  0  0  0
  3  7  1  0  0  0  0
  4  5  1  0  0  0  0
  4  3  2  0  0  0  0
  5  6  2  0  0  0  0
  6  8  1  0  0  0  0
  6  7  1  0  0  0  0
  8 13  1  0  0  0  0
  9 10  1  0  0  0  0
  9  8  2  0  0  0  0
 10 11  2  0  0  0  0
 11 12  1  0  0  0  0
 13 12  2  0  0  0  0
 13 14  1  0  0  0  0
 15 16  1  0  0  0  0
 16 17  2  0  0  0  0
 16 19  1  0  0  0  0
 18 15  1  0  0  0  0
 19 20  2  0  0  0  0
 19 24  1  0  0  0  0
 20 21  1  0  0  0  0
 21 22  2  0  0  0  0
 23 22  1  0  0  0  0
 24 23  2  0  0  0  0
 25 26  1  0  0  0  0
 26  1  1  0  0  0  0
 27 26  2  0  0  0  0
M  END
>  <minimizedAffinity>
-5.83679914

$$$$
