REMARK  Name = 
REMARK  8 active torsions:
REMARK  status: ('A' for Active; 'I' for Inactive)
REMARK    1  A    between atoms: C_1  and  O_2
REMARK    2  A    between atoms: O_2  and  C_3
REMARK    3  A    between atoms: C_8  and  C_9
REMARK    4  A    between atoms: C_9  and  C_10
REMARK    5  A    between atoms: C_10  and  N_11
REMARK    6  A    between atoms: N_11  and  C_12
REMARK    7  A    between atoms: C_18  and  C_19
REMARK    8  A    between atoms: C_26  and  C_27
REMARK                            x       y       z     vdW  Elec       q    Type
REMARK                         _______ _______ _______ _____ _____    ______ ____
ROOT
ATOM      1  C   UNL     1       6.283  -3.244  -1.782  0.00  0.00    +0.150 A 
ATOM      2  N   UNL     1       7.175  -2.761  -0.898  0.00  0.00    -0.219 NA
ATOM      3  C   UNL     1       8.418  -2.581  -1.346  0.00  0.00    +0.225 A 
ATOM      4  N   UNL     1       8.843  -2.821  -2.586  0.00  0.00    -0.214 NA
ATOM      5  C   UNL     1       7.942  -3.272  -3.452  0.00  0.00    +0.184 A 
ATOM      6  N   UNL     1       8.353  -3.480  -4.704  0.00  0.00    -0.224 NA
ATOM      7  C   UNL     1       7.453  -3.902  -5.637  0.00  0.00    +0.099 A 
ATOM      8  C   UNL     1       6.118  -4.152  -5.296  0.00  0.00    +0.098 A 
ATOM      9  N   UNL     1       5.686  -3.951  -4.025  0.00  0.00    -0.238 NA
ATOM     10  C   UNL     1       6.605  -3.514  -3.114  0.00  0.00    +0.148 A 
ENDROOT
BRANCH   7  11
ATOM     11  C   UNL     1       8.020  -4.022  -6.993  0.00  0.00    +0.003 A 
ATOM     12  C   UNL     1       7.449  -3.363  -8.099  0.00  0.00    +0.013 A 
ATOM     13  C   UNL     1       8.004  -3.490  -9.376  0.00  0.00    +0.039 A 
ATOM     14  C   UNL     1       9.141  -4.266  -9.556  0.00  0.00    +0.123 A 
ATOM     15  F   UNL     1       9.671  -4.386 -10.780  0.00  0.00    -0.205 F 
ATOM     16  C   UNL     1       9.739  -4.913  -8.484  0.00  0.00    +0.039 A 
ATOM     17  C   UNL     1       9.183  -4.787  -7.208  0.00  0.00    +0.013 A 
ENDBRANCH   7  11
BRANCH   8  18
ATOM     18  C   UNL     1       5.072  -4.629  -6.215  0.00  0.00    +0.003 A 
ATOM     19  C   UNL     1       3.853  -3.931  -6.321  0.00  0.00    +0.013 A 
ATOM     20  C   UNL     1       2.848  -4.358  -7.192  0.00  0.00    +0.039 A 
ATOM     21  C   UNL     1       3.051  -5.496  -7.960  0.00  0.00    +0.123 A 
ATOM     22  F   UNL     1       2.090  -5.907  -8.798  0.00  0.00    -0.205 F 
ATOM     23  C   UNL     1       4.234  -6.218  -7.867  0.00  0.00    +0.039 A 
ATOM     24  C   UNL     1       5.238  -5.790  -6.994  0.00  0.00    +0.013 A 
ENDBRANCH   8  18
BRANCH   1  25
ATOM     25  N   UNL     1       4.987  -3.506  -1.342  0.00  0.00    -0.327 N 
ATOM     26  H   UNL     1       4.336  -3.814  -2.060  0.00  0.00    +0.148 HD
BRANCH  25  27
ATOM     27  C   UNL     1       4.446  -2.876  -0.150  0.00  0.00    +0.108 C 
BRANCH  27  28
ATOM     28  C   UNL     1       3.862  -1.494  -0.475  0.00  0.00    +0.057 C 
BRANCH  28  34
ATOM     29  C   UNL     1       1.327  -1.730  -0.587  0.00  0.00    +0.123 A 
ATOM     30  C   UNL     1       0.154  -1.873  -1.335  0.00  0.00    +0.046 A 
ATOM     31  C   UNL     1       0.198  -1.862  -2.731  0.00  0.00    +0.004 A 
ATOM     32  C   UNL     1       1.414  -1.709  -3.390  0.00  0.00    +0.000 A 
ATOM     33  C   UNL     1       2.590  -1.574  -2.654  0.00  0.00    +0.007 A 
ATOM     34  C   UNL     1       2.561  -1.588  -1.249  0.00  0.00    -0.004 A 
BRANCH  29  36
ATOM     35  C   UNL     1       0.160  -1.472   1.467  0.00  0.00    +0.277 C 
ATOM     36  O   UNL     1       1.376  -1.751   0.783  0.00  0.00    -0.495 OA
ENDBRANCH  29  36
ENDBRANCH  28  34
ENDBRANCH  27  28
ENDBRANCH  25  27
ENDBRANCH   1  25
TORSDOF 7
