
 OpenBabel09132204463D

 36 40  0  0  0  0  0  0  0  0999 V2000
    5.8160   -6.0930    1.5860 C   0  0  0  0  0  0  0  0  0  0  0  0
    5.2870   -7.0110    0.7560 N   0  0  0  0  0  0  0  0  0  0  0  0
    5.8340   -7.1030   -0.4560 C   0  0  0  0  0  3  0  0  0  0  0  0
    6.8610   -6.3820   -0.9050 N   0  0  0  0  0  0  0  0  0  0  0  0
    7.3890   -5.5000   -0.0630 C   0  0  0  0  0  0  0  0  0  0  0  0
    8.4390   -4.8010   -0.4940 N   0  0  0  0  0  0  0  0  0  0  0  0
    9.0400   -3.9140    0.3500 C   0  0  0  0  0  0  0  0  0  0  0  0
    8.5520   -3.7030    1.6460 C   0  0  0  0  0  0  0  0  0  0  0  0
    7.4800   -4.4020    2.0970 N   0  0  0  0  0  0  0  0  0  0  0  0
    6.9070   -5.2940    1.2350 C   0  0  0  0  0  0  0  0  0  0  0  0
   10.2310   -3.2640   -0.2260 C   0  0  0  0  0  0  0  0  0  0  0  0
   10.1510   -2.0330   -0.9060 C   0  0  0  0  0  3  0  0  0  0  0  0
   11.2940   -1.4330   -1.4430 C   0  0  0  0  0  3  0  0  0  0  0  0
   12.5280   -2.0510   -1.2940 C   0  0  0  0  0  0  0  0  0  0  0  0
   13.6210   -1.4750   -1.8090 F   0  0  0  0  0  0  0  0  0  0  0  0
   12.6440   -3.2550   -0.6120 C   0  0  0  0  0  3  0  0  0  0  0  0
   11.5010   -3.8550   -0.0770 C   0  0  0  0  0  3  0  0  0  0  0  0
    9.1070   -2.7590    2.6290 C   0  0  0  0  0  0  0  0  0  0  0  0
    9.0250   -1.3710    2.4000 C   0  0  0  0  0  3  0  0  0  0  0  0
    9.5370   -0.4540    3.3210 C   0  0  0  0  0  3  0  0  0  0  0  0
   10.1450   -0.9200    4.4790 C   0  0  0  0  0  0  0  0  0  0  0  0
   10.6340   -0.0430    5.3650 F   0  0  0  0  0  0  0  0  0  0  0  0
   10.2580   -2.2810    4.7270 C   0  0  0  0  0  3  0  0  0  0  0  0
    9.7470   -3.1970    3.8040 C   0  0  0  0  0  3  0  0  0  0  0  0
    5.2370   -5.9190    2.8410 N   0  0  0  0  0  0  0  0  0  0  0  0
    5.8540   -5.5490    3.5590 H   0  0  0  0  0  0  0  0  0  0  0  0
    4.0830   -6.6960    3.2610 C   0  0  0  0  0  2  0  0  0  0  0  0
    3.6840   -6.3520    4.7020 C   0  0  0  0  0  2  0  0  0  0  0  0
    4.3120   -3.9480    5.2650 C   0  0  0  0  0  0  0  0  0  0  0  0
    3.9450   -2.6130    5.4650 C   0  0  0  0  0  3  0  0  0  0  0  0
    2.6260   -2.2020    5.2600 C   0  0  0  0  0  3  0  0  0  0  0  0
    1.6640   -3.1220    4.8550 C   0  0  0  0  0  3  0  0  0  0  0  0
    2.0170   -4.4560    4.6610 C   0  0  0  0  0  3  0  0  0  0  0  0
    3.3400   -4.8840    4.8680 C   0  0  0  0  0  0  0  0  0  0  0  0
    6.6350   -3.4870    5.4680 C   0  0  0  0  0  1  0  0  0  0  0  0
    5.5770   -4.4380    5.4640 O   0  0  0  0  0  0  0  0  0  0  0  0
  1 25  1  0  0  0  0
  2  1  1  0  0  0  0
  3  2  2  0  0  0  0
  4  3  1  0  0  0  0
  4  5  2  0  0  0  0
  5 10  1  0  0  0  0
  6  5  1  0  0  0  0
  6  7  2  0  0  0  0
  7  8  1  0  0  0  0
  8  9  2  0  0  0  0
  8 18  1  0  0  0  0
 10  1  2  0  0  0  0
 10  9  1  0  0  0  0
 11 17  1  0  0  0  0
 11  7  1  0  0  0  0
 12 11  2  0  0  0  0
 13 14  2  0  0  0  0
 13 12  1  0  0  0  0
 14 16  1  0  0  0  0
 15 14  1  0  0  0  0
 16 17  2  0  0  0  0
 18 24  1  0  0  0  0
 19 18  2  0  0  0  0
 19 20  1  0  0  0  0
 20 21  2  0  0  0  0
 21 23  1  0  0  0  0
 21 22  1  0  0  0  0
 24 23  2  0  0  0  0
 25 27  1  0  0  0  0
 25 26  1  0  0  0  0
 27 28  1  0  0  0  0
 28 34  1  0  0  0  0
 29 36  1  0  0  0  0
 29 30  1  0  0  0  0
 31 30  2  0  0  0  0
 32 31  1  0  0  0  0
 33 32  2  0  0  0  0
 33 34  1  0  0  0  0
 34 29  2  0  0  0  0
 36 35  1  0  0  0  0
M  END
>  <minimizedAffinity>
-8.40054131

$$$$
