
 OpenBabel09132204463D

 36 40  0  0  0  0  0  0  0  0999 V2000
    5.8240   -5.9210    1.6550 C   0  0  0  0  0  0  0  0  0  0  0  0
    5.2780   -6.8280    0.8250 N   0  0  0  0  0  0  0  0  0  0  0  0
    5.8370   -6.9440   -0.3800 C   0  0  0  0  0  3  0  0  0  0  0  0
    6.8900   -6.2560   -0.8210 N   0  0  0  0  0  0  0  0  0  0  0  0
    7.4320   -5.3840    0.0220 C   0  0  0  0  0  0  0  0  0  0  0  0
    8.5080   -4.7180   -0.4010 N   0  0  0  0  0  0  0  0  0  0  0  0
    9.1240   -3.8440    0.4450 C   0  0  0  0  0  0  0  0  0  0  0  0
    8.6270   -3.6110    1.7330 C   0  0  0  0  0  0  0  0  0  0  0  0
    7.5300   -4.2760    2.1760 N   0  0  0  0  0  0  0  0  0  0  0  0
    6.9410   -5.1560    1.3130 C   0  0  0  0  0  0  0  0  0  0  0  0
   10.3400   -3.2320   -0.1200 C   0  0  0  0  0  0  0  0  0  0  0  0
   11.6110   -3.8150    0.0430 C   0  0  0  0  0  3  0  0  0  0  0  0
   12.7520   -3.2170   -0.5020 C   0  0  0  0  0  3  0  0  0  0  0  0
   12.6290   -2.0390   -1.2270 C   0  0  0  0  0  0  0  0  0  0  0  0
   13.7220   -1.4690   -1.7490 F   0  0  0  0  0  0  0  0  0  0  0  0
   11.3880   -1.4490   -1.4220 C   0  0  0  0  0  3  0  0  0  0  0  0
   10.2490   -2.0460   -0.8750 C   0  0  0  0  0  3  0  0  0  0  0  0
    9.1980   -2.6770    2.7170 C   0  0  0  0  0  0  0  0  0  0  0  0
    9.1330   -1.2870    2.4930 C   0  0  0  0  0  3  0  0  0  0  0  0
    9.6590   -0.3800    3.4150 C   0  0  0  0  0  3  0  0  0  0  0  0
   10.2650   -0.8560    4.5690 C   0  0  0  0  0  0  0  0  0  0  0  0
   10.7690    0.0110    5.4560 F   0  0  0  0  0  0  0  0  0  0  0  0
   10.3620   -2.2200    4.8130 C   0  0  0  0  0  3  0  0  0  0  0  0
    9.8360   -3.1270    3.8890 C   0  0  0  0  0  3  0  0  0  0  0  0
    5.2350   -5.7230    2.9030 N   0  0  0  0  0  0  0  0  0  0  0  0
    5.8810   -5.5390    3.6660 H   0  0  0  0  0  0  0  0  0  0  0  0
    3.9310   -6.2750    3.2250 C   0  0  0  0  0  2  0  0  0  0  0  0
    4.0680   -7.6360    3.9220 C   0  0  0  0  0  2  0  0  0  0  0  0
    2.2470   -9.3310    3.3680 C   0  0  0  0  0  0  0  0  0  0  0  0
    0.9760   -9.8660    3.6020 C   0  0  0  0  0  3  0  0  0  0  0  0
    0.1830   -9.3790    4.6440 C   0  0  0  0  0  3  0  0  0  0  0  0
    0.6530   -8.3550    5.4590 C   0  0  0  0  0  3  0  0  0  0  0  0
    1.9150   -7.8090    5.2300 C   0  0  0  0  0  3  0  0  0  0  0  0
    2.7220   -8.2860    4.1820 C   0  0  0  0  0  0  0  0  0  0  0  0
    2.6030   -9.5520    1.0290 C   0  0  0  0  0  1  0  0  0  0  0  0
    3.0800   -9.7350    2.3570 O   0  0  0  0  0  0  0  0  0  0  0  0
  1 25  1  0  0  0  0
  2  1  1  0  0  0  0
  3  2  2  0  0  0  0
  4  3  1  0  0  0  0
  4  5  2  0  0  0  0
  5 10  1  0  0  0  0
  6  5  1  0  0  0  0
  6  7  2  0  0  0  0
  7  8  1  0  0  0  0
  8  9  2  0  0  0  0
  8 18  1  0  0  0  0
 10  1  2  0  0  0  0
 10  9  1  0  0  0  0
 11 12  1  0  0  0  0
 11  7  1  0  0  0  0
 13 12  2  0  0  0  0
 14 13  1  0  0  0  0
 15 14  1  0  0  0  0
 16 14  2  0  0  0  0
 16 17  1  0  0  0  0
 17 11  2  0  0  0  0
 18 24  1  0  0  0  0
 19 18  2  0  0  0  0
 19 20  1  0  0  0  0
 20 21  2  0  0  0  0
 21 23  1  0  0  0  0
 21 22  1  0  0  0  0
 24 23  2  0  0  0  0
 25 27  1  0  0  0  0
 25 26  1  0  0  0  0
 27 28  1  0  0  0  0
 28 34  1  0  0  0  0
 29 30  2  0  0  0  0
 29 34  1  0  0  0  0
 30 31  1  0  0  0  0
 31 32  2  0  0  0  0
 33 32  1  0  0  0  0
 34 33  2  0  0  0  0
 35 36  1  0  0  0  0
 36 29  1  0  0  0  0
M  END
>  <minimizedAffinity>
-7.69841528

$$$$
