REMARK  Name = 
REMARK  7 active torsions:
REMARK  status: ('A' for Active; 'I' for Inactive)
REMARK    1  A    between atoms: C_1  and  C_2
REMARK    2  A    between atoms: C_6  and  C_7
REMARK    3  A    between atoms: C_7  and  S_8
REMARK    4  A    between atoms: S_8  and  C_9
REMARK    5  A    between atoms: C_11  and  C_12
REMARK    6  A    between atoms: C_16  and  C_17
REMARK    7  A    between atoms: C_22  and  C_23
REMARK                            x       y       z     vdW  Elec       q    Type
REMARK                         _______ _______ _______ _____ _____    ______ ____
ROOT
ATOM      1  C   UNL     1      -1.937   2.505  -3.010  0.00  0.00    +0.170 A 
ATOM      2  N   UNL     1      -1.487   3.642  -3.416  0.00  0.00    -0.222 NA
ATOM      3  C   UNL     1      -0.671   3.627  -4.528  0.00  0.00    +0.096 A 
ATOM      4  C   UNL     1      -0.278   2.506  -5.162  0.00  0.00    +0.142 A 
ATOM      5  C   UNL     1      -0.782   1.219  -4.640  0.00  0.00    +0.270 A 
ATOM      6  O   UNL     1      -0.470   0.139  -5.128  0.00  0.00    -0.266 OA
ATOM      7  N   UNL     1      -1.629   1.312  -3.576  0.00  0.00    -0.301 N 
ATOM      8  H   UNL     1      -2.000   0.460  -3.181  0.00  0.00    +0.171 HD
ENDROOT
BRANCH   3   9
ATOM      9  C   UNL     1      -0.244   4.955  -5.017  0.00  0.00    +0.002 A 
ATOM     10  C   UNL     1      -0.793   5.500  -6.185  0.00  0.00    +0.010 A 
ATOM     11  C   UNL     1      -0.386   6.755  -6.637  0.00  0.00    +0.001 A 
ATOM     12  C   UNL     1       0.568   7.480  -5.922  0.00  0.00    +0.012 A 
ATOM     13  C   UNL     1       1.127   6.956  -4.747  0.00  0.00    +0.055 A 
ATOM     14  C   UNL     1       0.704   5.694  -4.296  0.00  0.00    +0.022 A 
BRANCH  13  15
ATOM     15  C   UNL     1       2.133   7.752  -3.953  0.00  0.00    +0.417 C 
ATOM     16  F   UNL     1       1.546   8.514  -2.990  0.00  0.00    -0.166 F 
ATOM     17  F   UNL     1       3.039   6.967  -3.307  0.00  0.00    -0.166 F 
ATOM     18  F   UNL     1       2.863   8.610  -4.718  0.00  0.00    -0.166 F 
ENDBRANCH  13  15
ENDBRANCH   3   9
BRANCH   4  19
ATOM     19  C   UNL     1       0.604   2.494  -6.400  0.00  0.00    +0.107 C 
ATOM     20  N   UNL     1       1.335   2.484  -7.427  0.00  0.00    -0.191 NA
ENDBRANCH   4  19
BRANCH   1  21
ATOM     21  S   UNL     1      -3.025   2.379  -1.671  0.00  0.00    -0.083 S 
BRANCH  21  22
ATOM     22  C   UNL     1      -1.826   2.585  -0.323  0.00  0.00    +0.112 C 
BRANCH  22  28
ATOM     23  C   UNL     1       2.631   0.355  -1.118  0.00  0.00    +0.044 C 
ATOM     24  C   UNL     1       1.232   0.307  -0.578  0.00  0.00    -0.050 A 
ATOM     25  C   UNL     1       0.722  -0.881  -0.042  0.00  0.00    +0.003 A 
ATOM     26  C   UNL     1      -0.587  -0.938   0.432  0.00  0.00    +0.001 A 
ATOM     27  C   UNL     1      -1.405   0.189   0.361  0.00  0.00    +0.004 A 
ATOM     28  C   UNL     1      -0.922   1.384  -0.191  0.00  0.00    -0.037 A 
ATOM     29  C   UNL     1       0.401   1.432  -0.659  0.00  0.00    +0.007 A 
ENDBRANCH  22  28
ENDBRANCH  21  22
ENDBRANCH   1  21
TORSDOF 6
