
 OpenBabel09132204463D

 29 31  0  0  0  0  0  0  0  0999 V2000
   -2.4030    4.7480   -7.5870 C   0  0  0  0  0  0  0  0  0  0  0  0
   -2.8400    5.7420   -8.2800 N   0  0  0  0  0  0  0  0  0  0  0  0
   -1.8930    6.5880   -8.8190 C   0  0  0  0  0  0  0  0  0  0  0  0
   -0.5680    6.4690   -8.6140 C   0  0  0  0  0  0  0  0  0  0  0  0
   -0.1100    5.3400   -7.7790 C   0  0  0  0  0  0  0  0  0  0  0  0
    1.0710    5.1510   -7.5110 O   0  0  0  0  0  0  0  0  0  0  0  0
   -1.0930    4.5110   -7.3270 N   0  0  0  0  0  0  0  0  0  0  0  0
   -0.8320    3.7240   -6.7500 H   0  0  0  0  0  0  0  0  0  0  0  0
   -2.4260    7.6660   -9.6790 C   0  0  0  0  0  0  0  0  0  0  0  0
   -3.2730    7.3730  -10.7560 C   0  0  0  0  0  3  0  0  0  0  0  0
   -3.7730    8.3970  -11.5590 C   0  0  0  0  0  3  0  0  0  0  0  0
   -3.4370    9.7250  -11.2900 C   0  0  0  0  0  3  0  0  0  0  0  0
   -2.5940   10.0420  -10.2140 C   0  0  0  0  0  0  0  0  0  0  0  0
   -2.1030    9.0030   -9.4060 C   0  0  0  0  0  3  0  0  0  0  0  0
   -2.2570   11.4780   -9.9000 C   0  0  0  0  0  0  0  0  0  0  0  0
   -0.9170   11.7170   -9.9460 F   0  0  0  0  0  0  0  0  0  0  0  0
   -2.8220   12.3580  -10.7710 F   0  0  0  0  0  0  0  0  0  0  0  0
   -2.6650   11.8670   -8.6600 F   0  0  0  0  0  0  0  0  0  0  0  0
    0.4740    7.3910   -9.2270 C   0  0  0  0  0  2  0  0  0  0  0  0
    1.3380    8.1550   -9.7360 N   0  0  0  0  0  1  0  0  0  0  0  0
   -3.4700    3.5670   -6.9090 S   0  0  0  0  0  0  0  0  0  0  0  0
   -2.4590    2.0870   -7.1930 C   0  0  0  0  0  2  0  0  0  0  0  0
    2.4700    2.2860   -6.1250 C   0  0  0  0  0  1  0  0  0  0  0  0
    1.0520    2.0760   -5.6830 C   0  0  0  0  0  0  0  0  0  0  0  0
    0.7730    1.6800   -4.3690 C   0  0  0  0  0  3  0  0  0  0  0  0
   -0.5400    1.4540   -3.9630 C   0  0  0  0  0  3  0  0  0  0  0  0
   -1.5880    1.6060   -4.8700 C   0  0  0  0  0  3  0  0  0  0  0  0
   -1.3310    1.9810   -6.1960 C   0  0  0  0  0  0  0  0  0  0  0  0
   -0.0040    2.2140   -6.5930 C   0  0  0  0  0  3  0  0  0  0  0  0
  1  7  1  0  0  0  0
  1 21  1  0  0  0  0
  2  1  2  0  0  0  0
  3  4  2  0  0  0  0
  3  2  1  0  0  0  0
  4  5  1  0  0  0  0
  5  6  2  0  0  0  0
  5  7  1  0  0  0  0
  7  8  1  0  0  0  0
  9 14  1  0  0  0  0
  9  3  1  0  0  0  0
 10  9  2  0  0  0  0
 11 12  2  0  0  0  0
 11 10  1  0  0  0  0
 12 13  1  0  0  0  0
 13 15  1  0  0  0  0
 13 14  2  0  0  0  0
 15 18  1  0  0  0  0
 16 15  1  0  0  0  0
 17 15  1  0  0  0  0
 19  4  1  0  0  0  0
 20 19  1  0  0  0  0
 22 21  1  0  0  0  0
 22 28  1  0  0  0  0
 23 24  1  0  0  0  0
 24 25  1  0  0  0  0
 25 26  2  0  0  0  0
 27 26  1  0  0  0  0
 28 27  2  0  0  0  0
 29 28  1  0  0  0  0
 29 24  2  0  0  0  0
M  END
>  <minimizedAffinity>
49.0643959

$$$$
