
 OpenBabel09132204463D

 29 31  0  0  0  0  0  0  0  0999 V2000
   -2.1620    4.3620   -7.8150 C   0  0  0  0  0  0  0  0  0  0  0  0
   -2.6420    5.3640   -8.4690 N   0  0  0  0  0  0  0  0  0  0  0  0
   -1.7530    6.3530   -8.8330 C   0  0  0  0  0  0  0  0  0  0  0  0
   -0.4490    6.3580   -8.4970 C   0  0  0  0  0  0  0  0  0  0  0  0
    0.0540    5.2120   -7.7120 C   0  0  0  0  0  0  0  0  0  0  0  0
    1.2180    5.1280   -7.3350 O   0  0  0  0  0  0  0  0  0  0  0  0
   -0.8650    4.2450   -7.4360 N   0  0  0  0  0  0  0  0  0  0  0  0
   -0.5710    3.4410   -6.9000 H   0  0  0  0  0  0  0  0  0  0  0  0
   -2.3200    7.4420   -9.6550 C   0  0  0  0  0  0  0  0  0  0  0  0
   -3.0880    7.1580  -10.7920 C   0  0  0  0  0  3  0  0  0  0  0  0
   -3.6220    8.1920  -11.5600 C   0  0  0  0  0  3  0  0  0  0  0  0
   -3.4000    9.5210  -11.1940 C   0  0  0  0  0  3  0  0  0  0  0  0
   -2.6390    9.8280  -10.0570 C   0  0  0  0  0  0  0  0  0  0  0  0
   -2.1120    8.7780   -9.2860 C   0  0  0  0  0  3  0  0  0  0  0  0
   -2.4260   11.2620   -9.6400 C   0  0  0  0  0  0  0  0  0  0  0  0
   -1.8020   11.9940  -10.6020 F   0  0  0  0  0  0  0  0  0  0  0  0
   -3.5910   11.9150   -9.3720 F   0  0  0  0  0  0  0  0  0  0  0  0
   -1.6640   11.3880   -8.5190 F   0  0  0  0  0  0  0  0  0  0  0  0
    0.5340    7.4390   -8.9190 C   0  0  0  0  0  2  0  0  0  0  0  0
    1.3490    8.3350   -9.2680 N   0  0  0  0  0  1  0  0  0  0  0  0
   -3.1460    3.0170   -7.3530 S   0  0  0  0  0  0  0  0  0  0  0  0
   -1.8740    1.7220   -7.3870 C   0  0  0  0  0  2  0  0  0  0  0  0
   -1.5400    1.3410   -2.3650 C   0  0  0  0  0  1  0  0  0  0  0  0
   -0.8840    1.5400   -3.7000 C   0  0  0  0  0  0  0  0  0  0  0  0
    0.4840    1.8290   -3.7790 C   0  0  0  0  0  3  0  0  0  0  0  0
    1.0900    2.0450   -5.0150 C   0  0  0  0  0  3  0  0  0  0  0  0
    0.3330    1.9890   -6.1840 C   0  0  0  0  0  3  0  0  0  0  0  0
   -1.0430    1.7220   -6.1270 C   0  0  0  0  0  0  0  0  0  0  0  0
   -1.6420    1.4990   -4.8770 C   0  0  0  0  0  3  0  0  0  0  0  0
  1  7  1  0  0  0  0
  1 21  1  0  0  0  0
  2  1  2  0  0  0  0
  3  4  2  0  0  0  0
  3  2  1  0  0  0  0
  4  5  1  0  0  0  0
  5  7  1  0  0  0  0
  5  6  2  0  0  0  0
  7  8  1  0  0  0  0
  9 14  1  0  0  0  0
  9  3  1  0  0  0  0
 10  9  2  0  0  0  0
 11 12  2  0  0  0  0
 11 10  1  0  0  0  0
 12 13  1  0  0  0  0
 13 15  1  0  0  0  0
 13 14  2  0  0  0  0
 15 17  1  0  0  0  0
 15 18  1  0  0  0  0
 16 15  1  0  0  0  0
 19  4  1  0  0  0  0
 20 19  1  0  0  0  0
 22 21  1  0  0  0  0
 22 28  1  0  0  0  0
 24 23  1  0  0  0  0
 25 24  1  0  0  0  0
 26 25  2  0  0  0  0
 27 28  2  0  0  0  0
 27 26  1  0  0  0  0
 28 29  1  0  0  0  0
 29 24  2  0  0  0  0
M  END
>  <minimizedAffinity>
49.8889008

$$$$
