REMARK  Name = 
REMARK  9 active torsions:
REMARK  status: ('A' for Active; 'I' for Inactive)
REMARK    1  A    between atoms: C_2  and  O_20
REMARK    2  A    between atoms: N_3  and  C_4
REMARK    3  A    between atoms: C_8  and  C_9
REMARK    4  A    between atoms: C_11  and  O_12
REMARK    5  A    between atoms: C_13  and  O_14
REMARK    6  A    between atoms: C_15  and  C_16
REMARK    7  A    between atoms: O_20  and  C_21
REMARK    8  A    between atoms: C_21  and  C_22
REMARK    9  A    between atoms: C_22  and  C_23
REMARK                            x       y       z     vdW  Elec       q    Type
REMARK                         _______ _______ _______ _____ _____    ______ ____
ROOT
ATOM      1  C   UNK A   0       5.442   1.519   0.654  0.00  0.00    +0.054 A 
ATOM      2  C   UNK A   0       6.503   0.907   1.398  0.00  0.00    +0.032 A 
ATOM      3  C   UNK A   0       7.706   1.555   1.245  0.00  0.00    +0.048 A 
ATOM      4  S   UNK A   0       7.569   2.908   0.224  0.00  0.00    -0.092 S 
ATOM      5  C   UNK A   0       5.881   2.655  -0.023  0.00  0.00    +0.078 A 
ENDROOT
BRANCH   5   6
ATOM      6  C   UNK A   0       5.125   3.579  -0.881  0.00  0.00    +0.173 A 
ATOM      7  N   UNK A   1       5.810   4.377  -1.718  0.00  0.00    -0.190 NA
ATOM      8  C   UNK A   1       5.045   5.153  -2.491  0.00  0.00    +0.259 A 
ATOM      9  C   UNK A   1       3.666   5.176  -2.480  0.00  0.00    +0.206 A 
ATOM     10  C   UNK A   1       3.045   4.323  -1.584  0.00  0.00    +0.135 A 
ATOM     11  N   UNK A   1       3.784   3.515  -0.769  0.00  0.00    -0.222 NA
BRANCH  10  12
ATOM     12  C   UNK A   1       1.522   4.286  -1.543  0.00  0.00    +0.094 C 
ATOM     13  O   UNK A   1       0.933   5.068  -2.369  0.00  0.00    -0.543 OA
ATOM     14  O   UNK A   1       0.952   3.499  -0.728  0.00  0.00    -0.543 OA
ENDBRANCH  10  12
BRANCH   8  15
ATOM     15  O   UNK A   1       5.711   5.979  -3.364  0.00  0.00    -0.490 OA
ATOM     16  H   UNK A   1       4.981   6.445  -3.817  0.00  0.00    +0.294 HD
ENDBRANCH   8  15
BRANCH   9  17
ATOM     17  O   UNK A   1       3.014   6.016  -3.345  0.00  0.00    -0.501 OA
ATOM     18  H   UNK A   1       2.040   5.859  -3.173  0.00  0.00    +0.292 HD
ENDBRANCH   9  17
ENDBRANCH   5   6
BRANCH   1  21
ATOM     19  O   UNK A   0       2.406  -0.250   1.321  0.00  0.00    -0.226 OA
ATOM     20  C   UNK A   0       3.586  -0.102   1.025  0.00  0.00    +0.405 C 
ATOM     21  N   UNK A   0       4.114   1.095   0.618  0.00  0.00    -0.250 N 
ATOM     22  H   UNK A   0       3.426   1.771   0.270  0.00  0.00    +0.158 HD
BRANCH  20  23
ATOM     23  O   UNK A   0       4.440  -1.165   1.086  0.00  0.00    -0.450 OA
BRANCH  23  24
ATOM     24  C   UNK A   0       4.965  -1.643  -0.170  0.00  0.00    +0.238 C 
BRANCH  24  25
ATOM     25  C   UNK A   0       3.895  -1.993  -1.215  0.00  0.00    +0.076 C 
BRANCH  25  26
ATOM     26  C   UNK A   0       3.579  -0.850  -2.152  0.00  0.00    -0.044 A 
ATOM     27  C   UNK A   0       2.346  -0.190  -2.080  0.00  0.00    +0.004 A 
ATOM     28  C   UNK A   0       2.075   0.897  -2.911  0.00  0.00    +0.000 A 
ATOM     29  C   UNK A   0       3.026   1.329  -3.832  0.00  0.00    +0.000 A 
ATOM     30  C   UNK A   0       4.252   0.675  -3.923  0.00  0.00    +0.000 A 
ATOM     31  C   UNK A   0       4.527  -0.411  -3.089  0.00  0.00    +0.004 A 
ENDBRANCH  25  26
ENDBRANCH  24  25
ENDBRANCH  23  24
ENDBRANCH  20  23
ENDBRANCH   1  21
TORSDOF 9
