
 OpenBabel09132204463D

 31 33  0  0  0  0  0  0  0  0999 V2000
    9.7480    0.2330    0.7460 C   0  0  0  0  0  0  0  0  0  0  0  0
    9.9090   -0.8420   -0.1870 C   0  0  0  0  0  3  0  0  0  0  0  0
   10.5120   -0.4470   -1.3590 C   0  0  0  0  0  3  0  0  0  0  0  0
   10.9030    1.2070   -1.3410 S   0  0  0  0  0  0  0  0  0  0  0  0
   10.2790    1.4230    0.2520 C   0  0  0  0  0  0  0  0  0  0  0  0
   10.3380    2.7500    0.8830 C   0  0  0  0  0  0  0  0  0  0  0  0
   10.6490    2.8220    2.1890 N   0  0  0  0  0  0  0  0  0  0  0  0
   10.7230    4.0650    2.6710 C   0  0  0  0  0  0  0  0  0  0  0  0
   10.5130    5.2170    1.9410 C   0  0  0  0  0  0  0  0  0  0  0  0
   10.1950    5.0470    0.6050 C   0  0  0  0  0  0  0  0  0  0  0  0
   10.1020    3.7950    0.0680 N   0  0  0  0  0  0  0  0  0  0  0  0
    9.9760    6.2830   -0.2590 C   0  0  0  0  0  0  0  0  0  0  0  0
    8.7650    6.4890   -0.6230 O   0  0  0  0  0  0  0  0  0  0  0  0
   10.9730    7.0140   -0.5430 O   0  0  0  0  0  1  0  0  0  0  0  0
   11.0440    4.1780    4.0030 O   0  0  0  0  0  0  0  0  0  0  0  0
   11.0430    5.1460    4.1420 H   0  0  0  0  0  0  0  0  0  0  0  0
   10.6410    6.4280    2.5700 O   0  0  0  0  0  0  0  0  0  0  0  0
   10.4590    7.1090    1.8590 H   0  0  0  0  0  0  0  0  0  0  0  0
    9.2390   -0.5020    4.2090 O   0  0  0  0  0  0  0  0  0  0  0  0
    9.4940   -0.7270    3.0320 C   0  0  0  0  0  0  0  0  0  0  0  0
    9.1810    0.1390    2.0170 N   0  0  0  0  0  0  0  0  0  0  0  0
    8.4520    0.8220    2.2460 H   0  0  0  0  0  0  0  0  0  0  0  0
   10.1110   -1.8930    2.6810 O   0  0  0  0  0  0  0  0  0  0  0  0
    9.5650   -3.1050    3.2420 C   0  0  0  0  0  2  0  0  0  0  0  0
    8.0860   -3.3510    2.9080 C   0  0  0  0  0  2  0  0  0  0  0  0
    7.8850   -4.1680    1.6520 C   0  0  0  0  0  0  0  0  0  0  0  0
    6.8840   -5.1450    1.5910 C   0  0  0  0  0  3  0  0  0  0  0  0
    6.6660   -5.8630    0.4150 C   0  0  0  0  0  3  0  0  0  0  0  0
    7.4540   -5.6240   -0.7080 C   0  0  0  0  0  3  0  0  0  0  0  0
    8.4610   -4.6630   -0.6580 C   0  0  0  0  0  3  0  0  0  0  0  0
    8.6780   -3.9400    0.5170 C   0  0  0  0  0  3  0  0  0  0  0  0
  1 21  1  0  0  0  0
  2  1  1  0  0  0  0
  3  4  1  0  0  0  0
  3  2  2  0  0  0  0
  4  5  1  0  0  0  0
  5  1  2  0  0  0  0
  5  6  1  0  0  0  0
  6  7  1  0  0  0  0
  7  8  2  0  0  0  0
  8 15  1  0  0  0  0
  9 17  1  0  0  0  0
  9  8  1  0  0  0  0
 10  9  2  0  0  0  0
 11 10  1  0  0  0  0
 11  6  2  0  0  0  0
 12 10  1  0  0  0  0
 13 12  2  0  0  0  0
 14 12  1  0  0  0  0
 15 16  1  0  0  0  0
 18 17  1  0  0  0  0
 20 19  2  0  0  0  0
 21 22  1  0  0  0  0
 21 20  1  0  0  0  0
 23 20  1  0  0  0  0
 23 24  1  0  0  0  0
 25 24  1  0  0  0  0
 26 25  1  0  0  0  0
 27 26  1  0  0  0  0
 28 27  2  0  0  0  0
 29 30  2  0  0  0  0
 29 28  1  0  0  0  0
 30 31  1  0  0  0  0
 31 26  2  0  0  0  0
M  END
>  <minimizedAffinity>
-6.43501902

$$$$
