
 OpenBabel09132204463D

 31 33  0  0  0  0  0  0  0  0999 V2000
    9.9740    0.3570    0.0000 C   0  0  0  0  0  0  0  0  0  0  0  0
   10.3100   -0.4860   -1.1100 C   0  0  0  0  0  3  0  0  0  0  0  0
   11.1540    0.1240   -2.0070 C   0  0  0  0  0  3  0  0  0  0  0  0
   11.5620    1.7010   -1.5180 S   0  0  0  0  0  0  0  0  0  0  0  0
   10.6180    1.5890   -0.0800 C   0  0  0  0  0  0  0  0  0  0  0  0
   10.5660    2.7300    0.8470 C   0  0  0  0  0  0  0  0  0  0  0  0
   10.4700    3.9670    0.3300 N   0  0  0  0  0  0  0  0  0  0  0  0
   10.3840    4.9410    1.2410 C   0  0  0  0  0  0  0  0  0  0  0  0
   10.3850    4.7550    2.6080 C   0  0  0  0  0  0  0  0  0  0  0  0
   10.4900    3.4480    3.0500 C   0  0  0  0  0  0  0  0  0  0  0  0
   10.5860    2.4190    2.1570 N   0  0  0  0  0  0  0  0  0  0  0  0
   10.4720    3.1780    4.5490 C   0  0  0  0  0  0  0  0  0  0  0  0
   11.5910    2.8100    5.0530 O   0  0  0  0  0  0  0  0  0  0  0  0
    9.3880    3.3410    5.1860 O   0  0  0  0  0  1  0  0  0  0  0  0
   10.2790    6.2200    0.7490 O   0  0  0  0  0  0  0  0  0  0  0  0
   10.2320    6.7590    1.5630 H   0  0  0  0  0  0  0  0  0  0  0  0
   10.2740    5.8530    3.4220 O   0  0  0  0  0  0  0  0  0  0  0  0
   10.2850    5.4860    4.3530 H   0  0  0  0  0  0  0  0  0  0  0  0
    8.7740   -0.9900    3.0890 O   0  0  0  0  0  0  0  0  0  0  0  0
    9.3060   -0.9950    1.9850 C   0  0  0  0  0  0  0  0  0  0  0  0
    9.1480    0.0130    1.0700 N   0  0  0  0  0  0  0  0  0  0  0  0
    8.3250    0.6050    1.2230 H   0  0  0  0  0  0  0  0  0  0  0  0
   10.0940   -2.0460    1.6150 O   0  0  0  0  0  0  0  0  0  0  0  0
    9.5600   -3.3660    1.8500 C   0  0  0  0  0  2  0  0  0  0  0  0
    9.5560   -4.2790    0.6150 C   0  0  0  0  0  2  0  0  0  0  0  0
    8.1940   -4.8590    0.3060 C   0  0  0  0  0  0  0  0  0  0  0  0
    7.7510   -4.9700   -1.0180 C   0  0  0  0  0  3  0  0  0  0  0  0
    6.5160   -5.5510   -1.3050 C   0  0  0  0  0  3  0  0  0  0  0  0
    5.7040   -6.0160   -0.2730 C   0  0  0  0  0  3  0  0  0  0  0  0
    6.1270   -5.9020    1.0490 C   0  0  0  0  0  3  0  0  0  0  0  0
    7.3650   -5.3240    1.3380 C   0  0  0  0  0  3  0  0  0  0  0  0
  1 21  1  0  0  0  0
  2  1  1  0  0  0  0
  3  4  1  0  0  0  0
  3  2  2  0  0  0  0
  4  5  1  0  0  0  0
  5  1  2  0  0  0  0
  5  6  1  0  0  0  0
  6 11  2  0  0  0  0
  7  6  1  0  0  0  0
  7  8  2  0  0  0  0
  8  9  1  0  0  0  0
  9 10  2  0  0  0  0
  9 17  1  0  0  0  0
 10 12  1  0  0  0  0
 11 10  1  0  0  0  0
 12 13  2  0  0  0  0
 12 14  1  0  0  0  0
 15  8  1  0  0  0  0
 15 16  1  0  0  0  0
 17 18  1  0  0  0  0
 20 19  2  0  0  0  0
 21 22  1  0  0  0  0
 21 20  1  0  0  0  0
 23 24  1  0  0  0  0
 23 20  1  0  0  0  0
 25 24  1  0  0  0  0
 26 25  1  0  0  0  0
 26 31  1  0  0  0  0
 27 26  2  0  0  0  0
 28 27  1  0  0  0  0
 28 29  2  0  0  0  0
 29 30  1  0  0  0  0
 30 31  2  0  0  0  0
M  END
>  <minimizedAffinity>
-6.53345156

$$$$
