
 OpenBabel09132204463D

 31 33  0  0  0  0  0  0  0  0999 V2000
    9.5420   -0.4510    3.2110 C   0  0  0  0  0  0  0  0  0  0  0  0
    9.8660   -0.0780    4.5560 C   0  0  0  0  0  3  0  0  0  0  0  0
   10.1330   -1.1600    5.3620 C   0  0  0  0  0  3  0  0  0  0  0  0
   10.0140   -2.6260    4.5090 S   0  0  0  0  0  0  0  0  0  0  0  0
    9.6120   -1.8320    3.0320 C   0  0  0  0  0  0  0  0  0  0  0  0
    9.3750   -2.6270    1.8190 C   0  0  0  0  0  0  0  0  0  0  0  0
   10.1170   -2.3660    0.7290 N   0  0  0  0  0  0  0  0  0  0  0  0
    9.8660   -3.1630   -0.3130 C   0  0  0  0  0  0  0  0  0  0  0  0
    8.9410   -4.1860   -0.3300 C   0  0  0  0  0  0  0  0  0  0  0  0
    8.2200   -4.3810    0.8350 C   0  0  0  0  0  0  0  0  0  0  0  0
    8.4360   -3.5880    1.9260 N   0  0  0  0  0  0  0  0  0  0  0  0
    7.2000   -5.5110    0.8860 C   0  0  0  0  0  0  0  0  0  0  0  0
    7.0040   -6.0220    2.0440 O   0  0  0  0  0  1  0  0  0  0  0  0
    6.6170   -5.8570   -0.1870 O   0  0  0  0  0  0  0  0  0  0  0  0
   10.6110   -2.9290   -1.4440 O   0  0  0  0  0  0  0  0  0  0  0  0
   10.2740   -3.6050   -2.0650 H   0  0  0  0  0  0  0  0  0  0  0  0
    8.8050   -4.9330   -1.4710 O   0  0  0  0  0  0  0  0  0  0  0  0
    8.1000   -5.6100   -1.2540 H   0  0  0  0  0  0  0  0  0  0  0  0
    9.7960    2.0610    0.6780 O   0  0  0  0  0  0  0  0  0  0  0  0
    9.8760    1.5760    1.8010 C   0  0  0  0  0  0  0  0  0  0  0  0
    9.2350    0.4220    2.1680 N   0  0  0  0  0  0  0  0  0  0  0  0
    8.4440    0.1620    1.5700 H   0  0  0  0  0  0  0  0  0  0  0  0
   10.6270    2.1960    2.7570 O   0  0  0  0  0  0  0  0  0  0  0  0
   11.3350    3.3860    2.3490 C   0  0  0  0  0  2  0  0  0  0  0  0
   10.8590    4.6750    3.0340 C   0  0  0  0  0  2  0  0  0  0  0  0
   10.3620    5.7200    2.0620 C   0  0  0  0  0  0  0  0  0  0  0  0
   10.0750    5.3790    0.7350 C   0  0  0  0  0  3  0  0  0  0  0  0
    9.5680    6.3320   -0.1480 C   0  0  0  0  0  3  0  0  0  0  0  0
    9.3560    7.6410    0.2800 C   0  0  0  0  0  3  0  0  0  0  0  0
    9.6490    7.9980    1.5930 C   0  0  0  0  0  3  0  0  0  0  0  0
   10.1520    7.0430    2.4800 C   0  0  0  0  0  3  0  0  0  0  0  0
  1  2  1  0  0  0  0
  2  3  2  0  0  0  0
  4  3  1  0  0  0  0
  5  1  2  0  0  0  0
  5  4  1  0  0  0  0
  6 11  2  0  0  0  0
  6  5  1  0  0  0  0
  7  6  1  0  0  0  0
  8  7  2  0  0  0  0
  9  8  1  0  0  0  0
  9 10  2  0  0  0  0
 10 12  1  0  0  0  0
 10 11  1  0  0  0  0
 12 13  1  0  0  0  0
 14 12  2  0  0  0  0
 15  8  1  0  0  0  0
 16 15  1  0  0  0  0
 17 18  1  0  0  0  0
 17  9  1  0  0  0  0
 19 20  2  0  0  0  0
 20 21  1  0  0  0  0
 20 23  1  0  0  0  0
 21  1  1  0  0  0  0
 22 21  1  0  0  0  0
 24 23  1  0  0  0  0
 24 25  1  0  0  0  0
 26 31  1  0  0  0  0
 26 25  1  0  0  0  0
 27 26  2  0  0  0  0
 28 29  2  0  0  0  0
 28 27  1  0  0  0  0
 29 30  1  0  0  0  0
 30 31  2  0  0  0  0
M  END
>  <minimizedAffinity>
-6.88584518

$$$$
