REMARK  Name = 
REMARK  8 active torsions:
REMARK  status: ('A' for Active; 'I' for Inactive)
REMARK    1  A    between atoms: C_1  and  C_2
REMARK    2  A    between atoms: C_5  and  C_6
REMARK    3  A    between atoms: C_6  and  O_7
REMARK    4  A    between atoms: O_7  and  C_8
REMARK    5  A    between atoms: C_11  and  C_12
REMARK    6  A    between atoms: C_16  and  C_17
REMARK    7  A    between atoms: N_23  and  C_24
REMARK    8  A    between atoms: C_33  and  C_34
REMARK                            x       y       z     vdW  Elec       q    Type
REMARK                         _______ _______ _______ _____ _____    ______ ____
ROOT
ATOM      1  C   UNL     1       2.977  -0.612   2.813  0.00  0.00    +0.124 A 
ATOM      2  C   UNL     1       1.702  -0.398   3.332  0.00  0.00    +0.046 A 
ATOM      3  C   UNL     1       1.562   0.105   4.628  0.00  0.00    +0.018 A 
ATOM      4  C   UNL     1       2.689   0.391   5.415  0.00  0.00    +0.053 A 
ATOM      5  C   UNL     1       3.954   0.120   4.883  0.00  0.00    +0.137 A 
ATOM      6  F   UNL     1       5.061   0.335   5.609  0.00  0.00    -0.205 F 
ATOM      7  C   UNL     1       4.106  -0.378   3.590  0.00  0.00    +0.084 A 
ENDROOT
BRANCH   4   8
ATOM      8  C   UNL     1       2.487   0.879   6.781  0.00  0.00    +0.145 A 
ATOM      9  N   UNL     1       1.636   0.313   7.615  0.00  0.00    -0.227 NA
ATOM     10  C   UNL     1       1.696   1.030   8.781  0.00  0.00    +0.090 A 
ATOM     11  C   UNL     1       1.001   0.830   9.984  0.00  0.00    +0.039 A 
ATOM     12  C   UNL     1       1.207   1.706  11.068  0.00  0.00    -0.001 A 
ATOM     13  C   UNL     1       2.115   2.765  10.914  0.00  0.00    +0.012 A 
ATOM     14  C   UNL     1       2.816   2.982   9.720  0.00  0.00    +0.028 A 
ATOM     15  C   UNL     1       2.585   2.093   8.662  0.00  0.00    +0.069 A 
ATOM     16  N   UNL     1       3.059   2.003   7.365  0.00  0.00    -0.320 N 
BRANCH  16  17
ATOM     17  C   UNL     1       3.924   2.974   6.699  0.00  0.00    +0.089 C 
ATOM     18  C   UNL     1       3.286   4.370   6.588  0.00  0.00    +0.025 C 
ATOM     19  C   UNL     1       4.194   5.336   5.829  0.00  0.00    +0.002 C 
ATOM     20  C   UNL     1       5.590   5.397   6.444  0.00  0.00    +0.000 C 
ATOM     21  C   UNL     1       6.226   4.012   6.541  0.00  0.00    +0.002 C 
ATOM     22  C   UNL     1       5.335   3.035   7.306  0.00  0.00    +0.025 C 
ENDBRANCH  16  17
BRANCH  12  23
ATOM     23  C   UNL     1       0.460   1.512  12.372  0.00  0.00    +0.072 C 
ATOM     24  O   UNL     1      -0.355   0.539  12.439  0.00  0.00    -0.545 OA
ATOM     25  O   UNL     1       0.702   2.343  13.305  0.00  0.00    -0.545 OA
ENDBRANCH  12  23
ENDBRANCH   4   8
BRANCH   1  26
ATOM     26  O   UNL     1       3.133  -1.136   1.558  0.00  0.00    -0.487 OA
BRANCH  26  27
ATOM     27  C   UNL     1       3.069  -0.108   0.554  0.00  0.00    +0.268 C 
BRANCH  27  32
ATOM     28  C   UNL     1      -2.195   0.165  -1.650  0.00  0.00    +0.088 C 
ATOM     29  C   UNL     1      -0.799   0.108  -1.113  0.00  0.00    +0.127 A 
ATOM     30  N   UNL     1      -0.256  -1.105  -0.923  0.00  0.00    -0.240 NA
ATOM     31  C   UNL     1       0.980  -1.129  -0.389  0.00  0.00    +0.122 A 
ATOM     32  C   UNL     1       1.693  -0.000  -0.033  0.00  0.00    +0.034 A 
ATOM     33  C   UNL     1       1.049   1.201  -0.286  0.00  0.00    +0.081 A 
ATOM     34  N   UNL     1      -0.193   1.269  -0.816  0.00  0.00    -0.232 NA
BRANCH  33  35
ATOM     35  C   UNL     1       1.649   2.509  -0.004  0.00  0.00    +0.001 A 
ATOM     36  C   UNL     1       1.377   3.176   1.202  0.00  0.00    +0.011 A 
ATOM     37  C   UNL     1       1.965   4.413   1.482  0.00  0.00    +0.020 A 
ATOM     38  C   UNL     1       2.825   4.995   0.554  0.00  0.00    +0.041 A 
ATOM     39 CL   UNL     1       3.555   6.514   0.898  0.00  0.00    -0.084 Cl
ATOM     40  C   UNL     1       3.100   4.354  -0.653  0.00  0.00    +0.020 A 
ATOM     41  C   UNL     1       2.511   3.118  -0.931  0.00  0.00    +0.011 A 
ENDBRANCH  33  35
ENDBRANCH  27  32
ENDBRANCH  26  27
ENDBRANCH   1  26
TORSDOF 7
