
 OpenBabel09122222393D

 41 46  0  0  0  0  0  0  0  0999 V2000
    6.2340    0.2900    9.6820 C   0  0  0  0  0  0  0  0  0  0  0  0
    6.5370    0.1380   11.0330 C   0  0  0  0  0  3  0  0  0  0  0  0
    5.5480   -0.3060   11.9150 C   0  0  0  0  0  3  0  0  0  0  0  0
    4.2520   -0.5940   11.4570 C   0  0  0  0  0  0  0  0  0  0  0  0
    3.9660   -0.3850   10.1040 C   0  0  0  0  0  0  0  0  0  0  0  0
    2.7330   -0.6040    9.6250 F   0  0  0  0  0  0  0  0  0  0  0  0
    4.9460    0.0530    9.2150 C   0  0  0  0  0  3  0  0  0  0  0  0
    3.2420   -1.0170   12.4290 C   0  0  0  0  0  0  0  0  0  0  0  0
    2.6930   -0.1800   13.2880 N   0  0  0  0  0  0  0  0  0  0  0  0
    1.8150   -0.9140   14.0420 C   0  0  0  0  0  0  0  0  0  0  0  0
    0.9690   -0.4940   15.0810 C   0  0  0  0  0  3  0  0  0  0  0  0
    0.1470   -1.4300   15.7380 C   0  0  0  0  0  0  0  0  0  0  0  0
    0.1940   -2.7720   15.3290 C   0  0  0  0  0  3  0  0  0  0  0  0
    1.0340   -3.2100   14.2960 C   0  0  0  0  0  3  0  0  0  0  0  0
    1.8400   -2.2530   13.6660 C   0  0  0  0  0  0  0  0  0  0  0  0
    2.7820   -2.3090   12.6540 N   0  0  0  0  0  0  0  0  0  0  0  0
    3.2780   -3.5240   12.0120 C   0  0  0  0  0  3  0  0  0  0  0  0
    2.6290   -3.7880   10.6420 C   0  0  0  0  0  2  0  0  0  0  0  0
    3.1260   -5.0990   10.0360 C   0  0  0  0  0  2  0  0  0  0  0  0
    4.6500   -5.1410    9.9590 C   0  0  0  0  0  2  0  0  0  0  0  0
    5.2920   -4.8930   11.3220 C   0  0  0  0  0  2  0  0  0  0  0  0
    4.8130   -3.5800   11.9390 C   0  0  0  0  0  2  0  0  0  0  0  0
   -0.7670   -0.9980   16.8680 C   0  0  0  0  0  0  0  0  0  0  0  0
   -1.7440   -1.7600   17.1520 O   0  0  0  0  0  0  0  0  0  0  0  0
   -0.4890    0.1000   17.4470 O   0  0  0  0  0  1  0  0  0  0  0  0
    7.1800    0.7560    8.8090 O   0  0  0  0  0  0  0  0  0  0  0  0
    7.4800   -0.2220    7.7970 C   0  0  0  0  0  2  0  0  0  0  0  0
    9.6560   -4.9360   10.1810 C   0  0  0  0  0  1  0  0  0  0  0  0
    9.1040   -3.7140    9.5160 C   0  0  0  0  0  0  0  0  0  0  0  0
    9.6790   -2.5360    9.8080 N   0  0  0  0  0  0  0  0  0  0  0  0
    9.1290   -1.4460    9.2380 C   0  0  0  0  0  3  0  0  0  0  0  0
    8.0330   -1.4800    8.3970 C   0  0  0  0  0  0  0  0  0  0  0  0
    7.5270   -2.7460    8.1480 C   0  0  0  0  0  0  0  0  0  0  0  0
    8.0460   -3.8650    8.7040 N   0  0  0  0  0  0  0  0  0  0  0  0
    6.3850   -2.9950    7.2630 C   0  0  0  0  0  0  0  0  0  0  0  0
    6.5840   -3.4480    5.9480 C   0  0  0  0  0  3  0  0  0  0  0  0
    5.4950   -3.7060    5.1100 C   0  0  0  0  0  3  0  0  0  0  0  0
    4.1990   -3.5070    5.5790 C   0  0  0  0  0  0  0  0  0  0  0  0
    2.8580   -3.8300    4.5520 Cl  0  0  0  0  0  0  0  0  0  0  0  0
    3.9810   -3.0480    6.8770 C   0  0  0  0  0  3  0  0  0  0  0  0
    5.0700   -2.7900    7.7130 C   0  0  0  0  0  3  0  0  0  0  0  0
  1  2  1  0  0  0  0
  2  3  2  0  0  0  0
  4  3  1  0  0  0  0
  4  8  1  0  0  0  0
  5  4  2  0  0  0  0
  6  5  1  0  0  0  0
  7  1  2  0  0  0  0
  7  5  1  0  0  0  0
  8 16  1  0  0  0  0
  8  9  2  0  0  0  0
  9 10  1  0  0  0  0
 10 11  1  0  0  0  0
 11 12  2  0  0  0  0
 12 23  1  0  0  0  0
 13 12  1  0  0  0  0
 14 13  2  0  0  0  0
 15 10  2  0  0  0  0
 15 14  1  0  0  0  0
 16 15  1  0  0  0  0
 17 16  1  0  0  0  0
 18 17  1  0  0  0  0
 19 18  1  0  0  0  0
 20 19  1  0  0  0  0
 20 21  1  0  0  0  0
 21 22  1  0  0  0  0
 22 17  1  0  0  0  0
 23 24  2  0  0  0  0
 23 25  1  0  0  0  0
 26  1  1  0  0  0  0
 27 32  1  0  0  0  0
 27 26  1  0  0  0  0
 29 30  2  0  0  0  0
 29 28  1  0  0  0  0
 31 30  1  0  0  0  0
 32 31  2  0  0  0  0
 33 32  1  0  0  0  0
 33 34  2  0  0  0  0
 34 29  1  0  0  0  0
 35 41  1  0  0  0  0
 35 33  1  0  0  0  0
 36 35  2  0  0  0  0
 37 38  2  0  0  0  0
 37 36  1  0  0  0  0
 38 40  1  0  0  0  0
 39 38  1  0  0  0  0
 40 41  2  0  0  0  0
M  END
>  <minimizedAffinity>
-6.98221588

$$$$
