
 OpenBabel09122222103D

 41 46  0  0  0  0  0  0  0  0999 V2000
    2.9460   -3.0380    7.4800 C   0  0  0  0  0  0  0  0  0  0  0  0
    2.8280   -1.7200    7.9150 C   0  0  0  0  0  3  0  0  0  0  0  0
    2.6000   -1.4610    9.2690 C   0  0  0  0  0  3  0  0  0  0  0  0
    2.4830   -2.5110   10.1940 C   0  0  0  0  0  0  0  0  0  0  0  0
    2.5580   -3.8240    9.7180 C   0  0  0  0  0  0  0  0  0  0  0  0
    2.4090   -4.8630   10.5520 F   0  0  0  0  0  0  0  0  0  0  0  0
    2.7890   -4.0950    8.3700 C   0  0  0  0  0  3  0  0  0  0  0  0
    2.2050   -2.1860   11.5950 C   0  0  0  0  0  0  0  0  0  0  0  0
    1.1570   -2.6660   12.2370 N   0  0  0  0  0  0  0  0  0  0  0  0
    1.2050   -2.1490   13.5050 C   0  0  0  0  0  0  0  0  0  0  0  0
    0.3340   -2.3600   14.5840 C   0  0  0  0  0  3  0  0  0  0  0  0
    0.5650   -1.7090   15.8120 C   0  0  0  0  0  0  0  0  0  0  0  0
    1.6770   -0.8600   15.9240 C   0  0  0  0  0  3  0  0  0  0  0  0
    2.5570   -0.6340   14.8560 C   0  0  0  0  0  3  0  0  0  0  0  0
    2.2940   -1.2960   13.6490 C   0  0  0  0  0  0  0  0  0  0  0  0
    2.9060   -1.3040   12.4080 N   0  0  0  0  0  0  0  0  0  0  0  0
    4.0250   -0.4590   11.9980 C   0  0  0  0  0  3  0  0  0  0  0  0
    3.5920    0.9660   11.6140 C   0  0  0  0  0  2  0  0  0  0  0  0
    4.7800    1.7960   11.1300 C   0  0  0  0  0  2  0  0  0  0  0  0
    5.9140    1.8040   12.1520 C   0  0  0  0  0  2  0  0  0  0  0  0
    6.3510    0.3880   12.5220 C   0  0  0  0  0  2  0  0  0  0  0  0
    5.1760   -0.4530   13.0180 C   0  0  0  0  0  2  0  0  0  0  0  0
   -0.3690   -1.9180   16.9870 C   0  0  0  0  0  0  0  0  0  0  0  0
   -0.4680   -3.0960   17.4520 O   0  0  0  0  0  1  0  0  0  0  0  0
   -0.9900   -0.8940   17.4190 O   0  0  0  0  0  0  0  0  0  0  0  0
    3.1350   -3.3130    6.1520 O   0  0  0  0  0  0  0  0  0  0  0  0
    4.0150   -4.4360    5.9740 C   0  0  0  0  0  2  0  0  0  0  0  0
    9.0540   -2.7810    3.8490 C   0  0  0  0  0  1  0  0  0  0  0  0
    7.7530   -3.2540    4.4190 C   0  0  0  0  0  0  0  0  0  0  0  0
    6.7920   -3.6160    3.5550 N   0  0  0  0  0  0  0  0  0  0  0  0
    5.6140   -3.9860    4.0930 C   0  0  0  0  0  3  0  0  0  0  0  0
    5.3540   -4.0070    5.4500 C   0  0  0  0  0  0  0  0  0  0  0  0
    6.4180   -3.6320    6.2550 C   0  0  0  0  0  0  0  0  0  0  0  0
    7.6150   -3.2490    5.7550 N   0  0  0  0  0  0  0  0  0  0  0  0
    6.3510   -3.6140    7.7190 C   0  0  0  0  0  0  0  0  0  0  0  0
    6.3560   -2.3970    8.4210 C   0  0  0  0  0  3  0  0  0  0  0  0
    6.2700   -2.3770    9.8160 C   0  0  0  0  0  3  0  0  0  0  0  0
    6.1840   -3.5750   10.5200 C   0  0  0  0  0  0  0  0  0  0  0  0
    6.0720   -3.5540   12.2370 Cl  0  0  0  0  0  0  0  0  0  0  0  0
    6.1870   -4.7940    9.8430 C   0  0  0  0  0  3  0  0  0  0  0  0
    6.2730   -4.8120    8.4490 C   0  0  0  0  0  3  0  0  0  0  0  0
  1  2  2  0  0  0  0
  1  7  1  0  0  0  0
  2  3  1  0  0  0  0
  3  4  2  0  0  0  0
  4  8  1  0  0  0  0
  5  4  1  0  0  0  0
  5  6  1  0  0  0  0
  7  5  2  0  0  0  0
  8  9  2  0  0  0  0
  8 16  1  0  0  0  0
  9 10  1  0  0  0  0
 10 15  2  0  0  0  0
 10 11  1  0  0  0  0
 11 12  2  0  0  0  0
 12 13  1  0  0  0  0
 12 23  1  0  0  0  0
 14 13  2  0  0  0  0
 15 14  1  0  0  0  0
 16 15  1  0  0  0  0
 17 16  1  0  0  0  0
 17 22  1  0  0  0  0
 18 17  1  0  0  0  0
 19 18  1  0  0  0  0
 19 20  1  0  0  0  0
 20 21  1  0  0  0  0
 21 22  1  0  0  0  0
 23 25  2  0  0  0  0
 23 24  1  0  0  0  0
 26  1  1  0  0  0  0
 27 26  1  0  0  0  0
 28 29  1  0  0  0  0
 29 34  1  0  0  0  0
 30 31  1  0  0  0  0
 30 29  2  0  0  0  0
 31 32  2  0  0  0  0
 32 27  1  0  0  0  0
 32 33  1  0  0  0  0
 33 35  1  0  0  0  0
 34 33  2  0  0  0  0
 35 36  2  0  0  0  0
 35 41  1  0  0  0  0
 36 37  1  0  0  0  0
 37 38  2  0  0  0  0
 38 39  1  0  0  0  0
 40 38  1  0  0  0  0
 41 40  2  0  0  0  0
M  END
>  <minimizedAffinity>
-7.70306015

$$$$

 OpenBabel09122222103D

 41 46  0  0  0  0  0  0  0  0999 V2000
    4.8510    0.2900   12.2440 C   0  0  0  0  0  0  0  0  0  0  0  0
    4.3240    1.3790   11.5540 C   0  0  0  0  0  3  0  0  0  0  0  0
    5.0970    2.5310   11.3920 C   0  0  0  0  0  3  0  0  0  0  0  0
    6.3960    2.6070   11.9200 C   0  0  0  0  0  0  0  0  0  0  0  0
    6.8790    1.5140   12.6490 C   0  0  0  0  0  0  0  0  0  0  0  0
    8.0960    1.5520   13.2100 F   0  0  0  0  0  0  0  0  0  0  0  0
    6.1180    0.3580   12.8140 C   0  0  0  0  0  3  0  0  0  0  0  0
    7.1500    3.8510   11.7560 C   0  0  0  0  0  0  0  0  0  0  0  0
    7.0760    4.8420   12.6250 N   0  0  0  0  0  0  0  0  0  0  0  0
    7.8910    5.8370   12.1520 C   0  0  0  0  0  0  0  0  0  0  0  0
    8.1750    7.0930   12.7110 C   0  0  0  0  0  3  0  0  0  0  0  0
    9.0420    7.9790   12.0420 C   0  0  0  0  0  0  0  0  0  0  0  0
    9.6060    7.5760   10.8220 C   0  0  0  0  0  3  0  0  0  0  0  0
    9.3320    6.3270   10.2470 C   0  0  0  0  0  3  0  0  0  0  0  0
    8.4640    5.4720   10.9390 C   0  0  0  0  0  0  0  0  0  0  0  0
    7.9550    4.2110   10.6820 N   0  0  0  0  0  0  0  0  0  0  0  0
    8.1470    3.4430    9.4540 C   0  0  0  0  0  3  0  0  0  0  0  0
    7.7580    4.2270    8.1880 C   0  0  0  0  0  2  0  0  0  0  0  0
    7.9110    3.3670    6.9350 C   0  0  0  0  0  2  0  0  0  0  0  0
    9.3130    2.7740    6.8270 C   0  0  0  0  0  2  0  0  0  0  0  0
    9.6920    1.9860    8.0790 C   0  0  0  0  0  2  0  0  0  0  0  0
    9.5540    2.8340    9.3420 C   0  0  0  0  0  2  0  0  0  0  0  0
    9.3550    9.3420   12.6250 C   0  0  0  0  0  0  0  0  0  0  0  0
    9.8540   10.2110   11.8430 O   0  0  0  0  0  0  0  0  0  0  0  0
    9.0980    9.5150   13.8600 O   0  0  0  0  0  1  0  0  0  0  0  0
    4.0960   -0.8350   12.4420 O   0  0  0  0  0  0  0  0  0  0  0  0
    3.5360   -1.3090   11.2050 C   0  0  0  0  0  2  0  0  0  0  0  0
   -0.5300   -5.1860   12.2450 C   0  0  0  0  0  1  0  0  0  0  0  0
    0.5650   -4.2040   11.9640 C   0  0  0  0  0  0  0  0  0  0  0  0
    1.0890   -3.5440   13.0080 N   0  0  0  0  0  0  0  0  0  0  0  0
    2.0350   -2.6280   12.7220 C   0  0  0  0  0  3  0  0  0  0  0  0
    2.4750   -2.3420   11.4430 C   0  0  0  0  0  0  0  0  0  0  0  0
    1.8810   -3.0910   10.4400 C   0  0  0  0  0  0  0  0  0  0  0  0
    0.9250   -4.0160   10.6840 N   0  0  0  0  0  0  0  0  0  0  0  0
    2.2300   -2.9550    9.0220 C   0  0  0  0  0  0  0  0  0  0  0  0
    1.9500   -1.7660    8.3280 C   0  0  0  0  0  3  0  0  0  0  0  0
    2.3020   -1.6260    6.9820 C   0  0  0  0  0  3  0  0  0  0  0  0
    2.9300   -2.6770    6.3190 C   0  0  0  0  0  0  0  0  0  0  0  0
    3.3690   -2.5060    4.6650 Cl  0  0  0  0  0  0  0  0  0  0  0  0
    3.2070   -3.8690    6.9880 C   0  0  0  0  0  3  0  0  0  0  0  0
    2.8550   -4.0070    8.3330 C   0  0  0  0  0  3  0  0  0  0  0  0
  1 26  1  0  0  0  0
  1  7  1  0  0  0  0
  2  1  2  0  0  0  0
  3  2  1  0  0  0  0
  3  4  2  0  0  0  0
  4  5  1  0  0  0  0
  5  7  2  0  0  0  0
  5  6  1  0  0  0  0
  8  4  1  0  0  0  0
  8  9  2  0  0  0  0
 10  9  1  0  0  0  0
 10 11  1  0  0  0  0
 12 23  1  0  0  0  0
 12 11  2  0  0  0  0
 13 12  1  0  0  0  0
 14 13  2  0  0  0  0
 14 15  1  0  0  0  0
 15 10  2  0  0  0  0
 16 15  1  0  0  0  0
 16  8  1  0  0  0  0
 17 16  1  0  0  0  0
 18 17  1  0  0  0  0
 19 18  1  0  0  0  0
 20 19  1  0  0  0  0
 20 21  1  0  0  0  0
 21 22  1  0  0  0  0
 22 17  1  0  0  0  0
 23 25  1  0  0  0  0
 24 23  2  0  0  0  0
 27 32  1  0  0  0  0
 27 26  1  0  0  0  0
 29 28  1  0  0  0  0
 29 30  2  0  0  0  0
 31 30  1  0  0  0  0
 32 31  2  0  0  0  0
 33 34  2  0  0  0  0
 33 32  1  0  0  0  0
 34 29  1  0  0  0  0
 35 33  1  0  0  0  0
 36 35  2  0  0  0  0
 37 36  1  0  0  0  0
 38 37  2  0  0  0  0
 38 40  1  0  0  0  0
 39 38  1  0  0  0  0
 40 41  2  0  0  0  0
 41 35  1  0  0  0  0
M  END
>  <minimizedAffinity>
-7.40751266

$$$$

 OpenBabel09122222103D

 41 46  0  0  0  0  0  0  0  0999 V2000
    5.3200    1.2400   12.0220 C   0  0  0  0  0  0  0  0  0  0  0  0
    4.3620    1.4050   11.0240 C   0  0  0  0  0  3  0  0  0  0  0  0
    4.1840    0.4010   10.0690 C   0  0  0  0  0  3  0  0  0  0  0  0
    4.9610   -0.7670   10.0980 C   0  0  0  0  0  0  0  0  0  0  0  0
    5.9470   -0.8820   11.0840 C   0  0  0  0  0  0  0  0  0  0  0  0
    6.7450   -1.9590   11.1300 F   0  0  0  0  0  0  0  0  0  0  0  0
    6.1310    0.1110   12.0450 C   0  0  0  0  0  3  0  0  0  0  0  0
    4.7620   -1.7710    9.0500 C   0  0  0  0  0  0  0  0  0  0  0  0
    5.2800   -1.6450    7.8440 N   0  0  0  0  0  0  0  0  0  0  0  0
    4.8820   -2.7460    7.1310 C   0  0  0  0  0  0  0  0  0  0  0  0
    5.1770   -3.1000    5.8050 C   0  0  0  0  0  3  0  0  0  0  0  0
    4.6450   -4.2850    5.2600 C   0  0  0  0  0  0  0  0  0  0  0  0
    3.8300   -5.0910    6.0700 C   0  0  0  0  0  3  0  0  0  0  0  0
    3.5230   -4.7530    7.3950 C   0  0  0  0  0  3  0  0  0  0  0  0
    4.0660   -3.5660    7.9030 C   0  0  0  0  0  0  0  0  0  0  0  0
    3.9710   -2.9120    9.1190 N   0  0  0  0  0  0  0  0  0  0  0  0
    3.1120   -3.2990   10.2360 C   0  0  0  0  0  3  0  0  0  0  0  0
    1.6160   -3.2780    9.8770 C   0  0  0  0  0  2  0  0  0  0  0  0
    0.7510   -3.6240   11.0880 C   0  0  0  0  0  2  0  0  0  0  0  0
    1.1660   -4.9530   11.7150 C   0  0  0  0  0  2  0  0  0  0  0  0
    2.6490   -4.9660   12.0810 C   0  0  0  0  0  2  0  0  0  0  0  0
    3.5290   -4.6310   10.8790 C   0  0  0  0  0  2  0  0  0  0  0  0
    4.9440   -4.6800    3.8280 C   0  0  0  0  0  0  0  0  0  0  0  0
    3.9950   -5.1860    3.1510 O   0  0  0  0  0  0  0  0  0  0  0  0
    6.1290   -4.4800    3.4090 O   0  0  0  0  0  1  0  0  0  0  0  0
    5.5320    2.2270   12.9470 O   0  0  0  0  0  0  0  0  0  0  0  0
    6.9370    2.4290   13.1770 C   0  0  0  0  0  2  0  0  0  0  0  0
    8.7890    7.2840   10.8020 C   0  0  0  0  0  1  0  0  0  0  0  0
    8.2690    6.0110   11.3940 C   0  0  0  0  0  0  0  0  0  0  0  0
    7.6750    6.0830   12.5950 N   0  0  0  0  0  0  0  0  0  0  0  0
    7.2650    4.9170   13.1290 C   0  0  0  0  0  3  0  0  0  0  0  0
    7.4250    3.6860   12.5200 C   0  0  0  0  0  0  0  0  0  0  0  0
    8.0350    3.7260   11.2760 C   0  0  0  0  0  0  0  0  0  0  0  0
    8.4660    4.8740   10.7070 N   0  0  0  0  0  0  0  0  0  0  0  0
    8.2720    2.5310   10.4600 C   0  0  0  0  0  0  0  0  0  0  0  0
    9.2490    1.5930   10.8310 C   0  0  0  0  0  3  0  0  0  0  0  0
    9.4610    0.4420   10.0650 C   0  0  0  0  0  3  0  0  0  0  0  0
    8.7010    0.2250    8.9190 C   0  0  0  0  0  0  0  0  0  0  0  0
    8.9550   -1.1930    7.9790 Cl  0  0  0  0  0  0  0  0  0  0  0  0
    7.7330    1.1490    8.5280 C   0  0  0  0  0  3  0  0  0  0  0  0
    7.5230    2.2980    9.2940 C   0  0  0  0  0  3  0  0  0  0  0  0
  1  7  1  0  0  0  0
  1 26  1  0  0  0  0
  2  1  2  0  0  0  0
  3  4  2  0  0  0  0
  3  2  1  0  0  0  0
  4  5  1  0  0  0  0
  5  6  1  0  0  0  0
  5  7  2  0  0  0  0
  8 16  1  0  0  0  0
  8  4  1  0  0  0  0
  9  8  2  0  0  0  0
 10  9  1  0  0  0  0
 10 15  1  0  0  0  0
 11 10  2  0  0  0  0
 12 11  1  0  0  0  0
 12 13  2  0  0  0  0
 13 14  1  0  0  0  0
 14 15  2  0  0  0  0
 15 16  1  0  0  0  0
 16 17  1  0  0  0  0
 17 22  1  0  0  0  0
 18 17  1  0  0  0  0
 18 19  1  0  0  0  0
 19 20  1  0  0  0  0
 20 21  1  0  0  0  0
 22 21  1  0  0  0  0
 23 12  1  0  0  0  0
 24 23  2  0  0  0  0
 25 23  1  0  0  0  0
 26 27  1  0  0  0  0
 28 29  1  0  0  0  0
 29 30  2  0  0  0  0
 30 31  1  0  0  0  0
 32 31  2  0  0  0  0
 32 27  1  0  0  0  0
 33 32  1  0  0  0  0
 34 33  2  0  0  0  0
 34 29  1  0  0  0  0
 35 36  1  0  0  0  0
 35 33  1  0  0  0  0
 37 36  2  0  0  0  0
 38 37  1  0  0  0  0
 39 38  1  0  0  0  0
 40 38  2  0  0  0  0
 40 41  1  0  0  0  0
 41 35  2  0  0  0  0
M  END
>  <minimizedAffinity>
-7.30817175

$$$$

 OpenBabel09122222103D

 41 46  0  0  0  0  0  0  0  0999 V2000
    8.0770    2.9350   10.3130 C   0  0  0  0  0  0  0  0  0  0  0  0
    8.5960    1.8390   11.0000 C   0  0  0  0  0  3  0  0  0  0  0  0
    7.7240    0.9290   11.6030 C   0  0  0  0  0  3  0  0  0  0  0  0
    6.3330    1.1080   11.5300 C   0  0  0  0  0  0  0  0  0  0  0  0
    5.8450    2.2430   10.8750 C   0  0  0  0  0  0  0  0  0  0  0  0
    4.5270    2.4840   10.8150 F   0  0  0  0  0  0  0  0  0  0  0  0
    6.7050    3.1560   10.2670 C   0  0  0  0  0  3  0  0  0  0  0  0
    5.4640    0.1470   12.2130 C   0  0  0  0  0  0  0  0  0  0  0  0
    5.4420    0.0220   13.5260 N   0  0  0  0  0  0  0  0  0  0  0  0
    4.5380   -0.9670   13.8090 C   0  0  0  0  0  0  0  0  0  0  0  0
    4.1340   -1.4720   15.0550 C   0  0  0  0  0  3  0  0  0  0  0  0
    3.1880   -2.5140   15.1180 C   0  0  0  0  0  0  0  0  0  0  0  0
    2.6660   -3.0220   13.9180 C   0  0  0  0  0  3  0  0  0  0  0  0
    3.0580   -2.5320   12.6650 C   0  0  0  0  0  3  0  0  0  0  0  0
    4.0030   -1.4980   12.6400 C   0  0  0  0  0  0  0  0  0  0  0  0
    4.6300   -0.7970   11.6250 N   0  0  0  0  0  0  0  0  0  0  0  0
    4.5130   -1.0720   10.1950 C   0  0  0  0  0  3  0  0  0  0  0  0
    4.7640   -2.5490    9.8440 C   0  0  0  0  0  2  0  0  0  0  0  0
    4.6970   -2.7800    8.3350 C   0  0  0  0  0  2  0  0  0  0  0  0
    3.3840   -2.2710    7.7460 C   0  0  0  0  0  2  0  0  0  0  0  0
    3.1440   -0.8020    8.0840 C   0  0  0  0  0  2  0  0  0  0  0  0
    3.1980   -0.5540    9.5910 C   0  0  0  0  0  2  0  0  0  0  0  0
    2.7460   -3.0780   16.4530 C   0  0  0  0  0  0  0  0  0  0  0  0
    1.5630   -3.5370   16.5300 O   0  0  0  0  0  0  0  0  0  0  0  0
    3.5930   -3.0470   17.4020 O   0  0  0  0  0  1  0  0  0  0  0  0
    8.9160    3.8550    9.7460 O   0  0  0  0  0  0  0  0  0  0  0  0
    9.9870    4.2030   10.6410 C   0  0  0  0  0  2  0  0  0  0  0  0
    9.1430    9.3830   12.9000 C   0  0  0  0  0  1  0  0  0  0  0  0
    9.3990    8.0200   12.3370 C   0  0  0  0  0  0  0  0  0  0  0  0
    9.9390    7.9460   11.1100 N   0  0  0  0  0  0  0  0  0  0  0  0
   10.1100    6.7090   10.6060 C   0  0  0  0  0  3  0  0  0  0  0  0
    9.7620    5.5470   11.2680 C   0  0  0  0  0  0  0  0  0  0  0  0
    9.2290    5.7340   12.5340 C   0  0  0  0  0  0  0  0  0  0  0  0
    9.0360    6.9580   13.0750 N   0  0  0  0  0  0  0  0  0  0  0  0
    8.8230    4.6270   13.4050 C   0  0  0  0  0  0  0  0  0  0  0  0
    9.7860    3.8150   14.0270 C   0  0  0  0  0  3  0  0  0  0  0  0
    9.4010    2.7720   14.8760 C   0  0  0  0  0  3  0  0  0  0  0  0
    8.0490    2.5300   15.1030 C   0  0  0  0  0  0  0  0  0  0  0  0
    7.5720    1.2520   16.1510 Cl  0  0  0  0  0  0  0  0  0  0  0  0
    7.0770    3.3180   14.4880 C   0  0  0  0  0  3  0  0  0  0  0  0
    7.4640    4.3590   13.6400 C   0  0  0  0  0  3  0  0  0  0  0  0
  1  2  1  0  0  0  0
  2  3  2  0  0  0  0
  4  3  1  0  0  0  0
  4  8  1  0  0  0  0
  5  4  2  0  0  0  0
  6  5  1  0  0  0  0
  7  1  2  0  0  0  0
  7  5  1  0  0  0  0
  8  9  2  0  0  0  0
  9 10  1  0  0  0  0
 10 11  1  0  0  0  0
 11 12  2  0  0  0  0
 12 23  1  0  0  0  0
 13 12  1  0  0  0  0
 14 13  2  0  0  0  0
 15 14  1  0  0  0  0
 15 10  2  0  0  0  0
 16  8  1  0  0  0  0
 16 15  1  0  0  0  0
 17 16  1  0  0  0  0
 18 17  1  0  0  0  0
 19 18  1  0  0  0  0
 20 21  1  0  0  0  0
 20 19  1  0  0  0  0
 21 22  1  0  0  0  0
 22 17  1  0  0  0  0
 23 24  2  0  0  0  0
 23 25  1  0  0  0  0
 26  1  1  0  0  0  0
 26 27  1  0  0  0  0
 27 32  1  0  0  0  0
 29 28  1  0  0  0  0
 29 34  1  0  0  0  0
 30 29  2  0  0  0  0
 31 30  1  0  0  0  0
 31 32  2  0  0  0  0
 32 33  1  0  0  0  0
 33 34  2  0  0  0  0
 33 35  1  0  0  0  0
 35 41  2  0  0  0  0
 35 36  1  0  0  0  0
 36 37  2  0  0  0  0
 37 38  1  0  0  0  0
 38 39  1  0  0  0  0
 40 38  2  0  0  0  0
 41 40  1  0  0  0  0
M  END
>  <minimizedAffinity>
-7.29100513

$$$$

 OpenBabel09122222103D

 41 46  0  0  0  0  0  0  0  0999 V2000
    4.6770   -3.1410    9.6080 C   0  0  0  0  0  0  0  0  0  0  0  0
    5.2750   -4.2830    9.0810 C   0  0  0  0  0  3  0  0  0  0  0  0
    6.1030   -4.1720    7.9610 C   0  0  0  0  0  3  0  0  0  0  0  0
    6.3330   -2.9250    7.3570 C   0  0  0  0  0  0  0  0  0  0  0  0
    5.6790   -1.8050    7.8810 C   0  0  0  0  0  0  0  0  0  0  0  0
    5.8310   -0.5990    7.3150 F   0  0  0  0  0  0  0  0  0  0  0  0
    4.8550   -1.9030    9.0000 C   0  0  0  0  0  3  0  0  0  0  0  0
    7.1770   -2.8690    6.1610 C   0  0  0  0  0  0  0  0  0  0  0  0
    6.7940   -3.3690    5.0020 N   0  0  0  0  0  0  0  0  0  0  0  0
    7.8240   -3.1550    4.1240 C   0  0  0  0  0  0  0  0  0  0  0  0
    7.9140   -3.4820    2.7620 C   0  0  0  0  0  3  0  0  0  0  0  0
    9.0870   -3.1780    2.0430 C   0  0  0  0  0  0  0  0  0  0  0  0
   10.1440   -2.5460    2.7160 C   0  0  0  0  0  3  0  0  0  0  0  0
   10.0730   -2.2140    4.0760 C   0  0  0  0  0  3  0  0  0  0  0  0
    8.8930   -2.5330    4.7610 C   0  0  0  0  0  0  0  0  0  0  0  0
    8.4770   -2.3860    6.0720 N   0  0  0  0  0  0  0  0  0  0  0  0
    9.2950   -1.9050    7.1830 C   0  0  0  0  0  3  0  0  0  0  0  0
    9.0140   -0.4360    7.5440 C   0  0  0  0  0  2  0  0  0  0  0  0
    9.9350    0.0450    8.6640 C   0  0  0  0  0  2  0  0  0  0  0  0
    9.8570   -0.8650    9.8870 C   0  0  0  0  0  2  0  0  0  0  0  0
   10.1490   -2.3200    9.5280 C   0  0  0  0  0  2  0  0  0  0  0  0
    9.2300   -2.8220    8.4150 C   0  0  0  0  0  2  0  0  0  0  0  0
    9.2060   -3.5310    0.5740 C   0  0  0  0  0  0  0  0  0  0  0  0
    9.8870   -2.7480   -0.1600 O   0  0  0  0  0  0  0  0  0  0  0  0
    8.6110   -4.5850    0.1840 O   0  0  0  0  0  1  0  0  0  0  0  0
    3.8360   -3.2350   10.6850 O   0  0  0  0  0  0  0  0  0  0  0  0
    2.8500   -2.1880   10.6680 C   0  0  0  0  0  2  0  0  0  0  0  0
    1.4430   -0.6060   15.9740 C   0  0  0  0  0  1  0  0  0  0  0  0
    1.7940   -0.9810   14.5680 C   0  0  0  0  0  0  0  0  0  0  0  0
    1.0670   -1.9470   13.9830 N   0  0  0  0  0  0  0  0  0  0  0  0
    1.4380   -2.3020   12.7380 C   0  0  0  0  0  3  0  0  0  0  0  0
    2.5010   -1.7420   12.0560 C   0  0  0  0  0  0  0  0  0  0  0  0
    3.1730   -0.7430   12.7420 C   0  0  0  0  0  0  0  0  0  0  0  0
    2.8370   -0.3600   13.9950 N   0  0  0  0  0  0  0  0  0  0  0  0
    4.3110   -0.0080   12.1800 C   0  0  0  0  0  0  0  0  0  0  0  0
    4.1150    1.2090   11.5070 C   0  0  0  0  0  3  0  0  0  0  0  0
    5.2000    1.9220   10.9890 C   0  0  0  0  0  3  0  0  0  0  0  0
    6.4900    1.4180   11.1350 C   0  0  0  0  0  0  0  0  0  0  0  0
    7.8290    2.2950   10.5040 Cl  0  0  0  0  0  0  0  0  0  0  0  0
    6.7060    0.2070   11.7910 C   0  0  0  0  0  3  0  0  0  0  0  0
    5.6190   -0.5040   12.3070 C   0  0  0  0  0  3  0  0  0  0  0  0
  1 26  1  0  0  0  0
  2  1  1  0  0  0  0
  3  2  2  0  0  0  0
  4  5  2  0  0  0  0
  4  3  1  0  0  0  0
  5  7  1  0  0  0  0
  6  5  1  0  0  0  0
  7  1  2  0  0  0  0
  8  4  1  0  0  0  0
  9  8  2  0  0  0  0
 10 15  1  0  0  0  0
 10  9  1  0  0  0  0
 11 10  2  0  0  0  0
 12 13  2  0  0  0  0
 12 11  1  0  0  0  0
 13 14  1  0  0  0  0
 14 15  2  0  0  0  0
 15 16  1  0  0  0  0
 16  8  1  0  0  0  0
 16 17  1  0  0  0  0
 17 18  1  0  0  0  0
 17 22  1  0  0  0  0
 18 19  1  0  0  0  0
 19 20  1  0  0  0  0
 21 20  1  0  0  0  0
 22 21  1  0  0  0  0
 23 12  1  0  0  0  0
 24 23  2  0  0  0  0
 25 23  1  0  0  0  0
 27 26  1  0  0  0  0
 27 32  1  0  0  0  0
 29 28  1  0  0  0  0
 30 29  2  0  0  0  0
 31 30  1  0  0  0  0
 32 31  2  0  0  0  0
 32 33  1  0  0  0  0
 33 34  2  0  0  0  0
 34 29  1  0  0  0  0
 35 41  1  0  0  0  0
 35 33  1  0  0  0  0
 36 35  2  0  0  0  0
 37 38  2  0  0  0  0
 37 36  1  0  0  0  0
 38 40  1  0  0  0  0
 39 38  1  0  0  0  0
 40 41  2  0  0  0  0
M  END
>  <minimizedAffinity>
-7.27218914

$$$$

 OpenBabel09122222103D

 41 46  0  0  0  0  0  0  0  0999 V2000
    7.5140    3.3400   13.3350 C   0  0  0  0  0  0  0  0  0  0  0  0
    8.2580    2.2380   12.9170 C   0  0  0  0  0  3  0  0  0  0  0  0
    7.6760    1.3010   12.0590 C   0  0  0  0  0  3  0  0  0  0  0  0
    6.3520    1.4520   11.6190 C   0  0  0  0  0  0  0  0  0  0  0  0
    5.6160    2.5430   12.0950 C   0  0  0  0  0  0  0  0  0  0  0  0
    4.3340    2.7100   11.7390 F   0  0  0  0  0  0  0  0  0  0  0  0
    6.1870    3.4860   12.9480 C   0  0  0  0  0  3  0  0  0  0  0  0
    5.7770    0.4210   10.7520 C   0  0  0  0  0  0  0  0  0  0  0  0
    6.0040    0.3830    9.4530 N   0  0  0  0  0  0  0  0  0  0  0  0
    5.3060   -0.6910    8.9660 C   0  0  0  0  0  0  0  0  0  0  0  0
    5.2250   -1.1760    7.6510 C   0  0  0  0  0  3  0  0  0  0  0  0
    4.4280   -2.3010    7.3660 C   0  0  0  0  0  0  0  0  0  0  0  0
    3.7300   -2.9160    8.4170 C   0  0  0  0  0  3  0  0  0  0  0  0
    3.7960   -2.4440    9.7350 C   0  0  0  0  0  3  0  0  0  0  0  0
    4.5970   -1.3220    9.9830 C   0  0  0  0  0  0  0  0  0  0  0  0
    4.8820   -0.5790   11.1150 N   0  0  0  0  0  0  0  0  0  0  0  0
    4.2710   -0.7520   12.4310 C   0  0  0  0  0  3  0  0  0  0  0  0
    2.7450   -0.5600   12.4140 C   0  0  0  0  0  2  0  0  0  0  0  0
    2.1550   -0.6840   13.8180 C   0  0  0  0  0  2  0  0  0  0  0  0
    2.5540   -2.0000   14.4810 C   0  0  0  0  0  2  0  0  0  0  0  0
    4.0700   -2.1820   14.5080 C   0  0  0  0  0  2  0  0  0  0  0  0
    4.6760   -2.0700   13.1100 C   0  0  0  0  0  2  0  0  0  0  0  0
    4.3210   -2.8350    5.9520 C   0  0  0  0  0  0  0  0  0  0  0  0
    3.4190   -2.3390    5.2070 O   0  0  0  0  0  0  0  0  0  0  0  0
    5.1430   -3.7470    5.6150 O   0  0  0  0  0  1  0  0  0  0  0  0
    8.0560    4.2500   14.2030 O   0  0  0  0  0  0  0  0  0  0  0  0
    9.4230    4.5410   13.8640 C   0  0  0  0  0  2  0  0  0  0  0  0
   10.0350    9.8740   11.9070 C   0  0  0  0  0  1  0  0  0  0  0  0
    9.8290    8.4790   12.4100 C   0  0  0  0  0  0  0  0  0  0  0  0
    9.9040    8.2800   13.7360 N   0  0  0  0  0  0  0  0  0  0  0  0
    9.7690    7.0090   14.1580 C   0  0  0  0  0  3  0  0  0  0  0  0
    9.5680    5.9300   13.3170 C   0  0  0  0  0  0  0  0  0  0  0  0
    9.4900    6.2470   11.9700 C   0  0  0  0  0  0  0  0  0  0  0  0
    9.6250    7.5090   11.5050 N   0  0  0  0  0  0  0  0  0  0  0  0
    9.2540    5.2480   10.9230 C   0  0  0  0  0  0  0  0  0  0  0  0
   10.2650    4.3430   10.5560 C   0  0  0  0  0  3  0  0  0  0  0  0
   10.0350    3.3760    9.5730 C   0  0  0  0  0  3  0  0  0  0  0  0
    8.7940    3.3110    8.9450 C   0  0  0  0  0  0  0  0  0  0  0  0
    8.5060    2.1180    7.7390 Cl  0  0  0  0  0  0  0  0  0  0  0  0
    7.7810    4.2060    9.2870 C   0  0  0  0  0  3  0  0  0  0  0  0
    8.0130    5.1720   10.2690 C   0  0  0  0  0  3  0  0  0  0  0  0
  1 26  1  0  0  0  0
  2  1  2  0  0  0  0
  3  2  1  0  0  0  0
  4  3  2  0  0  0  0
  4  5  1  0  0  0  0
  5  7  2  0  0  0  0
  6  5  1  0  0  0  0
  7  1  1  0  0  0  0
  8 16  1  0  0  0  0
  8  4  1  0  0  0  0
  9  8  2  0  0  0  0
 10  9  1  0  0  0  0
 10 15  1  0  0  0  0
 11 10  2  0  0  0  0
 12 11  1  0  0  0  0
 12 13  2  0  0  0  0
 13 14  1  0  0  0  0
 14 15  2  0  0  0  0
 15 16  1  0  0  0  0
 16 17  1  0  0  0  0
 17 22  1  0  0  0  0
 18 17  1  0  0  0  0
 18 19  1  0  0  0  0
 19 20  1  0  0  0  0
 20 21  1  0  0  0  0
 22 21  1  0  0  0  0
 23 12  1  0  0  0  0
 24 23  2  0  0  0  0
 25 23  1  0  0  0  0
 27 26  1  0  0  0  0
 28 29  1  0  0  0  0
 29 30  2  0  0  0  0
 30 31  1  0  0  0  0
 32 27  1  0  0  0  0
 32 31  2  0  0  0  0
 33 32  1  0  0  0  0
 34 33  2  0  0  0  0
 34 29  1  0  0  0  0
 35 33  1  0  0  0  0
 36 35  1  0  0  0  0
 37 36  2  0  0  0  0
 38 40  2  0  0  0  0
 38 37  1  0  0  0  0
 39 38  1  0  0  0  0
 40 41  1  0  0  0  0
 41 35  2  0  0  0  0
M  END
>  <minimizedAffinity>
-7.25393963

$$$$

 OpenBabel09122222103D

 41 46  0  0  0  0  0  0  0  0999 V2000
    6.4810    2.2740   10.8960 C   0  0  0  0  0  0  0  0  0  0  0  0
    5.1300    2.5700   11.0610 C   0  0  0  0  0  3  0  0  0  0  0  0
    4.2820    1.6170   11.6320 C   0  0  0  0  0  3  0  0  0  0  0  0
    4.7730    0.3650   12.0350 C   0  0  0  0  0  0  0  0  0  0  0  0
    6.1240    0.0810   11.8110 C   0  0  0  0  0  0  0  0  0  0  0  0
    6.6340   -1.1150   12.1380 F   0  0  0  0  0  0  0  0  0  0  0  0
    6.9800    1.0250   11.2460 C   0  0  0  0  0  3  0  0  0  0  0  0
    3.8340   -0.6120   12.5910 C   0  0  0  0  0  0  0  0  0  0  0  0
    3.6280   -0.7340   13.8880 N   0  0  0  0  0  0  0  0  0  0  0  0
    2.7120   -1.7410   14.0440 C   0  0  0  0  0  0  0  0  0  0  0  0
    2.1440   -2.2510   15.2230 C   0  0  0  0  0  3  0  0  0  0  0  0
    1.2190   -3.3120   15.1550 C   0  0  0  0  0  0  0  0  0  0  0  0
    0.8850   -3.8330   13.8960 C   0  0  0  0  0  3  0  0  0  0  0  0
    1.4430   -3.3390   12.7090 C   0  0  0  0  0  3  0  0  0  0  0  0
    2.3600   -2.2850   12.8140 C   0  0  0  0  0  0  0  0  0  0  0  0
    3.1120   -1.5740   11.8950 N   0  0  0  0  0  0  0  0  0  0  0  0
    3.2070   -1.8540   10.4640 C   0  0  0  0  0  3  0  0  0  0  0  0
    2.8300   -0.6460    9.5890 C   0  0  0  0  0  2  0  0  0  0  0  0
    2.8780   -1.0000    8.1040 C   0  0  0  0  0  2  0  0  0  0  0  0
    4.2310   -1.5870    7.7090 C   0  0  0  0  0  2  0  0  0  0  0  0
    4.5970   -2.7940    8.5700 C   0  0  0  0  0  2  0  0  0  0  0  0
    4.5630   -2.4550   10.0590 C   0  0  0  0  0  2  0  0  0  0  0  0
    0.6020   -3.8820   16.4160 C   0  0  0  0  0  0  0  0  0  0  0  0
    0.1730   -3.0560   17.2810 O   0  0  0  0  0  1  0  0  0  0  0  0
    0.5640   -5.1500   16.5170 O   0  0  0  0  0  0  0  0  0  0  0  0
    7.3200    3.1820   10.3080 O   0  0  0  0  0  0  0  0  0  0  0  0
    8.4980    3.3940   11.1060 C   0  0  0  0  0  2  0  0  0  0  0  0
    8.7870    8.8400   12.8090 C   0  0  0  0  0  1  0  0  0  0  0  0
    8.7560    7.4080   12.3730 C   0  0  0  0  0  0  0  0  0  0  0  0
    8.6880    7.1620   11.0560 N   0  0  0  0  0  0  0  0  0  0  0  0
    8.6070    5.8670   10.6940 C   0  0  0  0  0  3  0  0  0  0  0  0
    8.5860    4.8120   11.5860 C   0  0  0  0  0  0  0  0  0  0  0  0
    8.6770    5.1750   12.9210 C   0  0  0  0  0  0  0  0  0  0  0  0
    8.7550    6.4630   13.3270 N   0  0  0  0  0  0  0  0  0  0  0  0
    8.6980    4.2020   14.0180 C   0  0  0  0  0  0  0  0  0  0  0  0
    9.9140    3.6770   14.4860 C   0  0  0  0  0  3  0  0  0  0  0  0
    9.9370    2.7660   15.5460 C   0  0  0  0  0  3  0  0  0  0  0  0
    8.7430    2.3690   16.1420 C   0  0  0  0  0  0  0  0  0  0  0  0
    8.7680    1.2530   17.4510 Cl  0  0  0  0  0  0  0  0  0  0  0  0
    7.5250    2.8710   15.6860 C   0  0  0  0  0  3  0  0  0  0  0  0
    7.5040    3.7810   14.6260 C   0  0  0  0  0  3  0  0  0  0  0  0
  1  2  2  0  0  0  0
  1  7  1  0  0  0  0
  2  3  1  0  0  0  0
  3  4  2  0  0  0  0
  4  8  1  0  0  0  0
  5  4  1  0  0  0  0
  5  6  1  0  0  0  0
  7  5  2  0  0  0  0
  8  9  2  0  0  0  0
  9 10  1  0  0  0  0
 10 11  1  0  0  0  0
 12 11  2  0  0  0  0
 12 23  1  0  0  0  0
 13 12  1  0  0  0  0
 14 15  1  0  0  0  0
 14 13  2  0  0  0  0
 15 10  2  0  0  0  0
 16  8  1  0  0  0  0
 16 15  1  0  0  0  0
 17 16  1  0  0  0  0
 18 17  1  0  0  0  0
 19 18  1  0  0  0  0
 20 19  1  0  0  0  0
 20 21  1  0  0  0  0
 21 22  1  0  0  0  0
 22 17  1  0  0  0  0
 23 25  2  0  0  0  0
 23 24  1  0  0  0  0
 26  1  1  0  0  0  0
 26 27  1  0  0  0  0
 27 32  1  0  0  0  0
 29 28  1  0  0  0  0
 29 34  1  0  0  0  0
 30 29  2  0  0  0  0
 31 30  1  0  0  0  0
 31 32  2  0  0  0  0
 32 33  1  0  0  0  0
 33 34  2  0  0  0  0
 33 35  1  0  0  0  0
 35 36  2  0  0  0  0
 35 41  1  0  0  0  0
 36 37  1  0  0  0  0
 37 38  2  0  0  0  0
 38 39  1  0  0  0  0
 40 38  1  0  0  0  0
 41 40  2  0  0  0  0
M  END
>  <minimizedAffinity>
-7.09835625

$$$$

 OpenBabel09122222103D

 41 46  0  0  0  0  0  0  0  0999 V2000
    6.2340    0.2900    9.6820 C   0  0  0  0  0  0  0  0  0  0  0  0
    6.5370    0.1380   11.0330 C   0  0  0  0  0  3  0  0  0  0  0  0
    5.5480   -0.3060   11.9150 C   0  0  0  0  0  3  0  0  0  0  0  0
    4.2520   -0.5940   11.4570 C   0  0  0  0  0  0  0  0  0  0  0  0
    3.9660   -0.3850   10.1040 C   0  0  0  0  0  0  0  0  0  0  0  0
    2.7330   -0.6040    9.6250 F   0  0  0  0  0  0  0  0  0  0  0  0
    4.9460    0.0530    9.2150 C   0  0  0  0  0  3  0  0  0  0  0  0
    3.2420   -1.0170   12.4290 C   0  0  0  0  0  0  0  0  0  0  0  0
    2.6930   -0.1800   13.2880 N   0  0  0  0  0  0  0  0  0  0  0  0
    1.8150   -0.9140   14.0420 C   0  0  0  0  0  0  0  0  0  0  0  0
    0.9690   -0.4940   15.0810 C   0  0  0  0  0  3  0  0  0  0  0  0
    0.1470   -1.4300   15.7380 C   0  0  0  0  0  0  0  0  0  0  0  0
    0.1940   -2.7720   15.3290 C   0  0  0  0  0  3  0  0  0  0  0  0
    1.0340   -3.2100   14.2960 C   0  0  0  0  0  3  0  0  0  0  0  0
    1.8400   -2.2530   13.6660 C   0  0  0  0  0  0  0  0  0  0  0  0
    2.7820   -2.3090   12.6540 N   0  0  0  0  0  0  0  0  0  0  0  0
    3.2780   -3.5240   12.0120 C   0  0  0  0  0  3  0  0  0  0  0  0
    2.6290   -3.7880   10.6420 C   0  0  0  0  0  2  0  0  0  0  0  0
    3.1260   -5.0990   10.0360 C   0  0  0  0  0  2  0  0  0  0  0  0
    4.6500   -5.1410    9.9590 C   0  0  0  0  0  2  0  0  0  0  0  0
    5.2920   -4.8930   11.3220 C   0  0  0  0  0  2  0  0  0  0  0  0
    4.8130   -3.5800   11.9390 C   0  0  0  0  0  2  0  0  0  0  0  0
   -0.7670   -0.9980   16.8680 C   0  0  0  0  0  0  0  0  0  0  0  0
   -1.7440   -1.7600   17.1520 O   0  0  0  0  0  0  0  0  0  0  0  0
   -0.4890    0.1000   17.4470 O   0  0  0  0  0  1  0  0  0  0  0  0
    7.1800    0.7560    8.8090 O   0  0  0  0  0  0  0  0  0  0  0  0
    7.4800   -0.2220    7.7970 C   0  0  0  0  0  2  0  0  0  0  0  0
    9.6560   -4.9360   10.1810 C   0  0  0  0  0  1  0  0  0  0  0  0
    9.1040   -3.7140    9.5160 C   0  0  0  0  0  0  0  0  0  0  0  0
    9.6790   -2.5360    9.8080 N   0  0  0  0  0  0  0  0  0  0  0  0
    9.1290   -1.4460    9.2380 C   0  0  0  0  0  3  0  0  0  0  0  0
    8.0330   -1.4800    8.3970 C   0  0  0  0  0  0  0  0  0  0  0  0
    7.5270   -2.7460    8.1480 C   0  0  0  0  0  0  0  0  0  0  0  0
    8.0460   -3.8650    8.7040 N   0  0  0  0  0  0  0  0  0  0  0  0
    6.3850   -2.9950    7.2630 C   0  0  0  0  0  0  0  0  0  0  0  0
    6.5840   -3.4480    5.9480 C   0  0  0  0  0  3  0  0  0  0  0  0
    5.4950   -3.7060    5.1100 C   0  0  0  0  0  3  0  0  0  0  0  0
    4.1990   -3.5070    5.5790 C   0  0  0  0  0  0  0  0  0  0  0  0
    2.8580   -3.8300    4.5520 Cl  0  0  0  0  0  0  0  0  0  0  0  0
    3.9810   -3.0480    6.8770 C   0  0  0  0  0  3  0  0  0  0  0  0
    5.0700   -2.7900    7.7130 C   0  0  0  0  0  3  0  0  0  0  0  0
  1  2  1  0  0  0  0
  2  3  2  0  0  0  0
  4  3  1  0  0  0  0
  4  8  1  0  0  0  0
  5  4  2  0  0  0  0
  6  5  1  0  0  0  0
  7  1  2  0  0  0  0
  7  5  1  0  0  0  0
  8 16  1  0  0  0  0
  8  9  2  0  0  0  0
  9 10  1  0  0  0  0
 10 11  1  0  0  0  0
 11 12  2  0  0  0  0
 12 23  1  0  0  0  0
 13 12  1  0  0  0  0
 14 13  2  0  0  0  0
 15 10  2  0  0  0  0
 15 14  1  0  0  0  0
 16 15  1  0  0  0  0
 17 16  1  0  0  0  0
 18 17  1  0  0  0  0
 19 18  1  0  0  0  0
 20 19  1  0  0  0  0
 20 21  1  0  0  0  0
 21 22  1  0  0  0  0
 22 17  1  0  0  0  0
 23 24  2  0  0  0  0
 23 25  1  0  0  0  0
 26  1  1  0  0  0  0
 27 32  1  0  0  0  0
 27 26  1  0  0  0  0
 29 30  2  0  0  0  0
 29 28  1  0  0  0  0
 31 30  1  0  0  0  0
 32 31  2  0  0  0  0
 33 32  1  0  0  0  0
 33 34  2  0  0  0  0
 34 29  1  0  0  0  0
 35 41  1  0  0  0  0
 35 33  1  0  0  0  0
 36 35  2  0  0  0  0
 37 38  2  0  0  0  0
 37 36  1  0  0  0  0
 38 40  1  0  0  0  0
 39 38  1  0  0  0  0
 40 41  2  0  0  0  0
M  END
>  <minimizedAffinity>
-6.98221588

$$$$

 OpenBabel09122222103D

 41 46  0  0  0  0  0  0  0  0999 V2000
    5.1610   -1.0340   11.1080 C   0  0  0  0  0  0  0  0  0  0  0  0
    6.5420   -0.9230   11.2590 C   0  0  0  0  0  3  0  0  0  0  0  0
    7.1270    0.3440   11.3260 C   0  0  0  0  0  3  0  0  0  0  0  0
    6.3420    1.5050   11.2370 C   0  0  0  0  0  0  0  0  0  0  0  0
    4.9650    1.3600   11.0370 C   0  0  0  0  0  0  0  0  0  0  0  0
    4.1770    2.4370   10.9020 F   0  0  0  0  0  0  0  0  0  0  0  0
    4.3700    0.1010   10.9730 C   0  0  0  0  0  3  0  0  0  0  0  0
    7.0090    2.8080   11.2720 C   0  0  0  0  0  0  0  0  0  0  0  0
    6.6980    3.7370   12.1560 N   0  0  0  0  0  0  0  0  0  0  0  0
    7.5000    4.8150   11.8890 C   0  0  0  0  0  0  0  0  0  0  0  0
    7.5750    6.0530   12.5470 C   0  0  0  0  0  3  0  0  0  0  0  0
    8.4740    7.0380   12.0920 C   0  0  0  0  0  0  0  0  0  0  0  0
    9.2810    6.7490   10.9800 C   0  0  0  0  0  3  0  0  0  0  0  0
    9.2180    5.5210   10.3080 C   0  0  0  0  0  3  0  0  0  0  0  0
    8.3120    4.5660   10.7870 C   0  0  0  0  0  0  0  0  0  0  0  0
    7.9630    3.2890   10.3830 N   0  0  0  0  0  0  0  0  0  0  0  0
    8.4370    2.6110    9.1790 C   0  0  0  0  0  3  0  0  0  0  0  0
    8.3460    3.4910    7.9190 C   0  0  0  0  0  2  0  0  0  0  0  0
    8.7880    2.7240    6.6740 C   0  0  0  0  0  2  0  0  0  0  0  0
   10.1810    2.1240    6.8480 C   0  0  0  0  0  2  0  0  0  0  0  0
   10.2650    1.2420    8.0920 C   0  0  0  0  0  2  0  0  0  0  0  0
    9.8350    1.9960    9.3480 C   0  0  0  0  0  2  0  0  0  0  0  0
    8.5630    8.3830   12.7840 C   0  0  0  0  0  0  0  0  0  0  0  0
    9.3590    9.2420   12.2900 O   0  0  0  0  0  0  0  0  0  0  0  0
    7.8350    8.5510   13.8140 O   0  0  0  0  0  1  0  0  0  0  0  0
    4.5740   -2.2670   11.0070 O   0  0  0  0  0  0  0  0  0  0  0  0
    4.9450   -2.9200    9.7800 C   0  0  0  0  0  2  0  0  0  0  0  0
    1.3840   -1.3960    5.5800 C   0  0  0  0  0  1  0  0  0  0  0  0
    2.3260   -1.8350    6.6580 C   0  0  0  0  0  0  0  0  0  0  0  0
    1.7940   -2.2140    7.8310 N   0  0  0  0  0  0  0  0  0  0  0  0
    2.6650   -2.5520    8.8000 C   0  0  0  0  0  3  0  0  0  0  0  0
    4.0390   -2.5240    8.6530 C   0  0  0  0  0  0  0  0  0  0  0  0
    4.4830   -2.1340    7.3990 C   0  0  0  0  0  0  0  0  0  0  0  0
    3.6420   -1.7820    6.4000 N   0  0  0  0  0  0  0  0  0  0  0  0
    5.9020   -2.0660    7.0350 C   0  0  0  0  0  0  0  0  0  0  0  0
    6.4570   -2.9960    6.1400 C   0  0  0  0  0  3  0  0  0  0  0  0
    7.8040   -2.9200    5.7760 C   0  0  0  0  0  3  0  0  0  0  0  0
    8.6080   -1.9150    6.3090 C   0  0  0  0  0  0  0  0  0  0  0  0
   10.2650   -1.8150    5.8580 Cl  0  0  0  0  0  0  0  0  0  0  0  0
    8.0790   -0.9890    7.2070 C   0  0  0  0  0  3  0  0  0  0  0  0
    6.7330   -1.0670    7.5700 C   0  0  0  0  0  3  0  0  0  0  0  0
  1  2  1  0  0  0  0
  2  3  2  0  0  0  0
  4  8  1  0  0  0  0
  4  3  1  0  0  0  0
  5  4  2  0  0  0  0
  6  5  1  0  0  0  0
  7  5  1  0  0  0  0
  7  1  2  0  0  0  0
  8  9  2  0  0  0  0
 10  9  1  0  0  0  0
 10 11  1  0  0  0  0
 12 11  2  0  0  0  0
 12 23  1  0  0  0  0
 13 12  1  0  0  0  0
 14 15  1  0  0  0  0
 14 13  2  0  0  0  0
 15 10  2  0  0  0  0
 16 15  1  0  0  0  0
 16  8  1  0  0  0  0
 17 22  1  0  0  0  0
 17 16  1  0  0  0  0
 18 17  1  0  0  0  0
 19 20  1  0  0  0  0
 19 18  1  0  0  0  0
 20 21  1  0  0  0  0
 21 22  1  0  0  0  0
 23 25  1  0  0  0  0
 24 23  2  0  0  0  0
 26  1  1  0  0  0  0
 27 26  1  0  0  0  0
 28 29  1  0  0  0  0
 29 30  2  0  0  0  0
 30 31  1  0  0  0  0
 32 31  2  0  0  0  0
 32 27  1  0  0  0  0
 33 32  1  0  0  0  0
 34 29  1  0  0  0  0
 34 33  2  0  0  0  0
 35 33  1  0  0  0  0
 35 41  1  0  0  0  0
 36 35  2  0  0  0  0
 37 36  1  0  0  0  0
 37 38  2  0  0  0  0
 38 40  1  0  0  0  0
 39 38  1  0  0  0  0
 40 41  2  0  0  0  0
M  END
>  <minimizedAffinity>
-6.85613203

$$$$

 OpenBabel09122222103D

 41 46  0  0  0  0  0  0  0  0999 V2000
    4.8740   -0.2450   12.6820 C   0  0  0  0  0  0  0  0  0  0  0  0
    6.0610    0.0070   13.3650 C   0  0  0  0  0  3  0  0  0  0  0  0
    6.7130    1.2300   13.1830 C   0  0  0  0  0  3  0  0  0  0  0  0
    6.1900    2.2030   12.3160 C   0  0  0  0  0  0  0  0  0  0  0  0
    5.0220    1.9000   11.6090 C   0  0  0  0  0  0  0  0  0  0  0  0
    4.5050    2.7770   10.7360 F   0  0  0  0  0  0  0  0  0  0  0  0
    4.3610    0.6850   11.7850 C   0  0  0  0  0  3  0  0  0  0  0  0
    6.9330    3.4510   12.1310 C   0  0  0  0  0  0  0  0  0  0  0  0
    6.8300    4.4660   12.9680 N   0  0  0  0  0  0  0  0  0  0  0  0
    7.6410    5.4570   12.4820 C   0  0  0  0  0  0  0  0  0  0  0  0
    7.9000    6.7320   13.0100 C   0  0  0  0  0  3  0  0  0  0  0  0
    8.7700    7.6090   12.3320 C   0  0  0  0  0  0  0  0  0  0  0  0
    9.3640    7.1770   11.1360 C   0  0  0  0  0  3  0  0  0  0  0  0
    9.1160    5.9090   10.5930 C   0  0  0  0  0  3  0  0  0  0  0  0
    8.2440    5.0630   11.2920 C   0  0  0  0  0  0  0  0  0  0  0  0
    7.7550    3.7890   11.0630 N   0  0  0  0  0  0  0  0  0  0  0  0
    7.9810    2.9880    9.8620 C   0  0  0  0  0  3  0  0  0  0  0  0
    7.8180    3.7940    8.5620 C   0  0  0  0  0  2  0  0  0  0  0  0
    7.9970    2.9050    7.3320 C   0  0  0  0  0  2  0  0  0  0  0  0
    9.3250    2.1530    7.3710 C   0  0  0  0  0  2  0  0  0  0  0  0
    9.4790    1.3440    8.6570 C   0  0  0  0  0  2  0  0  0  0  0  0
    9.3120    2.2190    9.8970 C   0  0  0  0  0  2  0  0  0  0  0  0
    9.0550    8.9920   12.8800 C   0  0  0  0  0  0  0  0  0  0  0  0
    9.3830    9.8950   12.0470 O   0  0  0  0  0  0  0  0  0  0  0  0
    8.9480    9.1480   14.1390 O   0  0  0  0  0  1  0  0  0  0  0  0
    4.2400   -1.4500   12.8210 O   0  0  0  0  0  0  0  0  0  0  0  0
    4.2520   -1.8880   14.1910 C   0  0  0  0  0  2  0  0  0  0  0  0
   -0.9850   -1.9330   16.4750 C   0  0  0  0  0  1  0  0  0  0  0  0
    0.3910   -1.9660   15.8860 C   0  0  0  0  0  0  0  0  0  0  0  0
    1.3780   -1.3820   16.5830 N   0  0  0  0  0  0  0  0  0  0  0  0
    2.5950   -1.3790   16.0060 C   0  0  0  0  0  3  0  0  0  0  0  0
    2.8670   -1.9270   14.7670 C   0  0  0  0  0  0  0  0  0  0  0  0
    1.7830   -2.5200   14.1400 C   0  0  0  0  0  0  0  0  0  0  0  0
    0.5440   -2.5400   14.6820 N   0  0  0  0  0  0  0  0  0  0  0  0
    1.8720   -3.1800   12.8330 C   0  0  0  0  0  0  0  0  0  0  0  0
    1.4220   -2.5300   11.6720 C   0  0  0  0  0  3  0  0  0  0  0  0
    1.5260   -3.1490   10.4220 C   0  0  0  0  0  3  0  0  0  0  0  0
    2.0760   -4.4250   10.3270 C   0  0  0  0  0  0  0  0  0  0  0  0
    2.2110   -5.1860    8.7900 Cl  0  0  0  0  0  0  0  0  0  0  0  0
    2.5190   -5.0900   11.4680 C   0  0  0  0  0  3  0  0  0  0  0  0
    2.4140   -4.4700   12.7160 C   0  0  0  0  0  3  0  0  0  0  0  0
  1 26  1  0  0  0  0
  1  2  1  0  0  0  0
  3  2  2  0  0  0  0
  4  3  1  0  0  0  0
  5  7  1  0  0  0  0
  5  4  2  0  0  0  0
  6  5  1  0  0  0  0
  7  1  2  0  0  0  0
  8  4  1  0  0  0  0
  8  9  2  0  0  0  0
 10  9  1  0  0  0  0
 10 11  1  0  0  0  0
 12 23  1  0  0  0  0
 12 11  2  0  0  0  0
 13 12  1  0  0  0  0
 14 13  2  0  0  0  0
 14 15  1  0  0  0  0
 15 10  2  0  0  0  0
 16 15  1  0  0  0  0
 16  8  1  0  0  0  0
 17 22  1  0  0  0  0
 17 16  1  0  0  0  0
 18 17  1  0  0  0  0
 19 20  1  0  0  0  0
 19 18  1  0  0  0  0
 20 21  1  0  0  0  0
 21 22  1  0  0  0  0
 23 25  1  0  0  0  0
 24 23  2  0  0  0  0
 26 27  1  0  0  0  0
 27 32  1  0  0  0  0
 29 28  1  0  0  0  0
 29 30  2  0  0  0  0
 31 30  1  0  0  0  0
 32 31  2  0  0  0  0
 33 34  2  0  0  0  0
 33 32  1  0  0  0  0
 34 29  1  0  0  0  0
 35 33  1  0  0  0  0
 36 35  2  0  0  0  0
 37 36  1  0  0  0  0
 38 37  2  0  0  0  0
 38 40  1  0  0  0  0
 39 38  1  0  0  0  0
 40 41  2  0  0  0  0
 41 35  1  0  0  0  0
M  END
>  <minimizedAffinity>
-6.84063864

$$$$
