
 OpenBabel09122222393D

 41 46  0  0  0  0  0  0  0  0999 V2000
    6.4810    2.2740   10.8960 C   0  0  0  0  0  0  0  0  0  0  0  0
    5.1300    2.5700   11.0610 C   0  0  0  0  0  3  0  0  0  0  0  0
    4.2820    1.6170   11.6320 C   0  0  0  0  0  3  0  0  0  0  0  0
    4.7730    0.3650   12.0350 C   0  0  0  0  0  0  0  0  0  0  0  0
    6.1240    0.0810   11.8110 C   0  0  0  0  0  0  0  0  0  0  0  0
    6.6340   -1.1150   12.1380 F   0  0  0  0  0  0  0  0  0  0  0  0
    6.9800    1.0250   11.2460 C   0  0  0  0  0  3  0  0  0  0  0  0
    3.8340   -0.6120   12.5910 C   0  0  0  0  0  0  0  0  0  0  0  0
    3.6280   -0.7340   13.8880 N   0  0  0  0  0  0  0  0  0  0  0  0
    2.7120   -1.7410   14.0440 C   0  0  0  0  0  0  0  0  0  0  0  0
    2.1440   -2.2510   15.2230 C   0  0  0  0  0  3  0  0  0  0  0  0
    1.2190   -3.3120   15.1550 C   0  0  0  0  0  0  0  0  0  0  0  0
    0.8850   -3.8330   13.8960 C   0  0  0  0  0  3  0  0  0  0  0  0
    1.4430   -3.3390   12.7090 C   0  0  0  0  0  3  0  0  0  0  0  0
    2.3600   -2.2850   12.8140 C   0  0  0  0  0  0  0  0  0  0  0  0
    3.1120   -1.5740   11.8950 N   0  0  0  0  0  0  0  0  0  0  0  0
    3.2070   -1.8540   10.4640 C   0  0  0  0  0  3  0  0  0  0  0  0
    2.8300   -0.6460    9.5890 C   0  0  0  0  0  2  0  0  0  0  0  0
    2.8780   -1.0000    8.1040 C   0  0  0  0  0  2  0  0  0  0  0  0
    4.2310   -1.5870    7.7090 C   0  0  0  0  0  2  0  0  0  0  0  0
    4.5970   -2.7940    8.5700 C   0  0  0  0  0  2  0  0  0  0  0  0
    4.5630   -2.4550   10.0590 C   0  0  0  0  0  2  0  0  0  0  0  0
    0.6020   -3.8820   16.4160 C   0  0  0  0  0  0  0  0  0  0  0  0
    0.1730   -3.0560   17.2810 O   0  0  0  0  0  1  0  0  0  0  0  0
    0.5640   -5.1500   16.5170 O   0  0  0  0  0  0  0  0  0  0  0  0
    7.3200    3.1820   10.3080 O   0  0  0  0  0  0  0  0  0  0  0  0
    8.4980    3.3940   11.1060 C   0  0  0  0  0  2  0  0  0  0  0  0
    8.7870    8.8400   12.8090 C   0  0  0  0  0  1  0  0  0  0  0  0
    8.7560    7.4080   12.3730 C   0  0  0  0  0  0  0  0  0  0  0  0
    8.6880    7.1620   11.0560 N   0  0  0  0  0  0  0  0  0  0  0  0
    8.6070    5.8670   10.6940 C   0  0  0  0  0  3  0  0  0  0  0  0
    8.5860    4.8120   11.5860 C   0  0  0  0  0  0  0  0  0  0  0  0
    8.6770    5.1750   12.9210 C   0  0  0  0  0  0  0  0  0  0  0  0
    8.7550    6.4630   13.3270 N   0  0  0  0  0  0  0  0  0  0  0  0
    8.6980    4.2020   14.0180 C   0  0  0  0  0  0  0  0  0  0  0  0
    9.9140    3.6770   14.4860 C   0  0  0  0  0  3  0  0  0  0  0  0
    9.9370    2.7660   15.5460 C   0  0  0  0  0  3  0  0  0  0  0  0
    8.7430    2.3690   16.1420 C   0  0  0  0  0  0  0  0  0  0  0  0
    8.7680    1.2530   17.4510 Cl  0  0  0  0  0  0  0  0  0  0  0  0
    7.5250    2.8710   15.6860 C   0  0  0  0  0  3  0  0  0  0  0  0
    7.5040    3.7810   14.6260 C   0  0  0  0  0  3  0  0  0  0  0  0
  1  2  2  0  0  0  0
  1  7  1  0  0  0  0
  2  3  1  0  0  0  0
  3  4  2  0  0  0  0
  4  8  1  0  0  0  0
  5  4  1  0  0  0  0
  5  6  1  0  0  0  0
  7  5  2  0  0  0  0
  8  9  2  0  0  0  0
  9 10  1  0  0  0  0
 10 11  1  0  0  0  0
 12 11  2  0  0  0  0
 12 23  1  0  0  0  0
 13 12  1  0  0  0  0
 14 15  1  0  0  0  0
 14 13  2  0  0  0  0
 15 10  2  0  0  0  0
 16  8  1  0  0  0  0
 16 15  1  0  0  0  0
 17 16  1  0  0  0  0
 18 17  1  0  0  0  0
 19 18  1  0  0  0  0
 20 19  1  0  0  0  0
 20 21  1  0  0  0  0
 21 22  1  0  0  0  0
 22 17  1  0  0  0  0
 23 25  2  0  0  0  0
 23 24  1  0  0  0  0
 26  1  1  0  0  0  0
 26 27  1  0  0  0  0
 27 32  1  0  0  0  0
 29 28  1  0  0  0  0
 29 34  1  0  0  0  0
 30 29  2  0  0  0  0
 31 30  1  0  0  0  0
 31 32  2  0  0  0  0
 32 33  1  0  0  0  0
 33 34  2  0  0  0  0
 33 35  1  0  0  0  0
 35 36  2  0  0  0  0
 35 41  1  0  0  0  0
 36 37  1  0  0  0  0
 37 38  2  0  0  0  0
 38 39  1  0  0  0  0
 40 38  1  0  0  0  0
 41 40  2  0  0  0  0
M  END
>  <minimizedAffinity>
-7.09835625

$$$$
