
 OpenBabel09122222393D

 41 46  0  0  0  0  0  0  0  0999 V2000
    5.3200    1.2400   12.0220 C   0  0  0  0  0  0  0  0  0  0  0  0
    4.3620    1.4050   11.0240 C   0  0  0  0  0  3  0  0  0  0  0  0
    4.1840    0.4010   10.0690 C   0  0  0  0  0  3  0  0  0  0  0  0
    4.9610   -0.7670   10.0980 C   0  0  0  0  0  0  0  0  0  0  0  0
    5.9470   -0.8820   11.0840 C   0  0  0  0  0  0  0  0  0  0  0  0
    6.7450   -1.9590   11.1300 F   0  0  0  0  0  0  0  0  0  0  0  0
    6.1310    0.1110   12.0450 C   0  0  0  0  0  3  0  0  0  0  0  0
    4.7620   -1.7710    9.0500 C   0  0  0  0  0  0  0  0  0  0  0  0
    5.2800   -1.6450    7.8440 N   0  0  0  0  0  0  0  0  0  0  0  0
    4.8820   -2.7460    7.1310 C   0  0  0  0  0  0  0  0  0  0  0  0
    5.1770   -3.1000    5.8050 C   0  0  0  0  0  3  0  0  0  0  0  0
    4.6450   -4.2850    5.2600 C   0  0  0  0  0  0  0  0  0  0  0  0
    3.8300   -5.0910    6.0700 C   0  0  0  0  0  3  0  0  0  0  0  0
    3.5230   -4.7530    7.3950 C   0  0  0  0  0  3  0  0  0  0  0  0
    4.0660   -3.5660    7.9030 C   0  0  0  0  0  0  0  0  0  0  0  0
    3.9710   -2.9120    9.1190 N   0  0  0  0  0  0  0  0  0  0  0  0
    3.1120   -3.2990   10.2360 C   0  0  0  0  0  3  0  0  0  0  0  0
    1.6160   -3.2780    9.8770 C   0  0  0  0  0  2  0  0  0  0  0  0
    0.7510   -3.6240   11.0880 C   0  0  0  0  0  2  0  0  0  0  0  0
    1.1660   -4.9530   11.7150 C   0  0  0  0  0  2  0  0  0  0  0  0
    2.6490   -4.9660   12.0810 C   0  0  0  0  0  2  0  0  0  0  0  0
    3.5290   -4.6310   10.8790 C   0  0  0  0  0  2  0  0  0  0  0  0
    4.9440   -4.6800    3.8280 C   0  0  0  0  0  0  0  0  0  0  0  0
    3.9950   -5.1860    3.1510 O   0  0  0  0  0  0  0  0  0  0  0  0
    6.1290   -4.4800    3.4090 O   0  0  0  0  0  1  0  0  0  0  0  0
    5.5320    2.2270   12.9470 O   0  0  0  0  0  0  0  0  0  0  0  0
    6.9370    2.4290   13.1770 C   0  0  0  0  0  2  0  0  0  0  0  0
    8.7890    7.2840   10.8020 C   0  0  0  0  0  1  0  0  0  0  0  0
    8.2690    6.0110   11.3940 C   0  0  0  0  0  0  0  0  0  0  0  0
    7.6750    6.0830   12.5950 N   0  0  0  0  0  0  0  0  0  0  0  0
    7.2650    4.9170   13.1290 C   0  0  0  0  0  3  0  0  0  0  0  0
    7.4250    3.6860   12.5200 C   0  0  0  0  0  0  0  0  0  0  0  0
    8.0350    3.7260   11.2760 C   0  0  0  0  0  0  0  0  0  0  0  0
    8.4660    4.8740   10.7070 N   0  0  0  0  0  0  0  0  0  0  0  0
    8.2720    2.5310   10.4600 C   0  0  0  0  0  0  0  0  0  0  0  0
    9.2490    1.5930   10.8310 C   0  0  0  0  0  3  0  0  0  0  0  0
    9.4610    0.4420   10.0650 C   0  0  0  0  0  3  0  0  0  0  0  0
    8.7010    0.2250    8.9190 C   0  0  0  0  0  0  0  0  0  0  0  0
    8.9550   -1.1930    7.9790 Cl  0  0  0  0  0  0  0  0  0  0  0  0
    7.7330    1.1490    8.5280 C   0  0  0  0  0  3  0  0  0  0  0  0
    7.5230    2.2980    9.2940 C   0  0  0  0  0  3  0  0  0  0  0  0
  1  7  1  0  0  0  0
  1 26  1  0  0  0  0
  2  1  2  0  0  0  0
  3  4  2  0  0  0  0
  3  2  1  0  0  0  0
  4  5  1  0  0  0  0
  5  6  1  0  0  0  0
  5  7  2  0  0  0  0
  8 16  1  0  0  0  0
  8  4  1  0  0  0  0
  9  8  2  0  0  0  0
 10  9  1  0  0  0  0
 10 15  1  0  0  0  0
 11 10  2  0  0  0  0
 12 11  1  0  0  0  0
 12 13  2  0  0  0  0
 13 14  1  0  0  0  0
 14 15  2  0  0  0  0
 15 16  1  0  0  0  0
 16 17  1  0  0  0  0
 17 22  1  0  0  0  0
 18 17  1  0  0  0  0
 18 19  1  0  0  0  0
 19 20  1  0  0  0  0
 20 21  1  0  0  0  0
 22 21  1  0  0  0  0
 23 12  1  0  0  0  0
 24 23  2  0  0  0  0
 25 23  1  0  0  0  0
 26 27  1  0  0  0  0
 28 29  1  0  0  0  0
 29 30  2  0  0  0  0
 30 31  1  0  0  0  0
 32 31  2  0  0  0  0
 32 27  1  0  0  0  0
 33 32  1  0  0  0  0
 34 33  2  0  0  0  0
 34 29  1  0  0  0  0
 35 36  1  0  0  0  0
 35 33  1  0  0  0  0
 37 36  2  0  0  0  0
 38 37  1  0  0  0  0
 39 38  1  0  0  0  0
 40 38  2  0  0  0  0
 40 41  1  0  0  0  0
 41 35  2  0  0  0  0
M  END
>  <minimizedAffinity>
-7.30817175

$$$$
