REMARK  Name = 
REMARK  8 active torsions:
REMARK  status: ('A' for Active; 'I' for Inactive)
REMARK    1  A    between atoms: C_1  and  N_2
REMARK    2  A    between atoms: N_2  and  C_3
REMARK    3  A    between atoms: N_2  and  C_4
REMARK    4  A    between atoms: C_8  and  C_10
REMARK    5  A    between atoms: C_10  and  N_11
REMARK    6  A    between atoms: C_12  and  C_13
REMARK    7  A    between atoms: C_19  and  C_20
REMARK    8  A    between atoms: C_29  and  C_30
REMARK                            x       y       z     vdW  Elec       q    Type
REMARK                         _______ _______ _______ _____ _____    ______ ____
ROOT
ATOM      1  N   UNL     1      -2.883  -0.720  -5.219  0.00  0.00    -0.331 N 
ATOM      2  C   UNL     1      -2.785   0.434  -5.990  0.00  0.00    +0.054 A 
ATOM      3  C   UNL     1      -3.623   1.395  -5.439  0.00  0.00    -0.011 A 
ATOM      4  C   UNL     1      -4.263   0.789  -4.309  0.00  0.00    +0.004 A 
ATOM      5  C   UNL     1      -5.181   1.261  -3.345  0.00  0.00    +0.011 A 
ATOM      6  C   UNL     1      -5.591   0.436  -2.295  0.00  0.00    +0.010 A 
ATOM      7  C   UNL     1      -5.145  -0.882  -2.202  0.00  0.00    -0.001 A 
ATOM      8  C   UNL     1      -4.313  -1.395  -3.217  0.00  0.00    +0.036 A 
ATOM      9  C   UNL     1      -3.826  -0.539  -4.224  0.00  0.00    +0.051 A 
ENDROOT
BRANCH   2  10
ATOM     10  C   UNL     1      -1.899   0.553  -7.151  0.00  0.00    -0.001 A 
ATOM     11  C   UNL     1      -0.693   1.255  -7.047  0.00  0.00    +0.010 A 
ATOM     12  C   UNL     1       0.154   1.363  -8.151  0.00  0.00    +0.001 A 
ATOM     13  C   UNL     1      -0.201   0.771  -9.362  0.00  0.00    +0.000 A 
ATOM     14  C   UNL     1      -1.405   0.077  -9.474  0.00  0.00    +0.001 A 
ATOM     15  C   UNL     1      -2.254  -0.031  -8.372  0.00  0.00    +0.010 A 
ENDBRANCH   2  10
BRANCH   3  16
ATOM     16  C   UNL     1      -3.798   2.811  -5.949  0.00  0.00    +0.022 C 
ATOM     17  C   UNL     1      -5.241   3.111  -6.389  0.00  0.00    +0.008 C 
ATOM     18  C   UNL     1      -5.380   4.538  -6.917  0.00  0.00    +0.001 C 
ATOM     19  C   UNL     1      -4.876   5.565  -5.907  0.00  0.00    +0.000 C 
ATOM     20  C   UNL     1      -3.439   5.277  -5.483  0.00  0.00    +0.001 C 
ATOM     21  C   UNL     1      -3.285   3.857  -4.944  0.00  0.00    +0.008 C 
ENDBRANCH   3  16
BRANCH   7  22
ATOM     22  C   UNL     1      -5.450  -1.710  -0.973  0.00  0.00    +0.072 C 
ATOM     23  O   UNL     1      -4.857  -2.833  -0.868  0.00  0.00    -0.545 OA
ATOM     24  O   UNL     1      -6.118  -1.166  -0.040  0.00  0.00    -0.545 OA
ENDBRANCH   7  22
BRANCH   1  25
ATOM     25  C   UNL     1      -2.002  -1.870  -5.455  0.00  0.00    +0.218 C 
BRANCH  25  30
ATOM     26  C   UNL     1      -1.695  -2.113  -0.634  0.00  0.00    +0.067 C 
ATOM     27  C   UNL     1      -1.652  -3.611  -0.959  0.00  0.00    +0.073 C 
ATOM     28  C   UNL     1      -1.021  -3.879  -2.326  0.00  0.00    +0.113 C 
ATOM     29  N   UNL     1      -1.210  -2.758  -3.240  0.00  0.00    -0.300 N 
ATOM     30  C   UNL     1      -1.915  -2.974  -4.426  0.00  0.00    +0.235 C 
ATOM     31  O   UNL     1      -2.387  -4.083  -4.693  0.00  0.00    -0.274 OA
ATOM     32  C   UNL     1      -0.641  -1.478  -2.820  0.00  0.00    +0.113 C 
ATOM     33  C   UNL     1      -0.527  -1.367  -1.292  0.00  0.00    +0.073 C 
BRANCH  26  35
ATOM     34  C   UNL     1      -3.100  -2.173   1.457  0.00  0.00    +0.190 C 
ATOM     35  N   UNL     1      -1.739  -1.829   0.870  0.00  0.00    +0.233 N 
ATOM     36  C   UNL     1      -0.633  -2.383   1.702  0.00  0.00    +0.190 C 
ATOM     37  H   UNL     1      -1.708  -0.807   0.950  0.00  0.00    +0.203 HD
ENDBRANCH  26  35
ENDBRANCH  25  30
ENDBRANCH   1  25
TORSDOF 6
