
 OpenBabel09132204463D

 37 41  0  0  1  0  0  0  0  0999 V2000
   -1.4030   -2.7960    5.0670 N   0  0  0  0  0  0  0  0  0  0  0  0
   -0.0200   -2.7000    4.9550 C   0  0  0  0  0  0  0  0  0  0  0  0
    0.5100   -3.9830    5.0120 C   0  0  0  0  0  0  0  0  0  0  0  0
   -0.5940   -4.8800    5.1860 C   0  0  0  0  0  0  0  0  0  0  0  0
   -0.6970   -6.2850    5.2790 C   0  0  0  0  0  3  0  0  0  0  0  0
   -1.9480   -6.8980    5.3860 C   0  0  0  0  0  3  0  0  0  0  0  0
   -3.1150   -6.1380    5.4540 C   0  0  0  0  0  0  0  0  0  0  0  0
   -3.0150   -4.7320    5.4690 C   0  0  0  0  0  3  0  0  0  0  0  0
   -1.7650   -4.1160    5.2680 C   0  0  0  0  0  0  0  0  0  0  0  0
    0.6860   -1.4280    4.7730 C   0  0  0  0  0  0  0  0  0  0  0  0
    1.3150   -0.8110    5.8600 C   0  0  0  0  0  3  0  0  0  0  0  0
    1.9930    0.3960    5.6860 C   0  0  0  0  0  3  0  0  0  0  0  0
    2.0430    0.9920    4.4270 C   0  0  0  0  0  3  0  0  0  0  0  0
    1.4110    0.3860    3.3420 C   0  0  0  0  0  3  0  0  0  0  0  0
    0.7320   -0.8210    3.5140 C   0  0  0  0  0  3  0  0  0  0  0  0
    1.9780   -4.3380    4.8970 C   0  0  0  0  0  3  0  0  0  0  0  0
    2.2560   -5.8240    5.1810 C   0  0  0  0  0  2  0  0  0  0  0  0
    3.7460   -6.1450    5.0780 C   0  0  0  0  0  2  0  0  0  0  0  0
    4.3240   -5.7130    3.7330 C   0  0  0  0  0  2  0  0  0  0  0  0
    4.0630   -4.2350    3.4580 C   0  0  0  0  0  2  0  0  0  0  0  0
    2.5770   -3.9000    3.5490 C   0  0  0  0  0  2  0  0  0  0  0  0
   -4.4700   -6.8070    5.3920 C   0  0  0  0  0  0  0  0  0  0  0  0
   -4.4970   -8.0340    5.0480 O   0  0  0  0  0  0  0  0  0  0  0  0
   -5.4670   -6.1760    5.8610 O   0  0  0  0  0  1  0  0  0  0  0  0
   -2.2650   -1.6220    4.8890 C   0  0  0  0  0  2  0  0  0  0  0  0
   -5.5820    0.2770    1.9250 C   0  0  2  0  0  3  0  0  0  0  0  0
   -4.3160    0.6240    1.1320 C   0  0  0  0  0  2  0  0  0  0  0  0
   -3.2000   -0.3950    1.3670 C   0  0  0  0  0  2  0  0  0  0  0  0
   -3.3040   -1.0210    2.6800 N   0  0  0  0  0  0  0  0  0  0  0  0
   -2.2470   -0.8680    3.5790 C   0  0  0  0  0  0  0  0  0  0  0  0
   -1.2500   -0.2020    3.2820 O   0  0  0  0  0  0  0  0  0  0  0  0
   -4.5370   -1.7610    2.9480 C   0  0  0  0  0  2  0  0  0  0  0  0
   -5.7200   -1.2390    2.1180 C   0  0  0  0  0  2  0  0  0  0  0  0
   -7.1970    2.2110    1.9150 C   0  0  0  0  0  1  0  0  0  0  0  0
   -6.8540    0.8610    1.3040 N   0  0  0  0  0  4  0  0  0  0  0  0
   -6.9310    0.9020   -0.1840 C   0  0  0  0  0  1  0  0  0  0  0  0
   -7.6150    0.2590    1.6390 H   0  0  0  0  0  0  0  0  0  0  0  0
  1  9  1  0  0  0  0
  2  3  2  0  0  0  0
  2  1  1  0  0  0  0
  3  4  1  0  0  0  0
  4  9  2  0  0  0  0
  4  5  1  0  0  0  0
  5  6  2  0  0  0  0
  6  7  1  0  0  0  0
  7  8  2  0  0  0  0
  9  8  1  0  0  0  0
 10  2  1  0  0  0  0
 10 11  1  0  0  0  0
 12 11  2  0  0  0  0
 13 12  1  0  0  0  0
 14 15  1  0  0  0  0
 14 13  2  0  0  0  0
 15 10  2  0  0  0  0
 16  3  1  0  0  0  0
 16 17  1  0  0  0  0
 18 17  1  0  0  0  0
 19 18  1  0  0  0  0
 20 21  1  0  0  0  0
 20 19  1  0  0  0  0
 21 16  1  0  0  0  0
 22  7  1  0  0  0  0
 22 24  1  0  0  0  0
 23 22  2  0  0  0  0
 25  1  1  0  0  0  0
 26 35  1  6  0  0  0
 26 33  1  0  0  0  0
 27 28  1  0  0  0  0
 27 26  1  0  0  0  0
 28 29  1  0  0  0  0
 29 32  1  0  0  0  0
 29 30  1  0  0  0  0
 30 25  1  0  0  0  0
 31 30  2  0  0  0  0
 33 32  1  0  0  0  0
 35 37  1  0  0  0  0
 35 34  1  0  0  0  0
 36 35  1  0  0  0  0
M  END
>  <minimizedAffinity>
67.901886

$$$$
