REMARK  Name = 
REMARK  7 active torsions:
REMARK  status: ('A' for Active; 'I' for Inactive)
REMARK    1  A    between atoms: C_2  and  C_4
REMARK    2  A    between atoms: C_11  and  C_12
REMARK    3  A    between atoms: C_15  and  O_16
REMARK    4  A    between atoms: O_16  and  C_17
REMARK    5  A    between atoms: C_17  and  C_18
REMARK    6  A    between atoms: C_23  and  C_24
REMARK    7  A    between atoms: N_33  and  C_34
REMARK                            x       y       z     vdW  Elec       q    Type
REMARK                         _______ _______ _______ _____ _____    ______ ____
ROOT
ATOM      1  C   UNL     1       7.026   0.483   5.558  0.00  0.00    +0.018 A 
ATOM      2  C   UNL     1       8.071  -0.419   5.776  0.00  0.00    +0.015 A 
ATOM      3  C   UNL     1       9.093  -0.105   6.676  0.00  0.00    +0.046 A 
ATOM      4  C   UNL     1       9.099   1.118   7.354  0.00  0.00    +0.121 A 
ATOM      5  C   UNL     1       8.064   2.023   7.130  0.00  0.00    +0.046 A 
ATOM      6  C   UNL     1       7.039   1.709   6.230  0.00  0.00    +0.015 A 
ENDROOT
BRANCH   1  14
ATOM      7  C   UNL     1       2.930  -0.074   1.225  0.00  0.00    -0.001 A 
ATOM      8  C   UNL     1       2.543  -1.219   1.939  0.00  0.00    +0.012 A 
ATOM      9  C   UNL     1       3.174  -1.607   3.128  0.00  0.00    +0.028 A 
ATOM     10  C   UNL     1       4.224  -0.807   3.595  0.00  0.00    +0.069 A 
ATOM     11  C   UNL     1       4.640   0.332   2.909  0.00  0.00    +0.090 A 
ATOM     12  C   UNL     1       3.993   0.706   1.721  0.00  0.00    +0.039 A 
ATOM     13  N   UNL     1       5.683   0.939   3.560  0.00  0.00    -0.228 NA
ATOM     14  C   UNL     1       5.949   0.191   4.612  0.00  0.00    +0.142 A 
ATOM     15  N   UNL     1       5.044  -0.856   4.705  0.00  0.00    -0.320 N 
BRANCH  15  16
ATOM     16  C   UNL     1       4.940  -1.796   5.819  0.00  0.00    +0.089 C 
ATOM     17  C   UNL     1       3.590  -1.712   6.552  0.00  0.00    +0.025 C 
ATOM     18  C   UNL     1       3.544  -2.672   7.741  0.00  0.00    +0.002 C 
ATOM     19  C   UNL     1       3.877  -4.101   7.323  0.00  0.00    +0.000 C 
ATOM     20  C   UNL     1       5.226  -4.182   6.612  0.00  0.00    +0.002 C 
ATOM     21  C   UNL     1       5.291  -3.236   5.414  0.00  0.00    +0.025 C 
ENDBRANCH  15  16
BRANCH   7  23
ATOM     22  O   UNL     1       1.270  -0.443  -0.441  0.00  0.00    -0.545 OA
ATOM     23  C   UNL     1       2.215   0.316  -0.054  0.00  0.00    +0.072 C 
ATOM     24  O   UNL     1       2.609   1.370  -0.645  0.00  0.00    -0.545 OA
ENDBRANCH   7  23
ENDBRANCH   1  14
BRANCH   4  25
ATOM     25  O   UNL     1      10.162   1.293   8.193  0.00  0.00    -0.487 OA
BRANCH  25  26
ATOM     26  C   UNL     1      10.394   2.579   8.766  0.00  0.00    +0.266 C 
BRANCH  26  27
ATOM     27  C   UNL     1      10.984   3.585   7.806  0.00  0.00    +0.016 A 
ATOM     28  C   UNL     1      10.379   4.843   7.665  0.00  0.00    +0.010 A 
ATOM     29  C   UNL     1      10.903   5.777   6.779  0.00  0.00    +0.020 A 
ATOM     30  C   UNL     1      12.034   5.432   6.066  0.00  0.00    +0.111 A 
ATOM     31  N   UNL     1      12.663   4.246   6.189  0.00  0.00    -0.255 NA
ATOM     32  C   UNL     1      12.136   3.332   7.048  0.00  0.00    +0.077 A 
BRANCH  32  33
ATOM     33  C   UNL     1      12.892   2.075   7.101  0.00  0.00    +0.001 A 
ATOM     34  C   UNL     1      12.797   1.146   6.051  0.00  0.00    +0.011 A 
ATOM     35  C   UNL     1      13.507  -0.056   6.089  0.00  0.00    +0.020 A 
ATOM     36  C   UNL     1      14.329  -0.336   7.178  0.00  0.00    +0.041 A 
ATOM     37 CL   UNL     1      15.208  -1.815   7.230  0.00  0.00    -0.084 Cl
ATOM     38  C   UNL     1      14.450   0.577   8.224  0.00  0.00    +0.020 A 
ATOM     39  C   UNL     1      13.736   1.778   8.184  0.00  0.00    +0.011 A 
ENDBRANCH  32  33
ENDBRANCH  26  27
ENDBRANCH  25  26
ENDBRANCH   4  25
TORSDOF 7
