
 OpenBabel09122222393D

 39 44  0  0  0  0  0  0  0  0999 V2000
    9.4440   -2.2780    3.4650 C   0  0  0  0  0  0  0  0  0  0  0  0
    9.4370   -0.8910    3.2910 C   0  0  0  0  0  3  0  0  0  0  0  0
   10.0260   -0.0600    4.2470 C   0  0  0  0  0  3  0  0  0  0  0  0
   10.6100   -0.5970    5.3990 C   0  0  0  0  0  0  0  0  0  0  0  0
   10.6080   -1.9780    5.5810 C   0  0  0  0  0  3  0  0  0  0  0  0
   10.0200   -2.8110    4.6220 C   0  0  0  0  0  3  0  0  0  0  0  0
    6.3390   -6.1200    0.0800 C   0  0  0  0  0  0  0  0  0  0  0  0
    7.2000   -5.6890   -0.9420 C   0  0  0  0  0  3  0  0  0  0  0  0
    8.2120   -4.7460   -0.7180 C   0  0  0  0  0  3  0  0  0  0  0  0
    8.3440   -4.2330    0.5780 C   0  0  0  0  0  0  0  0  0  0  0  0
    7.5040   -4.6330    1.6150 C   0  0  0  0  0  0  0  0  0  0  0  0
    6.4980   -5.5810    1.3710 C   0  0  0  0  0  3  0  0  0  0  0  0
    7.8280   -3.9880    2.7810 N   0  0  0  0  0  0  0  0  0  0  0  0
    8.8230   -3.1750    2.4900 C   0  0  0  0  0  0  0  0  0  0  0  0
    9.2100   -3.3330    1.1670 N   0  0  0  0  0  0  0  0  0  0  0  0
   10.3710   -2.7080    0.5380 C   0  0  0  0  0  3  0  0  0  0  0  0
   11.4040   -3.7300    0.0330 C   0  0  0  0  0  2  0  0  0  0  0  0
   12.6250   -3.0340   -0.5690 C   0  0  0  0  0  2  0  0  0  0  0  0
   12.2270   -2.0410   -1.6560 C   0  0  0  0  0  2  0  0  0  0  0  0
   11.2160   -1.0180   -1.1450 C   0  0  0  0  0  2  0  0  0  0  0  0
    9.9820   -1.6920   -0.5470 C   0  0  0  0  0  2  0  0  0  0  0  0
    4.3000   -7.2190    0.6270 O   0  0  0  0  0  1  0  0  0  0  0  0
    5.2620   -7.1490   -0.2020 C   0  0  0  0  0  0  0  0  0  0  0  0
    5.3970   -7.8650   -1.2440 O   0  0  0  0  0  0  0  0  0  0  0  0
   11.1370    0.3320    6.2500 O   0  0  0  0  0  0  0  0  0  0  0  0
   11.6370   -0.0880    7.5180 C   0  0  0  0  0  2  0  0  0  0  0  0
   11.0080    0.6200    8.6950 C   0  0  0  0  0  0  0  0  0  0  0  0
   11.7020    1.6640    9.3250 C   0  0  0  0  0  3  0  0  0  0  0  0
   11.1420    2.3200   10.4150 C   0  0  0  0  0  3  0  0  0  0  0  0
    9.8890    1.9230   10.8380 C   0  0  0  0  0  3  0  0  0  0  0  0
    9.1760    0.9430   10.2470 N   0  0  0  0  0  0  0  0  0  0  0  0
    9.7360    0.2970    9.1890 C   0  0  0  0  0  0  0  0  0  0  0  0
    8.8810   -0.7540    8.6250 C   0  0  0  0  0  0  0  0  0  0  0  0
    7.8630   -0.4270    7.7150 C   0  0  0  0  0  3  0  0  0  0  0  0
    7.0380   -1.4150    7.1730 C   0  0  0  0  0  3  0  0  0  0  0  0
    7.2320   -2.7470    7.5320 C   0  0  0  0  0  0  0  0  0  0  0  0
    6.2210   -3.9700    6.8660 Cl  0  0  0  0  0  0  0  0  0  0  0  0
    8.2460   -3.0970    8.4220 C   0  0  0  0  0  3  0  0  0  0  0  0
    9.0670   -2.1050    8.9650 C   0  0  0  0  0  3  0  0  0  0  0  0
  1  6  1  0  0  0  0
  2  1  2  0  0  0  0
  2  3  1  0  0  0  0
  3  4  2  0  0  0  0
  4  5  1  0  0  0  0
  4 25  1  0  0  0  0
  6  5  2  0  0  0  0
  7 12  1  0  0  0  0
  8  9  1  0  0  0  0
  8  7  2  0  0  0  0
  9 10  2  0  0  0  0
 10 15  1  0  0  0  0
 10 11  1  0  0  0  0
 11 13  1  0  0  0  0
 12 11  2  0  0  0  0
 14 13  2  0  0  0  0
 14  1  1  0  0  0  0
 15 14  1  0  0  0  0
 16 15  1  0  0  0  0
 17 16  1  0  0  0  0
 18 17  1  0  0  0  0
 19 20  1  0  0  0  0
 19 18  1  0  0  0  0
 20 21  1  0  0  0  0
 21 16  1  0  0  0  0
 23  7  1  0  0  0  0
 23 22  1  0  0  0  0
 24 23  2  0  0  0  0
 25 26  1  0  0  0  0
 26 27  1  0  0  0  0
 27 32  2  0  0  0  0
 27 28  1  0  0  0  0
 28 29  2  0  0  0  0
 29 30  1  0  0  0  0
 31 30  2  0  0  0  0
 32 31  1  0  0  0  0
 33 39  1  0  0  0  0
 33 32  1  0  0  0  0
 34 33  2  0  0  0  0
 35 36  2  0  0  0  0
 35 34  1  0  0  0  0
 36 38  1  0  0  0  0
 37 36  1  0  0  0  0
 38 39  2  0  0  0  0
M  END
>  <minimizedAffinity>
-8.56689644

$$$$
