
 OpenBabel09122222393D

 39 44  0  0  0  0  0  0  0  0999 V2000
    9.1270   -0.6520    6.6060 C   0  0  0  0  0  0  0  0  0  0  0  0
   10.1610   -0.6520    5.6660 C   0  0  0  0  0  3  0  0  0  0  0  0
   10.1940   -1.6190    4.6580 C   0  0  0  0  0  3  0  0  0  0  0  0
    9.2110   -2.6120    4.5860 C   0  0  0  0  0  0  0  0  0  0  0  0
    8.1860   -2.6210    5.5290 C   0  0  0  0  0  3  0  0  0  0  0  0
    8.1510   -1.6510    6.5370 C   0  0  0  0  0  3  0  0  0  0  0  0
    8.4870    3.8910   10.4540 C   0  0  0  0  0  0  0  0  0  0  0  0
    9.0300    2.9890   11.3830 C   0  0  0  0  0  3  0  0  0  0  0  0
    9.4150    1.6910   11.0260 C   0  0  0  0  0  3  0  0  0  0  0  0
    9.2400    1.3070    9.6910 C   0  0  0  0  0  0  0  0  0  0  0  0
    8.6970    2.1720    8.7440 C   0  0  0  0  0  0  0  0  0  0  0  0
    8.3200    3.4710    9.1200 C   0  0  0  0  0  3  0  0  0  0  0  0
    8.6230    1.5660    7.5160 N   0  0  0  0  0  0  0  0  0  0  0  0
    9.0710    0.3380    7.6810 C   0  0  0  0  0  0  0  0  0  0  0  0
    9.5140    0.1530    8.9830 N   0  0  0  0  0  0  0  0  0  0  0  0
   10.2090   -1.0290    9.4870 C   0  0  0  0  0  3  0  0  0  0  0  0
   11.5960   -0.7080   10.0700 C   0  0  0  0  0  2  0  0  0  0  0  0
   12.3090   -1.9780   10.5360 C   0  0  0  0  0  2  0  0  0  0  0  0
   11.4520   -2.7780   11.5120 C   0  0  0  0  0  2  0  0  0  0  0  0
   10.0830   -3.1090   10.9220 C   0  0  0  0  0  2  0  0  0  0  0  0
    9.3490   -1.8530   10.4580 C   0  0  0  0  0  2  0  0  0  0  0  0
    8.0520    6.1810    9.9710 O   0  0  0  0  0  0  0  0  0  0  0  0
    8.0900    5.2910   10.8800 C   0  0  0  0  0  0  0  0  0  0  0  0
    7.8240    5.4750   12.1090 O   0  0  0  0  0  1  0  0  0  0  0  0
    9.3750   -3.4950    3.5580 O   0  0  0  0  0  0  0  0  0  0  0  0
    9.5790   -2.9970    2.2360 C   0  0  0  0  0  2  0  0  0  0  0  0
    8.9180   -3.8210    1.1570 C   0  0  0  0  0  0  0  0  0  0  0  0
    7.7790   -4.5790    1.4670 C   0  0  0  0  0  3  0  0  0  0  0  0
    7.1640   -5.3510    0.4880 C   0  0  0  0  0  3  0  0  0  0  0  0
    7.6970   -5.3300   -0.7850 C   0  0  0  0  0  3  0  0  0  0  0  0
    8.7720   -4.5970   -1.1340 N   0  0  0  0  0  0  0  0  0  0  0  0
    9.3770   -3.8550   -0.1670 C   0  0  0  0  0  0  0  0  0  0  0  0
   10.5400   -3.1010   -0.6500 C   0  0  0  0  0  0  0  0  0  0  0  0
   10.3850   -1.7900   -1.1320 C   0  0  0  0  0  3  0  0  0  0  0  0
   11.4810   -1.0610   -1.5990 C   0  0  0  0  0  3  0  0  0  0  0  0
   12.7500   -1.6370   -1.5790 C   0  0  0  0  0  0  0  0  0  0  0  0
   14.1050   -0.7440   -2.1510 Cl  0  0  0  0  0  0  0  0  0  0  0  0
   12.9300   -2.9300   -1.0920 C   0  0  0  0  0  3  0  0  0  0  0  0
   11.8300   -3.6580   -0.6280 C   0  0  0  0  0  3  0  0  0  0  0  0
  1 14  1  0  0  0  0
  2  1  2  0  0  0  0
  3  2  1  0  0  0  0
  4  3  2  0  0  0  0
  4  5  1  0  0  0  0
  5  6  2  0  0  0  0
  6  1  1  0  0  0  0
  7 23  1  0  0  0  0
  7  8  1  0  0  0  0
  9  8  2  0  0  0  0
 10  9  1  0  0  0  0
 11 12  1  0  0  0  0
 11 10  2  0  0  0  0
 12  7  2  0  0  0  0
 13 14  2  0  0  0  0
 13 11  1  0  0  0  0
 14 15  1  0  0  0  0
 15 16  1  0  0  0  0
 15 10  1  0  0  0  0
 16 17  1  0  0  0  0
 16 21  1  0  0  0  0
 17 18  1  0  0  0  0
 18 19  1  0  0  0  0
 20 19  1  0  0  0  0
 21 20  1  0  0  0  0
 22 23  2  0  0  0  0
 23 24  1  0  0  0  0
 25  4  1  0  0  0  0
 26 25  1  0  0  0  0
 27 28  1  0  0  0  0
 27 26  1  0  0  0  0
 29 28  2  0  0  0  0
 30 29  1  0  0  0  0
 31 30  2  0  0  0  0
 31 32  1  0  0  0  0
 32 27  2  0  0  0  0
 33 39  1  0  0  0  0
 33 32  1  0  0  0  0
 34 33  2  0  0  0  0
 35 36  2  0  0  0  0
 35 34  1  0  0  0  0
 36 38  1  0  0  0  0
 37 36  1  0  0  0  0
 38 39  2  0  0  0  0
M  END
>  <minimizedAffinity>
-7.95827436

$$$$
