
 OpenBabel09122221343D

 39 44  0  0  0  0  0  0  0  0999 V2000
    3.7730   -3.1510    5.4290 C   0  0  0  0  0  0  0  0  0  0  0  0
    4.7770   -2.7300    6.3050 C   0  0  0  0  0  3  0  0  0  0  0  0
    4.5030   -1.7600    7.2730 C   0  0  0  0  0  3  0  0  0  0  0  0
    3.2330   -1.1820    7.3670 C   0  0  0  0  0  0  0  0  0  0  0  0
    2.2330   -1.5930    6.4880 C   0  0  0  0  0  3  0  0  0  0  0  0
    2.5060   -2.5660    5.5200 C   0  0  0  0  0  3  0  0  0  0  0  0
    5.1560   -6.6200    0.7470 C   0  0  0  0  0  0  0  0  0  0  0  0
    4.7500   -7.6670    1.5890 C   0  0  0  0  0  3  0  0  0  0  0  0
    4.2770   -7.4410    2.8880 C   0  0  0  0  0  3  0  0  0  0  0  0
    4.2200   -6.1150    3.3350 C   0  0  0  0  0  0  0  0  0  0  0  0
    4.6220   -5.0510    2.5300 C   0  0  0  0  0  0  0  0  0  0  0  0
    5.0900   -5.2980    1.2300 C   0  0  0  0  0  3  0  0  0  0  0  0
    4.4780   -3.8590    3.1920 N   0  0  0  0  0  0  0  0  0  0  0  0
    4.0310   -4.1540    4.3960 C   0  0  0  0  0  0  0  0  0  0  0  0
    3.8040   -5.5180    4.5090 N   0  0  0  0  0  0  0  0  0  0  0  0
    3.1700   -6.1850    5.6440 C   0  0  0  0  0  3  0  0  0  0  0  0
    3.7820   -5.7810    6.9960 C   0  0  0  0  0  2  0  0  0  0  0  0
    3.1280   -6.5410    8.1500 C   0  0  0  0  0  2  0  0  0  0  0  0
    1.6110   -6.3800    8.1410 C   0  0  0  0  0  2  0  0  0  0  0  0
    1.0060   -6.8000    6.8030 C   0  0  0  0  0  2  0  0  0  0  0  0
    1.6400   -6.0460    5.6350 C   0  0  0  0  0  2  0  0  0  0  0  0
    6.3250   -5.9890   -1.2290 O   0  0  0  0  0  0  0  0  0  0  0  0
    5.6540   -6.9060   -0.6560 C   0  0  0  0  0  0  0  0  0  0  0  0
    5.3680   -8.0390   -1.1570 O   0  0  0  0  0  1  0  0  0  0  0  0
    3.1120   -0.2430    8.3510 O   0  0  0  0  0  0  0  0  0  0  0  0
    2.7570   -0.6560    9.6700 C   0  0  0  0  0  2  0  0  0  0  0  0
    3.7600   -0.2660   10.7300 C   0  0  0  0  0  0  0  0  0  0  0  0
    4.1710    1.0710   10.8340 C   0  0  0  0  0  3  0  0  0  0  0  0
    5.1010    1.4450   11.7970 C   0  0  0  0  0  3  0  0  0  0  0  0
    5.5840    0.4690   12.6460 C   0  0  0  0  0  3  0  0  0  0  0  0
    5.1980   -0.8220   12.5990 N   0  0  0  0  0  0  0  0  0  0  0  0
    4.2980   -1.1820   11.6450 C   0  0  0  0  0  0  0  0  0  0  0  0
    3.9510   -2.6080   11.6770 C   0  0  0  0  0  0  0  0  0  0  0  0
    4.7660   -3.5510   11.0270 C   0  0  0  0  0  3  0  0  0  0  0  0
    4.4460   -4.9100   11.0450 C   0  0  0  0  0  3  0  0  0  0  0  0
    3.3100   -5.3420   11.7250 C   0  0  0  0  0  0  0  0  0  0  0  0
    2.9120   -7.0160   11.7520 Cl  0  0  0  0  0  0  0  0  0  0  0  0
    2.4950   -4.4270   12.3890 C   0  0  0  0  0  3  0  0  0  0  0  0
    2.8160   -3.0660   12.3670 C   0  0  0  0  0  3  0  0  0  0  0  0
  1  6  2  0  0  0  0
  1  2  1  0  0  0  0
  2  3  2  0  0  0  0
  3  4  1  0  0  0  0
  4 25  1  0  0  0  0
  5  4  2  0  0  0  0
  6  5  1  0  0  0  0
  7 12  2  0  0  0  0
  7  8  1  0  0  0  0
  8  9  2  0  0  0  0
  9 10  1  0  0  0  0
 10 15  1  0  0  0  0
 11 13  1  0  0  0  0
 11 10  2  0  0  0  0
 12 11  1  0  0  0  0
 13 14  2  0  0  0  0
 14 15  1  0  0  0  0
 14  1  1  0  0  0  0
 15 16  1  0  0  0  0
 16 17  1  0  0  0  0
 17 18  1  0  0  0  0
 19 18  1  0  0  0  0
 20 19  1  0  0  0  0
 21 16  1  0  0  0  0
 21 20  1  0  0  0  0
 22 23  2  0  0  0  0
 23  7  1  0  0  0  0
 24 23  1  0  0  0  0
 25 26  1  0  0  0  0
 26 27  1  0  0  0  0
 27 28  2  0  0  0  0
 27 32  1  0  0  0  0
 28 29  1  0  0  0  0
 29 30  2  0  0  0  0
 31 30  1  0  0  0  0
 32 33  1  0  0  0  0
 32 31  2  0  0  0  0
 33 39  1  0  0  0  0
 34 35  1  0  0  0  0
 34 33  2  0  0  0  0
 35 36  2  0  0  0  0
 36 37  1  0  0  0  0
 36 38  1  0  0  0  0
 39 38  2  0  0  0  0
M  END
>  <minimizedAffinity>
-8.67878246

$$$$

 OpenBabel09122221343D

 39 44  0  0  0  0  0  0  0  0999 V2000
    9.4490   -2.3380    3.4320 C   0  0  0  0  0  0  0  0  0  0  0  0
    9.3490   -0.9480    3.3380 C   0  0  0  0  0  3  0  0  0  0  0  0
    9.9450   -0.1340    4.3050 C   0  0  0  0  0  3  0  0  0  0  0  0
   10.6310   -0.6940    5.3880 C   0  0  0  0  0  0  0  0  0  0  0  0
   10.7230   -2.0800    5.4890 C   0  0  0  0  0  3  0  0  0  0  0  0
   10.1270   -2.8960    4.5200 C   0  0  0  0  0  3  0  0  0  0  0  0
    6.3200   -6.1130   -0.0060 C   0  0  0  0  0  0  0  0  0  0  0  0
    7.1880   -5.6790   -1.0200 C   0  0  0  0  0  3  0  0  0  0  0  0
    8.2080   -4.7480   -0.7830 C   0  0  0  0  0  3  0  0  0  0  0  0
    8.3410   -4.2510    0.5200 C   0  0  0  0  0  0  0  0  0  0  0  0
    7.4930   -4.6540    1.5490 C   0  0  0  0  0  0  0  0  0  0  0  0
    6.4790   -5.5900    1.2920 C   0  0  0  0  0  3  0  0  0  0  0  0
    7.8190   -4.0250    2.7230 N   0  0  0  0  0  0  0  0  0  0  0  0
    8.8230   -3.2180    2.4450 C   0  0  0  0  0  0  0  0  0  0  0  0
    9.2130   -3.3660    1.1220 N   0  0  0  0  0  0  0  0  0  0  0  0
   10.3830   -2.7460    0.5040 C   0  0  0  0  0  3  0  0  0  0  0  0
   11.4270   -3.7710    0.0300 C   0  0  0  0  0  2  0  0  0  0  0  0
   12.6560   -3.0790   -0.5600 C   0  0  0  0  0  2  0  0  0  0  0  0
   12.2730   -2.1030   -1.6680 C   0  0  0  0  0  2  0  0  0  0  0  0
   11.2500   -1.0760   -1.1880 C   0  0  0  0  0  2  0  0  0  0  0  0
   10.0090   -1.7460   -0.6020 C   0  0  0  0  0  2  0  0  0  0  0  0
    5.4470   -7.9380   -1.2620 O   0  0  0  0  0  0  0  0  0  0  0  0
    5.2340   -7.1290   -0.3030 C   0  0  0  0  0  0  0  0  0  0  0  0
    4.1920   -7.1000    0.4250 O   0  0  0  0  0  1  0  0  0  0  0  0
   11.1540    0.2190    6.2580 O   0  0  0  0  0  0  0  0  0  0  0  0
   10.3630    0.6670    7.3580 C   0  0  0  0  0  2  0  0  0  0  0  0
   10.5480   -0.1430    8.6200 C   0  0  0  0  0  0  0  0  0  0  0  0
   11.7160    0.0200    9.3810 C   0  0  0  0  0  3  0  0  0  0  0  0
   11.9060   -0.7240   10.5390 C   0  0  0  0  0  3  0  0  0  0  0  0
   10.9110   -1.6030   10.9180 C   0  0  0  0  0  3  0  0  0  0  0  0
    9.7620   -1.7710   10.2330 N   0  0  0  0  0  0  0  0  0  0  0  0
    9.5890   -1.0500    9.0920 C   0  0  0  0  0  0  0  0  0  0  0  0
    8.3100   -1.3140    8.4220 C   0  0  0  0  0  0  0  0  0  0  0  0
    8.1320   -2.4890    7.6730 C   0  0  0  0  0  3  0  0  0  0  0  0
    6.9230   -2.7520    7.0260 C   0  0  0  0  0  3  0  0  0  0  0  0
    5.8740   -1.8420    7.1300 C   0  0  0  0  0  0  0  0  0  0  0  0
    4.3800   -2.1610    6.3370 Cl  0  0  0  0  0  0  0  0  0  0  0  0
    6.0230   -0.6760    7.8800 C   0  0  0  0  0  3  0  0  0  0  0  0
    7.2350   -0.4150    8.5240 C   0  0  0  0  0  3  0  0  0  0  0  0
  1  6  1  0  0  0  0
  2  1  2  0  0  0  0
  2  3  1  0  0  0  0
  3  4  2  0  0  0  0
  4  5  1  0  0  0  0
  4 25  1  0  0  0  0
  6  5  2  0  0  0  0
  7 12  1  0  0  0  0
  8  9  1  0  0  0  0
  8  7  2  0  0  0  0
  9 10  2  0  0  0  0
 10 15  1  0  0  0  0
 10 11  1  0  0  0  0
 11 13  1  0  0  0  0
 12 11  2  0  0  0  0
 14 13  2  0  0  0  0
 14  1  1  0  0  0  0
 15 14  1  0  0  0  0
 16 15  1  0  0  0  0
 17 16  1  0  0  0  0
 18 17  1  0  0  0  0
 19 20  1  0  0  0  0
 19 18  1  0  0  0  0
 20 21  1  0  0  0  0
 21 16  1  0  0  0  0
 22 23  2  0  0  0  0
 23  7  1  0  0  0  0
 23 24  1  0  0  0  0
 25 26  1  0  0  0  0
 26 27  1  0  0  0  0
 27 32  2  0  0  0  0
 27 28  1  0  0  0  0
 28 29  2  0  0  0  0
 29 30  1  0  0  0  0
 31 30  2  0  0  0  0
 32 31  1  0  0  0  0
 33 39  1  0  0  0  0
 33 32  1  0  0  0  0
 34 33  2  0  0  0  0
 35 36  2  0  0  0  0
 35 34  1  0  0  0  0
 36 38  1  0  0  0  0
 37 36  1  0  0  0  0
 38 39  2  0  0  0  0
M  END
>  <minimizedAffinity>
-8.67286682

$$$$

 OpenBabel09122221343D

 39 44  0  0  0  0  0  0  0  0999 V2000
    9.3740   -2.3850    3.4980 C   0  0  0  0  0  0  0  0  0  0  0  0
    9.3670   -0.9950    3.3550 C   0  0  0  0  0  3  0  0  0  0  0  0
    9.9500   -0.1870    4.3350 C   0  0  0  0  0  3  0  0  0  0  0  0
   10.5290   -0.7500    5.4770 C   0  0  0  0  0  0  0  0  0  0  0  0
   10.5270   -2.1350    5.6260 C   0  0  0  0  0  3  0  0  0  0  0  0
    9.9440   -2.9460    4.6450 C   0  0  0  0  0  3  0  0  0  0  0  0
    6.2910   -6.1500    0.0070 C   0  0  0  0  0  0  0  0  0  0  0  0
    7.1540   -5.6910   -1.0010 C   0  0  0  0  0  3  0  0  0  0  0  0
    8.1620   -4.7510   -0.7500 C   0  0  0  0  0  3  0  0  0  0  0  0
    8.2890   -4.2710    0.5590 C   0  0  0  0  0  0  0  0  0  0  0  0
    7.4460   -4.6980    1.5820 C   0  0  0  0  0  0  0  0  0  0  0  0
    6.4440   -5.6420    1.3120 C   0  0  0  0  0  3  0  0  0  0  0  0
    7.7650   -4.0820    2.7650 N   0  0  0  0  0  0  0  0  0  0  0  0
    8.7590   -3.2590    2.4980 C   0  0  0  0  0  0  0  0  0  0  0  0
    9.1510   -3.3830    1.1730 N   0  0  0  0  0  0  0  0  0  0  0  0
   10.3120   -2.7400    0.5640 C   0  0  0  0  0  3  0  0  0  0  0  0
   11.3470   -3.7470    0.0320 C   0  0  0  0  0  2  0  0  0  0  0  0
   12.5680   -3.0330   -0.5480 C   0  0  0  0  0  2  0  0  0  0  0  0
   12.1710   -2.0110   -1.6080 C   0  0  0  0  0  2  0  0  0  0  0  0
   11.1580   -1.0030   -1.0700 C   0  0  0  0  0  2  0  0  0  0  0  0
    9.9240   -1.6950   -0.4930 C   0  0  0  0  0  2  0  0  0  0  0  0
    5.4280   -7.9480   -1.2920 O   0  0  0  0  0  0  0  0  0  0  0  0
    5.2170   -7.1740   -0.3050 C   0  0  0  0  0  0  0  0  0  0  0  0
    4.1880   -7.1870    0.4410 O   0  0  0  0  0  1  0  0  0  0  0  0
   11.0510    0.1590    6.3520 O   0  0  0  0  0  0  0  0  0  0  0  0
   11.7850    1.2730    5.8450 C   0  0  0  0  0  2  0  0  0  0  0  0
   11.1670    2.6150    6.1610 C   0  0  0  0  0  0  0  0  0  0  0  0
   10.8920    2.9520    7.4950 C   0  0  0  0  0  3  0  0  0  0  0  0
   10.3140    4.1780    7.8020 C   0  0  0  0  0  3  0  0  0  0  0  0
   10.0410    5.0460    6.7640 C   0  0  0  0  0  3  0  0  0  0  0  0
   10.3130    4.7750    5.4710 N   0  0  0  0  0  0  0  0  0  0  0  0
   10.8650    3.5670    5.1770 C   0  0  0  0  0  0  0  0  0  0  0  0
   11.1140    3.3710    3.7440 C   0  0  0  0  0  0  0  0  0  0  0  0
   10.1060    2.8510    2.9140 C   0  0  0  0  0  3  0  0  0  0  0  0
   10.3280    2.6550    1.5500 C   0  0  0  0  0  3  0  0  0  0  0  0
   11.5640    2.9870    0.9990 C   0  0  0  0  0  0  0  0  0  0  0  0
   11.8440    2.7500   -0.6830 Cl  0  0  0  0  0  0  0  0  0  0  0  0
   12.5730    3.5180    1.7990 C   0  0  0  0  0  3  0  0  0  0  0  0
   12.3480    3.7100    3.1650 C   0  0  0  0  0  3  0  0  0  0  0  0
  1  6  1  0  0  0  0
  2  1  2  0  0  0  0
  2  3  1  0  0  0  0
  3  4  2  0  0  0  0
  4  5  1  0  0  0  0
  4 25  1  0  0  0  0
  6  5  2  0  0  0  0
  7 12  1  0  0  0  0
  8  9  1  0  0  0  0
  8  7  2  0  0  0  0
  9 10  2  0  0  0  0
 10 15  1  0  0  0  0
 10 11  1  0  0  0  0
 11 13  1  0  0  0  0
 12 11  2  0  0  0  0
 14 13  2  0  0  0  0
 14  1  1  0  0  0  0
 15 14  1  0  0  0  0
 16 15  1  0  0  0  0
 17 16  1  0  0  0  0
 18 17  1  0  0  0  0
 19 20  1  0  0  0  0
 19 18  1  0  0  0  0
 20 21  1  0  0  0  0
 21 16  1  0  0  0  0
 22 23  2  0  0  0  0
 23  7  1  0  0  0  0
 23 24  1  0  0  0  0
 26 27  1  0  0  0  0
 26 25  1  0  0  0  0
 27 28  1  0  0  0  0
 28 29  2  0  0  0  0
 30 29  1  0  0  0  0
 31 30  2  0  0  0  0
 32 31  1  0  0  0  0
 32 27  2  0  0  0  0
 33 32  1  0  0  0  0
 34 33  2  0  0  0  0
 35 34  1  0  0  0  0
 36 35  2  0  0  0  0
 36 38  1  0  0  0  0
 37 36  1  0  0  0  0
 38 39  2  0  0  0  0
 39 33  1  0  0  0  0
M  END
>  <minimizedAffinity>
-8.63395596

$$$$

 OpenBabel09122221343D

 39 44  0  0  0  0  0  0  0  0999 V2000
    9.4810   -1.9110    3.3100 C   0  0  0  0  0  0  0  0  0  0  0  0
    9.4480   -0.5480    3.0000 C   0  0  0  0  0  3  0  0  0  0  0  0
   10.0020    0.3850    3.8810 C   0  0  0  0  0  3  0  0  0  0  0  0
   10.5760   -0.0230    5.0890 C   0  0  0  0  0  0  0  0  0  0  0  0
   10.5990   -1.3790    5.4050 C   0  0  0  0  0  3  0  0  0  0  0  0
   10.0470   -2.3160    4.5230 C   0  0  0  0  0  3  0  0  0  0  0  0
    6.5190   -6.1320    0.2660 C   0  0  0  0  0  0  0  0  0  0  0  0
    7.3920   -5.7860   -0.7770 C   0  0  0  0  0  3  0  0  0  0  0  0
    8.3800   -4.8040   -0.6300 C   0  0  0  0  0  3  0  0  0  0  0  0
    8.4770   -4.1640    0.6110 C   0  0  0  0  0  0  0  0  0  0  0  0
    7.6240   -4.4770    1.6670 C   0  0  0  0  0  0  0  0  0  0  0  0
    6.6410   -5.4650    1.5010 C   0  0  0  0  0  3  0  0  0  0  0  0
    7.9120   -3.7130    2.7690 N   0  0  0  0  0  0  0  0  0  0  0  0
    8.8970   -2.9120    2.4170 C   0  0  0  0  0  0  0  0  0  0  0  0
    9.3140   -3.1920    1.1240 N   0  0  0  0  0  0  0  0  0  0  0  0
   10.4750   -2.6080    0.4580 C   0  0  0  0  0  3  0  0  0  0  0  0
   11.5070   -3.6600    0.0170 C   0  0  0  0  0  2  0  0  0  0  0  0
   12.7290   -3.0030   -0.6260 C   0  0  0  0  0  2  0  0  0  0  0  0
   12.3310   -2.0800   -1.7740 C   0  0  0  0  0  2  0  0  0  0  0  0
   11.3210   -1.0260   -1.3280 C   0  0  0  0  0  2  0  0  0  0  0  0
   10.0870   -1.6620   -0.6890 C   0  0  0  0  0  2  0  0  0  0  0  0
    5.0100   -7.7660    1.1150 O   0  0  0  0  0  1  0  0  0  0  0  0
    5.4680   -7.2070    0.0680 C   0  0  0  0  0  0  0  0  0  0  0  0
    5.1190   -7.4690   -1.1260 O   0  0  0  0  0  0  0  0  0  0  0  0
   11.0680    0.9960    5.8530 O   0  0  0  0  0  0  0  0  0  0  0  0
   11.1690    2.3040    5.2900 C   0  0  0  0  0  2  0  0  0  0  0  0
   12.5870    2.7520    5.0230 C   0  0  0  0  0  0  0  0  0  0  0  0
   13.6030    2.4060    5.9260 C   0  0  0  0  0  3  0  0  0  0  0  0
   14.9110    2.8190    5.7000 C   0  0  0  0  0  3  0  0  0  0  0  0
   15.1720    3.5560    4.5620 C   0  0  0  0  0  3  0  0  0  0  0  0
   14.2320    3.8870    3.6540 N   0  0  0  0  0  0  0  0  0  0  0  0
   12.9520    3.4920    3.8890 C   0  0  0  0  0  0  0  0  0  0  0  0
   12.0090    3.9100    2.8450 C   0  0  0  0  0  0  0  0  0  0  0  0
   11.4520    5.2000    2.8690 C   0  0  0  0  0  3  0  0  0  0  0  0
   10.5500    5.6110    1.8840 C   0  0  0  0  0  3  0  0  0  0  0  0
   10.2050    4.7350    0.8580 C   0  0  0  0  0  0  0  0  0  0  0  0
    9.0950    5.2360   -0.3590 Cl  0  0  0  0  0  0  0  0  0  0  0  0
   10.7560    3.4560    0.8060 C   0  0  0  0  0  3  0  0  0  0  0  0
   11.6560    3.0470    1.7940 C   0  0  0  0  0  3  0  0  0  0  0  0
  1  6  1  0  0  0  0
  2  1  2  0  0  0  0
  2  3  1  0  0  0  0
  3  4  2  0  0  0  0
  4  5  1  0  0  0  0
  4 25  1  0  0  0  0
  6  5  2  0  0  0  0
  7 12  1  0  0  0  0
  8  9  1  0  0  0  0
  8  7  2  0  0  0  0
  9 10  2  0  0  0  0
 10 15  1  0  0  0  0
 10 11  1  0  0  0  0
 11 13  1  0  0  0  0
 12 11  2  0  0  0  0
 14 13  2  0  0  0  0
 14  1  1  0  0  0  0
 15 14  1  0  0  0  0
 16 15  1  0  0  0  0
 17 16  1  0  0  0  0
 18 17  1  0  0  0  0
 19 20  1  0  0  0  0
 19 18  1  0  0  0  0
 20 21  1  0  0  0  0
 21 16  1  0  0  0  0
 23  7  1  0  0  0  0
 23 22  1  0  0  0  0
 24 23  2  0  0  0  0
 26 25  1  0  0  0  0
 27 26  1  0  0  0  0
 27 28  1  0  0  0  0
 29 28  2  0  0  0  0
 30 29  1  0  0  0  0
 31 32  1  0  0  0  0
 31 30  2  0  0  0  0
 32 27  2  0  0  0  0
 33 34  1  0  0  0  0
 33 32  1  0  0  0  0
 35 34  2  0  0  0  0
 36 35  1  0  0  0  0
 37 36  1  0  0  0  0
 38 36  2  0  0  0  0
 38 39  1  0  0  0  0
 39 33  2  0  0  0  0
M  END
>  <minimizedAffinity>
-8.59910107

$$$$

 OpenBabel09122221343D

 39 44  0  0  0  0  0  0  0  0999 V2000
    7.1240   -2.4170    6.9910 C   0  0  0  0  0  0  0  0  0  0  0  0
    6.2790   -1.3530    7.3190 C   0  0  0  0  0  3  0  0  0  0  0  0
    5.6850   -1.2940    8.5830 C   0  0  0  0  0  3  0  0  0  0  0  0
    5.9070   -2.3020    9.5260 C   0  0  0  0  0  0  0  0  0  0  0  0
    6.7400   -3.3690    9.1970 C   0  0  0  0  0  3  0  0  0  0  0  0
    7.3370   -3.4280    7.9320 C   0  0  0  0  0  3  0  0  0  0  0  0
    9.0740   -3.3760    1.4100 C   0  0  0  0  0  0  0  0  0  0  0  0
    9.9770   -2.3420    1.7040 C   0  0  0  0  0  3  0  0  0  0  0  0
   10.0020   -1.7040    2.9510 C   0  0  0  0  0  3  0  0  0  0  0  0
    9.0840   -2.1320    3.9170 C   0  0  0  0  0  0  0  0  0  0  0  0
    8.1680   -3.1500    3.6580 C   0  0  0  0  0  0  0  0  0  0  0  0
    8.1600   -3.7790    2.4030 C   0  0  0  0  0  3  0  0  0  0  0  0
    7.3760   -3.3830    4.7530 N   0  0  0  0  0  0  0  0  0  0  0  0
    7.7510   -2.5160    5.6720 C   0  0  0  0  0  0  0  0  0  0  0  0
    8.8310   -1.7690    5.2250 N   0  0  0  0  0  0  0  0  0  0  0  0
    9.6010   -0.8210    6.0260 C   0  0  0  0  0  3  0  0  0  0  0  0
   10.6750   -1.5000    6.8940 C   0  0  0  0  0  2  0  0  0  0  0  0
   11.4200   -0.4800    7.7540 C   0  0  0  0  0  2  0  0  0  0  0  0
   12.0020    0.6500    6.9100 C   0  0  0  0  0  2  0  0  0  0  0  0
   10.9300    1.3330    6.0630 C   0  0  0  0  0  2  0  0  0  0  0  0
   10.1780    0.3310    5.1880 C   0  0  0  0  0  2  0  0  0  0  0  0
    8.5150   -5.1800   -0.0390 O   0  0  0  0  0  1  0  0  0  0  0  0
    9.0850   -4.0460    0.0500 C   0  0  0  0  0  0  0  0  0  0  0  0
    9.6600   -3.4290   -0.9010 O   0  0  0  0  0  0  0  0  0  0  0  0
    5.2550   -2.1190   10.7120 O   0  0  0  0  0  0  0  0  0  0  0  0
    4.0320   -1.3830   10.7290 C   0  0  0  0  0  2  0  0  0  0  0  0
    2.8120   -2.2220   11.0270 C   0  0  0  0  0  0  0  0  0  0  0  0
    2.3550   -2.3340   12.3490 C   0  0  0  0  0  3  0  0  0  0  0  0
    1.2400   -3.1090   12.6420 C   0  0  0  0  0  3  0  0  0  0  0  0
    0.5970   -3.7430   11.5970 C   0  0  0  0  0  3  0  0  0  0  0  0
    0.9840   -3.6420   10.3090 N   0  0  0  0  0  0  0  0  0  0  0  0
    2.0850   -2.8930   10.0330 C   0  0  0  0  0  0  0  0  0  0  0  0
    2.4240   -2.8550    8.6050 C   0  0  0  0  0  0  0  0  0  0  0  0
    3.0660   -3.9490    8.0000 C   0  0  0  0  0  3  0  0  0  0  0  0
    3.3980   -3.9270    6.6440 C   0  0  0  0  0  3  0  0  0  0  0  0
    3.0810   -2.8100    5.8750 C   0  0  0  0  0  0  0  0  0  0  0  0
    3.4860   -2.7770    4.2030 Cl  0  0  0  0  0  0  0  0  0  0  0  0
    2.4320   -1.7190    6.4510 C   0  0  0  0  0  3  0  0  0  0  0  0
    2.1030   -1.7430    7.8090 C   0  0  0  0  0  3  0  0  0  0  0  0
  1  2  2  0  0  0  0
  1  6  1  0  0  0  0
  2  3  1  0  0  0  0
  3  4  2  0  0  0  0
  4 25  1  0  0  0  0
  5  4  1  0  0  0  0
  6  5  2  0  0  0  0
  7  8  2  0  0  0  0
  7 12  1  0  0  0  0
  8  9  1  0  0  0  0
  9 10  2  0  0  0  0
 10 15  1  0  0  0  0
 11 10  1  0  0  0  0
 11 13  1  0  0  0  0
 12 11  2  0  0  0  0
 13 14  2  0  0  0  0
 14  1  1  0  0  0  0
 15 14  1  0  0  0  0
 15 16  1  0  0  0  0
 16 17  1  0  0  0  0
 17 18  1  0  0  0  0
 19 18  1  0  0  0  0
 20 19  1  0  0  0  0
 21 16  1  0  0  0  0
 21 20  1  0  0  0  0
 22 23  1  0  0  0  0
 23  7  1  0  0  0  0
 24 23  2  0  0  0  0
 25 26  1  0  0  0  0
 26 27  1  0  0  0  0
 27 28  1  0  0  0  0
 28 29  2  0  0  0  0
 30 29  1  0  0  0  0
 31 30  2  0  0  0  0
 32 31  1  0  0  0  0
 32 27  2  0  0  0  0
 33 32  1  0  0  0  0
 34 33  1  0  0  0  0
 35 34  2  0  0  0  0
 36 38  2  0  0  0  0
 36 35  1  0  0  0  0
 37 36  1  0  0  0  0
 38 39  1  0  0  0  0
 39 33  2  0  0  0  0
M  END
>  <minimizedAffinity>
-8.58320904

$$$$

 OpenBabel09122221343D

 39 44  0  0  0  0  0  0  0  0999 V2000
    9.4440   -2.2780    3.4650 C   0  0  0  0  0  0  0  0  0  0  0  0
    9.4370   -0.8910    3.2910 C   0  0  0  0  0  3  0  0  0  0  0  0
   10.0260   -0.0600    4.2470 C   0  0  0  0  0  3  0  0  0  0  0  0
   10.6100   -0.5970    5.3990 C   0  0  0  0  0  0  0  0  0  0  0  0
   10.6080   -1.9780    5.5810 C   0  0  0  0  0  3  0  0  0  0  0  0
   10.0200   -2.8110    4.6220 C   0  0  0  0  0  3  0  0  0  0  0  0
    6.3390   -6.1200    0.0800 C   0  0  0  0  0  0  0  0  0  0  0  0
    7.2000   -5.6890   -0.9420 C   0  0  0  0  0  3  0  0  0  0  0  0
    8.2120   -4.7460   -0.7180 C   0  0  0  0  0  3  0  0  0  0  0  0
    8.3440   -4.2330    0.5780 C   0  0  0  0  0  0  0  0  0  0  0  0
    7.5040   -4.6330    1.6150 C   0  0  0  0  0  0  0  0  0  0  0  0
    6.4980   -5.5810    1.3710 C   0  0  0  0  0  3  0  0  0  0  0  0
    7.8280   -3.9880    2.7810 N   0  0  0  0  0  0  0  0  0  0  0  0
    8.8230   -3.1750    2.4900 C   0  0  0  0  0  0  0  0  0  0  0  0
    9.2100   -3.3330    1.1670 N   0  0  0  0  0  0  0  0  0  0  0  0
   10.3710   -2.7080    0.5380 C   0  0  0  0  0  3  0  0  0  0  0  0
   11.4040   -3.7300    0.0330 C   0  0  0  0  0  2  0  0  0  0  0  0
   12.6250   -3.0340   -0.5690 C   0  0  0  0  0  2  0  0  0  0  0  0
   12.2270   -2.0410   -1.6560 C   0  0  0  0  0  2  0  0  0  0  0  0
   11.2160   -1.0180   -1.1450 C   0  0  0  0  0  2  0  0  0  0  0  0
    9.9820   -1.6920   -0.5470 C   0  0  0  0  0  2  0  0  0  0  0  0
    4.3000   -7.2190    0.6270 O   0  0  0  0  0  1  0  0  0  0  0  0
    5.2620   -7.1490   -0.2020 C   0  0  0  0  0  0  0  0  0  0  0  0
    5.3970   -7.8650   -1.2440 O   0  0  0  0  0  0  0  0  0  0  0  0
   11.1370    0.3320    6.2500 O   0  0  0  0  0  0  0  0  0  0  0  0
   11.6370   -0.0880    7.5180 C   0  0  0  0  0  2  0  0  0  0  0  0
   11.0080    0.6200    8.6950 C   0  0  0  0  0  0  0  0  0  0  0  0
   11.7020    1.6640    9.3250 C   0  0  0  0  0  3  0  0  0  0  0  0
   11.1420    2.3200   10.4150 C   0  0  0  0  0  3  0  0  0  0  0  0
    9.8890    1.9230   10.8380 C   0  0  0  0  0  3  0  0  0  0  0  0
    9.1760    0.9430   10.2470 N   0  0  0  0  0  0  0  0  0  0  0  0
    9.7360    0.2970    9.1890 C   0  0  0  0  0  0  0  0  0  0  0  0
    8.8810   -0.7540    8.6250 C   0  0  0  0  0  0  0  0  0  0  0  0
    7.8630   -0.4270    7.7150 C   0  0  0  0  0  3  0  0  0  0  0  0
    7.0380   -1.4150    7.1730 C   0  0  0  0  0  3  0  0  0  0  0  0
    7.2320   -2.7470    7.5320 C   0  0  0  0  0  0  0  0  0  0  0  0
    6.2210   -3.9700    6.8660 Cl  0  0  0  0  0  0  0  0  0  0  0  0
    8.2460   -3.0970    8.4220 C   0  0  0  0  0  3  0  0  0  0  0  0
    9.0670   -2.1050    8.9650 C   0  0  0  0  0  3  0  0  0  0  0  0
  1  6  1  0  0  0  0
  2  1  2  0  0  0  0
  2  3  1  0  0  0  0
  3  4  2  0  0  0  0
  4  5  1  0  0  0  0
  4 25  1  0  0  0  0
  6  5  2  0  0  0  0
  7 12  1  0  0  0  0
  8  9  1  0  0  0  0
  8  7  2  0  0  0  0
  9 10  2  0  0  0  0
 10 15  1  0  0  0  0
 10 11  1  0  0  0  0
 11 13  1  0  0  0  0
 12 11  2  0  0  0  0
 14 13  2  0  0  0  0
 14  1  1  0  0  0  0
 15 14  1  0  0  0  0
 16 15  1  0  0  0  0
 17 16  1  0  0  0  0
 18 17  1  0  0  0  0
 19 20  1  0  0  0  0
 19 18  1  0  0  0  0
 20 21  1  0  0  0  0
 21 16  1  0  0  0  0
 23  7  1  0  0  0  0
 23 22  1  0  0  0  0
 24 23  2  0  0  0  0
 25 26  1  0  0  0  0
 26 27  1  0  0  0  0
 27 32  2  0  0  0  0
 27 28  1  0  0  0  0
 28 29  2  0  0  0  0
 29 30  1  0  0  0  0
 31 30  2  0  0  0  0
 32 31  1  0  0  0  0
 33 39  1  0  0  0  0
 33 32  1  0  0  0  0
 34 33  2  0  0  0  0
 35 36  2  0  0  0  0
 35 34  1  0  0  0  0
 36 38  1  0  0  0  0
 37 36  1  0  0  0  0
 38 39  2  0  0  0  0
M  END
>  <minimizedAffinity>
-8.56689644

$$$$

 OpenBabel09122221343D

 39 44  0  0  0  0  0  0  0  0999 V2000
    3.8160   -3.1390    5.5870 C   0  0  0  0  0  0  0  0  0  0  0  0
    2.5530   -2.6090    5.8670 C   0  0  0  0  0  3  0  0  0  0  0  0
    2.3970   -1.6690    6.8890 C   0  0  0  0  0  3  0  0  0  0  0  0
    3.4900   -1.2610    7.6600 C   0  0  0  0  0  0  0  0  0  0  0  0
    4.7480   -1.7970    7.3900 C   0  0  0  0  0  3  0  0  0  0  0  0
    4.9060   -2.7370    6.3650 C   0  0  0  0  0  3  0  0  0  0  0  0
    5.0320   -6.6070    0.8590 C   0  0  0  0  0  0  0  0  0  0  0  0
    4.4690   -7.6250    1.6450 C   0  0  0  0  0  3  0  0  0  0  0  0
    3.9610   -7.3840    2.9280 C   0  0  0  0  0  3  0  0  0  0  0  0
    4.0310   -6.0740    3.4170 C   0  0  0  0  0  0  0  0  0  0  0  0
    4.5890   -5.0400    2.6680 C   0  0  0  0  0  0  0  0  0  0  0  0
    5.0900   -5.3010    1.3830 C   0  0  0  0  0  3  0  0  0  0  0  0
    4.5470   -3.8580    3.3620 N   0  0  0  0  0  0  0  0  0  0  0  0
    4.0100   -4.1350    4.5340 C   0  0  0  0  0  0  0  0  0  0  0  0
    3.6260   -5.4670    4.5890 N   0  0  0  0  0  0  0  0  0  0  0  0
    2.8660   -6.0900    5.6710 C   0  0  0  0  0  3  0  0  0  0  0  0
    1.3930   -6.3360    5.3060 C   0  0  0  0  0  2  0  0  0  0  0  0
    0.6230   -6.9380    6.4810 C   0  0  0  0  0  2  0  0  0  0  0  0
    1.2980   -8.2010    7.0070 C   0  0  0  0  0  2  0  0  0  0  0  0
    2.7550   -7.9470    7.3860 C   0  0  0  0  0  2  0  0  0  0  0  0
    3.5460   -7.3530    6.2210 C   0  0  0  0  0  2  0  0  0  0  0  0
    6.2380   -5.9930   -1.0990 O   0  0  0  0  0  0  0  0  0  0  0  0
    5.5630   -6.9090   -0.5290 C   0  0  0  0  0  0  0  0  0  0  0  0
    5.2990   -8.0510   -1.0200 O   0  0  0  0  0  1  0  0  0  0  0  0
    3.1890   -0.3470    8.6280 O   0  0  0  0  0  0  0  0  0  0  0  0
    2.8530   -0.8030    9.9380 C   0  0  0  0  0  2  0  0  0  0  0  0
    4.0200   -1.3660   10.7140 C   0  0  0  0  0  0  0  0  0  0  0  0
    5.0860   -0.5240   11.0670 C   0  0  0  0  0  3  0  0  0  0  0  0
    6.1720   -1.0270   11.7720 C   0  0  0  0  0  3  0  0  0  0  0  0
    6.1570   -2.3620   12.1220 C   0  0  0  0  0  3  0  0  0  0  0  0
    5.1440   -3.2010   11.8270 N   0  0  0  0  0  0  0  0  0  0  0  0
    4.0900   -2.7050   11.1240 C   0  0  0  0  0  0  0  0  0  0  0  0
    3.0470   -3.7010   10.8510 C   0  0  0  0  0  0  0  0  0  0  0  0
    2.1620   -4.0970   11.8670 C   0  0  0  0  0  3  0  0  0  0  0  0
    1.1670   -5.0470   11.6230 C   0  0  0  0  0  3  0  0  0  0  0  0
    1.0440   -5.6040   10.3520 C   0  0  0  0  0  0  0  0  0  0  0  0
   -0.1810   -6.7730   10.0450 Cl  0  0  0  0  0  0  0  0  0  0  0  0
    1.9020   -5.2150    9.3250 C   0  0  0  0  0  3  0  0  0  0  0  0
    2.8980   -4.2660    9.5740 C   0  0  0  0  0  3  0  0  0  0  0  0
  1  2  2  0  0  0  0
  1  6  1  0  0  0  0
  2  3  1  0  0  0  0
  3  4  2  0  0  0  0
  4 25  1  0  0  0  0
  5  4  1  0  0  0  0
  6  5  2  0  0  0  0
  7 12  2  0  0  0  0
  7  8  1  0  0  0  0
  8  9  2  0  0  0  0
  9 10  1  0  0  0  0
 10 15  1  0  0  0  0
 11 13  1  0  0  0  0
 11 10  2  0  0  0  0
 12 11  1  0  0  0  0
 13 14  2  0  0  0  0
 14 15  1  0  0  0  0
 14  1  1  0  0  0  0
 15 16  1  0  0  0  0
 16 21  1  0  0  0  0
 17 16  1  0  0  0  0
 17 18  1  0  0  0  0
 18 19  1  0  0  0  0
 19 20  1  0  0  0  0
 21 20  1  0  0  0  0
 22 23  2  0  0  0  0
 23  7  1  0  0  0  0
 24 23  1  0  0  0  0
 25 26  1  0  0  0  0
 26 27  1  0  0  0  0
 27 28  2  0  0  0  0
 27 32  1  0  0  0  0
 28 29  1  0  0  0  0
 29 30  2  0  0  0  0
 31 30  1  0  0  0  0
 32 31  2  0  0  0  0
 33 32  1  0  0  0  0
 33 34  1  0  0  0  0
 35 34  2  0  0  0  0
 36 35  1  0  0  0  0
 37 36  1  0  0  0  0
 38 39  1  0  0  0  0
 38 36  2  0  0  0  0
 39 33  2  0  0  0  0
M  END
>  <minimizedAffinity>
-8.55981445

$$$$

 OpenBabel09122221343D

 39 44  0  0  0  0  0  0  0  0999 V2000
    3.8180   -3.1820    5.3720 C   0  0  0  0  0  0  0  0  0  0  0  0
    2.5530   -2.6190    5.5650 C   0  0  0  0  0  3  0  0  0  0  0  0
    2.3580   -1.6560    6.5580 C   0  0  0  0  0  3  0  0  0  0  0  0
    3.4130   -1.2550    7.3840 C   0  0  0  0  0  0  0  0  0  0  0  0
    4.6720   -1.8220    7.2000 C   0  0  0  0  0  3  0  0  0  0  0  0
    4.8690   -2.7860    6.2050 C   0  0  0  0  0  3  0  0  0  0  0  0
    5.1040   -6.7350    0.7270 C   0  0  0  0  0  0  0  0  0  0  0  0
    4.7030   -7.7660    1.5910 C   0  0  0  0  0  3  0  0  0  0  0  0
    4.2510   -7.5150    2.8930 C   0  0  0  0  0  3  0  0  0  0  0  0
    4.2120   -6.1820    3.3200 C   0  0  0  0  0  0  0  0  0  0  0  0
    4.6090   -5.1340    2.4920 C   0  0  0  0  0  0  0  0  0  0  0  0
    5.0560   -5.4060    1.1890 C   0  0  0  0  0  3  0  0  0  0  0  0
    4.4840   -3.9300    3.1360 N   0  0  0  0  0  0  0  0  0  0  0  0
    4.0530   -4.2030    4.3510 C   0  0  0  0  0  0  0  0  0  0  0  0
    3.8170   -5.5630    4.4900 N   0  0  0  0  0  0  0  0  0  0  0  0
    3.1960   -6.2070    5.6450 C   0  0  0  0  0  3  0  0  0  0  0  0
    3.8200   -5.7720    6.9820 C   0  0  0  0  0  2  0  0  0  0  0  0
    3.1780   -6.5080    8.1590 C   0  0  0  0  0  2  0  0  0  0  0  0
    1.6610   -6.3510    8.1600 C   0  0  0  0  0  2  0  0  0  0  0  0
    1.0450   -6.8010    6.8370 C   0  0  0  0  0  2  0  0  0  0  0  0
    1.6660   -6.0710    5.6480 C   0  0  0  0  0  2  0  0  0  0  0  0
    6.2200   -6.1340   -1.2890 O   0  0  0  0  0  0  0  0  0  0  0  0
    5.5790   -7.0480   -0.6790 C   0  0  0  0  0  0  0  0  0  0  0  0
    5.3050   -8.1990   -1.1450 O   0  0  0  0  0  1  0  0  0  0  0  0
    3.0750   -0.3150    8.3150 O   0  0  0  0  0  0  0  0  0  0  0  0
    2.2950   -0.7010    9.4460 C   0  0  0  0  0  2  0  0  0  0  0  0
    2.9300   -1.7780   10.2940 C   0  0  0  0  0  0  0  0  0  0  0  0
    2.3540   -3.0560   10.3340 C   0  0  0  0  0  3  0  0  0  0  0  0
    2.9200   -4.0560   11.1170 C   0  0  0  0  0  3  0  0  0  0  0  0
    4.0620   -3.7520   11.8310 C   0  0  0  0  0  3  0  0  0  0  0  0
    4.6640   -2.5460   11.8020 N   0  0  0  0  0  0  0  0  0  0  0  0
    4.0960   -1.5700   11.0440 C   0  0  0  0  0  0  0  0  0  0  0  0
    4.8260   -0.2960   11.0880 C   0  0  0  0  0  0  0  0  0  0  0  0
    4.3490    0.7660   11.8740 C   0  0  0  0  0  3  0  0  0  0  0  0
    5.0300    1.9850   11.9240 C   0  0  0  0  0  3  0  0  0  0  0  0
    6.2030    2.1480   11.1910 C   0  0  0  0  0  0  0  0  0  0  0  0
    7.0470    3.6470   11.2490 Cl  0  0  0  0  0  0  0  0  0  0  0  0
    6.7020    1.1030   10.4160 C   0  0  0  0  0  3  0  0  0  0  0  0
    6.0170   -0.1140   10.3670 C   0  0  0  0  0  3  0  0  0  0  0  0
  1  2  2  0  0  0  0
  1  6  1  0  0  0  0
  2  3  1  0  0  0  0
  3  4  2  0  0  0  0
  4 25  1  0  0  0  0
  5  4  1  0  0  0  0
  6  5  2  0  0  0  0
  7 12  2  0  0  0  0
  7  8  1  0  0  0  0
  8  9  2  0  0  0  0
  9 10  1  0  0  0  0
 10 15  1  0  0  0  0
 11 13  1  0  0  0  0
 11 10  2  0  0  0  0
 12 11  1  0  0  0  0
 13 14  2  0  0  0  0
 14 15  1  0  0  0  0
 14  1  1  0  0  0  0
 15 16  1  0  0  0  0
 16 21  1  0  0  0  0
 16 17  1  0  0  0  0
 17 18  1  0  0  0  0
 18 19  1  0  0  0  0
 20 19  1  0  0  0  0
 21 20  1  0  0  0  0
 22 23  2  0  0  0  0
 23  7  1  0  0  0  0
 24 23  1  0  0  0  0
 25 26  1  0  0  0  0
 26 27  1  0  0  0  0
 27 28  2  0  0  0  0
 27 32  1  0  0  0  0
 28 29  1  0  0  0  0
 29 30  2  0  0  0  0
 31 30  1  0  0  0  0
 32 33  1  0  0  0  0
 32 31  2  0  0  0  0
 33 34  1  0  0  0  0
 34 35  2  0  0  0  0
 36 37  1  0  0  0  0
 36 35  1  0  0  0  0
 38 36  2  0  0  0  0
 39 38  1  0  0  0  0
 39 33  2  0  0  0  0
M  END
>  <minimizedAffinity>
-8.32226753

$$$$

 OpenBabel09122221343D

 39 44  0  0  0  0  0  0  0  0999 V2000
    4.0700   -3.0710    5.7780 C   0  0  0  0  0  0  0  0  0  0  0  0
    2.7940   -2.6370    6.1500 C   0  0  0  0  0  3  0  0  0  0  0  0
    2.6440   -1.6920    7.1690 C   0  0  0  0  0  3  0  0  0  0  0  0
    3.7580   -1.1830    7.8430 C   0  0  0  0  0  0  0  0  0  0  0  0
    5.0290   -1.6220    7.4810 C   0  0  0  0  0  3  0  0  0  0  0  0
    5.1810   -2.5670    6.4600 C   0  0  0  0  0  3  0  0  0  0  0  0
    5.1590   -6.5210    1.0060 C   0  0  0  0  0  0  0  0  0  0  0  0
    4.7900   -7.5700    1.8630 C   0  0  0  0  0  3  0  0  0  0  0  0
    4.3920   -7.3480    3.1880 C   0  0  0  0  0  3  0  0  0  0  0  0
    4.3720   -6.0250    3.6450 C   0  0  0  0  0  0  0  0  0  0  0  0
    4.7390   -4.9600    2.8260 C   0  0  0  0  0  0  0  0  0  0  0  0
    5.1320   -5.2020    1.5000 C   0  0  0  0  0  3  0  0  0  0  0  0
    4.6430   -3.7700    3.5010 N   0  0  0  0  0  0  0  0  0  0  0  0
    4.2600   -4.0690    4.7260 C   0  0  0  0  0  0  0  0  0  0  0  0
    4.0270   -5.4310    4.8430 N   0  0  0  0  0  0  0  0  0  0  0  0
    3.4520   -6.1000    6.0080 C   0  0  0  0  0  3  0  0  0  0  0  0
    4.1210   -5.6860    7.3300 C   0  0  0  0  0  2  0  0  0  0  0  0
    3.5260   -6.4480    8.5150 C   0  0  0  0  0  2  0  0  0  0  0  0
    2.0090   -6.3000    8.5740 C   0  0  0  0  0  2  0  0  0  0  0  0
    1.3480   -6.7290    7.2660 C   0  0  0  0  0  2  0  0  0  0  0  0
    1.9220   -5.9740    6.0680 C   0  0  0  0  0  2  0  0  0  0  0  0
    5.2010   -7.9120   -0.9260 O   0  0  0  0  0  1  0  0  0  0  0  0
    5.5750   -6.8040   -0.4240 C   0  0  0  0  0  0  0  0  0  0  0  0
    6.2650   -5.9160   -1.0170 O   0  0  0  0  0  0  0  0  0  0  0  0
    3.4610   -0.2760    8.8200 O   0  0  0  0  0  0  0  0  0  0  0  0
    4.2000   -0.2970   10.0400 C   0  0  0  0  0  2  0  0  0  0  0  0
    3.7050   -1.3120   11.0440 C   0  0  0  0  0  0  0  0  0  0  0  0
    2.4350   -1.1540   11.6170 C   0  0  0  0  0  3  0  0  0  0  0  0
    1.9670   -2.0730   12.5490 C   0  0  0  0  0  3  0  0  0  0  0  0
    2.7820   -3.1400   12.8730 C   0  0  0  0  0  3  0  0  0  0  0  0
    3.9970   -3.3450   12.3280 N   0  0  0  0  0  0  0  0  0  0  0  0
    4.4530   -2.4340   11.4270 C   0  0  0  0  0  0  0  0  0  0  0  0
    5.7870   -2.7480   10.9010 C   0  0  0  0  0  0  0  0  0  0  0  0
    6.8960   -1.9670   11.2690 C   0  0  0  0  0  3  0  0  0  0  0  0
    8.1710   -2.2500   10.7740 C   0  0  0  0  0  3  0  0  0  0  0  0
    8.3500   -3.3290    9.9100 C   0  0  0  0  0  0  0  0  0  0  0  0
    9.9190   -3.6850    9.2980 Cl  0  0  0  0  0  0  0  0  0  0  0  0
    7.2670   -4.1270    9.5440 C   0  0  0  0  0  3  0  0  0  0  0  0
    5.9920   -3.8380   10.0390 C   0  0  0  0  0  3  0  0  0  0  0  0
  1  2  2  0  0  0  0
  1  6  1  0  0  0  0
  2  3  1  0  0  0  0
  3  4  2  0  0  0  0
  4 25  1  0  0  0  0
  5  4  1  0  0  0  0
  6  5  2  0  0  0  0
  7 12  2  0  0  0  0
  7  8  1  0  0  0  0
  8  9  2  0  0  0  0
  9 10  1  0  0  0  0
 10 15  1  0  0  0  0
 11 13  1  0  0  0  0
 11 10  2  0  0  0  0
 12 11  1  0  0  0  0
 13 14  2  0  0  0  0
 14 15  1  0  0  0  0
 14  1  1  0  0  0  0
 15 16  1  0  0  0  0
 16 21  1  0  0  0  0
 16 17  1  0  0  0  0
 17 18  1  0  0  0  0
 18 19  1  0  0  0  0
 20 19  1  0  0  0  0
 21 20  1  0  0  0  0
 22 23  1  0  0  0  0
 23  7  1  0  0  0  0
 24 23  2  0  0  0  0
 25 26  1  0  0  0  0
 26 27  1  0  0  0  0
 27 32  2  0  0  0  0
 27 28  1  0  0  0  0
 28 29  2  0  0  0  0
 29 30  1  0  0  0  0
 31 30  2  0  0  0  0
 32 31  1  0  0  0  0
 33 34  1  0  0  0  0
 33 32  1  0  0  0  0
 35 34  2  0  0  0  0
 36 35  1  0  0  0  0
 37 36  1  0  0  0  0
 38 36  2  0  0  0  0
 38 39  1  0  0  0  0
 39 33  2  0  0  0  0
M  END
>  <minimizedAffinity>
-8.01220512

$$$$

 OpenBabel09122221343D

 39 44  0  0  0  0  0  0  0  0999 V2000
    9.1270   -0.6520    6.6060 C   0  0  0  0  0  0  0  0  0  0  0  0
   10.1610   -0.6520    5.6660 C   0  0  0  0  0  3  0  0  0  0  0  0
   10.1940   -1.6190    4.6580 C   0  0  0  0  0  3  0  0  0  0  0  0
    9.2110   -2.6120    4.5860 C   0  0  0  0  0  0  0  0  0  0  0  0
    8.1860   -2.6210    5.5290 C   0  0  0  0  0  3  0  0  0  0  0  0
    8.1510   -1.6510    6.5370 C   0  0  0  0  0  3  0  0  0  0  0  0
    8.4870    3.8910   10.4540 C   0  0  0  0  0  0  0  0  0  0  0  0
    9.0300    2.9890   11.3830 C   0  0  0  0  0  3  0  0  0  0  0  0
    9.4150    1.6910   11.0260 C   0  0  0  0  0  3  0  0  0  0  0  0
    9.2400    1.3070    9.6910 C   0  0  0  0  0  0  0  0  0  0  0  0
    8.6970    2.1720    8.7440 C   0  0  0  0  0  0  0  0  0  0  0  0
    8.3200    3.4710    9.1200 C   0  0  0  0  0  3  0  0  0  0  0  0
    8.6230    1.5660    7.5160 N   0  0  0  0  0  0  0  0  0  0  0  0
    9.0710    0.3380    7.6810 C   0  0  0  0  0  0  0  0  0  0  0  0
    9.5140    0.1530    8.9830 N   0  0  0  0  0  0  0  0  0  0  0  0
   10.2090   -1.0290    9.4870 C   0  0  0  0  0  3  0  0  0  0  0  0
   11.5960   -0.7080   10.0700 C   0  0  0  0  0  2  0  0  0  0  0  0
   12.3090   -1.9780   10.5360 C   0  0  0  0  0  2  0  0  0  0  0  0
   11.4520   -2.7780   11.5120 C   0  0  0  0  0  2  0  0  0  0  0  0
   10.0830   -3.1090   10.9220 C   0  0  0  0  0  2  0  0  0  0  0  0
    9.3490   -1.8530   10.4580 C   0  0  0  0  0  2  0  0  0  0  0  0
    8.0520    6.1810    9.9710 O   0  0  0  0  0  0  0  0  0  0  0  0
    8.0900    5.2910   10.8800 C   0  0  0  0  0  0  0  0  0  0  0  0
    7.8240    5.4750   12.1090 O   0  0  0  0  0  1  0  0  0  0  0  0
    9.3750   -3.4950    3.5580 O   0  0  0  0  0  0  0  0  0  0  0  0
    9.5790   -2.9970    2.2360 C   0  0  0  0  0  2  0  0  0  0  0  0
    8.9180   -3.8210    1.1570 C   0  0  0  0  0  0  0  0  0  0  0  0
    7.7790   -4.5790    1.4670 C   0  0  0  0  0  3  0  0  0  0  0  0
    7.1640   -5.3510    0.4880 C   0  0  0  0  0  3  0  0  0  0  0  0
    7.6970   -5.3300   -0.7850 C   0  0  0  0  0  3  0  0  0  0  0  0
    8.7720   -4.5970   -1.1340 N   0  0  0  0  0  0  0  0  0  0  0  0
    9.3770   -3.8550   -0.1670 C   0  0  0  0  0  0  0  0  0  0  0  0
   10.5400   -3.1010   -0.6500 C   0  0  0  0  0  0  0  0  0  0  0  0
   10.3850   -1.7900   -1.1320 C   0  0  0  0  0  3  0  0  0  0  0  0
   11.4810   -1.0610   -1.5990 C   0  0  0  0  0  3  0  0  0  0  0  0
   12.7500   -1.6370   -1.5790 C   0  0  0  0  0  0  0  0  0  0  0  0
   14.1050   -0.7440   -2.1510 Cl  0  0  0  0  0  0  0  0  0  0  0  0
   12.9300   -2.9300   -1.0920 C   0  0  0  0  0  3  0  0  0  0  0  0
   11.8300   -3.6580   -0.6280 C   0  0  0  0  0  3  0  0  0  0  0  0
  1 14  1  0  0  0  0
  2  1  2  0  0  0  0
  3  2  1  0  0  0  0
  4  3  2  0  0  0  0
  4  5  1  0  0  0  0
  5  6  2  0  0  0  0
  6  1  1  0  0  0  0
  7 23  1  0  0  0  0
  7  8  1  0  0  0  0
  9  8  2  0  0  0  0
 10  9  1  0  0  0  0
 11 12  1  0  0  0  0
 11 10  2  0  0  0  0
 12  7  2  0  0  0  0
 13 14  2  0  0  0  0
 13 11  1  0  0  0  0
 14 15  1  0  0  0  0
 15 16  1  0  0  0  0
 15 10  1  0  0  0  0
 16 17  1  0  0  0  0
 16 21  1  0  0  0  0
 17 18  1  0  0  0  0
 18 19  1  0  0  0  0
 20 19  1  0  0  0  0
 21 20  1  0  0  0  0
 22 23  2  0  0  0  0
 23 24  1  0  0  0  0
 25  4  1  0  0  0  0
 26 25  1  0  0  0  0
 27 28  1  0  0  0  0
 27 26  1  0  0  0  0
 29 28  2  0  0  0  0
 30 29  1  0  0  0  0
 31 30  2  0  0  0  0
 31 32  1  0  0  0  0
 32 27  2  0  0  0  0
 33 39  1  0  0  0  0
 33 32  1  0  0  0  0
 34 33  2  0  0  0  0
 35 36  2  0  0  0  0
 35 34  1  0  0  0  0
 36 38  1  0  0  0  0
 37 36  1  0  0  0  0
 38 39  2  0  0  0  0
M  END
>  <minimizedAffinity>
-7.95827436

$$$$
