
 OpenBabel09122222393D

 39 44  0  0  0  0  0  0  0  0999 V2000
    9.3740   -2.3850    3.4980 C   0  0  0  0  0  0  0  0  0  0  0  0
    9.3670   -0.9950    3.3550 C   0  0  0  0  0  3  0  0  0  0  0  0
    9.9500   -0.1870    4.3350 C   0  0  0  0  0  3  0  0  0  0  0  0
   10.5290   -0.7500    5.4770 C   0  0  0  0  0  0  0  0  0  0  0  0
   10.5270   -2.1350    5.6260 C   0  0  0  0  0  3  0  0  0  0  0  0
    9.9440   -2.9460    4.6450 C   0  0  0  0  0  3  0  0  0  0  0  0
    6.2910   -6.1500    0.0070 C   0  0  0  0  0  0  0  0  0  0  0  0
    7.1540   -5.6910   -1.0010 C   0  0  0  0  0  3  0  0  0  0  0  0
    8.1620   -4.7510   -0.7500 C   0  0  0  0  0  3  0  0  0  0  0  0
    8.2890   -4.2710    0.5590 C   0  0  0  0  0  0  0  0  0  0  0  0
    7.4460   -4.6980    1.5820 C   0  0  0  0  0  0  0  0  0  0  0  0
    6.4440   -5.6420    1.3120 C   0  0  0  0  0  3  0  0  0  0  0  0
    7.7650   -4.0820    2.7650 N   0  0  0  0  0  0  0  0  0  0  0  0
    8.7590   -3.2590    2.4980 C   0  0  0  0  0  0  0  0  0  0  0  0
    9.1510   -3.3830    1.1730 N   0  0  0  0  0  0  0  0  0  0  0  0
   10.3120   -2.7400    0.5640 C   0  0  0  0  0  3  0  0  0  0  0  0
   11.3470   -3.7470    0.0320 C   0  0  0  0  0  2  0  0  0  0  0  0
   12.5680   -3.0330   -0.5480 C   0  0  0  0  0  2  0  0  0  0  0  0
   12.1710   -2.0110   -1.6080 C   0  0  0  0  0  2  0  0  0  0  0  0
   11.1580   -1.0030   -1.0700 C   0  0  0  0  0  2  0  0  0  0  0  0
    9.9240   -1.6950   -0.4930 C   0  0  0  0  0  2  0  0  0  0  0  0
    5.4280   -7.9480   -1.2920 O   0  0  0  0  0  0  0  0  0  0  0  0
    5.2170   -7.1740   -0.3050 C   0  0  0  0  0  0  0  0  0  0  0  0
    4.1880   -7.1870    0.4410 O   0  0  0  0  0  1  0  0  0  0  0  0
   11.0510    0.1590    6.3520 O   0  0  0  0  0  0  0  0  0  0  0  0
   11.7850    1.2730    5.8450 C   0  0  0  0  0  2  0  0  0  0  0  0
   11.1670    2.6150    6.1610 C   0  0  0  0  0  0  0  0  0  0  0  0
   10.8920    2.9520    7.4950 C   0  0  0  0  0  3  0  0  0  0  0  0
   10.3140    4.1780    7.8020 C   0  0  0  0  0  3  0  0  0  0  0  0
   10.0410    5.0460    6.7640 C   0  0  0  0  0  3  0  0  0  0  0  0
   10.3130    4.7750    5.4710 N   0  0  0  0  0  0  0  0  0  0  0  0
   10.8650    3.5670    5.1770 C   0  0  0  0  0  0  0  0  0  0  0  0
   11.1140    3.3710    3.7440 C   0  0  0  0  0  0  0  0  0  0  0  0
   10.1060    2.8510    2.9140 C   0  0  0  0  0  3  0  0  0  0  0  0
   10.3280    2.6550    1.5500 C   0  0  0  0  0  3  0  0  0  0  0  0
   11.5640    2.9870    0.9990 C   0  0  0  0  0  0  0  0  0  0  0  0
   11.8440    2.7500   -0.6830 Cl  0  0  0  0  0  0  0  0  0  0  0  0
   12.5730    3.5180    1.7990 C   0  0  0  0  0  3  0  0  0  0  0  0
   12.3480    3.7100    3.1650 C   0  0  0  0  0  3  0  0  0  0  0  0
  1  6  1  0  0  0  0
  2  1  2  0  0  0  0
  2  3  1  0  0  0  0
  3  4  2  0  0  0  0
  4  5  1  0  0  0  0
  4 25  1  0  0  0  0
  6  5  2  0  0  0  0
  7 12  1  0  0  0  0
  8  9  1  0  0  0  0
  8  7  2  0  0  0  0
  9 10  2  0  0  0  0
 10 15  1  0  0  0  0
 10 11  1  0  0  0  0
 11 13  1  0  0  0  0
 12 11  2  0  0  0  0
 14 13  2  0  0  0  0
 14  1  1  0  0  0  0
 15 14  1  0  0  0  0
 16 15  1  0  0  0  0
 17 16  1  0  0  0  0
 18 17  1  0  0  0  0
 19 20  1  0  0  0  0
 19 18  1  0  0  0  0
 20 21  1  0  0  0  0
 21 16  1  0  0  0  0
 22 23  2  0  0  0  0
 23  7  1  0  0  0  0
 23 24  1  0  0  0  0
 26 27  1  0  0  0  0
 26 25  1  0  0  0  0
 27 28  1  0  0  0  0
 28 29  2  0  0  0  0
 30 29  1  0  0  0  0
 31 30  2  0  0  0  0
 32 31  1  0  0  0  0
 32 27  2  0  0  0  0
 33 32  1  0  0  0  0
 34 33  2  0  0  0  0
 35 34  1  0  0  0  0
 36 35  2  0  0  0  0
 36 38  1  0  0  0  0
 37 36  1  0  0  0  0
 38 39  2  0  0  0  0
 39 33  1  0  0  0  0
M  END
>  <minimizedAffinity>
-8.63395596

$$$$
