
 OpenBabel09122219153D

 44 49  0  0  0  0  0  0  0  0999 V2000
    1.5610   -8.0890    9.0040 C   0  0  0  0  0  0  0  0  0  0  0  0
    0.7400   -7.0750    9.5000 C   0  0  0  0  0  3  0  0  0  0  0  0
    1.2430   -5.7890    9.7070 C   0  0  0  0  0  3  0  0  0  0  0  0
    2.5920   -5.5170    9.4630 C   0  0  0  0  0  0  0  0  0  0  0  0
    3.4220   -6.5440    8.9990 C   0  0  0  0  0  3  0  0  0  0  0  0
    2.9120   -7.8290    8.7830 C   0  0  0  0  0  3  0  0  0  0  0  0
    3.1020   -4.1560    9.5660 C   0  0  0  0  0  0  0  0  0  0  0  0
    3.2500   -3.5490   10.7280 N   0  0  0  0  0  0  0  0  0  0  0  0
    3.6610   -2.2730   10.4510 C   0  0  0  0  0  0  0  0  0  0  0  0
    3.9250   -1.2100   11.3280 C   0  0  0  0  0  3  0  0  0  0  0  0
    4.3190    0.0410   10.8150 C   0  0  0  0  0  0  0  0  0  0  0  0
    4.4440    0.1900    9.4230 C   0  0  0  0  0  3  0  0  0  0  0  0
    4.1910   -0.8600    8.5320 C   0  0  0  0  0  3  0  0  0  0  0  0
    3.7980   -2.0880    9.0800 C   0  0  0  0  0  0  0  0  0  0  0  0
    3.4640   -3.3150    8.5280 N   0  0  0  0  0  0  0  0  0  0  0  0
    3.4730   -3.5800    7.0930 C   0  0  0  0  0  3  0  0  0  0  0  0
    2.4230   -2.8080    6.2780 C   0  0  0  0  0  2  0  0  0  0  0  0
    2.4170   -3.2760    4.8210 C   0  0  0  0  0  2  0  0  0  0  0  0
    3.8050   -3.1640    4.1930 C   0  0  0  0  0  2  0  0  0  0  0  0
    4.8640   -3.9000    5.0100 C   0  0  0  0  0  2  0  0  0  0  0  0
    4.8700   -3.4510    6.4710 C   0  0  0  0  0  2  0  0  0  0  0  0
    4.5960    1.2070   11.7430 C   0  0  0  0  0  0  0  0  0  0  0  0
    4.2500    2.3640   11.3470 O   0  0  0  0  0  0  0  0  0  0  0  0
    5.1550    0.9390   12.8550 O   0  0  0  0  0  1  0  0  0  0  0  0
    0.9350   -9.2840    8.7810 O   0  0  0  0  0  0  0  0  0  0  0  0
    0.6420   -9.6430    7.4290 C   0  0  0  0  0  2  0  0  0  0  0  0
   -2.7170   -7.9500    6.7560 C   0  0  0  0  0  0  0  0  0  0  0  0
   -2.4510   -7.2110    5.6030 C   0  0  0  0  0  3  0  0  0  0  0  0
   -1.1730   -7.2330    5.0430 C   0  0  0  0  0  3  0  0  0  0  0  0
   -0.1370   -7.9980    5.6120 C   0  0  0  0  0  0  0  0  0  0  0  0
   -0.4130   -8.7740    6.7630 C   0  0  0  0  0  0  0  0  0  0  0  0
   -1.7110   -8.7440    7.3160 C   0  0  0  0  0  3  0  0  0  0  0  0
    1.1840   -7.9630    4.9730 C   0  0  0  0  0  0  0  0  0  0  0  0
    1.5610   -8.9510    4.0510 C   0  0  0  0  0  3  0  0  0  0  0  0
    2.8280   -8.9280    3.4600 C   0  0  0  0  0  3  0  0  0  0  0  0
    3.7260   -7.9160    3.7890 C   0  0  0  0  0  0  0  0  0  0  0  0
    5.2840   -7.8870    3.0590 Cl  0  0  0  0  0  0  0  0  0  0  0  0
    3.3740   -6.9320    4.7080 C   0  0  0  0  0  3  0  0  0  0  0  0
    2.1100   -6.9610    5.3030 C   0  0  0  0  0  3  0  0  0  0  0  0
   -4.6260  -10.3370    6.7470 C   0  0  0  0  0  1  0  0  0  0  0  0
   -4.9340   -8.9930    7.1700 N   0  0  0  0  0  0  0  0  0  0  0  0
   -4.0950   -7.9150    7.3060 C   0  0  0  0  0  0  0  0  0  0  0  0
   -4.4830   -6.9240    7.9180 O   0  0  0  0  0  0  0  0  0  0  0  0
   -5.8610   -8.8060    7.5340 H   0  0  0  0  0  0  0  0  0  0  0  0
  1  2  1  0  0  0  0
  2  3  2  0  0  0  0
  4  7  1  0  0  0  0
  4  3  1  0  0  0  0
  5  4  2  0  0  0  0
  6  5  1  0  0  0  0
  6  1  2  0  0  0  0
  7  8  2  0  0  0  0
  9  8  1  0  0  0  0
  9 10  1  0  0  0  0
 11 10  2  0  0  0  0
 11 22  1  0  0  0  0
 12 11  1  0  0  0  0
 13 14  1  0  0  0  0
 13 12  2  0  0  0  0
 14  9  2  0  0  0  0
 15 14  1  0  0  0  0
 15  7  1  0  0  0  0
 16 15  1  0  0  0  0
 17 16  1  0  0  0  0
 18 17  1  0  0  0  0
 19 18  1  0  0  0  0
 19 20  1  0  0  0  0
 20 21  1  0  0  0  0
 21 16  1  0  0  0  0
 22 24  1  0  0  0  0
 23 22  2  0  0  0  0
 25  1  1  0  0  0  0
 26 25  1  0  0  0  0
 27 42  1  0  0  0  0
 27 32  1  0  0  0  0
 28 27  2  0  0  0  0
 29 28  1  0  0  0  0
 29 30  2  0  0  0  0
 30 31  1  0  0  0  0
 31 32  2  0  0  0  0
 31 26  1  0  0  0  0
 33 39  1  0  0  0  0
 33 30  1  0  0  0  0
 34 33  2  0  0  0  0
 35 36  2  0  0  0  0
 35 34  1  0  0  0  0
 36 38  1  0  0  0  0
 37 36  1  0  0  0  0
 38 39  2  0  0  0  0
 40 41  1  0  0  0  0
 41 42  1  0  0  0  0
 41 44  1  0  0  0  0
 42 43  2  0  0  0  0
M  END
>  <minimizedAffinity>
-7.69862366

$$$$

 OpenBabel09122219153D

 44 49  0  0  0  0  0  0  0  0999 V2000
    3.0430   -5.4990   10.3350 C   0  0  0  0  0  0  0  0  0  0  0  0
    2.9790   -6.8910   10.2440 C   0  0  0  0  0  3  0  0  0  0  0  0
    1.8180   -7.5200    9.7890 C   0  0  0  0  0  3  0  0  0  0  0  0
    0.6910   -6.7610    9.4640 C   0  0  0  0  0  0  0  0  0  0  0  0
    0.7470   -5.3680    9.5890 C   0  0  0  0  0  3  0  0  0  0  0  0
    1.9140   -4.7400   10.0360 C   0  0  0  0  0  3  0  0  0  0  0  0
   -0.4840   -7.3960    8.8810 C   0  0  0  0  0  0  0  0  0  0  0  0
   -1.6310   -7.4770    9.5280 N   0  0  0  0  0  0  0  0  0  0  0  0
   -2.4770   -8.2000    8.7310 C   0  0  0  0  0  0  0  0  0  0  0  0
   -3.8010   -8.6010    8.9670 C   0  0  0  0  0  3  0  0  0  0  0  0
   -4.4830   -9.3700    8.0040 C   0  0  0  0  0  0  0  0  0  0  0  0
   -3.8130   -9.7140    6.8180 C   0  0  0  0  0  3  0  0  0  0  0  0
   -2.4940   -9.3180    6.5610 C   0  0  0  0  0  3  0  0  0  0  0  0
   -1.8490   -8.5560    7.5430 C   0  0  0  0  0  0  0  0  0  0  0  0
   -0.5790   -8.0070    7.6420 N   0  0  0  0  0  0  0  0  0  0  0  0
    0.4350   -8.1340    6.6010 C   0  0  0  0  0  3  0  0  0  0  0  0
    1.1840   -6.8380    6.2530 C   0  0  0  0  0  2  0  0  0  0  0  0
    2.1050   -7.0510    5.0510 C   0  0  0  0  0  2  0  0  0  0  0  0
    3.0740   -8.2080    5.2870 C   0  0  0  0  0  2  0  0  0  0  0  0
    2.3450   -9.4950    5.6660 C   0  0  0  0  0  2  0  0  0  0  0  0
    1.4100   -9.2920    6.8580 C   0  0  0  0  0  2  0  0  0  0  0  0
   -5.9080   -9.8270    8.2450 C   0  0  0  0  0  0  0  0  0  0  0  0
   -6.6180  -10.0900    7.2250 O   0  0  0  0  0  0  0  0  0  0  0  0
   -6.2880   -9.9150    9.4570 O   0  0  0  0  0  1  0  0  0  0  0  0
    4.2540   -5.0010   10.7300 O   0  0  0  0  0  0  0  0  0  0  0  0
    4.9500   -4.1410    9.8240 C   0  0  0  0  0  2  0  0  0  0  0  0
    3.9860   -0.6750   11.1090 C   0  0  0  0  0  0  0  0  0  0  0  0
    3.5580   -0.0360    9.9460 C   0  0  0  0  0  3  0  0  0  0  0  0
    3.5990   -0.7120    8.7260 C   0  0  0  0  0  3  0  0  0  0  0  0
    4.0570   -2.0410    8.6410 C   0  0  0  0  0  0  0  0  0  0  0  0
    4.4610   -2.7020    9.8240 C   0  0  0  0  0  0  0  0  0  0  0  0
    4.4100   -2.0060   11.0510 C   0  0  0  0  0  3  0  0  0  0  0  0
    4.0820   -2.6840    7.3210 C   0  0  0  0  0  0  0  0  0  0  0  0
    5.3010   -2.9850    6.6950 C   0  0  0  0  0  3  0  0  0  0  0  0
    5.3230   -3.5780    5.4280 C   0  0  0  0  0  3  0  0  0  0  0  0
    4.1250   -3.8710    4.7800 C   0  0  0  0  0  0  0  0  0  0  0  0
    4.1550   -4.6020    3.2230 Cl  0  0  0  0  0  0  0  0  0  0  0  0
    2.9070   -3.5710    5.3820 C   0  0  0  0  0  3  0  0  0  0  0  0
    2.8870   -2.9730    6.6440 C   0  0  0  0  0  3  0  0  0  0  0  0
    1.6360   -0.8590   13.0560 C   0  0  0  0  0  1  0  0  0  0  0  0
    2.7710    0.0250   13.1600 N   0  0  0  0  0  0  0  0  0  0  0  0
    3.9040    0.0740   12.3880 C   0  0  0  0  0  0  0  0  0  0  0  0
    4.8710    0.7210   12.7790 O   0  0  0  0  0  0  0  0  0  0  0  0
    2.8320    0.6330   13.9690 H   0  0  0  0  0  0  0  0  0  0  0  0
  1 25  1  0  0  0  0
  2  1  1  0  0  0  0
  3  2  2  0  0  0  0
  4  5  2  0  0  0  0
  4  3  1  0  0  0  0
  5  6  1  0  0  0  0
  6  1  2  0  0  0  0
  7  4  1  0  0  0  0
  7  8  2  0  0  0  0
  9 10  1  0  0  0  0
  9  8  1  0  0  0  0
 11 22  1  0  0  0  0
 11 10  2  0  0  0  0
 12 11  1  0  0  0  0
 13 12  2  0  0  0  0
 13 14  1  0  0  0  0
 14 15  1  0  0  0  0
 14  9  2  0  0  0  0
 15  7  1  0  0  0  0
 16 21  1  0  0  0  0
 16 15  1  0  0  0  0
 17 16  1  0  0  0  0
 18 19  1  0  0  0  0
 18 17  1  0  0  0  0
 19 20  1  0  0  0  0
 20 21  1  0  0  0  0
 22 24  1  0  0  0  0
 23 22  2  0  0  0  0
 26 25  1  0  0  0  0
 27 42  1  0  0  0  0
 28 27  2  0  0  0  0
 29 28  1  0  0  0  0
 30 29  2  0  0  0  0
 30 31  1  0  0  0  0
 31 26  1  0  0  0  0
 31 32  2  0  0  0  0
 32 27  1  0  0  0  0
 33 30  1  0  0  0  0
 34 33  1  0  0  0  0
 35 34  2  0  0  0  0
 36 38  2  0  0  0  0
 36 35  1  0  0  0  0
 37 36  1  0  0  0  0
 38 39  1  0  0  0  0
 39 33  2  0  0  0  0
 40 41  1  0  0  0  0
 41 44  1  0  0  0  0
 42 43  2  0  0  0  0
 42 41  1  0  0  0  0
M  END
>  <minimizedAffinity>
-7.11018324

$$$$

 OpenBabel09122219153D

 44 49  0  0  0  0  0  0  0  0999 V2000
    1.7150   -9.8690    8.4480 C   0  0  0  0  0  0  0  0  0  0  0  0
    0.9040   -9.7510    7.3180 C   0  0  0  0  0  3  0  0  0  0  0  0
    1.3410   -9.0330    6.2020 C   0  0  0  0  0  3  0  0  0  0  0  0
    2.5780   -8.3840    6.2260 C   0  0  0  0  0  0  0  0  0  0  0  0
    3.3740   -8.4760    7.3740 C   0  0  0  0  0  3  0  0  0  0  0  0
    2.9380   -9.2030    8.4870 C   0  0  0  0  0  3  0  0  0  0  0  0
    3.0930   -7.7300    5.0300 C   0  0  0  0  0  0  0  0  0  0  0  0
    3.2730   -8.3820    3.8970 N   0  0  0  0  0  0  0  0  0  0  0  0
    3.8410   -7.4940    3.0230 C   0  0  0  0  0  0  0  0  0  0  0  0
    4.2640   -7.6910    1.7000 C   0  0  0  0  0  3  0  0  0  0  0  0
    4.8510   -6.6280    0.9860 C   0  0  0  0  0  0  0  0  0  0  0  0
    4.9920   -5.3840    1.6240 C   0  0  0  0  0  3  0  0  0  0  0  0
    4.5690   -5.1660    2.9420 C   0  0  0  0  0  3  0  0  0  0  0  0
    3.9930   -6.2480    3.6200 C   0  0  0  0  0  0  0  0  0  0  0  0
    3.4810   -6.4080    4.8980 N   0  0  0  0  0  0  0  0  0  0  0  0
    3.4370   -5.3360    5.8870 C   0  0  0  0  0  3  0  0  0  0  0  0
    4.8040   -4.8880    6.4280 C   0  0  0  0  0  2  0  0  0  0  0  0
    4.6320   -3.8770    7.5640 C   0  0  0  0  0  2  0  0  0  0  0  0
    3.7870   -2.6830    7.1260 C   0  0  0  0  0  2  0  0  0  0  0  0
    2.4380   -3.1150    6.5550 C   0  0  0  0  0  2  0  0  0  0  0  0
    2.5960   -4.1370    5.4290 C   0  0  0  0  0  2  0  0  0  0  0  0
    5.3290   -6.8220   -0.4390 C   0  0  0  0  0  0  0  0  0  0  0  0
    5.3630   -8.0110   -0.8870 O   0  0  0  0  0  1  0  0  0  0  0  0
    5.6610   -5.7760   -1.0830 O   0  0  0  0  0  0  0  0  0  0  0  0
    1.2040  -10.6510    9.4470 O   0  0  0  0  0  0  0  0  0  0  0  0
    0.4040  -10.0180   10.4480 C   0  0  0  0  0  2  0  0  0  0  0  0
   -3.1650   -9.6610    9.1310 C   0  0  0  0  0  0  0  0  0  0  0  0
   -3.2680   -8.2860    8.9210 C   0  0  0  0  0  3  0  0  0  0  0  0
   -2.1910   -7.4540    9.2270 C   0  0  0  0  0  3  0  0  0  0  0  0
   -0.9850   -7.9740    9.7380 C   0  0  0  0  0  0  0  0  0  0  0  0
   -0.8670   -9.3720    9.9210 C   0  0  0  0  0  0  0  0  0  0  0  0
   -1.9650  -10.2010    9.6030 C   0  0  0  0  0  3  0  0  0  0  0  0
    0.1010   -7.0360   10.0470 C   0  0  0  0  0  0  0  0  0  0  0  0
    0.4360   -6.7420   11.3780 C   0  0  0  0  0  3  0  0  0  0  0  0
    1.4560   -5.8320   11.6700 C   0  0  0  0  0  3  0  0  0  0  0  0
    2.1460   -5.2090   10.6330 C   0  0  0  0  0  0  0  0  0  0  0  0
    3.4030   -4.0910   10.9950 Cl  0  0  0  0  0  0  0  0  0  0  0  0
    1.8220   -5.4810    9.3070 C   0  0  0  0  0  3  0  0  0  0  0  0
    0.7970   -6.3850    9.0170 C   0  0  0  0  0  3  0  0  0  0  0  0
   -5.4550  -10.3340   11.0420 C   0  0  0  0  0  1  0  0  0  0  0  0
   -5.2630  -10.8590    9.7120 N   0  0  0  0  0  0  0  0  0  0  0  0
   -4.3280  -10.5110    8.7700 C   0  0  0  0  0  0  0  0  0  0  0  0
   -4.4750  -10.8830    7.6100 O   0  0  0  0  0  0  0  0  0  0  0  0
   -5.9630  -11.4930    9.3410 H   0  0  0  0  0  0  0  0  0  0  0  0
  1  6  1  0  0  0  0
  1 25  1  0  0  0  0
  2  1  2  0  0  0  0
  3  4  2  0  0  0  0
  3  2  1  0  0  0  0
  4  5  1  0  0  0  0
  5  6  2  0  0  0  0
  7  4  1  0  0  0  0
  8  7  2  0  0  0  0
  9 14  1  0  0  0  0
  9  8  1  0  0  0  0
 10  9  2  0  0  0  0
 11 12  2  0  0  0  0
 11 10  1  0  0  0  0
 12 13  1  0  0  0  0
 13 14  2  0  0  0  0
 14 15  1  0  0  0  0
 15  7  1  0  0  0  0
 15 16  1  0  0  0  0
 16 17  1  0  0  0  0
 17 18  1  0  0  0  0
 19 18  1  0  0  0  0
 20 19  1  0  0  0  0
 21 16  1  0  0  0  0
 21 20  1  0  0  0  0
 22 11  1  0  0  0  0
 23 22  1  0  0  0  0
 24 22  2  0  0  0  0
 25 26  1  0  0  0  0
 27 32  1  0  0  0  0
 28 27  2  0  0  0  0
 28 29  1  0  0  0  0
 29 30  2  0  0  0  0
 30 31  1  0  0  0  0
 30 33  1  0  0  0  0
 31 26  1  0  0  0  0
 32 31  2  0  0  0  0
 33 34  1  0  0  0  0
 34 35  2  0  0  0  0
 36 37  1  0  0  0  0
 36 35  1  0  0  0  0
 38 36  2  0  0  0  0
 39 38  1  0  0  0  0
 39 33  2  0  0  0  0
 41 40  1  0  0  0  0
 42 27  1  0  0  0  0
 42 41  1  0  0  0  0
 43 42  2  0  0  0  0
 44 41  1  0  0  0  0
M  END
>  <minimizedAffinity>
-6.8724885

$$$$

 OpenBabel09122219153D

 44 49  0  0  0  0  0  0  0  0999 V2000
    2.8980   -8.9070    8.8290 C   0  0  0  0  0  0  0  0  0  0  0  0
    1.8880   -8.0930    9.3460 C   0  0  0  0  0  3  0  0  0  0  0  0
    2.1070   -6.7270    9.5410 C   0  0  0  0  0  3  0  0  0  0  0  0
    3.3590   -6.1720    9.2660 C   0  0  0  0  0  0  0  0  0  0  0  0
    4.3800   -6.9970    8.7800 C   0  0  0  0  0  3  0  0  0  0  0  0
    4.1550   -8.3630    8.5760 C   0  0  0  0  0  3  0  0  0  0  0  0
    3.5650   -4.7320    9.3570 C   0  0  0  0  0  0  0  0  0  0  0  0
    3.7190   -4.1180   10.5150 N   0  0  0  0  0  0  0  0  0  0  0  0
    3.8010   -2.7800   10.2380 C   0  0  0  0  0  0  0  0  0  0  0  0
    3.9320   -1.6930   11.1160 C   0  0  0  0  0  3  0  0  0  0  0  0
    3.9730   -0.3810   10.6060 C   0  0  0  0  0  0  0  0  0  0  0  0
    3.8870   -0.1940    9.2160 C   0  0  0  0  0  3  0  0  0  0  0  0
    3.7630   -1.2670    8.3230 C   0  0  0  0  0  3  0  0  0  0  0  0
    3.7230   -2.5560    8.8680 C   0  0  0  0  0  0  0  0  0  0  0  0
    3.6010   -3.8220    8.3150 N   0  0  0  0  0  0  0  0  0  0  0  0
    3.4890   -4.0640    6.8810 C   0  0  0  0  0  3  0  0  0  0  0  0
    4.7830   -4.5260    6.1910 C   0  0  0  0  0  2  0  0  0  0  0  0
    4.5930   -4.5980    4.6750 C   0  0  0  0  0  2  0  0  0  0  0  0
    3.4120   -5.4920    4.3020 C   0  0  0  0  0  2  0  0  0  0  0  0
    2.1260   -5.0640    5.0050 C   0  0  0  0  0  2  0  0  0  0  0  0
    2.3070   -4.9750    6.5200 C   0  0  0  0  0  2  0  0  0  0  0  0
    4.0990    0.8090   11.5370 C   0  0  0  0  0  0  0  0  0  0  0  0
    3.9400    0.5980   12.7790 O   0  0  0  0  0  1  0  0  0  0  0  0
    4.3570    1.9350   11.0020 O   0  0  0  0  0  0  0  0  0  0  0  0
    2.5390  -10.2100    8.6210 O   0  0  0  0  0  0  0  0  0  0  0  0
    1.5140  -10.4750    7.6610 C   0  0  0  0  0  2  0  0  0  0  0  0
    3.3160   -9.7550    4.3690 C   0  0  0  0  0  0  0  0  0  0  0  0
    2.4160   -8.9130    3.7170 C   0  0  0  0  0  3  0  0  0  0  0  0
    1.2020   -8.5890    4.3240 C   0  0  0  0  0  3  0  0  0  0  0  0
    0.8650   -9.0850    5.5970 C   0  0  0  0  0  0  0  0  0  0  0  0
    1.7900   -9.9130    6.2760 C   0  0  0  0  0  0  0  0  0  0  0  0
    3.0150  -10.2290    5.6500 C   0  0  0  0  0  3  0  0  0  0  0  0
   -0.4350   -8.7090    6.1680 C   0  0  0  0  0  0  0  0  0  0  0  0
   -1.5720   -9.5000    5.9410 C   0  0  0  0  0  3  0  0  0  0  0  0
   -2.8130   -9.1280    6.4670 C   0  0  0  0  0  3  0  0  0  0  0  0
   -2.9250   -7.9640    7.2220 C   0  0  0  0  0  0  0  0  0  0  0  0
   -4.4520   -7.5100    7.8710 Cl  0  0  0  0  0  0  0  0  0  0  0  0
   -1.8100   -7.1620    7.4510 C   0  0  0  0  0  3  0  0  0  0  0  0
   -0.5720   -7.5320    6.9180 C   0  0  0  0  0  3  0  0  0  0  0  0
    3.5480  -10.8920    1.5410 C   0  0  0  0  0  1  0  0  0  0  0  0
    4.6310  -10.6650    2.4680 N   0  0  0  0  0  0  0  0  0  0  0  0
    4.6050  -10.0560    3.6970 C   0  0  0  0  0  0  0  0  0  0  0  0
    5.6620   -9.7280    4.2280 O   0  0  0  0  0  0  0  0  0  0  0  0
    5.5750  -10.8670    2.1600 H   0  0  0  0  0  0  0  0  0  0  0  0
  1  2  1  0  0  0  0
  2  3  2  0  0  0  0
  4  7  1  0  0  0  0
  4  3  1  0  0  0  0
  5  4  2  0  0  0  0
  6  5  1  0  0  0  0
  6  1  2  0  0  0  0
  7  8  2  0  0  0  0
  9  8  1  0  0  0  0
  9 10  1  0  0  0  0
 11 10  2  0  0  0  0
 11 22  1  0  0  0  0
 12 11  1  0  0  0  0
 13 14  1  0  0  0  0
 13 12  2  0  0  0  0
 14  9  2  0  0  0  0
 15 14  1  0  0  0  0
 15  7  1  0  0  0  0
 16 15  1  0  0  0  0
 17 16  1  0  0  0  0
 18 17  1  0  0  0  0
 19 18  1  0  0  0  0
 19 20  1  0  0  0  0
 20 21  1  0  0  0  0
 21 16  1  0  0  0  0
 22 23  1  0  0  0  0
 24 22  2  0  0  0  0
 25  1  1  0  0  0  0
 26 25  1  0  0  0  0
 27 32  1  0  0  0  0
 28 29  1  0  0  0  0
 28 27  2  0  0  0  0
 29 30  2  0  0  0  0
 30 33  1  0  0  0  0
 30 31  1  0  0  0  0
 31 26  1  0  0  0  0
 32 31  2  0  0  0  0
 33 39  1  0  0  0  0
 34 33  2  0  0  0  0
 34 35  1  0  0  0  0
 35 36  2  0  0  0  0
 36 38  1  0  0  0  0
 36 37  1  0  0  0  0
 39 38  2  0  0  0  0
 40 41  1  0  0  0  0
 41 42  1  0  0  0  0
 42 43  2  0  0  0  0
 42 27  1  0  0  0  0
 44 41  1  0  0  0  0
M  END
>  <minimizedAffinity>
-6.57682753

$$$$

 OpenBabel09122219153D

 44 49  0  0  0  0  0  0  0  0999 V2000
    1.9080   -8.7400    5.3210 C   0  0  0  0  0  0  0  0  0  0  0  0
    1.3110   -7.7370    6.0880 C   0  0  0  0  0  3  0  0  0  0  0  0
    0.1410   -7.9930    6.8060 C   0  0  0  0  0  3  0  0  0  0  0  0
   -0.4720   -9.2460    6.7240 C   0  0  0  0  0  0  0  0  0  0  0  0
    0.1090  -10.2380    5.9270 C   0  0  0  0  0  3  0  0  0  0  0  0
    1.2870   -9.9830    5.2160 C   0  0  0  0  0  3  0  0  0  0  0  0
   -1.6270   -9.5590    7.5550 C   0  0  0  0  0  0  0  0  0  0  0  0
   -2.8120   -9.8220    7.0390 N   0  0  0  0  0  0  0  0  0  0  0  0
   -3.6700   -9.9830    8.0940 C   0  0  0  0  0  0  0  0  0  0  0  0
   -5.0490  -10.2410    8.0910 C   0  0  0  0  0  3  0  0  0  0  0  0
   -5.7440  -10.3480    9.3120 C   0  0  0  0  0  0  0  0  0  0  0  0
   -5.0280  -10.1970   10.5110 C   0  0  0  0  0  3  0  0  0  0  0  0
   -3.6500   -9.9460   10.5340 C   0  0  0  0  0  3  0  0  0  0  0  0
   -2.9940   -9.8440    9.3010 C   0  0  0  0  0  0  0  0  0  0  0  0
   -1.6780   -9.6010    8.9380 N   0  0  0  0  0  0  0  0  0  0  0  0
   -0.6040   -9.3920    9.9030 C   0  0  0  0  0  3  0  0  0  0  0  0
    0.6790  -10.1970    9.6410 C   0  0  0  0  0  2  0  0  0  0  0  0
    1.6720  -10.0220   10.7910 C   0  0  0  0  0  2  0  0  0  0  0  0
    1.9810   -8.5480   11.0440 C   0  0  0  0  0  2  0  0  0  0  0  0
    0.7120   -7.7290   11.2740 C   0  0  0  0  0  2  0  0  0  0  0  0
   -0.2950   -7.9070   10.1380 C   0  0  0  0  0  2  0  0  0  0  0  0
   -7.2370  -10.6110    9.3330 C   0  0  0  0  0  0  0  0  0  0  0  0
   -7.7970  -10.8920    8.2280 O   0  0  0  0  0  0  0  0  0  0  0  0
   -7.8200  -10.5310   10.4620 O   0  0  0  0  0  1  0  0  0  0  0  0
    3.0840   -8.3860    4.7210 O   0  0  0  0  0  0  0  0  0  0  0  0
    3.4440   -7.0020    4.7230 C   0  0  0  0  0  2  0  0  0  0  0  0
    4.6550   -6.9880    1.0980 C   0  0  0  0  0  0  0  0  0  0  0  0
    4.8860   -5.6320    0.8690 C   0  0  0  0  0  3  0  0  0  0  0  0
    4.6290   -4.7020    1.8770 C   0  0  0  0  0  3  0  0  0  0  0  0
    4.1480   -5.1040    3.1380 C   0  0  0  0  0  0  0  0  0  0  0  0
    3.9430   -6.4820    3.3840 C   0  0  0  0  0  0  0  0  0  0  0  0
    4.2110   -7.4100    2.3560 C   0  0  0  0  0  3  0  0  0  0  0  0
    3.8900   -4.0670    4.1450 C   0  0  0  0  0  0  0  0  0  0  0  0
    4.8540   -3.7580    5.1170 C   0  0  0  0  0  3  0  0  0  0  0  0
    4.5980   -2.7860    6.0890 C   0  0  0  0  0  3  0  0  0  0  0  0
    3.3760   -2.1180    6.0950 C   0  0  0  0  0  0  0  0  0  0  0  0
    3.0640   -0.9200    7.2900 Cl  0  0  0  0  0  0  0  0  0  0  0  0
    2.4040   -2.4180    5.1450 C   0  0  0  0  0  3  0  0  0  0  0  0
    2.6590   -3.3940    4.1790 C   0  0  0  0  0  3  0  0  0  0  0  0
    3.4620   -9.7960    0.8910 C   0  0  0  0  0  1  0  0  0  0  0  0
    4.4740   -9.2260    0.0350 N   0  0  0  0  0  0  0  0  0  0  0  0
    4.9630   -7.9440    0.0060 C   0  0  0  0  0  0  0  0  0  0  0  0
    5.6350   -7.5780   -0.9540 O   0  0  0  0  0  0  0  0  0  0  0  0
    4.8160   -9.7840   -0.7400 H   0  0  0  0  0  0  0  0  0  0  0  0
  1  2  1  0  0  0  0
  2  3  2  0  0  0  0
  4  3  1  0  0  0  0
  4  7  1  0  0  0  0
  5  4  2  0  0  0  0
  6  1  2  0  0  0  0
  6  5  1  0  0  0  0
  7 15  1  0  0  0  0
  8  7  2  0  0  0  0
  8  9  1  0  0  0  0
  9 14  1  0  0  0  0
 10  9  2  0  0  0  0
 10 11  1  0  0  0  0
 11 22  1  0  0  0  0
 11 12  2  0  0  0  0
 12 13  1  0  0  0  0
 14 13  2  0  0  0  0
 15 14  1  0  0  0  0
 15 16  1  0  0  0  0
 16 21  1  0  0  0  0
 17 16  1  0  0  0  0
 17 18  1  0  0  0  0
 18 19  1  0  0  0  0
 19 20  1  0  0  0  0
 21 20  1  0  0  0  0
 22 24  1  0  0  0  0
 23 22  2  0  0  0  0
 25 26  1  0  0  0  0
 25  1  1  0  0  0  0
 27 32  1  0  0  0  0
 28 27  2  0  0  0  0
 28 29  1  0  0  0  0
 29 30  2  0  0  0  0
 30 31  1  0  0  0  0
 30 33  1  0  0  0  0
 31 26  1  0  0  0  0
 32 31  2  0  0  0  0
 33 39  2  0  0  0  0
 33 34  1  0  0  0  0
 34 35  2  0  0  0  0
 35 36  1  0  0  0  0
 36 37  1  0  0  0  0
 38 36  2  0  0  0  0
 39 38  1  0  0  0  0
 41 40  1  0  0  0  0
 42 41  1  0  0  0  0
 42 27  1  0  0  0  0
 43 42  2  0  0  0  0
 44 41  1  0  0  0  0
M  END
>  <minimizedAffinity>
-6.42951012

$$$$

 OpenBabel09122219153D

 44 49  0  0  0  0  0  0  0  0999 V2000
    4.1530   -5.1140    8.2460 C   0  0  0  0  0  0  0  0  0  0  0  0
    4.0830   -6.4730    8.5580 C   0  0  0  0  0  3  0  0  0  0  0  0
    3.2230   -7.3200    7.8570 C   0  0  0  0  0  3  0  0  0  0  0  0
    2.3860   -6.8030    6.8640 C   0  0  0  0  0  0  0  0  0  0  0  0
    2.4330   -5.4350    6.5760 C   0  0  0  0  0  3  0  0  0  0  0  0
    3.3030   -4.5900    7.2740 C   0  0  0  0  0  3  0  0  0  0  0  0
    1.5690   -7.6940    6.0490 C   0  0  0  0  0  0  0  0  0  0  0  0
    0.2510   -7.6760    6.0980 N   0  0  0  0  0  0  0  0  0  0  0  0
   -0.1820   -8.6850    5.2810 C   0  0  0  0  0  0  0  0  0  0  0  0
   -1.4900   -9.1140    5.0090 C   0  0  0  0  0  3  0  0  0  0  0  0
   -1.7050  -10.2040    4.1420 C   0  0  0  0  0  0  0  0  0  0  0  0
   -0.5910  -10.8350    3.5630 C   0  0  0  0  0  3  0  0  0  0  0  0
    0.7220  -10.4170    3.8170 C   0  0  0  0  0  3  0  0  0  0  0  0
    0.8950   -9.3320    4.6860 C   0  0  0  0  0  0  0  0  0  0  0  0
    2.0110   -8.6640    5.1670 N   0  0  0  0  0  0  0  0  0  0  0  0
    3.3780   -9.0140    4.7970 C   0  0  0  0  0  3  0  0  0  0  0  0
    3.8420  -10.4100    5.2420 C   0  0  0  0  0  2  0  0  0  0  0  0
    5.3280  -10.6090    4.9420 C   0  0  0  0  0  2  0  0  0  0  0  0
    5.6380  -10.3630    3.4660 C   0  0  0  0  0  2  0  0  0  0  0  0
    5.1540   -8.9910    3.0020 C   0  0  0  0  0  2  0  0  0  0  0  0
    3.6730   -8.7740    3.3090 C   0  0  0  0  0  2  0  0  0  0  0  0
   -3.1080  -10.6940    3.8460 C   0  0  0  0  0  0  0  0  0  0  0  0
   -3.8810  -10.8870    4.8350 O   0  0  0  0  0  1  0  0  0  0  0  0
   -3.4100  -10.8740    2.6220 O   0  0  0  0  0  0  0  0  0  0  0  0
    5.0810   -4.4050    8.9570 O   0  0  0  0  0  0  0  0  0  0  0  0
    5.2000   -4.6760   10.3560 C   0  0  0  0  0  2  0  0  0  0  0  0
    4.4830   -1.5140   12.3780 C   0  0  0  0  0  0  0  0  0  0  0  0
    3.2240   -1.7840   12.9140 C   0  0  0  0  0  3  0  0  0  0  0  0
    2.5810   -2.9840   12.6090 C   0  0  0  0  0  3  0  0  0  0  0  0
    3.1820   -3.9440   11.7710 C   0  0  0  0  0  0  0  0  0  0  0  0
    4.4720   -3.6860   11.2510 C   0  0  0  0  0  0  0  0  0  0  0  0
    5.1110   -2.4690   11.5730 C   0  0  0  0  0  3  0  0  0  0  0  0
    2.4400   -5.1780   11.4850 C   0  0  0  0  0  0  0  0  0  0  0  0
    2.8280   -6.3970   12.0620 C   0  0  0  0  0  3  0  0  0  0  0  0
    2.1330   -7.5750   11.7710 C   0  0  0  0  0  3  0  0  0  0  0  0
    1.0470   -7.5410   10.9010 C   0  0  0  0  0  0  0  0  0  0  0  0
    0.1910   -8.9910   10.5460 Cl  0  0  0  0  0  0  0  0  0  0  0  0
    0.6520   -6.3430   10.3120 C   0  0  0  0  0  3  0  0  0  0  0  0
    1.3520   -5.1680   10.5990 C   0  0  0  0  0  3  0  0  0  0  0  0
    4.7840    0.8680   10.4850 C   0  0  0  0  0  1  0  0  0  0  0  0
    5.3350    0.7510   11.8130 N   0  0  0  0  0  0  0  0  0  0  0  0
    5.1400   -0.2350   12.7470 C   0  0  0  0  0  0  0  0  0  0  0  0
    5.4850   -0.0400   13.9090 O   0  0  0  0  0  0  0  0  0  0  0  0
    5.8500    1.5390   12.1890 H   0  0  0  0  0  0  0  0  0  0  0  0
  1  2  1  0  0  0  0
  1 25  1  0  0  0  0
  3  2  2  0  0  0  0
  4  3  1  0  0  0  0
  5  4  2  0  0  0  0
  5  6  1  0  0  0  0
  6  1  2  0  0  0  0
  7  8  2  0  0  0  0
  7  4  1  0  0  0  0
  9  8  1  0  0  0  0
 10  9  1  0  0  0  0
 11 10  2  0  0  0  0
 12 13  2  0  0  0  0
 12 11  1  0  0  0  0
 13 14  1  0  0  0  0
 14 15  1  0  0  0  0
 14  9  2  0  0  0  0
 15  7  1  0  0  0  0
 16 15  1  0  0  0  0
 16 17  1  0  0  0  0
 18 17  1  0  0  0  0
 19 18  1  0  0  0  0
 20 21  1  0  0  0  0
 20 19  1  0  0  0  0
 21 16  1  0  0  0  0
 22 11  1  0  0  0  0
 22 23  1  0  0  0  0
 24 22  2  0  0  0  0
 25 26  1  0  0  0  0
 26 31  1  0  0  0  0
 27 42  1  0  0  0  0
 27 28  1  0  0  0  0
 29 28  2  0  0  0  0
 30 29  1  0  0  0  0
 31 32  1  0  0  0  0
 31 30  2  0  0  0  0
 32 27  2  0  0  0  0
 33 30  1  0  0  0  0
 33 34  1  0  0  0  0
 35 34  2  0  0  0  0
 36 35  1  0  0  0  0
 37 36  1  0  0  0  0
 38 39  1  0  0  0  0
 38 36  2  0  0  0  0
 39 33  2  0  0  0  0
 40 41  1  0  0  0  0
 41 44  1  0  0  0  0
 41 42  1  0  0  0  0
 42 43  2  0  0  0  0
M  END
>  <minimizedAffinity>
-6.40060186

$$$$

 OpenBabel09122219153D

 44 49  0  0  0  0  0  0  0  0999 V2000
    1.9560   -7.2680    8.7510 C   0  0  0  0  0  0  0  0  0  0  0  0
    0.8870   -6.3720    8.8010 C   0  0  0  0  0  3  0  0  0  0  0  0
   -0.4300   -6.8360    8.8150 C   0  0  0  0  0  3  0  0  0  0  0  0
   -0.6910   -8.2070    8.7290 C   0  0  0  0  0  0  0  0  0  0  0  0
    0.3820   -9.1010    8.6440 C   0  0  0  0  0  3  0  0  0  0  0  0
    1.7010   -8.6340    8.6400 C   0  0  0  0  0  3  0  0  0  0  0  0
   -2.0530   -8.7090    8.8570 C   0  0  0  0  0  0  0  0  0  0  0  0
   -2.6880   -8.7240   10.0130 N   0  0  0  0  0  0  0  0  0  0  0  0
   -3.8940   -9.3310    9.7870 C   0  0  0  0  0  0  0  0  0  0  0  0
   -4.9270   -9.6290   10.6890 C   0  0  0  0  0  3  0  0  0  0  0  0
   -6.0860  -10.2880   10.2340 C   0  0  0  0  0  0  0  0  0  0  0  0
   -6.1800  -10.6270    8.8740 C   0  0  0  0  0  3  0  0  0  0  0  0
   -5.1630  -10.3320    7.9570 C   0  0  0  0  0  3  0  0  0  0  0  0
   -4.0250   -9.6790    8.4470 C   0  0  0  0  0  0  0  0  0  0  0  0
   -2.8460   -9.2460    7.8580 N   0  0  0  0  0  0  0  0  0  0  0  0
   -2.5510   -9.4060    6.4390 C   0  0  0  0  0  3  0  0  0  0  0  0
   -2.9080  -10.7790    5.8460 C   0  0  0  0  0  2  0  0  0  0  0  0
   -2.4150  -10.8910    4.4030 C   0  0  0  0  0  2  0  0  0  0  0  0
   -2.9550   -9.7530    3.5380 C   0  0  0  0  0  2  0  0  0  0  0  0
   -2.6350   -8.3830    4.1320 C   0  0  0  0  0  2  0  0  0  0  0  0
   -3.1100   -8.2640    5.5800 C   0  0  0  0  0  2  0  0  0  0  0  0
   -7.2080  -10.6330   11.1940 C   0  0  0  0  0  0  0  0  0  0  0  0
   -8.3900  -10.6460   10.7300 O   0  0  0  0  0  0  0  0  0  0  0  0
   -6.8790  -10.8860   12.3970 O   0  0  0  0  0  1  0  0  0  0  0  0
    3.1950   -6.6940    8.8110 O   0  0  0  0  0  0  0  0  0  0  0  0
    3.9900   -6.6940    7.6220 C   0  0  0  0  0  2  0  0  0  0  0  0
    4.0460   -2.9850    6.7040 C   0  0  0  0  0  0  0  0  0  0  0  0
    3.6860   -3.0080    5.3570 C   0  0  0  0  0  3  0  0  0  0  0  0
    3.4440   -4.2270    4.7220 C   0  0  0  0  0  3  0  0  0  0  0  0
    3.5450   -5.4470    5.4180 C   0  0  0  0  0  0  0  0  0  0  0  0
    3.8780   -5.4250    6.7930 C   0  0  0  0  0  0  0  0  0  0  0  0
    4.1160   -4.1840    7.4210 C   0  0  0  0  0  3  0  0  0  0  0  0
    3.2870   -6.6900    4.6810 C   0  0  0  0  0  0  0  0  0  0  0  0
    4.0330   -7.0120    3.5360 C   0  0  0  0  0  3  0  0  0  0  0  0
    3.7710   -8.1860    2.8230 C   0  0  0  0  0  3  0  0  0  0  0  0
    2.7620   -9.0450    3.2500 C   0  0  0  0  0  0  0  0  0  0  0  0
    2.4440  -10.4900    2.3730 Cl  0  0  0  0  0  0  0  0  0  0  0  0
    2.0060   -8.7390    4.3780 C   0  0  0  0  0  3  0  0  0  0  0  0
    2.2650   -7.5620    5.0850 C   0  0  0  0  0  3  0  0  0  0  0  0
    1.8610   -1.3560    8.0900 C   0  0  0  0  0  1  0  0  0  0  0  0
    3.2220   -0.9420    7.8530 N   0  0  0  0  0  0  0  0  0  0  0  0
    4.2710   -1.6650    7.3450 C   0  0  0  0  0  0  0  0  0  0  0  0
    5.4130   -1.2270    7.4520 O   0  0  0  0  0  0  0  0  0  0  0  0
    3.5150   -0.0360    8.2010 H   0  0  0  0  0  0  0  0  0  0  0  0
  1  2  1  0  0  0  0
  1 25  1  0  0  0  0
  2  3  2  0  0  0  0
  4  3  1  0  0  0  0
  4  7  1  0  0  0  0
  5  4  2  0  0  0  0
  6  5  1  0  0  0  0
  6  1  2  0  0  0  0
  7  8  2  0  0  0  0
  9  8  1  0  0  0  0
  9 10  1  0  0  0  0
 11 10  2  0  0  0  0
 11 22  1  0  0  0  0
 12 11  1  0  0  0  0
 13 14  1  0  0  0  0
 13 12  2  0  0  0  0
 14  9  2  0  0  0  0
 15 14  1  0  0  0  0
 15  7  1  0  0  0  0
 16 15  1  0  0  0  0
 17 16  1  0  0  0  0
 18 17  1  0  0  0  0
 19 20  1  0  0  0  0
 19 18  1  0  0  0  0
 20 21  1  0  0  0  0
 21 16  1  0  0  0  0
 22 24  1  0  0  0  0
 23 22  2  0  0  0  0
 26 25  1  0  0  0  0
 27 42  1  0  0  0  0
 27 32  1  0  0  0  0
 28 27  2  0  0  0  0
 29 28  1  0  0  0  0
 29 30  2  0  0  0  0
 30 31  1  0  0  0  0
 31 32  2  0  0  0  0
 31 26  1  0  0  0  0
 33 39  1  0  0  0  0
 33 30  1  0  0  0  0
 34 33  2  0  0  0  0
 35 36  2  0  0  0  0
 35 34  1  0  0  0  0
 36 38  1  0  0  0  0
 37 36  1  0  0  0  0
 38 39  2  0  0  0  0
 41 40  1  0  0  0  0
 41 44  1  0  0  0  0
 42 43  2  0  0  0  0
 42 41  1  0  0  0  0
M  END
>  <minimizedAffinity>
-6.15197611

$$$$

 OpenBabel09122219153D

 44 49  0  0  0  0  0  0  0  0999 V2000
    2.1990  -10.0580    8.5000 C   0  0  0  0  0  0  0  0  0  0  0  0
    1.4210  -10.1340    7.3440 C   0  0  0  0  0  3  0  0  0  0  0  0
    1.7620   -9.3950    6.2080 C   0  0  0  0  0  3  0  0  0  0  0  0
    2.8620   -8.5340    6.2370 C   0  0  0  0  0  0  0  0  0  0  0  0
    3.6200   -8.4340    7.4090 C   0  0  0  0  0  3  0  0  0  0  0  0
    3.2820   -9.1820    8.5420 C   0  0  0  0  0  3  0  0  0  0  0  0
    3.2940   -7.8470    5.0260 C   0  0  0  0  0  0  0  0  0  0  0  0
    3.5130   -8.4900    3.8960 N   0  0  0  0  0  0  0  0  0  0  0  0
    3.9820   -7.5620    3.0050 C   0  0  0  0  0  0  0  0  0  0  0  0
    4.3990   -7.7330    1.6760 C   0  0  0  0  0  3  0  0  0  0  0  0
    4.8730   -6.6270    0.9430 C   0  0  0  0  0  0  0  0  0  0  0  0
    4.9110   -5.3690    1.5680 C   0  0  0  0  0  3  0  0  0  0  0  0
    4.4930   -5.1780    2.8920 C   0  0  0  0  0  3  0  0  0  0  0  0
    4.0310   -6.3020    3.5890 C   0  0  0  0  0  0  0  0  0  0  0  0
    3.5570   -6.4960    4.8770 N   0  0  0  0  0  0  0  0  0  0  0  0
    3.4330   -5.4230    5.8580 C   0  0  0  0  0  3  0  0  0  0  0  0
    4.7620   -4.8900    6.4180 C   0  0  0  0  0  2  0  0  0  0  0  0
    4.5110   -3.8860    7.5440 C   0  0  0  0  0  2  0  0  0  0  0  0
    3.6020   -2.7470    7.0850 C   0  0  0  0  0  2  0  0  0  0  0  0
    2.2910   -3.2640    6.4970 C   0  0  0  0  0  2  0  0  0  0  0  0
    2.5280   -4.2790    5.3790 C   0  0  0  0  0  2  0  0  0  0  0  0
    5.3430   -6.7900   -0.4890 C   0  0  0  0  0  0  0  0  0  0  0  0
    5.6620   -5.7370   -1.1230 O   0  0  0  0  0  0  0  0  0  0  0  0
    5.3840   -7.9760   -0.9510 O   0  0  0  0  0  1  0  0  0  0  0  0
    1.8000  -10.8780    9.5190 O   0  0  0  0  0  0  0  0  0  0  0  0
    0.5390  -10.6120   10.1360 C   0  0  0  0  0  2  0  0  0  0  0  0
    1.0050   -7.1270   11.6310 C   0  0  0  0  0  0  0  0  0  0  0  0
   -0.0850   -6.4320   11.1070 C   0  0  0  0  0  3  0  0  0  0  0  0
   -0.9710   -7.0760   10.2430 C   0  0  0  0  0  3  0  0  0  0  0  0
   -0.7970   -8.4290    9.8920 C   0  0  0  0  0  0  0  0  0  0  0  0
    0.2890   -9.1450   10.4470 C   0  0  0  0  0  0  0  0  0  0  0  0
    1.1740   -8.4800   11.3230 C   0  0  0  0  0  3  0  0  0  0  0  0
   -1.7630   -9.0370    8.9680 C   0  0  0  0  0  0  0  0  0  0  0  0
   -1.8570   -8.5970    7.6390 C   0  0  0  0  0  3  0  0  0  0  0  0
   -2.7930   -9.1630    6.7670 C   0  0  0  0  0  3  0  0  0  0  0  0
   -3.6410  -10.1700    7.2200 C   0  0  0  0  0  0  0  0  0  0  0  0
   -4.7900  -10.8660    6.1450 Cl  0  0  0  0  0  0  0  0  0  0  0  0
   -3.5680  -10.6130    8.5380 C   0  0  0  0  0  3  0  0  0  0  0  0
   -2.6370  -10.0420    9.4090 C   0  0  0  0  0  3  0  0  0  0  0  0
    3.6040   -5.7580   10.7840 C   0  0  0  0  0  1  0  0  0  0  0  0
    3.1130   -5.9110   12.1320 N   0  0  0  0  0  0  0  0  0  0  0  0
    1.9090   -6.4080   12.5630 C   0  0  0  0  0  0  0  0  0  0  0  0
    1.5650   -6.2260   13.7280 O   0  0  0  0  0  0  0  0  0  0  0  0
    3.6520   -5.5030   12.8880 H   0  0  0  0  0  0  0  0  0  0  0  0
  1  6  1  0  0  0  0
  1 25  1  0  0  0  0
  2  1  2  0  0  0  0
  3  4  2  0  0  0  0
  3  2  1  0  0  0  0
  4  5  1  0  0  0  0
  5  6  2  0  0  0  0
  7  4  1  0  0  0  0
  8  7  2  0  0  0  0
  9 14  1  0  0  0  0
  9  8  1  0  0  0  0
 10  9  2  0  0  0  0
 11 12  2  0  0  0  0
 11 10  1  0  0  0  0
 12 13  1  0  0  0  0
 13 14  2  0  0  0  0
 14 15  1  0  0  0  0
 15  7  1  0  0  0  0
 15 16  1  0  0  0  0
 16 17  1  0  0  0  0
 17 18  1  0  0  0  0
 19 18  1  0  0  0  0
 20 19  1  0  0  0  0
 21 16  1  0  0  0  0
 21 20  1  0  0  0  0
 22 11  1  0  0  0  0
 23 22  2  0  0  0  0
 24 22  1  0  0  0  0
 25 26  1  0  0  0  0
 26 31  1  0  0  0  0
 27 42  1  0  0  0  0
 28 27  2  0  0  0  0
 29 28  1  0  0  0  0
 30 29  2  0  0  0  0
 30 31  1  0  0  0  0
 31 32  2  0  0  0  0
 32 27  1  0  0  0  0
 33 39  1  0  0  0  0
 33 30  1  0  0  0  0
 34 33  2  0  0  0  0
 35 36  2  0  0  0  0
 35 34  1  0  0  0  0
 36 38  1  0  0  0  0
 37 36  1  0  0  0  0
 38 39  2  0  0  0  0
 40 41  1  0  0  0  0
 41 42  1  0  0  0  0
 41 44  1  0  0  0  0
 42 43  2  0  0  0  0
M  END
>  <minimizedAffinity>
-6.05394983

$$$$

 OpenBabel09122219153D

 44 49  0  0  0  0  0  0  0  0999 V2000
    3.4100   -7.0550    7.9030 C   0  0  0  0  0  0  0  0  0  0  0  0
    4.3350   -6.8540    8.9290 C   0  0  0  0  0  3  0  0  0  0  0  0
    4.4600   -5.6030    9.5390 C   0  0  0  0  0  3  0  0  0  0  0  0
    3.6910   -4.5260    9.0910 C   0  0  0  0  0  0  0  0  0  0  0  0
    2.7890   -4.7220    8.0390 C   0  0  0  0  0  3  0  0  0  0  0  0
    2.6580   -5.9780    7.4370 C   0  0  0  0  0  3  0  0  0  0  0  0
    3.7300   -3.2490    9.7920 C   0  0  0  0  0  0  0  0  0  0  0  0
    4.5090   -2.2580    9.4020 N   0  0  0  0  0  0  0  0  0  0  0  0
    4.3590   -1.2580   10.3240 C   0  0  0  0  0  0  0  0  0  0  0  0
    4.9900   -0.0070   10.3940 C   0  0  0  0  0  3  0  0  0  0  0  0
    4.6970    0.8680   11.4590 C   0  0  0  0  0  0  0  0  0  0  0  0
    3.7660    0.4610   12.4290 C   0  0  0  0  0  3  0  0  0  0  0  0
    3.1200   -0.7820   12.3730 C   0  0  0  0  0  3  0  0  0  0  0  0
    3.4400   -1.6250   11.3010 C   0  0  0  0  0  0  0  0  0  0  0  0
    3.0230   -2.8930   10.9280 N   0  0  0  0  0  0  0  0  0  0  0  0
    2.0440   -3.6710   11.6800 C   0  0  0  0  0  3  0  0  0  0  0  0
    0.8690   -4.2190   10.8550 C   0  0  0  0  0  2  0  0  0  0  0  0
   -0.1700   -4.8780   11.7630 C   0  0  0  0  0  2  0  0  0  0  0  0
    0.4570   -5.9670   12.6320 C   0  0  0  0  0  2  0  0  0  0  0  0
    1.6470   -5.4430   13.4340 C   0  0  0  0  0  2  0  0  0  0  0  0
    2.6860   -4.7690   12.5380 C   0  0  0  0  0  2  0  0  0  0  0  0
    5.3780    2.2180   11.5630 C   0  0  0  0  0  0  0  0  0  0  0  0
    5.6590    2.8160   10.4780 O   0  0  0  0  0  0  0  0  0  0  0  0
    5.6160    2.6550   12.7350 O   0  0  0  0  0  1  0  0  0  0  0  0
    3.3360   -8.3380    7.4360 O   0  0  0  0  0  0  0  0  0  0  0  0
    2.1010   -8.7660    6.8550 C   0  0  0  0  0  2  0  0  0  0  0  0
    3.6560   -9.7270    3.5000 C   0  0  0  0  0  0  0  0  0  0  0  0
    2.5330  -10.0250    2.7280 C   0  0  0  0  0  3  0  0  0  0  0  0
    1.2600   -9.9430    3.2920 C   0  0  0  0  0  3  0  0  0  0  0  0
    1.0760   -9.5510    4.6320 C   0  0  0  0  0  0  0  0  0  0  0  0
    2.2110   -9.2170    5.4080 C   0  0  0  0  0  0  0  0  0  0  0  0
    3.4930   -9.3010    4.8220 C   0  0  0  0  0  3  0  0  0  0  0  0
   -0.2930   -9.4990    5.1590 C   0  0  0  0  0  0  0  0  0  0  0  0
   -0.8960  -10.6440    5.7010 C   0  0  0  0  0  3  0  0  0  0  0  0
   -2.2080  -10.5970    6.1830 C   0  0  0  0  0  3  0  0  0  0  0  0
   -2.9240   -9.4040    6.1250 C   0  0  0  0  0  0  0  0  0  0  0  0
   -4.5370   -9.3480    6.7210 Cl  0  0  0  0  0  0  0  0  0  0  0  0
   -2.3460   -8.2600    5.5840 C   0  0  0  0  0  3  0  0  0  0  0  0
   -1.0370   -8.3110    5.0960 C   0  0  0  0  0  3  0  0  0  0  0  0
    5.1390   -7.3230    2.3290 C   0  0  0  0  0  1  0  0  0  0  0  0
    5.5470   -8.7040    2.2540 N   0  0  0  0  0  0  0  0  0  0  0  0
    4.9900   -9.8060    2.8530 C   0  0  0  0  0  0  0  0  0  0  0  0
    5.6190  -10.8590    2.8800 O   0  0  0  0  0  0  0  0  0  0  0  0
    6.4270   -8.9200    1.7990 H   0  0  0  0  0  0  0  0  0  0  0  0
  1  2  1  0  0  0  0
  2  3  2  0  0  0  0
  4  3  1  0  0  0  0
  4  7  1  0  0  0  0
  5  4  2  0  0  0  0
  6  1  2  0  0  0  0
  6  5  1  0  0  0  0
  7 15  1  0  0  0  0
  8  7  2  0  0  0  0
  8  9  1  0  0  0  0
  9 10  2  0  0  0  0
  9 14  1  0  0  0  0
 10 11  1  0  0  0  0
 11 22  1  0  0  0  0
 11 12  2  0  0  0  0
 13 12  1  0  0  0  0
 14 13  2  0  0  0  0
 15 14  1  0  0  0  0
 15 16  1  0  0  0  0
 16 21  1  0  0  0  0
 17 16  1  0  0  0  0
 17 18  1  0  0  0  0
 18 19  1  0  0  0  0
 19 20  1  0  0  0  0
 21 20  1  0  0  0  0
 22 24  1  0  0  0  0
 23 22  2  0  0  0  0
 25  1  1  0  0  0  0
 26 25  1  0  0  0  0
 27 32  1  0  0  0  0
 28 29  1  0  0  0  0
 28 27  2  0  0  0  0
 29 30  2  0  0  0  0
 30 33  1  0  0  0  0
 30 31  1  0  0  0  0
 31 26  1  0  0  0  0
 32 31  2  0  0  0  0
 33 34  1  0  0  0  0
 34 35  2  0  0  0  0
 36 35  1  0  0  0  0
 36 37  1  0  0  0  0
 38 36  2  0  0  0  0
 39 33  2  0  0  0  0
 39 38  1  0  0  0  0
 41 40  1  0  0  0  0
 41 42  1  0  0  0  0
 42 43  2  0  0  0  0
 42 27  1  0  0  0  0
 44 41  1  0  0  0  0
M  END
>  <minimizedAffinity>
-5.94727468

$$$$

 OpenBabel09122219153D

 44 49  0  0  0  0  0  0  0  0999 V2000
    1.4140   -4.3370    9.7910 C   0  0  0  0  0  0  0  0  0  0  0  0
    0.6730   -5.5190    9.8330 C   0  0  0  0  0  3  0  0  0  0  0  0
    0.7770   -6.4600    8.8070 C   0  0  0  0  0  3  0  0  0  0  0  0
    1.5900   -6.2030    7.7000 C   0  0  0  0  0  0  0  0  0  0  0  0
    2.3050   -5.0010    7.6430 C   0  0  0  0  0  3  0  0  0  0  0  0
    2.2060   -4.0640    8.6780 C   0  0  0  0  0  3  0  0  0  0  0  0
    1.7940   -7.2230    6.6800 C   0  0  0  0  0  0  0  0  0  0  0  0
    2.9910   -7.5060    6.2010 N   0  0  0  0  0  0  0  0  0  0  0  0
    2.8050   -8.4370    5.2140 C   0  0  0  0  0  0  0  0  0  0  0  0
    3.7480   -9.0400    4.3680 C   0  0  0  0  0  3  0  0  0  0  0  0
    3.3240   -9.9670    3.3950 C   0  0  0  0  0  0  0  0  0  0  0  0
    1.9550  -10.2680    3.3010 C   0  0  0  0  0  3  0  0  0  0  0  0
    1.0000   -9.6810    4.1410 C   0  0  0  0  0  3  0  0  0  0  0  0
    1.4590   -8.7630    5.0940 C   0  0  0  0  0  0  0  0  0  0  0  0
    0.8270   -7.9970    6.0620 N   0  0  0  0  0  0  0  0  0  0  0  0
   -0.6130   -8.0250    6.2950 C   0  0  0  0  0  3  0  0  0  0  0  0
   -1.4700   -7.4130    5.1750 C   0  0  0  0  0  2  0  0  0  0  0  0
   -2.9410   -7.3520    5.5900 C   0  0  0  0  0  2  0  0  0  0  0  0
   -3.4620   -8.7280    6.0030 C   0  0  0  0  0  2  0  0  0  0  0  0
   -2.6010   -9.3620    7.0930 C   0  0  0  0  0  2  0  0  0  0  0  0
   -1.1260   -9.4150    6.6960 C   0  0  0  0  0  2  0  0  0  0  0  0
    4.3230  -10.6200    2.4610 C   0  0  0  0  0  0  0  0  0  0  0  0
    3.9370  -10.8740    1.2780 O   0  0  0  0  0  0  0  0  0  0  0  0
    5.4800  -10.8650    2.9330 O   0  0  0  0  0  1  0  0  0  0  0  0
    1.2760   -3.5290   10.8860 O   0  0  0  0  0  0  0  0  0  0  0  0
    1.9750   -3.8970   12.0780 C   0  0  0  0  0  2  0  0  0  0  0  0
    4.4290   -6.8020   11.7110 C   0  0  0  0  0  0  0  0  0  0  0  0
    5.6260   -6.1450   11.4280 C   0  0  0  0  0  3  0  0  0  0  0  0
    5.6490   -4.7540   11.3290 C   0  0  0  0  0  3  0  0  0  0  0  0
    4.4830   -3.9870   11.5190 C   0  0  0  0  0  0  0  0  0  0  0  0
    3.2740   -4.6490   11.8380 C   0  0  0  0  0  0  0  0  0  0  0  0
    3.2680   -6.0570   11.9390 C   0  0  0  0  0  3  0  0  0  0  0  0
    4.5820   -2.5280   11.3880 C   0  0  0  0  0  0  0  0  0  0  0  0
    4.4700   -1.9130   10.1310 C   0  0  0  0  0  3  0  0  0  0  0  0
    4.5860   -0.5250   10.0060 C   0  0  0  0  0  3  0  0  0  0  0  0
    4.8150    0.2560   11.1360 C   0  0  0  0  0  0  0  0  0  0  0  0
    4.9540    1.9630   10.9790 Cl  0  0  0  0  0  0  0  0  0  0  0  0
    4.9370   -0.3370   12.3890 C   0  0  0  0  0  3  0  0  0  0  0  0
    4.8280   -1.7240   12.5120 C   0  0  0  0  0  3  0  0  0  0  0  0
    3.8010   -8.7180    9.4120 C   0  0  0  0  0  1  0  0  0  0  0  0
    4.0580   -9.0780   10.7850 N   0  0  0  0  0  0  0  0  0  0  0  0
    4.4560   -8.2820   11.8290 C   0  0  0  0  0  0  0  0  0  0  0  0
    4.8680   -8.8030   12.8610 O   0  0  0  0  0  0  0  0  0  0  0  0
    4.0670  -10.0620   11.0290 H   0  0  0  0  0  0  0  0  0  0  0  0
  1  2  1  0  0  0  0
  1 25  1  0  0  0  0
  3  2  2  0  0  0  0
  4  3  1  0  0  0  0
  5  4  2  0  0  0  0
  5  6  1  0  0  0  0
  6  1  2  0  0  0  0
  7  4  1  0  0  0  0
  8  7  2  0  0  0  0
  9  8  1  0  0  0  0
 10  9  2  0  0  0  0
 11 10  1  0  0  0  0
 12 11  2  0  0  0  0
 12 13  1  0  0  0  0
 13 14  2  0  0  0  0
 14  9  1  0  0  0  0
 14 15  1  0  0  0  0
 15 16  1  0  0  0  0
 15  7  1  0  0  0  0
 16 21  1  0  0  0  0
 17 18  1  0  0  0  0
 17 16  1  0  0  0  0
 18 19  1  0  0  0  0
 19 20  1  0  0  0  0
 21 20  1  0  0  0  0
 22 24  1  0  0  0  0
 22 11  1  0  0  0  0
 23 22  2  0  0  0  0
 25 26  1  0  0  0  0
 27 42  1  0  0  0  0
 27 32  1  0  0  0  0
 28 27  2  0  0  0  0
 29 28  1  0  0  0  0
 29 30  2  0  0  0  0
 30 31  1  0  0  0  0
 31 32  2  0  0  0  0
 31 26  1  0  0  0  0
 33 30  1  0  0  0  0
 33 39  1  0  0  0  0
 34 33  2  0  0  0  0
 35 34  1  0  0  0  0
 35 36  2  0  0  0  0
 36 38  1  0  0  0  0
 37 36  1  0  0  0  0
 38 39  2  0  0  0  0
 40 41  1  0  0  0  0
 41 44  1  0  0  0  0
 41 42  1  0  0  0  0
 42 43  2  0  0  0  0
M  END
>  <minimizedAffinity>
-5.93280983

$$$$
