
 OpenBabel09122222393D

 44 49  0  0  0  0  0  0  0  0999 V2000
    1.4140   -4.3370    9.7910 C   0  0  0  0  0  0  0  0  0  0  0  0
    0.6730   -5.5190    9.8330 C   0  0  0  0  0  3  0  0  0  0  0  0
    0.7770   -6.4600    8.8070 C   0  0  0  0  0  3  0  0  0  0  0  0
    1.5900   -6.2030    7.7000 C   0  0  0  0  0  0  0  0  0  0  0  0
    2.3050   -5.0010    7.6430 C   0  0  0  0  0  3  0  0  0  0  0  0
    2.2060   -4.0640    8.6780 C   0  0  0  0  0  3  0  0  0  0  0  0
    1.7940   -7.2230    6.6800 C   0  0  0  0  0  0  0  0  0  0  0  0
    2.9910   -7.5060    6.2010 N   0  0  0  0  0  0  0  0  0  0  0  0
    2.8050   -8.4370    5.2140 C   0  0  0  0  0  0  0  0  0  0  0  0
    3.7480   -9.0400    4.3680 C   0  0  0  0  0  3  0  0  0  0  0  0
    3.3240   -9.9670    3.3950 C   0  0  0  0  0  0  0  0  0  0  0  0
    1.9550  -10.2680    3.3010 C   0  0  0  0  0  3  0  0  0  0  0  0
    1.0000   -9.6810    4.1410 C   0  0  0  0  0  3  0  0  0  0  0  0
    1.4590   -8.7630    5.0940 C   0  0  0  0  0  0  0  0  0  0  0  0
    0.8270   -7.9970    6.0620 N   0  0  0  0  0  0  0  0  0  0  0  0
   -0.6130   -8.0250    6.2950 C   0  0  0  0  0  3  0  0  0  0  0  0
   -1.4700   -7.4130    5.1750 C   0  0  0  0  0  2  0  0  0  0  0  0
   -2.9410   -7.3520    5.5900 C   0  0  0  0  0  2  0  0  0  0  0  0
   -3.4620   -8.7280    6.0030 C   0  0  0  0  0  2  0  0  0  0  0  0
   -2.6010   -9.3620    7.0930 C   0  0  0  0  0  2  0  0  0  0  0  0
   -1.1260   -9.4150    6.6960 C   0  0  0  0  0  2  0  0  0  0  0  0
    4.3230  -10.6200    2.4610 C   0  0  0  0  0  0  0  0  0  0  0  0
    3.9370  -10.8740    1.2780 O   0  0  0  0  0  0  0  0  0  0  0  0
    5.4800  -10.8650    2.9330 O   0  0  0  0  0  1  0  0  0  0  0  0
    1.2760   -3.5290   10.8860 O   0  0  0  0  0  0  0  0  0  0  0  0
    1.9750   -3.8970   12.0780 C   0  0  0  0  0  2  0  0  0  0  0  0
    4.4290   -6.8020   11.7110 C   0  0  0  0  0  0  0  0  0  0  0  0
    5.6260   -6.1450   11.4280 C   0  0  0  0  0  3  0  0  0  0  0  0
    5.6490   -4.7540   11.3290 C   0  0  0  0  0  3  0  0  0  0  0  0
    4.4830   -3.9870   11.5190 C   0  0  0  0  0  0  0  0  0  0  0  0
    3.2740   -4.6490   11.8380 C   0  0  0  0  0  0  0  0  0  0  0  0
    3.2680   -6.0570   11.9390 C   0  0  0  0  0  3  0  0  0  0  0  0
    4.5820   -2.5280   11.3880 C   0  0  0  0  0  0  0  0  0  0  0  0
    4.4700   -1.9130   10.1310 C   0  0  0  0  0  3  0  0  0  0  0  0
    4.5860   -0.5250   10.0060 C   0  0  0  0  0  3  0  0  0  0  0  0
    4.8150    0.2560   11.1360 C   0  0  0  0  0  0  0  0  0  0  0  0
    4.9540    1.9630   10.9790 Cl  0  0  0  0  0  0  0  0  0  0  0  0
    4.9370   -0.3370   12.3890 C   0  0  0  0  0  3  0  0  0  0  0  0
    4.8280   -1.7240   12.5120 C   0  0  0  0  0  3  0  0  0  0  0  0
    3.8010   -8.7180    9.4120 C   0  0  0  0  0  1  0  0  0  0  0  0
    4.0580   -9.0780   10.7850 N   0  0  0  0  0  0  0  0  0  0  0  0
    4.4560   -8.2820   11.8290 C   0  0  0  0  0  0  0  0  0  0  0  0
    4.8680   -8.8030   12.8610 O   0  0  0  0  0  0  0  0  0  0  0  0
    4.0670  -10.0620   11.0290 H   0  0  0  0  0  0  0  0  0  0  0  0
  1  2  1  0  0  0  0
  1 25  1  0  0  0  0
  3  2  2  0  0  0  0
  4  3  1  0  0  0  0
  5  4  2  0  0  0  0
  5  6  1  0  0  0  0
  6  1  2  0  0  0  0
  7  4  1  0  0  0  0
  8  7  2  0  0  0  0
  9  8  1  0  0  0  0
 10  9  2  0  0  0  0
 11 10  1  0  0  0  0
 12 11  2  0  0  0  0
 12 13  1  0  0  0  0
 13 14  2  0  0  0  0
 14  9  1  0  0  0  0
 14 15  1  0  0  0  0
 15 16  1  0  0  0  0
 15  7  1  0  0  0  0
 16 21  1  0  0  0  0
 17 18  1  0  0  0  0
 17 16  1  0  0  0  0
 18 19  1  0  0  0  0
 19 20  1  0  0  0  0
 21 20  1  0  0  0  0
 22 24  1  0  0  0  0
 22 11  1  0  0  0  0
 23 22  2  0  0  0  0
 25 26  1  0  0  0  0
 27 42  1  0  0  0  0
 27 32  1  0  0  0  0
 28 27  2  0  0  0  0
 29 28  1  0  0  0  0
 29 30  2  0  0  0  0
 30 31  1  0  0  0  0
 31 32  2  0  0  0  0
 31 26  1  0  0  0  0
 33 30  1  0  0  0  0
 33 39  1  0  0  0  0
 34 33  2  0  0  0  0
 35 34  1  0  0  0  0
 35 36  2  0  0  0  0
 36 38  1  0  0  0  0
 37 36  1  0  0  0  0
 38 39  2  0  0  0  0
 40 41  1  0  0  0  0
 41 44  1  0  0  0  0
 41 42  1  0  0  0  0
 42 43  2  0  0  0  0
M  END
>  <minimizedAffinity>
-5.93280983

$$$$
