
 OpenBabel09122222393D

 44 49  0  0  0  0  0  0  0  0999 V2000
    4.1530   -5.1140    8.2460 C   0  0  0  0  0  0  0  0  0  0  0  0
    4.0830   -6.4730    8.5580 C   0  0  0  0  0  3  0  0  0  0  0  0
    3.2230   -7.3200    7.8570 C   0  0  0  0  0  3  0  0  0  0  0  0
    2.3860   -6.8030    6.8640 C   0  0  0  0  0  0  0  0  0  0  0  0
    2.4330   -5.4350    6.5760 C   0  0  0  0  0  3  0  0  0  0  0  0
    3.3030   -4.5900    7.2740 C   0  0  0  0  0  3  0  0  0  0  0  0
    1.5690   -7.6940    6.0490 C   0  0  0  0  0  0  0  0  0  0  0  0
    0.2510   -7.6760    6.0980 N   0  0  0  0  0  0  0  0  0  0  0  0
   -0.1820   -8.6850    5.2810 C   0  0  0  0  0  0  0  0  0  0  0  0
   -1.4900   -9.1140    5.0090 C   0  0  0  0  0  3  0  0  0  0  0  0
   -1.7050  -10.2040    4.1420 C   0  0  0  0  0  0  0  0  0  0  0  0
   -0.5910  -10.8350    3.5630 C   0  0  0  0  0  3  0  0  0  0  0  0
    0.7220  -10.4170    3.8170 C   0  0  0  0  0  3  0  0  0  0  0  0
    0.8950   -9.3320    4.6860 C   0  0  0  0  0  0  0  0  0  0  0  0
    2.0110   -8.6640    5.1670 N   0  0  0  0  0  0  0  0  0  0  0  0
    3.3780   -9.0140    4.7970 C   0  0  0  0  0  3  0  0  0  0  0  0
    3.8420  -10.4100    5.2420 C   0  0  0  0  0  2  0  0  0  0  0  0
    5.3280  -10.6090    4.9420 C   0  0  0  0  0  2  0  0  0  0  0  0
    5.6380  -10.3630    3.4660 C   0  0  0  0  0  2  0  0  0  0  0  0
    5.1540   -8.9910    3.0020 C   0  0  0  0  0  2  0  0  0  0  0  0
    3.6730   -8.7740    3.3090 C   0  0  0  0  0  2  0  0  0  0  0  0
   -3.1080  -10.6940    3.8460 C   0  0  0  0  0  0  0  0  0  0  0  0
   -3.8810  -10.8870    4.8350 O   0  0  0  0  0  1  0  0  0  0  0  0
   -3.4100  -10.8740    2.6220 O   0  0  0  0  0  0  0  0  0  0  0  0
    5.0810   -4.4050    8.9570 O   0  0  0  0  0  0  0  0  0  0  0  0
    5.2000   -4.6760   10.3560 C   0  0  0  0  0  2  0  0  0  0  0  0
    4.4830   -1.5140   12.3780 C   0  0  0  0  0  0  0  0  0  0  0  0
    3.2240   -1.7840   12.9140 C   0  0  0  0  0  3  0  0  0  0  0  0
    2.5810   -2.9840   12.6090 C   0  0  0  0  0  3  0  0  0  0  0  0
    3.1820   -3.9440   11.7710 C   0  0  0  0  0  0  0  0  0  0  0  0
    4.4720   -3.6860   11.2510 C   0  0  0  0  0  0  0  0  0  0  0  0
    5.1110   -2.4690   11.5730 C   0  0  0  0  0  3  0  0  0  0  0  0
    2.4400   -5.1780   11.4850 C   0  0  0  0  0  0  0  0  0  0  0  0
    2.8280   -6.3970   12.0620 C   0  0  0  0  0  3  0  0  0  0  0  0
    2.1330   -7.5750   11.7710 C   0  0  0  0  0  3  0  0  0  0  0  0
    1.0470   -7.5410   10.9010 C   0  0  0  0  0  0  0  0  0  0  0  0
    0.1910   -8.9910   10.5460 Cl  0  0  0  0  0  0  0  0  0  0  0  0
    0.6520   -6.3430   10.3120 C   0  0  0  0  0  3  0  0  0  0  0  0
    1.3520   -5.1680   10.5990 C   0  0  0  0  0  3  0  0  0  0  0  0
    4.7840    0.8680   10.4850 C   0  0  0  0  0  1  0  0  0  0  0  0
    5.3350    0.7510   11.8130 N   0  0  0  0  0  0  0  0  0  0  0  0
    5.1400   -0.2350   12.7470 C   0  0  0  0  0  0  0  0  0  0  0  0
    5.4850   -0.0400   13.9090 O   0  0  0  0  0  0  0  0  0  0  0  0
    5.8500    1.5390   12.1890 H   0  0  0  0  0  0  0  0  0  0  0  0
  1  2  1  0  0  0  0
  1 25  1  0  0  0  0
  3  2  2  0  0  0  0
  4  3  1  0  0  0  0
  5  4  2  0  0  0  0
  5  6  1  0  0  0  0
  6  1  2  0  0  0  0
  7  8  2  0  0  0  0
  7  4  1  0  0  0  0
  9  8  1  0  0  0  0
 10  9  1  0  0  0  0
 11 10  2  0  0  0  0
 12 13  2  0  0  0  0
 12 11  1  0  0  0  0
 13 14  1  0  0  0  0
 14 15  1  0  0  0  0
 14  9  2  0  0  0  0
 15  7  1  0  0  0  0
 16 15  1  0  0  0  0
 16 17  1  0  0  0  0
 18 17  1  0  0  0  0
 19 18  1  0  0  0  0
 20 21  1  0  0  0  0
 20 19  1  0  0  0  0
 21 16  1  0  0  0  0
 22 11  1  0  0  0  0
 22 23  1  0  0  0  0
 24 22  2  0  0  0  0
 25 26  1  0  0  0  0
 26 31  1  0  0  0  0
 27 42  1  0  0  0  0
 27 28  1  0  0  0  0
 29 28  2  0  0  0  0
 30 29  1  0  0  0  0
 31 32  1  0  0  0  0
 31 30  2  0  0  0  0
 32 27  2  0  0  0  0
 33 30  1  0  0  0  0
 33 34  1  0  0  0  0
 35 34  2  0  0  0  0
 36 35  1  0  0  0  0
 37 36  1  0  0  0  0
 38 39  1  0  0  0  0
 38 36  2  0  0  0  0
 39 33  2  0  0  0  0
 40 41  1  0  0  0  0
 41 44  1  0  0  0  0
 41 42  1  0  0  0  0
 42 43  2  0  0  0  0
M  END
>  <minimizedAffinity>
-6.40060186

$$$$
