
 OpenBabel09122222393D

 44 49  0  0  0  0  0  0  0  0999 V2000
    3.4100   -7.0550    7.9030 C   0  0  0  0  0  0  0  0  0  0  0  0
    4.3350   -6.8540    8.9290 C   0  0  0  0  0  3  0  0  0  0  0  0
    4.4600   -5.6030    9.5390 C   0  0  0  0  0  3  0  0  0  0  0  0
    3.6910   -4.5260    9.0910 C   0  0  0  0  0  0  0  0  0  0  0  0
    2.7890   -4.7220    8.0390 C   0  0  0  0  0  3  0  0  0  0  0  0
    2.6580   -5.9780    7.4370 C   0  0  0  0  0  3  0  0  0  0  0  0
    3.7300   -3.2490    9.7920 C   0  0  0  0  0  0  0  0  0  0  0  0
    4.5090   -2.2580    9.4020 N   0  0  0  0  0  0  0  0  0  0  0  0
    4.3590   -1.2580   10.3240 C   0  0  0  0  0  0  0  0  0  0  0  0
    4.9900   -0.0070   10.3940 C   0  0  0  0  0  3  0  0  0  0  0  0
    4.6970    0.8680   11.4590 C   0  0  0  0  0  0  0  0  0  0  0  0
    3.7660    0.4610   12.4290 C   0  0  0  0  0  3  0  0  0  0  0  0
    3.1200   -0.7820   12.3730 C   0  0  0  0  0  3  0  0  0  0  0  0
    3.4400   -1.6250   11.3010 C   0  0  0  0  0  0  0  0  0  0  0  0
    3.0230   -2.8930   10.9280 N   0  0  0  0  0  0  0  0  0  0  0  0
    2.0440   -3.6710   11.6800 C   0  0  0  0  0  3  0  0  0  0  0  0
    0.8690   -4.2190   10.8550 C   0  0  0  0  0  2  0  0  0  0  0  0
   -0.1700   -4.8780   11.7630 C   0  0  0  0  0  2  0  0  0  0  0  0
    0.4570   -5.9670   12.6320 C   0  0  0  0  0  2  0  0  0  0  0  0
    1.6470   -5.4430   13.4340 C   0  0  0  0  0  2  0  0  0  0  0  0
    2.6860   -4.7690   12.5380 C   0  0  0  0  0  2  0  0  0  0  0  0
    5.3780    2.2180   11.5630 C   0  0  0  0  0  0  0  0  0  0  0  0
    5.6590    2.8160   10.4780 O   0  0  0  0  0  0  0  0  0  0  0  0
    5.6160    2.6550   12.7350 O   0  0  0  0  0  1  0  0  0  0  0  0
    3.3360   -8.3380    7.4360 O   0  0  0  0  0  0  0  0  0  0  0  0
    2.1010   -8.7660    6.8550 C   0  0  0  0  0  2  0  0  0  0  0  0
    3.6560   -9.7270    3.5000 C   0  0  0  0  0  0  0  0  0  0  0  0
    2.5330  -10.0250    2.7280 C   0  0  0  0  0  3  0  0  0  0  0  0
    1.2600   -9.9430    3.2920 C   0  0  0  0  0  3  0  0  0  0  0  0
    1.0760   -9.5510    4.6320 C   0  0  0  0  0  0  0  0  0  0  0  0
    2.2110   -9.2170    5.4080 C   0  0  0  0  0  0  0  0  0  0  0  0
    3.4930   -9.3010    4.8220 C   0  0  0  0  0  3  0  0  0  0  0  0
   -0.2930   -9.4990    5.1590 C   0  0  0  0  0  0  0  0  0  0  0  0
   -0.8960  -10.6440    5.7010 C   0  0  0  0  0  3  0  0  0  0  0  0
   -2.2080  -10.5970    6.1830 C   0  0  0  0  0  3  0  0  0  0  0  0
   -2.9240   -9.4040    6.1250 C   0  0  0  0  0  0  0  0  0  0  0  0
   -4.5370   -9.3480    6.7210 Cl  0  0  0  0  0  0  0  0  0  0  0  0
   -2.3460   -8.2600    5.5840 C   0  0  0  0  0  3  0  0  0  0  0  0
   -1.0370   -8.3110    5.0960 C   0  0  0  0  0  3  0  0  0  0  0  0
    5.1390   -7.3230    2.3290 C   0  0  0  0  0  1  0  0  0  0  0  0
    5.5470   -8.7040    2.2540 N   0  0  0  0  0  0  0  0  0  0  0  0
    4.9900   -9.8060    2.8530 C   0  0  0  0  0  0  0  0  0  0  0  0
    5.6190  -10.8590    2.8800 O   0  0  0  0  0  0  0  0  0  0  0  0
    6.4270   -8.9200    1.7990 H   0  0  0  0  0  0  0  0  0  0  0  0
  1  2  1  0  0  0  0
  2  3  2  0  0  0  0
  4  3  1  0  0  0  0
  4  7  1  0  0  0  0
  5  4  2  0  0  0  0
  6  1  2  0  0  0  0
  6  5  1  0  0  0  0
  7 15  1  0  0  0  0
  8  7  2  0  0  0  0
  8  9  1  0  0  0  0
  9 10  2  0  0  0  0
  9 14  1  0  0  0  0
 10 11  1  0  0  0  0
 11 22  1  0  0  0  0
 11 12  2  0  0  0  0
 13 12  1  0  0  0  0
 14 13  2  0  0  0  0
 15 14  1  0  0  0  0
 15 16  1  0  0  0  0
 16 21  1  0  0  0  0
 17 16  1  0  0  0  0
 17 18  1  0  0  0  0
 18 19  1  0  0  0  0
 19 20  1  0  0  0  0
 21 20  1  0  0  0  0
 22 24  1  0  0  0  0
 23 22  2  0  0  0  0
 25  1  1  0  0  0  0
 26 25  1  0  0  0  0
 27 32  1  0  0  0  0
 28 29  1  0  0  0  0
 28 27  2  0  0  0  0
 29 30  2  0  0  0  0
 30 33  1  0  0  0  0
 30 31  1  0  0  0  0
 31 26  1  0  0  0  0
 32 31  2  0  0  0  0
 33 34  1  0  0  0  0
 34 35  2  0  0  0  0
 36 35  1  0  0  0  0
 36 37  1  0  0  0  0
 38 36  2  0  0  0  0
 39 33  2  0  0  0  0
 39 38  1  0  0  0  0
 41 40  1  0  0  0  0
 41 42  1  0  0  0  0
 42 43  2  0  0  0  0
 42 27  1  0  0  0  0
 44 41  1  0  0  0  0
M  END
>  <minimizedAffinity>
-5.94727468

$$$$
