
 OpenBabel09122222393D

 44 49  0  0  0  0  0  0  0  0999 V2000
    3.0430   -5.4990   10.3350 C   0  0  0  0  0  0  0  0  0  0  0  0
    2.9790   -6.8910   10.2440 C   0  0  0  0  0  3  0  0  0  0  0  0
    1.8180   -7.5200    9.7890 C   0  0  0  0  0  3  0  0  0  0  0  0
    0.6910   -6.7610    9.4640 C   0  0  0  0  0  0  0  0  0  0  0  0
    0.7470   -5.3680    9.5890 C   0  0  0  0  0  3  0  0  0  0  0  0
    1.9140   -4.7400   10.0360 C   0  0  0  0  0  3  0  0  0  0  0  0
   -0.4840   -7.3960    8.8810 C   0  0  0  0  0  0  0  0  0  0  0  0
   -1.6310   -7.4770    9.5280 N   0  0  0  0  0  0  0  0  0  0  0  0
   -2.4770   -8.2000    8.7310 C   0  0  0  0  0  0  0  0  0  0  0  0
   -3.8010   -8.6010    8.9670 C   0  0  0  0  0  3  0  0  0  0  0  0
   -4.4830   -9.3700    8.0040 C   0  0  0  0  0  0  0  0  0  0  0  0
   -3.8130   -9.7140    6.8180 C   0  0  0  0  0  3  0  0  0  0  0  0
   -2.4940   -9.3180    6.5610 C   0  0  0  0  0  3  0  0  0  0  0  0
   -1.8490   -8.5560    7.5430 C   0  0  0  0  0  0  0  0  0  0  0  0
   -0.5790   -8.0070    7.6420 N   0  0  0  0  0  0  0  0  0  0  0  0
    0.4350   -8.1340    6.6010 C   0  0  0  0  0  3  0  0  0  0  0  0
    1.1840   -6.8380    6.2530 C   0  0  0  0  0  2  0  0  0  0  0  0
    2.1050   -7.0510    5.0510 C   0  0  0  0  0  2  0  0  0  0  0  0
    3.0740   -8.2080    5.2870 C   0  0  0  0  0  2  0  0  0  0  0  0
    2.3450   -9.4950    5.6660 C   0  0  0  0  0  2  0  0  0  0  0  0
    1.4100   -9.2920    6.8580 C   0  0  0  0  0  2  0  0  0  0  0  0
   -5.9080   -9.8270    8.2450 C   0  0  0  0  0  0  0  0  0  0  0  0
   -6.6180  -10.0900    7.2250 O   0  0  0  0  0  0  0  0  0  0  0  0
   -6.2880   -9.9150    9.4570 O   0  0  0  0  0  1  0  0  0  0  0  0
    4.2540   -5.0010   10.7300 O   0  0  0  0  0  0  0  0  0  0  0  0
    4.9500   -4.1410    9.8240 C   0  0  0  0  0  2  0  0  0  0  0  0
    3.9860   -0.6750   11.1090 C   0  0  0  0  0  0  0  0  0  0  0  0
    3.5580   -0.0360    9.9460 C   0  0  0  0  0  3  0  0  0  0  0  0
    3.5990   -0.7120    8.7260 C   0  0  0  0  0  3  0  0  0  0  0  0
    4.0570   -2.0410    8.6410 C   0  0  0  0  0  0  0  0  0  0  0  0
    4.4610   -2.7020    9.8240 C   0  0  0  0  0  0  0  0  0  0  0  0
    4.4100   -2.0060   11.0510 C   0  0  0  0  0  3  0  0  0  0  0  0
    4.0820   -2.6840    7.3210 C   0  0  0  0  0  0  0  0  0  0  0  0
    5.3010   -2.9850    6.6950 C   0  0  0  0  0  3  0  0  0  0  0  0
    5.3230   -3.5780    5.4280 C   0  0  0  0  0  3  0  0  0  0  0  0
    4.1250   -3.8710    4.7800 C   0  0  0  0  0  0  0  0  0  0  0  0
    4.1550   -4.6020    3.2230 Cl  0  0  0  0  0  0  0  0  0  0  0  0
    2.9070   -3.5710    5.3820 C   0  0  0  0  0  3  0  0  0  0  0  0
    2.8870   -2.9730    6.6440 C   0  0  0  0  0  3  0  0  0  0  0  0
    1.6360   -0.8590   13.0560 C   0  0  0  0  0  1  0  0  0  0  0  0
    2.7710    0.0250   13.1600 N   0  0  0  0  0  0  0  0  0  0  0  0
    3.9040    0.0740   12.3880 C   0  0  0  0  0  0  0  0  0  0  0  0
    4.8710    0.7210   12.7790 O   0  0  0  0  0  0  0  0  0  0  0  0
    2.8320    0.6330   13.9690 H   0  0  0  0  0  0  0  0  0  0  0  0
  1 25  1  0  0  0  0
  2  1  1  0  0  0  0
  3  2  2  0  0  0  0
  4  5  2  0  0  0  0
  4  3  1  0  0  0  0
  5  6  1  0  0  0  0
  6  1  2  0  0  0  0
  7  4  1  0  0  0  0
  7  8  2  0  0  0  0
  9 10  1  0  0  0  0
  9  8  1  0  0  0  0
 11 22  1  0  0  0  0
 11 10  2  0  0  0  0
 12 11  1  0  0  0  0
 13 12  2  0  0  0  0
 13 14  1  0  0  0  0
 14 15  1  0  0  0  0
 14  9  2  0  0  0  0
 15  7  1  0  0  0  0
 16 21  1  0  0  0  0
 16 15  1  0  0  0  0
 17 16  1  0  0  0  0
 18 19  1  0  0  0  0
 18 17  1  0  0  0  0
 19 20  1  0  0  0  0
 20 21  1  0  0  0  0
 22 24  1  0  0  0  0
 23 22  2  0  0  0  0
 26 25  1  0  0  0  0
 27 42  1  0  0  0  0
 28 27  2  0  0  0  0
 29 28  1  0  0  0  0
 30 29  2  0  0  0  0
 30 31  1  0  0  0  0
 31 26  1  0  0  0  0
 31 32  2  0  0  0  0
 32 27  1  0  0  0  0
 33 30  1  0  0  0  0
 34 33  1  0  0  0  0
 35 34  2  0  0  0  0
 36 38  2  0  0  0  0
 36 35  1  0  0  0  0
 37 36  1  0  0  0  0
 38 39  1  0  0  0  0
 39 33  2  0  0  0  0
 40 41  1  0  0  0  0
 41 44  1  0  0  0  0
 42 43  2  0  0  0  0
 42 41  1  0  0  0  0
M  END
>  <minimizedAffinity>
-7.11018324

$$$$
