REMARK  Name = 
REMARK  4 active torsions:
REMARK  status: ('A' for Active; 'I' for Inactive)
REMARK    1  A    between atoms: C_1  and  N_2
REMARK    2  A    between atoms: C_3  and  C_4
REMARK    3  A    between atoms: C_10  and  C_11
REMARK    4  A    between atoms: C_20  and  C_21
REMARK                            x       y       z     vdW  Elec       q    Type
REMARK                         _______ _______ _______ _____ _____    ______ ____
ROOT
ATOM      1  C   UNL     1       2.463   1.437   0.036  0.00  0.00    +0.149 C 
ATOM      2  N   UNL     1       1.609   0.267  -0.010  0.00  0.00    -0.343 N 
ATOM      3  C   UNL     1       2.033  -1.049  -0.026  0.00  0.00    +0.053 A 
ATOM      4  C   UNL     1       0.893  -1.852  -0.089  0.00  0.00    -0.011 A 
ATOM      5  C   UNL     1      -0.243  -0.967  -0.100  0.00  0.00    +0.004 A 
ATOM      6  C   UNL     1      -1.640  -1.164  -0.154  0.00  0.00    +0.011 A 
ATOM      7  C   UNL     1      -2.506  -0.061  -0.134  0.00  0.00    +0.010 A 
ATOM      8  C   UNL     1      -2.020   1.249  -0.061  0.00  0.00    -0.001 A 
ATOM      9  C   UNL     1      -0.629   1.451  -0.011  0.00  0.00    +0.036 A 
ATOM     10  C   UNL     1       0.234   0.340  -0.036  0.00  0.00    +0.050 A 
ENDROOT
BRANCH   3  11
ATOM     11  C   UNL     1       3.447  -1.417   0.028  0.00  0.00    -0.001 A 
ATOM     12  C   UNL     1       4.153  -1.698  -1.146  0.00  0.00    +0.010 A 
ATOM     13  C   UNL     1       5.507  -2.032  -1.090  0.00  0.00    +0.001 A 
ATOM     14  C   UNL     1       6.164  -2.082   0.139  0.00  0.00    +0.000 A 
ATOM     15  C   UNL     1       5.468  -1.795   1.314  0.00  0.00    +0.001 A 
ATOM     16  C   UNL     1       4.114  -1.461   1.259  0.00  0.00    +0.010 A 
ENDBRANCH   3  11
BRANCH   4  17
ATOM     17  C   UNL     1       0.788  -3.363  -0.141  0.00  0.00    +0.022 C 
ATOM     18  C   UNL     1       1.163  -3.928  -1.520  0.00  0.00    +0.008 C 
ATOM     19  C   UNL     1       0.959  -5.441  -1.578  0.00  0.00    +0.001 C 
ATOM     20  C   UNL     1       1.704  -6.157  -0.454  0.00  0.00    +0.000 C 
ATOM     21  C   UNL     1       1.335  -5.595   0.916  0.00  0.00    +0.001 C 
ATOM     22  C   UNL     1       1.554  -4.084   0.979  0.00  0.00    +0.008 C 
ENDBRANCH   4  17
BRANCH   8  23
ATOM     23  C   UNL     1      -2.971   2.433  -0.038  0.00  0.00    +0.072 C 
ATOM     24  O   UNL     1      -4.216   2.180  -0.086  0.00  0.00    -0.545 OA
ATOM     25  O   UNL     1      -2.452   3.593   0.028  0.00  0.00    -0.545 OA
ENDBRANCH   8  23
TORSDOF 3
