
 OpenBabel09122222393D

 25 28  0  0  0  0  0  0  0  0999 V2000
    6.4430   -7.5590   -0.6230 C   0  0  0  0  0  1  0  0  0  0  0  0
    6.2420   -6.7360    0.5530 N   0  0  0  0  0  0  0  0  0  0  0  0
    5.2870   -6.9370    1.5330 C   0  0  0  0  0  0  0  0  0  0  0  0
    5.4290   -5.9110    2.4690 C   0  0  0  0  0  0  0  0  0  0  0  0
    6.5200   -5.0840    2.0210 C   0  0  0  0  0  0  0  0  0  0  0  0
    7.1360   -3.9170    2.5220 C   0  0  0  0  0  3  0  0  0  0  0  0
    8.2180   -3.3450    1.8380 C   0  0  0  0  0  3  0  0  0  0  0  0
    8.7130   -3.9030    0.6540 C   0  0  0  0  0  0  0  0  0  0  0  0
    8.0990   -5.0630    0.1480 C   0  0  0  0  0  3  0  0  0  0  0  0
    7.0110   -5.6300    0.8380 C   0  0  0  0  0  0  0  0  0  0  0  0
    4.3540   -8.0620    1.4980 C   0  0  0  0  0  0  0  0  0  0  0  0
    3.2340   -8.0300    0.6610 C   0  0  0  0  0  3  0  0  0  0  0  0
    2.3560   -9.1140    0.6190 C   0  0  0  0  0  3  0  0  0  0  0  0
    2.5950  -10.2380    1.4090 C   0  0  0  0  0  3  0  0  0  0  0  0
    3.7150  -10.2810    2.2400 C   0  0  0  0  0  3  0  0  0  0  0  0
    4.5940   -9.1970    2.2830 C   0  0  0  0  0  3  0  0  0  0  0  0
    4.6330   -5.6490    3.7310 C   0  0  0  0  0  3  0  0  0  0  0  0
    3.8190   -4.3480    3.6500 C   0  0  0  0  0  2  0  0  0  0  0  0
    3.1000   -4.0560    4.9650 C   0  0  0  0  0  2  0  0  0  0  0  0
    2.2370   -5.2330    5.4140 C   0  0  0  0  0  2  0  0  0  0  0  0
    3.0430   -6.5270    5.4920 C   0  0  0  0  0  2  0  0  0  0  0  0
    3.7500   -6.8270    4.1710 C   0  0  0  0  0  2  0  0  0  0  0  0
    9.8860   -3.2730   -0.0750 C   0  0  0  0  0  0  0  0  0  0  0  0
   10.3220   -3.8750   -1.1060 O   0  0  0  0  0  0  0  0  0  0  0  0
   10.3490   -2.1870    0.4000 O   0  0  0  0  0  1  0  0  0  0  0  0
  1  2  1  0  0  0  0
  2 10  1  0  0  0  0
  2  3  1  0  0  0  0
  3  4  2  0  0  0  0
  4 17  1  0  0  0  0
  5  4  1  0  0  0  0
  5  6  1  0  0  0  0
  7  6  2  0  0  0  0
  8  7  1  0  0  0  0
  9  8  2  0  0  0  0
  9 10  1  0  0  0  0
 10  5  2  0  0  0  0
 11  3  1  0  0  0  0
 11 16  1  0  0  0  0
 12 11  2  0  0  0  0
 13 12  1  0  0  0  0
 13 14  2  0  0  0  0
 14 15  1  0  0  0  0
 15 16  2  0  0  0  0
 17 22  1  0  0  0  0
 18 17  1  0  0  0  0
 18 19  1  0  0  0  0
 19 20  1  0  0  0  0
 20 21  1  0  0  0  0
 22 21  1  0  0  0  0
 23 25  1  0  0  0  0
 23  8  1  0  0  0  0
 24 23  2  0  0  0  0
M  END
>  <minimizedAffinity>
-6.45115662

$$$$
