
 OpenBabel09122218043D

 25 28  0  0  0  0  0  0  0  0999 V2000
    6.4430   -7.5590   -0.6230 C   0  0  0  0  0  1  0  0  0  0  0  0
    6.2420   -6.7360    0.5530 N   0  0  0  0  0  0  0  0  0  0  0  0
    5.2870   -6.9370    1.5330 C   0  0  0  0  0  0  0  0  0  0  0  0
    5.4290   -5.9110    2.4690 C   0  0  0  0  0  0  0  0  0  0  0  0
    6.5200   -5.0840    2.0210 C   0  0  0  0  0  0  0  0  0  0  0  0
    7.1360   -3.9170    2.5220 C   0  0  0  0  0  3  0  0  0  0  0  0
    8.2180   -3.3450    1.8380 C   0  0  0  0  0  3  0  0  0  0  0  0
    8.7130   -3.9030    0.6540 C   0  0  0  0  0  0  0  0  0  0  0  0
    8.0990   -5.0630    0.1480 C   0  0  0  0  0  3  0  0  0  0  0  0
    7.0110   -5.6300    0.8380 C   0  0  0  0  0  0  0  0  0  0  0  0
    4.3540   -8.0620    1.4980 C   0  0  0  0  0  0  0  0  0  0  0  0
    3.2340   -8.0300    0.6610 C   0  0  0  0  0  3  0  0  0  0  0  0
    2.3560   -9.1140    0.6190 C   0  0  0  0  0  3  0  0  0  0  0  0
    2.5950  -10.2380    1.4090 C   0  0  0  0  0  3  0  0  0  0  0  0
    3.7150  -10.2810    2.2400 C   0  0  0  0  0  3  0  0  0  0  0  0
    4.5940   -9.1970    2.2830 C   0  0  0  0  0  3  0  0  0  0  0  0
    4.6330   -5.6490    3.7310 C   0  0  0  0  0  3  0  0  0  0  0  0
    3.8190   -4.3480    3.6500 C   0  0  0  0  0  2  0  0  0  0  0  0
    3.1000   -4.0560    4.9650 C   0  0  0  0  0  2  0  0  0  0  0  0
    2.2370   -5.2330    5.4140 C   0  0  0  0  0  2  0  0  0  0  0  0
    3.0430   -6.5270    5.4920 C   0  0  0  0  0  2  0  0  0  0  0  0
    3.7500   -6.8270    4.1710 C   0  0  0  0  0  2  0  0  0  0  0  0
    9.8860   -3.2730   -0.0750 C   0  0  0  0  0  0  0  0  0  0  0  0
   10.3220   -3.8750   -1.1060 O   0  0  0  0  0  0  0  0  0  0  0  0
   10.3490   -2.1870    0.4000 O   0  0  0  0  0  1  0  0  0  0  0  0
  1  2  1  0  0  0  0
  2 10  1  0  0  0  0
  2  3  1  0  0  0  0
  3  4  2  0  0  0  0
  4 17  1  0  0  0  0
  5  4  1  0  0  0  0
  5  6  1  0  0  0  0
  7  6  2  0  0  0  0
  8  7  1  0  0  0  0
  9  8  2  0  0  0  0
  9 10  1  0  0  0  0
 10  5  2  0  0  0  0
 11  3  1  0  0  0  0
 11 16  1  0  0  0  0
 12 11  2  0  0  0  0
 13 12  1  0  0  0  0
 13 14  2  0  0  0  0
 14 15  1  0  0  0  0
 15 16  2  0  0  0  0
 17 22  1  0  0  0  0
 18 17  1  0  0  0  0
 18 19  1  0  0  0  0
 19 20  1  0  0  0  0
 20 21  1  0  0  0  0
 22 21  1  0  0  0  0
 23 25  1  0  0  0  0
 23  8  1  0  0  0  0
 24 23  2  0  0  0  0
M  END
>  <minimizedAffinity>
-6.45115662

$$$$

 OpenBabel09122218043D

 25 28  0  0  0  0  0  0  0  0999 V2000
    5.5970   -3.2200    3.8270 C   0  0  0  0  0  1  0  0  0  0  0  0
    5.7920   -4.3990    3.0080 N   0  0  0  0  0  0  0  0  0  0  0  0
    5.0060   -5.5360    3.0190 C   0  0  0  0  0  0  0  0  0  0  0  0
    5.5530   -6.4290    2.0950 C   0  0  0  0  0  0  0  0  0  0  0  0
    6.7000   -5.7800    1.5150 C   0  0  0  0  0  0  0  0  0  0  0  0
    7.6520   -6.1560    0.5420 C   0  0  0  0  0  3  0  0  0  0  0  0
    8.6710   -5.2650    0.1760 C   0  0  0  0  0  3  0  0  0  0  0  0
    8.7740   -3.9940    0.7530 C   0  0  0  0  0  0  0  0  0  0  0  0
    7.8300   -3.6160    1.7250 C   0  0  0  0  0  3  0  0  0  0  0  0
    6.8140   -4.5180    2.0920 C   0  0  0  0  0  0  0  0  0  0  0  0
    3.8290   -5.6660    3.8770 C   0  0  0  0  0  0  0  0  0  0  0  0
    2.9050   -4.6220    3.9780 C   0  0  0  0  0  3  0  0  0  0  0  0
    1.7750   -4.7580    4.7860 C   0  0  0  0  0  3  0  0  0  0  0  0
    1.5590   -5.9410    5.4920 C   0  0  0  0  0  3  0  0  0  0  0  0
    2.4730   -6.9910    5.3900 C   0  0  0  0  0  3  0  0  0  0  0  0
    3.6040   -6.8550    4.5830 C   0  0  0  0  0  3  0  0  0  0  0  0
    5.0910   -7.8230    1.7220 C   0  0  0  0  0  3  0  0  0  0  0  0
    5.2270   -8.8150    2.8870 C   0  0  0  0  0  2  0  0  0  0  0  0
    4.8460  -10.2320    2.4610 C   0  0  0  0  0  2  0  0  0  0  0  0
    3.4530  -10.2820    1.8390 C   0  0  0  0  0  2  0  0  0  0  0  0
    3.3150   -9.2940    0.6830 C   0  0  0  0  0  2  0  0  0  0  0  0
    3.6810   -7.8750    1.1130 C   0  0  0  0  0  2  0  0  0  0  0  0
    9.8820   -3.0400    0.3440 C   0  0  0  0  0  0  0  0  0  0  0  0
   10.2940   -3.1070   -0.8570 O   0  0  0  0  0  0  0  0  0  0  0  0
   10.3170   -2.2400    1.2330 O   0  0  0  0  0  1  0  0  0  0  0  0
  2  3  1  0  0  0  0
  2  1  1  0  0  0  0
  3 11  1  0  0  0  0
  4  3  2  0  0  0  0
  5 10  1  0  0  0  0
  5  4  1  0  0  0  0
  6  5  2  0  0  0  0
  7  6  1  0  0  0  0
  7  8  2  0  0  0  0
  8  9  1  0  0  0  0
  9 10  2  0  0  0  0
 10  2  1  0  0  0  0
 11 12  2  0  0  0  0
 11 16  1  0  0  0  0
 12 13  1  0  0  0  0
 13 14  2  0  0  0  0
 15 14  1  0  0  0  0
 16 15  2  0  0  0  0
 17  4  1  0  0  0  0
 17 18  1  0  0  0  0
 19 18  1  0  0  0  0
 20 19  1  0  0  0  0
 21 22  1  0  0  0  0
 21 20  1  0  0  0  0
 22 17  1  0  0  0  0
 23  8  1  0  0  0  0
 23 25  1  0  0  0  0
 24 23  2  0  0  0  0
M  END
>  <minimizedAffinity>
-5.57781696

$$$$

 OpenBabel09122218043D

 25 28  0  0  0  0  0  0  0  0999 V2000
    4.8780   -3.3630    4.6870 C   0  0  0  0  0  1  0  0  0  0  0  0
    5.2800   -4.3610    3.7160 N   0  0  0  0  0  0  0  0  0  0  0  0
    4.6270   -5.5510    3.4550 C   0  0  0  0  0  0  0  0  0  0  0  0
    5.3550   -6.2170    2.4680 C   0  0  0  0  0  0  0  0  0  0  0  0
    6.4740   -5.3750    2.1320 C   0  0  0  0  0  0  0  0  0  0  0  0
    7.5510   -5.4880    1.2260 C   0  0  0  0  0  3  0  0  0  0  0  0
    8.4950   -4.4550    1.1250 C   0  0  0  0  0  3  0  0  0  0  0  0
    8.4010   -3.2990    1.9070 C   0  0  0  0  0  0  0  0  0  0  0  0
    7.3320   -3.1830    2.8140 C   0  0  0  0  0  3  0  0  0  0  0  0
    6.3910   -4.2240    2.9140 C   0  0  0  0  0  0  0  0  0  0  0  0
    3.3960   -5.9360    4.1430 C   0  0  0  0  0  0  0  0  0  0  0  0
    3.2550   -7.2170    4.6850 C   0  0  0  0  0  3  0  0  0  0  0  0
    2.0840   -7.5730    5.3560 C   0  0  0  0  0  3  0  0  0  0  0  0
    1.0490   -6.6490    5.4930 C   0  0  0  0  0  3  0  0  0  0  0  0
    1.1850   -5.3660    4.9620 C   0  0  0  0  0  3  0  0  0  0  0  0
    2.3560   -5.0090    4.2910 C   0  0  0  0  0  3  0  0  0  0  0  0
    5.0890   -7.5630    1.8260 C   0  0  0  0  0  3  0  0  0  0  0  0
    5.2390   -8.7260    2.8200 C   0  0  0  0  0  2  0  0  0  0  0  0
    5.0590  -10.0770    2.1310 C   0  0  0  0  0  2  0  0  0  0  0  0
    3.7380  -10.1540    1.3700 C   0  0  0  0  0  2  0  0  0  0  0  0
    3.5860   -8.9990    0.3840 C   0  0  0  0  0  2  0  0  0  0  0  0
    3.7500   -7.6470    1.0760 C   0  0  0  0  0  2  0  0  0  0  0  0
    9.4300   -2.1890    1.7840 C   0  0  0  0  0  0  0  0  0  0  0  0
    9.3000   -1.1880    2.5560 O   0  0  0  0  0  1  0  0  0  0  0  0
   10.3480   -2.3430    0.9160 O   0  0  0  0  0  0  0  0  0  0  0  0
  2  1  1  0  0  0  0
  3  2  1  0  0  0  0
  3 11  1  0  0  0  0
  4  3  2  0  0  0  0
  5  4  1  0  0  0  0
  5 10  1  0  0  0  0
  6  5  2  0  0  0  0
  7  6  1  0  0  0  0
  7  8  2  0  0  0  0
  8  9  1  0  0  0  0
  9 10  2  0  0  0  0
 10  2  1  0  0  0  0
 11 16  2  0  0  0  0
 11 12  1  0  0  0  0
 12 13  2  0  0  0  0
 13 14  1  0  0  0  0
 15 14  2  0  0  0  0
 16 15  1  0  0  0  0
 17  4  1  0  0  0  0
 17 18  1  0  0  0  0
 19 18  1  0  0  0  0
 20 19  1  0  0  0  0
 21 22  1  0  0  0  0
 21 20  1  0  0  0  0
 22 17  1  0  0  0  0
 23  8  1  0  0  0  0
 23 24  1  0  0  0  0
 25 23  2  0  0  0  0
M  END
>  <minimizedAffinity>
-4.84485292

$$$$

 OpenBabel09122218043D

 25 28  0  0  0  0  0  0  0  0999 V2000
    7.0740   -6.3280    0.3710 C   0  0  0  0  0  1  0  0  0  0  0  0
    6.4670   -5.8550    1.5990 N   0  0  0  0  0  0  0  0  0  0  0  0
    5.3630   -6.4040    2.2250 C   0  0  0  0  0  0  0  0  0  0  0  0
    5.1050   -5.6360    3.3610 C   0  0  0  0  0  0  0  0  0  0  0  0
    6.1060   -4.6020    3.4050 C   0  0  0  0  0  0  0  0  0  0  0  0
    6.3770   -3.5340    4.2880 C   0  0  0  0  0  3  0  0  0  0  0  0
    7.4690   -2.6870    4.0520 C   0  0  0  0  0  3  0  0  0  0  0  0
    8.3120   -2.8700    2.9500 C   0  0  0  0  0  0  0  0  0  0  0  0
    8.0440   -3.9300    2.0650 C   0  0  0  0  0  3  0  0  0  0  0  0
    6.9440   -4.7730    2.3050 C   0  0  0  0  0  0  0  0  0  0  0  0
    4.6760   -7.5850    1.7050 C   0  0  0  0  0  0  0  0  0  0  0  0
    4.9120   -8.8460    2.2620 C   0  0  0  0  0  3  0  0  0  0  0  0
    4.2400   -9.9680    1.7740 C   0  0  0  0  0  3  0  0  0  0  0  0
    3.3240   -9.8350    0.7300 C   0  0  0  0  0  3  0  0  0  0  0  0
    3.0780   -8.5780    0.1750 C   0  0  0  0  0  3  0  0  0  0  0  0
    3.7490   -7.4560    0.6630 C   0  0  0  0  0  3  0  0  0  0  0  0
    4.0060   -5.7930    4.3930 C   0  0  0  0  0  3  0  0  0  0  0  0
    2.9880   -4.6440    4.3430 C   0  0  0  0  0  2  0  0  0  0  0  0
    1.9450   -4.7720    5.4520 C   0  0  0  0  0  2  0  0  0  0  0  0
    1.2580   -6.1360    5.4290 C   0  0  0  0  0  2  0  0  0  0  0  0
    2.2690   -7.2780    5.4770 C   0  0  0  0  0  2  0  0  0  0  0  0
    3.3020   -7.1580    4.3570 C   0  0  0  0  0  2  0  0  0  0  0  0
    9.4920   -1.9450    2.7100 C   0  0  0  0  0  0  0  0  0  0  0  0
    9.7230   -1.0570    3.5890 O   0  0  0  0  0  1  0  0  0  0  0  0
   10.1640   -2.1280    1.6450 O   0  0  0  0  0  0  0  0  0  0  0  0
  1  2  1  0  0  0  0
  2  3  1  0  0  0  0
  2 10  1  0  0  0  0
  3  4  2  0  0  0  0
  4  5  1  0  0  0  0
  4 17  1  0  0  0  0
  5  6  1  0  0  0  0
  7  6  2  0  0  0  0
  8  7  1  0  0  0  0
  9 10  1  0  0  0  0
  9  8  2  0  0  0  0
 10  5  2  0  0  0  0
 11  3  1  0  0  0  0
 11 12  1  0  0  0  0
 13 12  2  0  0  0  0
 14 13  1  0  0  0  0
 15 16  1  0  0  0  0
 15 14  2  0  0  0  0
 16 11  2  0  0  0  0
 18 17  1  0  0  0  0
 18 19  1  0  0  0  0
 20 19  1  0  0  0  0
 20 21  1  0  0  0  0
 22 17  1  0  0  0  0
 22 21  1  0  0  0  0
 23  8  1  0  0  0  0
 23 24  1  0  0  0  0
 25 23  2  0  0  0  0
M  END
>  <minimizedAffinity>
-4.07585955

$$$$

 OpenBabel09122218043D

 25 28  0  0  0  0  0  0  0  0999 V2000
    0.9960   -4.4220    4.8300 C   0  0  0  0  0  1  0  0  0  0  0  0
    1.2550   -5.8440    4.7240 N   0  0  0  0  0  0  0  0  0  0  0  0
    2.4880   -6.4320    4.5080 C   0  0  0  0  0  0  0  0  0  0  0  0
    2.2860   -7.8120    4.4570 C   0  0  0  0  0  0  0  0  0  0  0  0
    0.8780   -8.0380    4.6610 C   0  0  0  0  0  0  0  0  0  0  0  0
    0.0680   -9.1930    4.7170 C   0  0  0  0  0  3  0  0  0  0  0  0
   -1.3100   -9.0730    4.9530 C   0  0  0  0  0  3  0  0  0  0  0  0
   -1.9140   -7.8250    5.1380 C   0  0  0  0  0  0  0  0  0  0  0  0
   -1.1120   -6.6710    5.0790 C   0  0  0  0  0  3  0  0  0  0  0  0
    0.2690   -6.7990    4.8380 C   0  0  0  0  0  0  0  0  0  0  0  0
    3.7170   -5.6510    4.3830 C   0  0  0  0  0  0  0  0  0  0  0  0
    4.3810   -5.5640    3.1550 C   0  0  0  0  0  3  0  0  0  0  0  0
    5.5450   -4.8030    3.0370 C   0  0  0  0  0  3  0  0  0  0  0  0
    6.0480   -4.1200    4.1430 C   0  0  0  0  0  3  0  0  0  0  0  0
    5.3870   -4.1950    5.3690 C   0  0  0  0  0  3  0  0  0  0  0  0
    4.2230   -4.9560    5.4890 C   0  0  0  0  0  3  0  0  0  0  0  0
    3.2960   -8.9200    4.2320 C   0  0  0  0  0  3  0  0  0  0  0  0
    3.9500   -8.8410    2.8440 C   0  0  0  0  0  2  0  0  0  0  0  0
    4.8930  -10.0200    2.6030 C   0  0  0  0  0  2  0  0  0  0  0  0
    5.9350  -10.1470    3.7110 C   0  0  0  0  0  2  0  0  0  0  0  0
    5.2870  -10.2220    5.0910 C   0  0  0  0  0  2  0  0  0  0  0  0
    4.3570   -9.0350    5.3380 C   0  0  0  0  0  2  0  0  0  0  0  0
   -3.4070   -7.7120    5.3950 C   0  0  0  0  0  0  0  0  0  0  0  0
   -3.8930   -6.5410    5.4930 O   0  0  0  0  0  1  0  0  0  0  0  0
   -4.0620   -8.7980    5.4920 O   0  0  0  0  0  0  0  0  0  0  0  0
  2  1  1  0  0  0  0
  2 10  1  0  0  0  0
  3  2  1  0  0  0  0
  4  3  2  0  0  0  0
  4  5  1  0  0  0  0
  5  6  2  0  0  0  0
  5 10  1  0  0  0  0
  6  7  1  0  0  0  0
  7  8  2  0  0  0  0
  8 23  1  0  0  0  0
  9  8  1  0  0  0  0
 10  9  2  0  0  0  0
 11  3  1  0  0  0  0
 11 16  1  0  0  0  0
 12 11  2  0  0  0  0
 13 12  1  0  0  0  0
 13 14  2  0  0  0  0
 14 15  1  0  0  0  0
 15 16  2  0  0  0  0
 17  4  1  0  0  0  0
 17 22  1  0  0  0  0
 18 17  1  0  0  0  0
 19 18  1  0  0  0  0
 19 20  1  0  0  0  0
 20 21  1  0  0  0  0
 21 22  1  0  0  0  0
 23 25  2  0  0  0  0
 23 24  1  0  0  0  0
M  END
>  <minimizedAffinity>
-3.73888564

$$$$
