REMARK  Name = 
REMARK  10 active torsions:
REMARK  status: ('A' for Active; 'I' for Inactive)
REMARK    1  A    between atoms: C_1  and  C_2
REMARK    2  A    between atoms: C_2  and  C_3
REMARK    3  A    between atoms: C_2  and  C_4
REMARK    4  A    between atoms: C_4  and  C_5
REMARK    5  A    between atoms: C_5  and  N_6
REMARK    6  A    between atoms: C_9  and  C_10
REMARK    7  A    between atoms: C_17  and  O_18
REMARK    8  A    between atoms: O_18  and  C_19
REMARK    9  A    between atoms: C_19  and  C_20
REMARK   10  A    between atoms: C_30  and  O_31
REMARK                            x       y       z     vdW  Elec       q    Type
REMARK                         _______ _______ _______ _____ _____    ______ ____
ROOT
ATOM      1  C   UNL     1       0.729   4.031  -4.063  0.00  0.00    +0.308 C 
ATOM      2  N   UNL     1       1.097   3.173  -4.997  0.00  0.00    -0.131 N 
ATOM      3  S   UNL     1       0.765   1.566  -4.814  0.00  0.00    +0.141 S 
ATOM      4  O   UNL     1      -0.324   1.154  -5.666  0.00  0.00    -0.129 OA
ATOM      5  O   UNL     1       2.023   0.848  -4.841  0.00  0.00    -0.129 OA
ATOM      6  C   UNL     1       0.232   1.506  -3.118  0.00  0.00    +0.178 A 
ATOM      7  C   UNL     1      -1.260   0.610  -2.578  0.00  0.00    +0.080 A 
ATOM      8  C   UNL     1      -1.934   0.942  -0.935  0.00  0.00    +0.123 A 
ATOM      9  C   UNL     1      -1.143   2.176   0.162  0.00  0.00    +0.050 A 
ATOM     10  C   UNL     1       0.262   3.143  -0.443  0.00  0.00    +0.054 A 
ATOM     11  C   UNL     1       0.949   2.809  -2.078  0.00  0.00    +0.148 A 
ATOM     12  N   UNL     1       1.508   3.900  -2.858  0.00  0.00    -0.200 N 
ATOM     13  H   UNL     1       2.075   3.229  -5.235  0.00  0.00    +0.339 HD
ATOM     14  H   UNL     1       1.615   4.733  -2.275  0.00  0.00    +0.298 HD
ENDROOT
BRANCH   1  18
ATOM     15  N   UNL     1      -1.132   2.570  -1.943  0.00  0.00    -0.292 N 
ATOM     16  C   UNL     1      -1.488   3.057  -3.355  0.00  0.00    +0.271 A 
ATOM     17  O   UNL     1      -2.269   2.561  -4.154  0.00  0.00    -0.267 OA
ATOM     18  C   UNL     1      -0.712   4.299  -3.701  0.00  0.00    +0.170 A 
ATOM     19  C   UNL     1      -1.067   5.300  -2.873  0.00  0.00    +0.148 A 
ATOM     20  C   UNL     1      -2.082   5.029  -1.850  0.00  0.00    +0.060 A 
ATOM     21  C   UNL     1      -2.950   6.029  -1.403  0.00  0.00    +0.016 A 
ATOM     22  C   UNL     1      -3.937   5.710  -0.482  0.00  0.00    +0.021 A 
ATOM     23  C   UNL     1      -4.019   4.401  -0.044  0.00  0.00    +0.113 A 
ATOM     24  N   UNL     1      -3.177   3.419  -0.437  0.00  0.00    -0.237 NA
ATOM     25  C   UNL     1      -2.173   3.719  -1.301  0.00  0.00    +0.147 A 
BRANCH  19  26
ATOM     26  O   UNL     1      -0.386   6.491  -2.752  0.00  0.00    -0.505 OA
ATOM     27  H   UNL     1      -0.090   6.779  -3.635  0.00  0.00    +0.292 HD
ENDBRANCH  19  26
BRANCH  15  28
ATOM     28  C   UNL     1       0.126   1.116  -1.081  0.00  0.00    +0.127 C 
BRANCH  28  29
ATOM     29  C   UNL     1       0.667  -0.488  -1.620  0.00  0.00    +0.025 C 
BRANCH  29  31
ATOM     30  C   UNL     1       1.583  -1.164   0.692  0.00  0.00    +0.007 C 
ATOM     31  C   UNL     1       1.884  -0.999  -0.798  0.00  0.00    -0.016 C 
ATOM     32  C   UNL     1       2.358  -2.339  -1.372  0.00  0.00    +0.007 C 
ENDBRANCH  29  31
ENDBRANCH  28  29
ENDBRANCH  15  28
ENDBRANCH   1  18
BRANCH   8  33
ATOM     33  O   UNL     1      -3.080   0.351  -0.483  0.00  0.00    -0.487 OA
BRANCH  33  34
ATOM     34  C   UNL     1      -2.999  -1.075  -0.437  0.00  0.00    +0.264 C 
BRANCH  34  35
ATOM     35  C   UNL     1      -3.396  -1.763  -1.721  0.00  0.00    -0.010 A 
ATOM     36  C   UNL     1      -2.785  -2.973  -2.084  0.00  0.00    +0.007 A 
ATOM     37  C   UNL     1      -3.152  -3.629  -3.259  0.00  0.00    +0.000 A 
ATOM     38  C   UNL     1      -4.142  -3.090  -4.079  0.00  0.00    +0.000 A 
ATOM     39  C   UNL     1      -4.769  -1.898  -3.720  0.00  0.00    +0.000 A 
ATOM     40  C   UNL     1      -4.405  -1.242  -2.543  0.00  0.00    +0.007 A 
ENDBRANCH  34  35
ENDBRANCH  33  34
ENDBRANCH   8  33
TORSDOF 8
