
 OpenBabel09122218533D

 40 43  0  0  1  0  0  0  0  0999 V2000
    0.3860    2.1660   -6.7550 C   0  0  2  0  0  3  0  0  0  0  0  0
   -0.3340    1.0920   -7.0230 N   0  0  0  0  0  0  0  0  0  0  0  0
   -1.4380    0.5460   -5.9220 S   0  0  0  0  0  0  0  0  0  0  0  0
   -2.7860    0.8550   -6.3320 O   0  0  0  0  0  0  0  0  0  0  0  0
   -1.0770   -0.8120   -5.5690 O   0  0  0  0  0  0  0  0  0  0  0  0
   -1.0250    1.5230   -4.4940 C   0  0  0  0  0  0  0  0  0  0  0  0
   -2.2770    2.3740   -3.4790 C   0  0  0  0  0  3  0  0  0  0  0  0
   -1.7420    3.6510   -2.3180 C   0  0  0  0  0  0  0  0  0  0  0  0
    0.0280    4.0980   -2.1800 C   0  0  0  0  0  3  0  0  0  0  0  0
    1.2360    3.3290   -3.2860 C   0  0  0  0  0  3  0  0  0  0  0  0
    0.7120    2.0440   -4.4400 C   0  0  0  0  0  0  0  0  0  0  0  0
    1.3700    1.9270   -5.7300 N   0  0  0  0  0  0  0  0  0  0  0  0
    0.2180    0.2890   -7.2830 H   0  0  0  0  0  0  0  0  0  0  0  0
    2.2160    2.5000   -5.7490 H   0  0  0  0  0  0  0  0  0  0  0  0
    1.3300    4.9600   -7.9350 N   0  0  0  0  0  0  0  0  0  0  0  0
    0.8160    4.6410   -6.5240 C   0  0  0  0  0  0  0  0  0  0  0  0
    1.1470    5.1510   -5.4630 O   0  0  0  0  0  0  0  0  0  0  0  0
   -0.2090    3.5400   -6.5670 C   0  0  1  0  0  3  0  0  0  0  0  0
   -1.2880    3.9540   -7.2590 C   0  0  1  0  0  3  0  0  0  0  0  0
   -1.2820    5.3120   -7.8110 C   0  0  2  0  0  3  0  0  0  0  0  0
   -2.4630    6.0430   -7.9590 C   0  0  0  0  0  3  0  0  0  0  0  0
   -2.4010    7.3490   -8.4230 C   0  0  0  0  0  3  0  0  0  0  0  0
   -1.1570    7.8740   -8.7210 C   0  0  0  0  0  3  0  0  0  0  0  0
   -0.0000    7.1830   -8.6140 N   0  0  0  0  0  0  0  0  0  0  0  0
   -0.0420    5.8880   -8.2080 C   0  0  0  0  0  0  0  0  0  0  0  0
   -2.2990    3.1260   -7.6960 O   0  0  0  0  0  0  0  0  0  0  0  0
   -2.4870    2.4630   -7.0070 H   0  0  0  0  0  0  0  0  0  0  0  0
    3.0040    4.4720   -9.1180 C   0  0  0  0  0  1  0  0  0  0  0  0
    3.5980    2.9430   -9.7990 C   0  0  0  0  0  2  0  0  0  0  0  0
    3.8680    0.4150   -9.3730 C   0  0  0  0  0  1  0  0  0  0  0  0
    3.2360    1.7250   -8.9020 C   0  0  0  0  0  3  0  0  0  0  0  0
    3.6700    2.0090   -7.4600 C   0  0  0  0  0  1  0  0  0  0  0  0
   -2.6260    4.3700   -1.5650 O   0  0  0  0  0  0  0  0  0  0  0  0
   -2.4490    4.1860   -0.1590 C   0  0  0  0  0  2  0  0  0  0  0  0
   -3.5140    3.3420    0.4980 C   0  0  0  0  0  0  0  0  0  0  0  0
   -3.5720    1.9630    0.2400 C   0  0  0  0  0  3  0  0  0  0  0  0
   -4.5400    1.1670    0.8510 C   0  0  0  0  0  3  0  0  0  0  0  0
   -5.4540    1.7350    1.7370 C   0  0  0  0  0  3  0  0  0  0  0  0
   -5.3960    3.1000    2.0150 C   0  0  0  0  0  3  0  0  0  0  0  0
   -4.4260    3.8980    1.4070 C   0  0  0  0  0  3  0  0  0  0  0  0
  1  2  1  1  0  0  0
  1 18  1  0  0  0  0
  1 12  1  0  0  0  0
  2  3  1  0  0  0  0
  3  5  2  0  0  0  0
  3  6  1  0  0  0  0
  4  3  2  0  0  0  0
  6 11  2  0  0  0  0
  6  7  1  0  0  0  0
  7  8  2  0  0  0  0
  8  9  1  0  0  0  0
  8 33  1  0  0  0  0
 10  9  2  0  0  0  0
 11 10  1  0  0  0  0
 12 11  1  0  0  0  0
 13  2  1  0  0  0  0
 14 12  1  0  0  0  0
 15 16  1  0  0  0  0
 16 17  2  0  0  0  0
 18 16  1  6  0  0  0
 19 26  1  6  0  0  0
 19 18  1  0  0  0  0
 20 21  1  6  0  0  0
 20 19  1  0  0  0  0
 22 21  2  0  0  0  0
 23 24  2  0  0  0  0
 23 22  1  0  0  0  0
 24 25  1  0  0  0  0
 25 15  2  0  0  0  0
 25 20  1  0  0  0  0
 26 27  1  0  0  0  0
 29 28  1  0  0  0  0
 29 31  1  0  0  0  0
 30 31  1  0  0  0  0
 31 32  1  0  0  0  0
 33 34  1  0  0  0  0
 34 35  1  0  0  0  0
 35 40  1  0  0  0  0
 36 35  2  0  0  0  0
 36 37  1  0  0  0  0
 37 38  2  0  0  0  0
 38 39  1  0  0  0  0
 40 39  2  0  0  0  0
M  END
>  <minimizedAffinity>
107.813873

$$$$
