REMARK  Name = 
REMARK  8 active torsions:
REMARK  status: ('A' for Active; 'I' for Inactive)
REMARK    1  A    between atoms: C_2  and  C_4
REMARK    2  A    between atoms: C_11  and  C_12
REMARK    3  A    between atoms: C_15  and  O_16
REMARK    4  A    between atoms: O_16  and  C_17
REMARK    5  A    between atoms: C_17  and  C_18
REMARK    6  A    between atoms: C_18  and  C_19
REMARK    7  A    between atoms: C_24  and  C_25
REMARK    8  A    between atoms: N_33  and  C_34
REMARK                            x       y       z     vdW  Elec       q    Type
REMARK                         _______ _______ _______ _____ _____    ______ ____
ROOT
ATOM      1  C   UNL     1       5.889  -5.298  -3.390  0.00  0.00    +0.018 A 
ATOM      2  C   UNL     1       7.033  -5.144  -4.180  0.00  0.00    +0.015 A 
ATOM      3  C   UNL     1       7.851  -6.244  -4.456  0.00  0.00    +0.046 A 
ATOM      4  C   UNL     1       7.563  -7.499  -3.917  0.00  0.00    +0.121 A 
ATOM      5  C   UNL     1       6.405  -7.665  -3.160  0.00  0.00    +0.046 A 
ATOM      6  C   UNL     1       5.584  -6.566  -2.883  0.00  0.00    +0.015 A 
ENDROOT
BRANCH   1  14
ATOM      7  C   UNL     1       2.721  -0.750  -1.123  0.00  0.00    -0.001 A 
ATOM      8  C   UNL     1       2.455  -0.454  -2.469  0.00  0.00    +0.012 A 
ATOM      9  C   UNL     1       2.946  -1.241  -3.519  0.00  0.00    +0.028 A 
ATOM     10  C   UNL     1       3.729  -2.353  -3.184  0.00  0.00    +0.069 A 
ATOM     11  C   UNL     1       4.019  -2.673  -1.860  0.00  0.00    +0.090 A 
ATOM     12  C   UNL     1       3.514  -1.875  -0.822  0.00  0.00    +0.039 A 
ATOM     13  N   UNL     1       4.804  -3.795  -1.790  0.00  0.00    -0.228 NA
ATOM     14  C   UNL     1       5.042  -4.159  -3.035  0.00  0.00    +0.142 A 
ATOM     15  N   UNL     1       4.352  -3.343  -3.919  0.00  0.00    -0.320 N 
BRANCH  15  16
ATOM     16  C   UNL     1       4.253  -3.542  -5.363  0.00  0.00    +0.089 C 
ATOM     17  C   UNL     1       2.811  -3.791  -5.839  0.00  0.00    +0.025 C 
ATOM     18  C   UNL     1       2.758  -4.040  -7.345  0.00  0.00    +0.002 C 
ATOM     19  C   UNL     1       3.428  -2.914  -8.127  0.00  0.00    +0.000 C 
ATOM     20  C   UNL     1       4.865  -2.686  -7.665  0.00  0.00    +0.002 C 
ATOM     21  C   UNL     1       4.941  -2.424  -6.162  0.00  0.00    +0.025 C 
ENDBRANCH  15  16
BRANCH   7  23
ATOM     22  O   UNL     1       1.466   1.127  -0.368  0.00  0.00    -0.545 OA
ATOM     23  C   UNL     1       2.167   0.125  -0.016  0.00  0.00    +0.072 C 
ATOM     24  O   UNL     1       2.440  -0.205   1.181  0.00  0.00    -0.545 OA
ENDBRANCH   7  23
ENDBRANCH   1  14
BRANCH   4  25
ATOM     25  O   UNL     1       8.461  -8.484  -4.222  0.00  0.00    -0.492 OA
BRANCH  25  26
ATOM     26  C   UNL     1       8.682  -9.508  -3.245  0.00  0.00    +0.233 C 
BRANCH  26  27
ATOM     27  C   UNL     1       9.801  -9.144  -2.254  0.00  0.00    +0.076 C 
BRANCH  27  28
ATOM     28  C   UNL     1       9.427  -8.125  -1.193  0.00  0.00    -0.036 A 
ATOM     29  C   UNL     1       8.308  -8.376  -0.373  0.00  0.00    +0.004 A 
ATOM     30  C   UNL     1       7.887  -7.449   0.579  0.00  0.00    +0.000 A 
ATOM     31  C   UNL     1       8.589  -6.263   0.749  0.00  0.00    +0.001 A 
ATOM     32  C   UNL     1       9.729  -6.019  -0.015  0.00  0.00    +0.009 A 
ATOM     33  C   UNL     1      10.174  -6.942  -0.982  0.00  0.00    -0.015 A 
BRANCH  33  34
ATOM     34  C   UNL     1      11.413  -6.637  -1.710  0.00  0.00    -0.018 A 
ATOM     35  C   UNL     1      11.395  -5.849  -2.868  0.00  0.00    +0.008 A 
ATOM     36  C   UNL     1      12.578  -5.558  -3.553  0.00  0.00    +0.001 A 
ATOM     37  C   UNL     1      13.795  -6.043  -3.078  0.00  0.00    +0.000 A 
ATOM     38  C   UNL     1      13.832  -6.817  -1.921  0.00  0.00    +0.001 A 
ATOM     39  C   UNL     1      12.648  -7.113  -1.241  0.00  0.00    +0.008 A 
ENDBRANCH  33  34
ENDBRANCH  27  28
ENDBRANCH  26  27
ENDBRANCH  25  26
ENDBRANCH   4  25
TORSDOF 8
