
 OpenBabel09122222393D

 39 44  0  0  0  0  0  0  0  0999 V2000
    6.0130   -6.7680    0.5370 C   0  0  0  0  0  0  0  0  0  0  0  0
    5.8330   -6.0720   -0.6620 C   0  0  0  0  0  3  0  0  0  0  0  0
    6.8440   -5.2360   -1.1490 C   0  0  0  0  0  3  0  0  0  0  0  0
    8.0250   -5.0540   -0.4290 C   0  0  0  0  0  0  0  0  0  0  0  0
    8.2240   -5.7740    0.7470 C   0  0  0  0  0  3  0  0  0  0  0  0
    7.2150   -6.6110    1.2360 C   0  0  0  0  0  3  0  0  0  0  0  0
    1.8920  -10.7710    2.2290 C   0  0  0  0  0  0  0  0  0  0  0  0
    1.7580   -9.9420    3.3530 C   0  0  0  0  0  3  0  0  0  0  0  0
    2.5000   -8.7630    3.5060 C   0  0  0  0  0  3  0  0  0  0  0  0
    3.4010   -8.4280    2.4880 C   0  0  0  0  0  0  0  0  0  0  0  0
    3.5650   -9.2300    1.3610 C   0  0  0  0  0  0  0  0  0  0  0  0
    2.8100  -10.4040    1.2240 C   0  0  0  0  0  3  0  0  0  0  0  0
    4.5040   -8.6970    0.5160 N   0  0  0  0  0  0  0  0  0  0  0  0
    4.9560   -7.6060    1.1040 C   0  0  0  0  0  0  0  0  0  0  0  0
    4.2640   -7.3690    2.2820 N   0  0  0  0  0  0  0  0  0  0  0  0
    4.3850   -6.1750    3.1160 C   0  0  0  0  0  3  0  0  0  0  0  0
    4.1410   -4.8700    2.3380 C   0  0  0  0  0  2  0  0  0  0  0  0
    4.3230   -3.6470    3.2340 C   0  0  0  0  0  2  0  0  0  0  0  0
    3.4560   -3.7310    4.4870 C   0  0  0  0  0  2  0  0  0  0  0  0
    3.7170   -5.0180    5.2660 C   0  0  0  0  0  2  0  0  0  0  0  0
    3.5310   -6.2560    4.3910 C   0  0  0  0  0  2  0  0  0  0  0  0
    1.3040  -12.7800    1.0940 O   0  0  0  0  0  0  0  0  0  0  0  0
    1.0670  -12.0360    2.0990 C   0  0  0  0  0  0  0  0  0  0  0  0
    0.2020  -12.2640    3.0020 O   0  0  0  0  0  1  0  0  0  0  0  0
    8.9170   -4.1790   -0.9850 O   0  0  0  0  0  0  0  0  0  0  0  0
   10.3030   -4.3470   -0.6630 C   0  0  0  0  0  2  0  0  0  0  0  0
   10.7950   -3.3230    0.3730 C   0  0  0  0  0  2  0  0  0  0  0  0
   10.7300   -1.8700   -0.0630 C   0  0  0  0  0  0  0  0  0  0  0  0
    9.7460   -1.0340    0.5030 C   0  0  0  0  0  3  0  0  0  0  0  0
    9.6050    0.2930    0.0980 C   0  0  0  0  0  3  0  0  0  0  0  0
   10.4600    0.8180   -0.8620 C   0  0  0  0  0  3  0  0  0  0  0  0
   11.4730    0.0230   -1.3960 C   0  0  0  0  0  3  0  0  0  0  0  0
   11.6350   -1.3200   -1.0010 C   0  0  0  0  0  0  0  0  0  0  0  0
   12.7580   -2.0770   -1.5690 C   0  0  0  0  0  0  0  0  0  0  0  0
   13.7200   -2.6720   -0.7430 C   0  0  0  0  0  3  0  0  0  0  0  0
   14.7830   -3.3950   -1.2900 C   0  0  0  0  0  3  0  0  0  0  0  0
   14.8870   -3.5420   -2.6720 C   0  0  0  0  0  3  0  0  0  0  0  0
   13.9320   -2.9680   -3.5070 C   0  0  0  0  0  3  0  0  0  0  0  0
   12.8740   -2.2390   -2.9590 C   0  0  0  0  0  3  0  0  0  0  0  0
  1 14  1  0  0  0  0
  1  6  1  0  0  0  0
  2  1  2  0  0  0  0
  3  2  1  0  0  0  0
  3  4  2  0  0  0  0
  4  5  1  0  0  0  0
  5  6  2  0  0  0  0
  7  8  1  0  0  0  0
  8  9  2  0  0  0  0
 10  9  1  0  0  0  0
 11 10  2  0  0  0  0
 12 11  1  0  0  0  0
 12  7  2  0  0  0  0
 13 14  2  0  0  0  0
 13 11  1  0  0  0  0
 14 15  1  0  0  0  0
 15 10  1  0  0  0  0
 15 16  1  0  0  0  0
 16 21  1  0  0  0  0
 17 16  1  0  0  0  0
 17 18  1  0  0  0  0
 18 19  1  0  0  0  0
 19 20  1  0  0  0  0
 21 20  1  0  0  0  0
 22 23  2  0  0  0  0
 23  7  1  0  0  0  0
 23 24  1  0  0  0  0
 25 26  1  0  0  0  0
 25  4  1  0  0  0  0
 26 27  1  0  0  0  0
 28 27  1  0  0  0  0
 28 29  1  0  0  0  0
 30 29  2  0  0  0  0
 31 30  1  0  0  0  0
 32 33  1  0  0  0  0
 32 31  2  0  0  0  0
 33 28  2  0  0  0  0
 34 33  1  0  0  0  0
 34 35  1  0  0  0  0
 36 35  2  0  0  0  0
 37 36  1  0  0  0  0
 38 39  1  0  0  0  0
 38 37  2  0  0  0  0
 39 34  2  0  0  0  0
M  END
>  <minimizedAffinity>
-9.02899933

$$$$
