
 OpenBabel09122222393D

 39 44  0  0  0  0  0  0  0  0999 V2000
    6.5510   -6.2940    0.8760 C   0  0  0  0  0  0  0  0  0  0  0  0
    5.3020   -6.2240    0.2500 C   0  0  0  0  0  3  0  0  0  0  0  0
    4.3760   -7.2600    0.4080 C   0  0  0  0  0  3  0  0  0  0  0  0
    4.6970   -8.3940    1.1560 C   0  0  0  0  0  0  0  0  0  0  0  0
    5.9250   -8.4510    1.8110 C   0  0  0  0  0  3  0  0  0  0  0  0
    6.8530   -7.4150    1.6560 C   0  0  0  0  0  3  0  0  0  0  0  0
   10.7240   -2.3100   -0.7280 C   0  0  0  0  0  0  0  0  0  0  0  0
   10.4780   -1.7590    0.5400 C   0  0  0  0  0  3  0  0  0  0  0  0
    9.5570   -2.3200    1.4330 C   0  0  0  0  0  3  0  0  0  0  0  0
    8.8690   -3.4680    1.0190 C   0  0  0  0  0  0  0  0  0  0  0  0
    9.0820   -4.0380   -0.2330 C   0  0  0  0  0  0  0  0  0  0  0  0
   10.0130   -3.4640   -1.1130 C   0  0  0  0  0  3  0  0  0  0  0  0
    8.2910   -5.1440   -0.4070 N   0  0  0  0  0  0  0  0  0  0  0  0
    7.5640   -5.2550    0.6880 C   0  0  0  0  0  0  0  0  0  0  0  0
    7.9300   -4.2890    1.6130 N   0  0  0  0  0  0  0  0  0  0  0  0
    7.4510   -4.2020    2.9900 C   0  0  0  0  0  3  0  0  0  0  0  0
    8.1820   -3.1290    3.8160 C   0  0  0  0  0  2  0  0  0  0  0  0
    7.6840   -3.1040    5.2600 C   0  0  0  0  0  2  0  0  0  0  0  0
    6.1690   -2.9410    5.3310 C   0  0  0  0  0  2  0  0  0  0  0  0
    5.4480   -4.0210    4.5280 C   0  0  0  0  0  2  0  0  0  0  0  0
    5.9230   -4.0570    3.0760 C   0  0  0  0  0  2  0  0  0  0  0  0
   11.2710   -1.0500   -2.6720 O   0  0  0  0  0  0  0  0  0  0  0  0
   11.7330   -1.6740   -1.6640 C   0  0  0  0  0  0  0  0  0  0  0  0
   12.9630   -1.8090   -1.3740 O   0  0  0  0  0  1  0  0  0  0  0  0
    3.7270   -9.3570    1.1990 O   0  0  0  0  0  0  0  0  0  0  0  0
    2.6580   -9.1830    2.1360 C   0  0  0  0  0  2  0  0  0  0  0  0
    2.2640  -10.4980    2.8300 C   0  0  0  0  0  2  0  0  0  0  0  0
    3.4220  -11.3500    3.3180 C   0  0  0  0  0  0  0  0  0  0  0  0
    3.9230  -11.1370    4.6190 C   0  0  0  0  0  3  0  0  0  0  0  0
    5.0190  -11.8520    5.0970 C   0  0  0  0  0  3  0  0  0  0  0  0
    5.6230  -12.8130    4.2960 C   0  0  0  0  0  3  0  0  0  0  0  0
    5.1100  -13.0760    3.0270 C   0  0  0  0  0  3  0  0  0  0  0  0
    4.0020  -12.3670    2.5230 C   0  0  0  0  0  0  0  0  0  0  0  0
    3.4870  -12.7380    1.1980 C   0  0  0  0  0  0  0  0  0  0  0  0
    2.1800  -13.2150    1.0390 C   0  0  0  0  0  3  0  0  0  0  0  0
    1.6950  -13.5620   -0.2250 C   0  0  0  0  0  3  0  0  0  0  0  0
    2.5110  -13.4230   -1.3460 C   0  0  0  0  0  3  0  0  0  0  0  0
    3.8090  -12.9380   -1.2070 C   0  0  0  0  0  3  0  0  0  0  0  0
    4.2950  -12.5980    0.0580 C   0  0  0  0  0  3  0  0  0  0  0  0
  1  6  1  0  0  0  0
  2  3  1  0  0  0  0
  2  1  2  0  0  0  0
  3  4  2  0  0  0  0
  4 25  1  0  0  0  0
  4  5  1  0  0  0  0
  6  5  2  0  0  0  0
  7  8  1  0  0  0  0
  8  9  2  0  0  0  0
 10  9  1  0  0  0  0
 10 15  1  0  0  0  0
 11 10  2  0  0  0  0
 12  7  2  0  0  0  0
 12 11  1  0  0  0  0
 13 11  1  0  0  0  0
 13 14  2  0  0  0  0
 14  1  1  0  0  0  0
 14 15  1  0  0  0  0
 15 16  1  0  0  0  0
 16 21  1  0  0  0  0
 16 17  1  0  0  0  0
 17 18  1  0  0  0  0
 18 19  1  0  0  0  0
 20 19  1  0  0  0  0
 21 20  1  0  0  0  0
 22 23  2  0  0  0  0
 23 24  1  0  0  0  0
 23  7  1  0  0  0  0
 25 26  1  0  0  0  0
 26 27  1  0  0  0  0
 27 28  1  0  0  0  0
 28 29  1  0  0  0  0
 29 30  2  0  0  0  0
 31 30  1  0  0  0  0
 32 31  2  0  0  0  0
 33 32  1  0  0  0  0
 33 28  2  0  0  0  0
 34 33  1  0  0  0  0
 35 34  1  0  0  0  0
 36 35  2  0  0  0  0
 37 38  2  0  0  0  0
 37 36  1  0  0  0  0
 38 39  1  0  0  0  0
 39 34  2  0  0  0  0
M  END
>  <minimizedAffinity>
-8.88339615

$$$$
