REMARK  Name = 
REMARK  5 active torsions:
REMARK  status: ('A' for Active; 'I' for Inactive)
REMARK    1  A    between atoms: N_1  and  C_2
REMARK    2  A    between atoms: N_10  and  C_11
REMARK    3  A    between atoms: C_13  and  C_14
REMARK    4  A    between atoms: C_14  and  O_15
REMARK    5  A    between atoms: C_18  and  O_19
REMARK                            x       y       z     vdW  Elec       q    Type
REMARK                         _______ _______ _______ _____ _____    ______ ____
ROOT
ATOM      1  C   UNL     1       0.249  -0.270   1.161  0.00  0.00    +0.147 A 
ATOM      2  N   UNL     1       0.624   0.238   2.357  0.00  0.00    -0.219 NA
ATOM      3  C   UNL     1      -0.083  -0.113   3.452  0.00  0.00    +0.225 A 
ATOM      4  N   UNL     1      -1.151  -0.933   3.535  0.00  0.00    -0.216 NA
ATOM      5  C   UNL     1      -1.488  -1.404   2.322  0.00  0.00    +0.167 A 
ATOM      6  C   UNL     1      -0.858  -1.134   1.117  0.00  0.00    +0.147 A 
ATOM      7  N   UNL     1      -1.476  -1.803   0.079  0.00  0.00    -0.231 NA
ATOM      8  C   UNL     1      -2.464  -2.463   0.647  0.00  0.00    +0.203 A 
ATOM      9  N   UNL     1      -2.513  -2.251   2.001  0.00  0.00    -0.286 N 
ENDROOT
BRANCH   9  10
ATOM     10  C   UNL     1      -3.488  -2.829   2.900  0.00  0.00    +0.254 C 
ATOM     11  O   UNL     1      -4.225  -1.767   3.542  0.00  0.00    -0.345 OA
ATOM     12  C   UNL     1      -4.475  -2.169   4.915  0.00  0.00    +0.183 C 
ATOM     13  C   UNL     1      -3.991  -3.601   5.050  0.00  0.00    +0.230 C 
ATOM     14  F   UNL     1      -5.002  -4.441   4.662  0.00  0.00    -0.240 F 
ATOM     15  C   UNL     1      -2.902  -3.708   4.005  0.00  0.00    +0.200 C 
BRANCH  15  16
ATOM     16  O   UNL     1      -2.686  -5.059   3.599  0.00  0.00    -0.384 OA
ATOM     17  H   UNL     1      -3.542  -5.527   3.665  0.00  0.00    +0.210 HD
ENDBRANCH  15  16
BRANCH  12  18
ATOM     18  C   UNL     1      -3.735  -1.208   5.846  0.00  0.00    +0.190 C 
BRANCH  18  19
ATOM     19  O   UNL     1      -4.199   0.122   5.632  0.00  0.00    -0.392 OA
ATOM     20  H   UNL     1      -4.111   0.286   4.672  0.00  0.00    +0.210 HD
ENDBRANCH  18  19
ENDBRANCH  12  18
ENDBRANCH   9  10
BRANCH   1  21
ATOM     21  N   UNL     1       0.970   0.086   0.044  0.00  0.00    -0.341 N 
ATOM     22  H   UNL     1       0.696  -0.284  -0.855  0.00  0.00    +0.144 HD
ATOM     23  H   UNL     1       1.748   0.714   0.157  0.00  0.00    +0.144 HD
ENDBRANCH   1  21
TORSDOF 5
