
 OpenBabel09122222393D

 23 25  0  0  1  0  0  0  0  0999 V2000
    5.0200   -7.6740    0.8550 C   0  0  0  0  0  0  0  0  0  0  0  0
    5.7810   -6.5560    0.8870 N   0  0  0  0  0  0  0  0  0  0  0  0
    5.7090   -5.7640    1.9770 C   0  0  0  0  0  3  0  0  0  0  0  0
    4.9630   -5.9290    3.0880 N   0  0  0  0  0  0  0  0  0  0  0  0
    4.2210   -7.0470    3.0040 C   0  0  0  0  0  0  0  0  0  0  0  0
    4.1920   -7.9530    1.9550 C   0  0  0  0  0  0  0  0  0  0  0  0
    3.3190   -8.9880    2.2240 N   0  0  0  0  0  0  0  0  0  0  0  0
    2.8260   -8.7100    3.4140 C   0  0  0  0  0  3  0  0  0  0  0  0
    3.3400   -7.5460    3.9240 N   0  0  0  0  0  0  0  0  0  0  0  0
    2.9890   -6.9720    5.2050 C   0  0  2  0  0  3  0  0  0  0  0  0
    4.0320   -7.2710    6.1570 O   0  0  0  0  0  0  0  0  0  0  0  0
    3.3990   -7.5350    7.4370 C   0  0  1  0  0  3  0  0  0  0  0  0
    1.9220   -7.2320    7.2700 C   0  0  1  0  0  3  0  0  0  0  0  0
    1.7230   -5.8940    7.4920 F   0  0  0  0  0  0  0  0  0  0  0  0
    1.6740   -7.4770    5.7970 C   0  0  1  0  0  3  0  0  0  0  0  0
    0.5300   -6.7650    5.3260 O   0  0  0  0  0  0  0  0  0  0  0  0
    0.4610   -5.9400    5.8460 H   0  0  0  0  0  0  0  0  0  0  0  0
    3.6610   -8.9920    7.8190 C   0  0  0  0  0  2  0  0  0  0  0  0
    4.6830   -9.5310    6.9860 O   0  0  0  0  0  0  0  0  0  0  0  0
    4.3970   -9.3630    6.0660 H   0  0  0  0  0  0  0  0  0  0  0  0
    5.0940   -8.4840   -0.2550 N   0  0  0  0  0  0  0  0  0  0  0  0
    4.5270   -9.3190   -0.2910 H   0  0  0  0  0  0  0  0  0  0  0  0
    5.7080   -8.2140   -1.0050 H   0  0  0  0  0  0  0  0  0  0  0  0
  1  2  2  0  0  0  0
  1  6  1  0  0  0  0
  2  3  1  0  0  0  0
  3  4  2  0  0  0  0
  5  4  1  0  0  0  0
  5  9  1  0  0  0  0
  6  7  1  0  0  0  0
  6  5  2  0  0  0  0
  7  8  2  0  0  0  0
  8  9  1  0  0  0  0
 10  9  1  6  0  0  0
 10 15  1  0  0  0  0
 10 11  1  0  0  0  0
 11 12  1  0  0  0  0
 12 18  1  6  0  0  0
 13 12  1  0  0  0  0
 13 14  1  6  0  0  0
 15 16  1  6  0  0  0
 15 13  1  0  0  0  0
 16 17  1  0  0  0  0
 19 18  1  0  0  0  0
 20 19  1  0  0  0  0
 21  1  1  0  0  0  0
 22 21  1  0  0  0  0
 23 21  1  0  0  0  0
M  END
>  <minimizedAffinity>
-5.13105726

$$$$
