
 OpenBabel09122222393D

 23 25  0  0  1  0  0  0  0  0999 V2000
    5.0170   -7.4760    1.6290 C   0  0  0  0  0  0  0  0  0  0  0  0
    5.7190   -6.3480    1.3750 N   0  0  0  0  0  0  0  0  0  0  0  0
    5.5980   -5.3120    2.2310 C   0  0  0  0  0  3  0  0  0  0  0  0
    4.8520   -5.2320    3.3530 N   0  0  0  0  0  0  0  0  0  0  0  0
    4.1700   -6.3720    3.5560 C   0  0  0  0  0  0  0  0  0  0  0  0
    4.1960   -7.5120    2.7680 C   0  0  0  0  0  0  0  0  0  0  0  0
    3.3750   -8.4900    3.2930 N   0  0  0  0  0  0  0  0  0  0  0  0
    2.8590   -7.9490    4.3770 C   0  0  0  0  0  3  0  0  0  0  0  0
    3.3080   -6.6680    4.5760 N   0  0  0  0  0  0  0  0  0  0  0  0
    2.9190   -5.8100    5.6740 C   0  0  2  0  0  3  0  0  0  0  0  0
    2.2160   -4.6640    5.1490 O   0  0  0  0  0  0  0  0  0  0  0  0
    2.6010   -3.5080    5.9400 C   0  0  1  0  0  3  0  0  0  0  0  0
    3.4590   -4.0220    7.0820 C   0  0  1  0  0  3  0  0  0  0  0  0
    2.6360   -4.4020    8.1090 F   0  0  0  0  0  0  0  0  0  0  0  0
    4.0770   -5.2840    6.5210 C   0  0  1  0  0  3  0  0  0  0  0  0
    4.4770   -6.1840    7.5540 O   0  0  0  0  0  0  0  0  0  0  0  0
    3.8600   -6.0650    8.3030 H   0  0  0  0  0  0  0  0  0  0  0  0
    3.3490   -2.5270    5.0370 C   0  0  0  0  0  2  0  0  0  0  0  0
    3.1190   -2.8590    3.6710 O   0  0  0  0  0  0  0  0  0  0  0  0
    3.3530   -3.8040    3.5810 H   0  0  0  0  0  0  0  0  0  0  0  0
    5.1410   -8.5330    0.7570 N   0  0  0  0  0  0  0  0  0  0  0  0
    4.6180   -9.3790    0.9350 H   0  0  0  0  0  0  0  0  0  0  0  0
    5.7460   -8.4280   -0.0400 H   0  0  0  0  0  0  0  0  0  0  0  0
  1  6  1  0  0  0  0
  2  1  2  0  0  0  0
  2  3  1  0  0  0  0
  3  4  2  0  0  0  0
  4  5  1  0  0  0  0
  5  9  1  0  0  0  0
  6  7  1  0  0  0  0
  6  5  2  0  0  0  0
  7  8  2  0  0  0  0
  8  9  1  0  0  0  0
 10  9  1  6  0  0  0
 10 15  1  0  0  0  0
 11 10  1  0  0  0  0
 11 12  1  0  0  0  0
 12 18  1  6  0  0  0
 12 13  1  0  0  0  0
 13 14  1  1  0  0  0
 15 13  1  0  0  0  0
 15 16  1  1  0  0  0
 16 17  1  0  0  0  0
 19 18  1  0  0  0  0
 20 19  1  0  0  0  0
 21 22  1  0  0  0  0
 21  1  1  0  0  0  0
 23 21  1  0  0  0  0
M  END
>  <minimizedAffinity>
-5.17567587

$$$$
