REMARK  Name = 
REMARK  6 active torsions:
REMARK  status: ('A' for Active; 'I' for Inactive)
REMARK    1  A    between atoms: C_2  and  CA_4
REMARK    2  A    between atoms: CA_4  and  N_20
REMARK    3  A    between atoms: C_5  and  C_6
REMARK    4  A    between atoms: C_9  and  O_10
REMARK    5  A    between atoms: O_10  and  C_11
REMARK    6  A    between atoms: C_21  and  C_23
REMARK                            x       y       z     vdW  Elec       q    Type
REMARK                         _______ _______ _______ _____ _____    ______ ____
ROOT
ATOM      1  CA  UNL     1       2.913   0.646   1.293  0.00  0.00    +0.057 C 
ATOM      2  C   UNL     1       2.298   1.576   2.053  0.00  0.00    +0.033 C 
ENDROOT
BRANCH   2   3
ATOM      3  C   UNL     1       2.939   2.717   2.713  0.00  0.00    -0.023 A 
ATOM      4  C   UNL     1       2.932   2.800   4.109  0.00  0.00    +0.011 A 
ATOM      5  C   UNL     1       3.540   3.881   4.752  0.00  0.00    +0.047 A 
ATOM      6  C   UNL     1       4.166   4.875   4.001  0.00  0.00    +0.129 A 
ATOM      7  C   UNL     1       4.147   4.819   2.605  0.00  0.00    +0.047 A 
ATOM      8  C   UNL     1       3.539   3.737   1.964  0.00  0.00    +0.011 A 
BRANCH   6   9
ATOM      9  O   UNL     1       4.730   5.920   4.699  0.00  0.00    -0.455 OA
BRANCH   9  10
ATOM     10  C   UNL     1       5.977   6.346   4.295  0.00  0.00    +0.141 A 
ATOM     11  C   UNL     1       7.033   5.435   4.159  0.00  0.00    +0.047 A 
ATOM     12  C   UNL     1       8.302   5.882   3.787  0.00  0.00    +0.004 A 
ATOM     13  C   UNL     1       8.526   7.241   3.568  0.00  0.00    +0.001 A 
ATOM     14  C   UNL     1       7.484   8.157   3.727  0.00  0.00    +0.018 A 
ATOM     15  C   UNL     1       6.211   7.712   4.099  0.00  0.00    +0.056 A 
ATOM     16  I   UNL     1       4.698   9.139   4.326  0.00  0.00    -0.040 I 
ENDBRANCH   9  10
ENDBRANCH   6   9
ENDBRANCH   2   3
BRANCH   1  17
ATOM     17  N   UNL     1       4.291   0.650   1.118  0.00  0.00    -0.280 N 
ATOM     18  C   UNL     1       5.110  -0.128   0.331  0.00  0.00    +0.248 C 
ATOM     19  O   UNL     1       6.327  -0.127   0.536  0.00  0.00    -0.270 OA
ATOM     20  H   UNL     1       4.816   1.258   1.731  0.00  0.00    +0.155 HD
BRANCH  18  21
ATOM     21  C   UNL     1       4.603  -0.885  -0.834  0.00  0.00    +0.037 A 
ATOM     22  C   UNL     1       5.086  -2.180  -1.053  0.00  0.00    +0.013 A 
ATOM     23  C   UNL     1       4.689  -2.893  -2.186  0.00  0.00    +0.001 A 
ATOM     24  C   UNL     1       3.822  -2.307  -3.109  0.00  0.00    +0.000 A 
ATOM     25  C   UNL     1       3.359  -1.006  -2.906  0.00  0.00    +0.001 A 
ATOM     26  C   UNL     1       3.760  -0.288  -1.777  0.00  0.00    +0.013 A 
ENDBRANCH  18  21
ENDBRANCH   1  17
BRANCH   1  28
ATOM     27  O   UNL     1       0.992  -0.032   0.039  0.00  0.00    -0.543 OA
ATOM     28  C   UNL     1       1.939  -0.458   0.764  0.00  0.00    +0.086 C 
ATOM     29  OXT UNL     1       2.199  -1.629   1.163  0.00  0.00    -0.543 OA
ENDBRANCH   1  28
TORSDOF 6
