
 OpenBabel09132204463D

 29 31  0  0  0  0  0  0  0  0999 V2000
    7.0100   -3.2310    6.1920 C   0  0  0  0  0  0  0  0  0  0  0  0
    8.2270   -2.8550    5.7450 C   0  0  0  0  0  2  0  0  0  0  0  0
    8.5700   -2.4930    4.3670 C   0  0  0  0  0  0  0  0  0  0  0  0
    9.3210   -1.3390    4.1220 C   0  0  0  0  0  3  0  0  0  0  0  0
    9.6560   -0.9830    2.8140 C   0  0  0  0  0  3  0  0  0  0  0  0
    9.2510   -1.7850    1.7480 C   0  0  0  0  0  0  0  0  0  0  0  0
    8.4700   -2.9210    1.9800 C   0  0  0  0  0  3  0  0  0  0  0  0
    8.1360   -3.2760    3.2890 C   0  0  0  0  0  3  0  0  0  0  0  0
    9.6020   -1.3650    0.4840 O   0  0  0  0  0  0  0  0  0  0  0  0
   10.5800   -2.0840   -0.1690 C   0  0  0  0  0  0  0  0  0  0  0  0
   10.9890   -3.3340    0.3140 C   0  0  0  0  0  3  0  0  0  0  0  0
   12.0080   -4.0370   -0.3320 C   0  0  0  0  0  3  0  0  0  0  0  0
   12.6340   -3.4860   -1.4500 C   0  0  0  0  0  3  0  0  0  0  0  0
   12.2480   -2.2300   -1.9210 C   0  0  0  0  0  3  0  0  0  0  0  0
   11.2270   -1.5230   -1.2760 C   0  0  0  0  0  0  0  0  0  0  0  0
   10.7040    0.3570   -2.0300 I   0  0  0  0  0  0  0  0  0  0  0  0
    5.9360   -3.3830    5.3240 N   0  0  0  0  0  4  0  0  0  0  0  0
    4.5780   -3.3300    5.5410 C   0  0  0  0  0  0  0  0  0  0  0  0
    3.8090   -3.7610    4.6770 O   0  0  0  0  0  0  0  0  0  0  0  0
    6.1620   -3.6750    4.3830 H   0  0  0  0  0  0  0  0  0  0  0  0
    3.9900   -2.6700    6.7260 C   0  0  0  0  0  0  0  0  0  0  0  0
    3.0600   -3.3790    7.4960 C   0  0  0  0  0  3  0  0  0  0  0  0
    2.4270   -2.7590    8.5750 C   0  0  0  0  0  3  0  0  0  0  0  0
    2.7100   -1.4260    8.8760 C   0  0  0  0  0  3  0  0  0  0  0  0
    3.6170   -0.7090    8.0950 C   0  0  0  0  0  3  0  0  0  0  0  0
    4.2470   -1.3250    7.0110 C   0  0  0  0  0  3  0  0  0  0  0  0
    7.3300   -2.6300    8.4850 O   0  0  0  0  0  1  0  0  0  0  0  0
    6.9960   -3.5800    7.7160 C   0  0  0  0  0  0  0  0  0  0  0  0
    6.6920   -4.7780    7.9830 O   0  0  0  0  0  0  0  0  0  0  0  0
  1 28  1  0  0  0  0
  2  1  1  0  0  0  0
  3  2  1  0  0  0  0
  4  3  1  0  0  0  0
  5  4  2  0  0  0  0
  6  7  2  0  0  0  0
  6  5  1  0  0  0  0
  7  8  1  0  0  0  0
  8  3  2  0  0  0  0
  9  6  1  0  0  0  0
 10 11  1  0  0  0  0
 10  9  1  0  0  0  0
 12 11  2  0  0  0  0
 13 12  1  0  0  0  0
 14 13  2  0  0  0  0
 14 15  1  0  0  0  0
 15 10  2  0  0  0  0
 16 15  1  0  0  0  0
 17 18  1  0  0  0  0
 17  1  2  0  0  0  0
 18 21  1  0  0  0  0
 19 18  2  0  0  0  0
 20 17  1  0  0  0  0
 21 26  2  0  0  0  0
 21 22  1  0  0  0  0
 22 23  2  0  0  0  0
 23 24  1  0  0  0  0
 25 24  2  0  0  0  0
 26 25  1  0  0  0  0
 28 29  2  0  0  0  0
 28 27  1  0  0  0  0
M  END
>  <minimizedAffinity>
-6.21486807

$$$$
