
 OpenBabel09132204463D

 29 31  0  0  0  0  0  0  0  0999 V2000
    8.1750   -3.2280    2.5330 C   0  0  0  0  0  0  0  0  0  0  0  0
    8.5420   -3.5100    3.8000 C   0  0  0  0  0  2  0  0  0  0  0  0
    9.0010   -2.5460    4.8040 C   0  0  0  0  0  0  0  0  0  0  0  0
   10.3280   -2.1040    4.7810 C   0  0  0  0  0  3  0  0  0  0  0  0
   10.7790   -1.1840    5.7310 C   0  0  0  0  0  3  0  0  0  0  0  0
    9.9020   -0.6960    6.6980 C   0  0  0  0  0  0  0  0  0  0  0  0
    8.5850   -1.1590    6.7520 C   0  0  0  0  0  3  0  0  0  0  0  0
    8.1360   -2.0780    5.8010 C   0  0  0  0  0  3  0  0  0  0  0  0
   10.4190    0.1940    7.6130 O   0  0  0  0  0  0  0  0  0  0  0  0
    9.7880    1.4150    7.7280 C   0  0  0  0  0  0  0  0  0  0  0  0
    8.6170    1.5440    8.4860 C   0  0  0  0  0  3  0  0  0  0  0  0
    7.9640    2.7760    8.5640 C   0  0  0  0  0  3  0  0  0  0  0  0
    8.4680    3.8770    7.8720 C   0  0  0  0  0  3  0  0  0  0  0  0
    9.6210    3.7480    7.0940 C   0  0  0  0  0  3  0  0  0  0  0  0
   10.2770    2.5150    7.0140 C   0  0  0  0  0  0  0  0  0  0  0  0
   11.9950    2.3910    5.8260 I   0  0  0  0  0  0  0  0  0  0  0  0
    8.2700   -1.9400    2.0220 N   0  0  0  0  0  4  0  0  0  0  0  0
    9.2630   -1.3210    1.2960 C   0  0  0  0  0  0  0  0  0  0  0  0
    9.2520   -0.0930    1.1790 O   0  0  0  0  0  0  0  0  0  0  0  0
    7.5390   -1.2970    2.2940 H   0  0  0  0  0  0  0  0  0  0  0  0
   10.2870   -2.0810    0.5470 C   0  0  0  0  0  0  0  0  0  0  0  0
   11.1800   -2.8860    1.2630 C   0  0  0  0  0  3  0  0  0  0  0  0
   12.2090   -3.5540    0.5970 C   0  0  0  0  0  3  0  0  0  0  0  0
   12.3570   -3.4070   -0.7830 C   0  0  0  0  0  3  0  0  0  0  0  0
   11.4830   -2.5840   -1.4960 C   0  0  0  0  0  3  0  0  0  0  0  0
   10.4570   -1.9090   -0.8310 C   0  0  0  0  0  3  0  0  0  0  0  0
    8.3970   -4.6550    0.6270 O   0  0  0  0  0  0  0  0  0  0  0  0
    7.7670   -4.4970    1.7140 C   0  0  0  0  0  0  0  0  0  0  0  0
    6.8310   -5.1780    2.2230 O   0  0  0  0  0  1  0  0  0  0  0  0
  1  2  1  0  0  0  0
  2  3  1  0  0  0  0
  3  8  1  0  0  0  0
  4  3  2  0  0  0  0
  4  5  1  0  0  0  0
  5  6  2  0  0  0  0
  6  7  1  0  0  0  0
  6  9  1  0  0  0  0
  8  7  2  0  0  0  0
  9 10  1  0  0  0  0
 10 11  1  0  0  0  0
 11 12  2  0  0  0  0
 13 12  1  0  0  0  0
 14 13  2  0  0  0  0
 15 14  1  0  0  0  0
 15 10  2  0  0  0  0
 16 15  1  0  0  0  0
 17 20  1  0  0  0  0
 17  1  2  0  0  0  0
 18 17  1  0  0  0  0
 19 18  2  0  0  0  0
 21 22  1  0  0  0  0
 21 18  1  0  0  0  0
 23 22  2  0  0  0  0
 24 23  1  0  0  0  0
 25 26  1  0  0  0  0
 25 24  2  0  0  0  0
 26 21  2  0  0  0  0
 27 28  2  0  0  0  0
 28 29  1  0  0  0  0
 28  1  1  0  0  0  0
M  END
>  <minimizedAffinity>
-6.05986357

$$$$
