
 OpenBabel09132204463D

 29 31  0  0  0  0  0  0  0  0999 V2000
    9.4680    9.3020   -0.3060 C   0  0  0  0  0  0  0  0  0  0  0  0
   10.3130    8.3930   -0.8390 C   0  0  0  0  0  2  0  0  0  0  0  0
   10.4720    7.0020   -0.4070 C   0  0  0  0  0  0  0  0  0  0  0  0
   11.7200    6.5570    0.0420 C   0  0  0  0  0  3  0  0  0  0  0  0
   11.8860    5.2340    0.4580 C   0  0  0  0  0  3  0  0  0  0  0  0
   10.8030    4.3560    0.4360 C   0  0  0  0  0  0  0  0  0  0  0  0
    9.5620    4.7820   -0.0440 C   0  0  0  0  0  3  0  0  0  0  0  0
    9.3970    6.1050   -0.4590 C   0  0  0  0  0  3  0  0  0  0  0  0
   11.0430    3.0620    0.8440 O   0  0  0  0  0  0  0  0  0  0  0  0
   11.1080    2.0960   -0.1370 C   0  0  0  0  0  0  0  0  0  0  0  0
   11.8420    2.3180   -1.3100 C   0  0  0  0  0  3  0  0  0  0  0  0
   11.8700    1.3490   -2.3150 C   0  0  0  0  0  3  0  0  0  0  0  0
   11.1520    0.1640   -2.1600 C   0  0  0  0  0  3  0  0  0  0  0  0
   10.3980   -0.0530   -1.0040 C   0  0  0  0  0  3  0  0  0  0  0  0
   10.3690    0.9160    0.0040 C   0  0  0  0  0  0  0  0  0  0  0  0
    9.2140    0.5300    1.7050 I   0  0  0  0  0  0  0  0  0  0  0  0
    8.6860    9.0000    0.8010 N   0  0  0  0  0  4  0  0  0  0  0  0
    8.8510    9.2890    2.1370 C   0  0  0  0  0  0  0  0  0  0  0  0
    8.1690    8.6920    2.9750 O   0  0  0  0  0  0  0  0  0  0  0  0
    7.9010    8.3850    0.6370 H   0  0  0  0  0  0  0  0  0  0  0  0
    9.7370   10.3750    2.6090 C   0  0  0  0  0  0  0  0  0  0  0  0
   10.9210   10.0330    3.2710 C   0  0  0  0  0  3  0  0  0  0  0  0
   11.7420   11.0310    3.7990 C   0  0  0  0  0  3  0  0  0  0  0  0
   11.3720   12.3710    3.6810 C   0  0  0  0  0  3  0  0  0  0  0  0
   10.1780   12.7140    3.0440 C   0  0  0  0  0  3  0  0  0  0  0  0
    9.3520   11.7170    2.5210 C   0  0  0  0  0  3  0  0  0  0  0  0
    8.5160   11.1030   -1.5590 O   0  0  0  0  0  0  0  0  0  0  0  0
    9.5720   10.7080   -0.9830 C   0  0  0  0  0  0  0  0  0  0  0  0
   10.7110   11.2520   -0.9030 O   0  0  0  0  0  1  0  0  0  0  0  0
  1 17  2  0  0  0  0
  2  3  1  0  0  0  0
  2  1  1  0  0  0  0
  3  4  1  0  0  0  0
  4  5  2  0  0  0  0
  6  5  1  0  0  0  0
  6  9  1  0  0  0  0
  7  6  2  0  0  0  0
  8  3  2  0  0  0  0
  8  7  1  0  0  0  0
 10 15  1  0  0  0  0
 10  9  1  0  0  0  0
 11 10  2  0  0  0  0
 12 13  2  0  0  0  0
 12 11  1  0  0  0  0
 13 14  1  0  0  0  0
 14 15  2  0  0  0  0
 15 16  1  0  0  0  0
 17 18  1  0  0  0  0
 18 21  1  0  0  0  0
 18 19  2  0  0  0  0
 20 17  1  0  0  0  0
 21 22  1  0  0  0  0
 22 23  2  0  0  0  0
 24 23  1  0  0  0  0
 25 24  2  0  0  0  0
 26 21  2  0  0  0  0
 26 25  1  0  0  0  0
 27 28  2  0  0  0  0
 28 29  1  0  0  0  0
 28  1  1  0  0  0  0
M  END
>  <minimizedAffinity>
-6.93293571

$$$$
