
 OpenBabel09122223443D

 29 31  0  0  0  0  0  0  0  0999 V2000
    9.1750   -3.9680    0.6990 C   0  0  0  0  0  0  0  0  0  0  0  0
    8.4920   -3.3600    1.6930 C   0  0  0  0  0  2  0  0  0  0  0  0
    9.0710   -2.5780    2.7890 C   0  0  0  0  0  0  0  0  0  0  0  0
    9.5210   -3.2320    3.9400 C   0  0  0  0  0  3  0  0  0  0  0  0
   10.0760   -2.5000    4.9930 C   0  0  0  0  0  3  0  0  0  0  0  0
   10.1930   -1.1140    4.8910 C   0  0  0  0  0  0  0  0  0  0  0  0
    9.7140   -0.4490    3.7590 C   0  0  0  0  0  3  0  0  0  0  0  0
    9.1600   -1.1830    2.7080 C   0  0  0  0  0  3  0  0  0  0  0  0
   10.7340   -0.4540    5.9720 O   0  0  0  0  0  0  0  0  0  0  0  0
    9.8910    0.3570    6.7000 C   0  0  0  0  0  0  0  0  0  0  0  0
    8.8040   -0.1870    7.3980 C   0  0  0  0  0  3  0  0  0  0  0  0
    7.9330    0.6470    8.1000 C   0  0  0  0  0  3  0  0  0  0  0  0
    8.1320    2.0280    8.0940 C   0  0  0  0  0  3  0  0  0  0  0  0
    9.1980    2.5780    7.3790 C   0  0  0  0  0  3  0  0  0  0  0  0
   10.0730    1.7450    6.6750 C   0  0  0  0  0  0  0  0  0  0  0  0
   11.6450    2.6360    5.6200 I   0  0  0  0  0  0  0  0  0  0  0  0
   10.5630   -3.9620    0.6660 N   0  0  0  0  0  4  0  0  0  0  0  0
   11.4510   -3.2770   -0.1320 C   0  0  0  0  0  0  0  0  0  0  0  0
   12.6340   -3.6290   -0.1640 O   0  0  0  0  0  0  0  0  0  0  0  0
   11.0250   -4.6370    1.2590 H   0  0  0  0  0  0  0  0  0  0  0  0
   11.0700   -2.0560   -0.8740 C   0  0  0  0  0  0  0  0  0  0  0  0
   11.5790   -1.8690   -2.1640 C   0  0  0  0  0  3  0  0  0  0  0  0
   11.3040   -0.6920   -2.8620 C   0  0  0  0  0  3  0  0  0  0  0  0
   10.5340    0.3080   -2.2650 C   0  0  0  0  0  3  0  0  0  0  0  0
   10.0470    0.1350   -0.9680 C   0  0  0  0  0  3  0  0  0  0  0  0
   10.3270   -1.0390   -0.2650 C   0  0  0  0  0  3  0  0  0  0  0  0
    7.3270   -5.4210    0.2540 O   0  0  0  0  0  1  0  0  0  0  0  0
    8.2510   -4.7490   -0.2930 C   0  0  0  0  0  0  0  0  0  0  0  0
    8.5720   -4.6420   -1.5110 O   0  0  0  0  0  0  0  0  0  0  0  0
  1  2  1  0  0  0  0
  2  3  1  0  0  0  0
  3  4  1  0  0  0  0
  4  5  2  0  0  0  0
  6  5  1  0  0  0  0
  6  9  1  0  0  0  0
  7  6  2  0  0  0  0
  8  3  2  0  0  0  0
  8  7  1  0  0  0  0
  9 10  1  0  0  0  0
 10 11  1  0  0  0  0
 11 12  2  0  0  0  0
 13 12  1  0  0  0  0
 14 13  2  0  0  0  0
 15 10  2  0  0  0  0
 15 14  1  0  0  0  0
 16 15  1  0  0  0  0
 17  1  2  0  0  0  0
 17 20  1  0  0  0  0
 18 17  1  0  0  0  0
 19 18  2  0  0  0  0
 21 26  1  0  0  0  0
 21 18  1  0  0  0  0
 22 21  2  0  0  0  0
 23 24  2  0  0  0  0
 23 22  1  0  0  0  0
 24 25  1  0  0  0  0
 25 26  2  0  0  0  0
 28 27  1  0  0  0  0
 28  1  1  0  0  0  0
 29 28  2  0  0  0  0
M  END
>  <minimizedAffinity>
-7.43650198

$$$$

 OpenBabel09122223443D

 29 31  0  0  0  0  0  0  0  0999 V2000
    9.4680    9.3020   -0.3060 C   0  0  0  0  0  0  0  0  0  0  0  0
   10.3130    8.3930   -0.8390 C   0  0  0  0  0  2  0  0  0  0  0  0
   10.4720    7.0020   -0.4070 C   0  0  0  0  0  0  0  0  0  0  0  0
   11.7200    6.5570    0.0420 C   0  0  0  0  0  3  0  0  0  0  0  0
   11.8860    5.2340    0.4580 C   0  0  0  0  0  3  0  0  0  0  0  0
   10.8030    4.3560    0.4360 C   0  0  0  0  0  0  0  0  0  0  0  0
    9.5620    4.7820   -0.0440 C   0  0  0  0  0  3  0  0  0  0  0  0
    9.3970    6.1050   -0.4590 C   0  0  0  0  0  3  0  0  0  0  0  0
   11.0430    3.0620    0.8440 O   0  0  0  0  0  0  0  0  0  0  0  0
   11.1080    2.0960   -0.1370 C   0  0  0  0  0  0  0  0  0  0  0  0
   11.8420    2.3180   -1.3100 C   0  0  0  0  0  3  0  0  0  0  0  0
   11.8700    1.3490   -2.3150 C   0  0  0  0  0  3  0  0  0  0  0  0
   11.1520    0.1640   -2.1600 C   0  0  0  0  0  3  0  0  0  0  0  0
   10.3980   -0.0530   -1.0040 C   0  0  0  0  0  3  0  0  0  0  0  0
   10.3690    0.9160    0.0040 C   0  0  0  0  0  0  0  0  0  0  0  0
    9.2140    0.5300    1.7050 I   0  0  0  0  0  0  0  0  0  0  0  0
    8.6860    9.0000    0.8010 N   0  0  0  0  0  4  0  0  0  0  0  0
    8.8510    9.2890    2.1370 C   0  0  0  0  0  0  0  0  0  0  0  0
    8.1690    8.6920    2.9750 O   0  0  0  0  0  0  0  0  0  0  0  0
    7.9010    8.3850    0.6370 H   0  0  0  0  0  0  0  0  0  0  0  0
    9.7370   10.3750    2.6090 C   0  0  0  0  0  0  0  0  0  0  0  0
   10.9210   10.0330    3.2710 C   0  0  0  0  0  3  0  0  0  0  0  0
   11.7420   11.0310    3.7990 C   0  0  0  0  0  3  0  0  0  0  0  0
   11.3720   12.3710    3.6810 C   0  0  0  0  0  3  0  0  0  0  0  0
   10.1780   12.7140    3.0440 C   0  0  0  0  0  3  0  0  0  0  0  0
    9.3520   11.7170    2.5210 C   0  0  0  0  0  3  0  0  0  0  0  0
    8.5160   11.1030   -1.5590 O   0  0  0  0  0  0  0  0  0  0  0  0
    9.5720   10.7080   -0.9830 C   0  0  0  0  0  0  0  0  0  0  0  0
   10.7110   11.2520   -0.9030 O   0  0  0  0  0  1  0  0  0  0  0  0
  1 17  2  0  0  0  0
  2  3  1  0  0  0  0
  2  1  1  0  0  0  0
  3  4  1  0  0  0  0
  4  5  2  0  0  0  0
  6  5  1  0  0  0  0
  6  9  1  0  0  0  0
  7  6  2  0  0  0  0
  8  3  2  0  0  0  0
  8  7  1  0  0  0  0
 10 15  1  0  0  0  0
 10  9  1  0  0  0  0
 11 10  2  0  0  0  0
 12 13  2  0  0  0  0
 12 11  1  0  0  0  0
 13 14  1  0  0  0  0
 14 15  2  0  0  0  0
 15 16  1  0  0  0  0
 17 18  1  0  0  0  0
 18 21  1  0  0  0  0
 18 19  2  0  0  0  0
 20 17  1  0  0  0  0
 21 22  1  0  0  0  0
 22 23  2  0  0  0  0
 24 23  1  0  0  0  0
 25 24  2  0  0  0  0
 26 21  2  0  0  0  0
 26 25  1  0  0  0  0
 27 28  2  0  0  0  0
 28 29  1  0  0  0  0
 28  1  1  0  0  0  0
M  END
>  <minimizedAffinity>
-6.93293571

$$$$

 OpenBabel09122223443D

 29 31  0  0  0  0  0  0  0  0999 V2000
    8.6090   11.3800   -0.3720 C   0  0  0  0  0  0  0  0  0  0  0  0
    8.2770   10.2770    0.3300 C   0  0  0  0  0  2  0  0  0  0  0  0
    9.1470    9.1300    0.6060 C   0  0  0  0  0  0  0  0  0  0  0  0
   10.1450    9.2400    1.5800 C   0  0  0  0  0  3  0  0  0  0  0  0
   10.9810    8.1550    1.8540 C   0  0  0  0  0  3  0  0  0  0  0  0
   10.8150    6.9560    1.1630 C   0  0  0  0  0  0  0  0  0  0  0  0
    9.8450    6.8490    0.1630 C   0  0  0  0  0  3  0  0  0  0  0  0
    9.0090    7.9340   -0.1090 C   0  0  0  0  0  3  0  0  0  0  0  0
   11.6860    5.9340    1.4720 O   0  0  0  0  0  0  0  0  0  0  0  0
   11.2050    4.9170    2.2680 C   0  0  0  0  0  0  0  0  0  0  0  0
   10.8530    5.1610    3.6030 C   0  0  0  0  0  3  0  0  0  0  0  0
   10.4040    4.1160    4.4120 C   0  0  0  0  0  3  0  0  0  0  0  0
   10.3220    2.8220    3.8990 C   0  0  0  0  0  3  0  0  0  0  0  0
   10.6960    2.5680    2.5780 C   0  0  0  0  0  3  0  0  0  0  0  0
   11.1460    3.6130    1.7640 C   0  0  0  0  0  0  0  0  0  0  0  0
   11.6960    3.1600   -0.2030 I   0  0  0  0  0  0  0  0  0  0  0  0
    9.8490   11.5000   -0.9870 N   0  0  0  0  0  4  0  0  0  0  0  0
   10.3160   11.0270   -2.1920 C   0  0  0  0  0  0  0  0  0  0  0  0
   11.5310   11.0250   -2.4130 O   0  0  0  0  0  0  0  0  0  0  0  0
   10.5800   11.9260   -0.4340 H   0  0  0  0  0  0  0  0  0  0  0  0
    9.4110   10.6210   -3.2880 C   0  0  0  0  0  0  0  0  0  0  0  0
    9.4050    9.2800   -3.6900 C   0  0  0  0  0  3  0  0  0  0  0  0
    8.6210    8.8780   -4.7740 C   0  0  0  0  0  3  0  0  0  0  0  0
    7.8560    9.8170   -5.4660 C   0  0  0  0  0  3  0  0  0  0  0  0
    7.8800   11.1590   -5.0840 C   0  0  0  0  0  3  0  0  0  0  0  0
    8.6680   11.5650   -4.0040 C   0  0  0  0  0  3  0  0  0  0  0  0
    7.0770   12.9540    0.5760 O   0  0  0  0  0  1  0  0  0  0  0  0
    7.4320   12.4010   -0.5070 C   0  0  0  0  0  0  0  0  0  0  0  0
    6.9580   12.5120   -1.6740 O   0  0  0  0  0  0  0  0  0  0  0  0
  1  2  1  0  0  0  0
  2  3  1  0  0  0  0
  3  4  1  0  0  0  0
  4  5  2  0  0  0  0
  6  9  1  0  0  0  0
  6  5  1  0  0  0  0
  7  6  2  0  0  0  0
  8  7  1  0  0  0  0
  8  3  2  0  0  0  0
  9 10  1  0  0  0  0
 10 11  1  0  0  0  0
 11 12  2  0  0  0  0
 13 12  1  0  0  0  0
 14 13  2  0  0  0  0
 15 10  2  0  0  0  0
 15 14  1  0  0  0  0
 16 15  1  0  0  0  0
 17 20  1  0  0  0  0
 17  1  2  3  0  0  0
 18 17  1  0  0  0  0
 19 18  2  0  0  0  0
 21 18  1  0  0  0  0
 22 21  1  0  0  0  0
 23 22  2  0  0  0  0
 24 25  2  0  0  0  0
 24 23  1  0  0  0  0
 25 26  1  0  0  0  0
 26 21  2  0  0  0  0
 28  1  1  0  0  0  0
 28 27  1  0  0  0  0
 29 28  2  0  0  0  0
M  END
>  <minimizedAffinity>
-6.56426477

$$$$

 OpenBabel09122223443D

 29 31  0  0  0  0  0  0  0  0999 V2000
    8.1050   -4.4920    1.1240 C   0  0  0  0  0  0  0  0  0  0  0  0
    6.8280   -4.9300    1.1100 C   0  0  0  0  0  2  0  0  0  0  0  0
    5.9140   -4.9710    2.2550 C   0  0  0  0  0  0  0  0  0  0  0  0
    5.9640   -3.9540    3.2150 C   0  0  0  0  0  3  0  0  0  0  0  0
    5.0980   -3.9790    4.3110 C   0  0  0  0  0  3  0  0  0  0  0  0
    4.1730   -5.0140    4.4440 C   0  0  0  0  0  0  0  0  0  0  0  0
    4.1410   -6.0530    3.5100 C   0  0  0  0  0  3  0  0  0  0  0  0
    5.0070   -6.0260    2.4140 C   0  0  0  0  0  3  0  0  0  0  0  0
    3.3630   -4.9850    5.5570 O   0  0  0  0  0  0  0  0  0  0  0  0
    2.9120   -3.7520    5.9750 C   0  0  0  0  0  0  0  0  0  0  0  0
    2.1420   -2.9480    5.1230 C   0  0  0  0  0  3  0  0  0  0  0  0
    1.7220   -1.6840    5.5410 C   0  0  0  0  0  3  0  0  0  0  0  0
    2.0850   -1.2100    6.8020 C   0  0  0  0  0  3  0  0  0  0  0  0
    2.8740   -1.9960    7.6450 C   0  0  0  0  0  3  0  0  0  0  0  0
    3.2950   -3.2630    7.2290 C   0  0  0  0  0  0  0  0  0  0  0  0
    4.4800   -4.3840    8.5400 I   0  0  0  0  0  0  0  0  0  0  0  0
    8.7180   -4.0860    2.3030 N   0  0  0  0  0  4  0  0  0  0  0  0
    9.5010   -2.9910    2.5900 C   0  0  0  0  0  0  0  0  0  0  0  0
   10.1590   -2.9730    3.6340 O   0  0  0  0  0  0  0  0  0  0  0  0
    8.6730   -4.7370    3.0750 H   0  0  0  0  0  0  0  0  0  0  0  0
    9.5010   -1.7750    1.7480 C   0  0  0  0  0  0  0  0  0  0  0  0
   10.1160   -1.8300    0.4920 C   0  0  0  0  0  3  0  0  0  0  0  0
   10.2040   -0.6800   -0.2950 C   0  0  0  0  0  3  0  0  0  0  0  0
    9.6920    0.5290    0.1790 C   0  0  0  0  0  3  0  0  0  0  0  0
    9.1020    0.5920    1.4420 C   0  0  0  0  0  3  0  0  0  0  0  0
    9.0190   -0.5560    2.2340 C   0  0  0  0  0  3  0  0  0  0  0  0
    8.0310   -4.6330   -1.2630 O   0  0  0  0  0  0  0  0  0  0  0  0
    8.8120   -4.6150   -0.2660 C   0  0  0  0  0  0  0  0  0  0  0  0
   10.0700   -4.7220   -0.2120 O   0  0  0  0  0  1  0  0  0  0  0  0
  1 17  2  0  0  0  0
  2  1  1  0  0  0  0
  2  3  1  0  0  0  0
  3  8  2  0  0  0  0
  3  4  1  0  0  0  0
  4  5  2  0  0  0  0
  5  6  1  0  0  0  0
  6  9  1  0  0  0  0
  7  6  2  0  0  0  0
  8  7  1  0  0  0  0
  9 10  1  0  0  0  0
 10 15  1  0  0  0  0
 11 12  1  0  0  0  0
 11 10  2  0  0  0  0
 12 13  2  0  0  0  0
 13 14  1  0  0  0  0
 15 14  2  0  0  0  0
 15 16  1  0  0  0  0
 17 18  1  0  0  0  0
 17 20  1  0  0  0  0
 18 19  2  0  0  0  0
 21 26  1  0  0  0  0
 21 18  1  0  0  0  0
 22 21  2  0  0  0  0
 23 24  2  0  0  0  0
 23 22  1  0  0  0  0
 24 25  1  0  0  0  0
 25 26  2  0  0  0  0
 27 28  2  0  0  0  0
 28 29  1  0  0  0  0
 28  1  1  0  0  0  0
M  END
>  <minimizedAffinity>
-6.48859644

$$$$

 OpenBabel09122223443D

 29 31  0  0  0  0  0  0  0  0999 V2000
    9.7420    9.5240   -0.2660 C   0  0  0  0  0  0  0  0  0  0  0  0
    9.2640    8.4230    0.3500 C   0  0  0  0  0  2  0  0  0  0  0  0
    9.8280    7.0730    0.2700 C   0  0  0  0  0  0  0  0  0  0  0  0
    9.0970    6.0560   -0.3540 C   0  0  0  0  0  3  0  0  0  0  0  0
    9.6220    4.7640   -0.4400 C   0  0  0  0  0  3  0  0  0  0  0  0
   10.8830    4.4890    0.0890 C   0  0  0  0  0  0  0  0  0  0  0  0
   11.6040    5.4890    0.7460 C   0  0  0  0  0  3  0  0  0  0  0  0
   11.0780    6.7800    0.8290 C   0  0  0  0  0  3  0  0  0  0  0  0
   11.3310    3.1910   -0.0150 O   0  0  0  0  0  0  0  0  0  0  0  0
   10.5670    2.2120    0.5830 C   0  0  0  0  0  0  0  0  0  0  0  0
   10.0580    2.3930    1.8750 C   0  0  0  0  0  3  0  0  0  0  0  0
    9.3170    1.3800    2.4870 C   0  0  0  0  0  3  0  0  0  0  0  0
    9.0990    0.1760    1.8190 C   0  0  0  0  0  3  0  0  0  0  0  0
    9.6260   -0.0210    0.5410 C   0  0  0  0  0  3  0  0  0  0  0  0
   10.3670    0.9920   -0.0750 C   0  0  0  0  0  0  0  0  0  0  0  0
   11.1330    0.6270   -1.9880 I   0  0  0  0  0  0  0  0  0  0  0  0
   10.8260    9.4570   -1.1320 N   0  0  0  0  0  4  0  0  0  0  0  0
   10.8910    9.4190   -2.5060 C   0  0  0  0  0  0  0  0  0  0  0  0
   11.9470    9.0890   -3.0550 O   0  0  0  0  0  0  0  0  0  0  0  0
   11.7300    9.3170   -0.7030 H   0  0  0  0  0  0  0  0  0  0  0  0
    9.7750    9.8710   -3.3650 C   0  0  0  0  0  0  0  0  0  0  0  0
    9.1840    8.9490   -4.2350 C   0  0  0  0  0  3  0  0  0  0  0  0
    8.1810    9.3610   -5.1160 C   0  0  0  0  0  3  0  0  0  0  0  0
    7.7800   10.6970   -5.1380 C   0  0  0  0  0  3  0  0  0  0  0  0
    8.3860   11.6240   -4.2890 C   0  0  0  0  0  3  0  0  0  0  0  0
    9.3940   11.2160   -3.4120 C   0  0  0  0  0  3  0  0  0  0  0  0
    9.5370   11.8860    0.0570 O   0  0  0  0  0  0  0  0  0  0  0  0
    8.8820   10.8030    0.0060 C   0  0  0  0  0  0  0  0  0  0  0  0
    7.6500   10.5850    0.1810 O   0  0  0  0  0  1  0  0  0  0  0  0
  1 28  1  0  0  0  0
  1  2  1  0  0  0  0
  3  2  1  0  0  0  0
  3  8  1  0  0  0  0
  4  3  2  0  0  0  0
  5  4  1  0  0  0  0
  5  6  2  0  0  0  0
  6  7  1  0  0  0  0
  7  8  2  0  0  0  0
  9  6  1  0  0  0  0
  9 10  1  0  0  0  0
 10 11  1  0  0  0  0
 11 12  2  0  0  0  0
 13 12  1  0  0  0  0
 14 13  2  0  0  0  0
 15 14  1  0  0  0  0
 15 10  2  0  0  0  0
 16 15  1  0  0  0  0
 17 20  1  0  0  0  0
 17  1  2  0  0  0  0
 18 17  1  0  0  0  0
 19 18  2  0  0  0  0
 21 18  1  0  0  0  0
 22 21  2  0  0  0  0
 23 22  1  0  0  0  0
 24 23  2  0  0  0  0
 24 25  1  0  0  0  0
 25 26  2  0  0  0  0
 26 21  1  0  0  0  0
 28 27  2  0  0  0  0
 28 29  1  0  0  0  0
M  END
>  <minimizedAffinity>
-6.45404863

$$$$

 OpenBabel09122223443D

 29 31  0  0  0  0  0  0  0  0999 V2000
   10.3990    6.4430    2.1310 C   0  0  0  0  0  0  0  0  0  0  0  0
   11.1670    6.3040    1.0300 C   0  0  0  0  0  2  0  0  0  0  0  0
   11.0270    7.0510   -0.2230 C   0  0  0  0  0  0  0  0  0  0  0  0
    9.7620    7.1960   -0.8030 C   0  0  0  0  0  3  0  0  0  0  0  0
    9.6140    7.9070   -1.9960 C   0  0  0  0  0  3  0  0  0  0  0  0
   10.7270    8.4830   -2.6070 C   0  0  0  0  0  0  0  0  0  0  0  0
   11.9990    8.3130   -2.0540 C   0  0  0  0  0  3  0  0  0  0  0  0
   12.1450    7.6030   -0.8600 C   0  0  0  0  0  3  0  0  0  0  0  0
   10.5100    9.1540   -3.7900 O   0  0  0  0  0  0  0  0  0  0  0  0
    9.9050   10.3900   -3.7100 C   0  0  0  0  0  0  0  0  0  0  0  0
   10.4240   11.3860   -2.8720 C   0  0  0  0  0  3  0  0  0  0  0  0
    9.7820   12.6210   -2.7690 C   0  0  0  0  0  3  0  0  0  0  0  0
    8.6100   12.8600   -3.4860 C   0  0  0  0  0  3  0  0  0  0  0  0
    8.0740   11.8630   -4.3030 C   0  0  0  0  0  3  0  0  0  0  0  0
    8.7150   10.6240   -4.4090 C   0  0  0  0  0  0  0  0  0  0  0  0
    7.8530    9.1730   -5.6450 I   0  0  0  0  0  0  0  0  0  0  0  0
    9.3070    7.3010    2.1480 N   0  0  0  0  0  4  0  0  0  0  0  0
    9.2220    8.6600    2.3560 C   0  0  0  0  0  0  0  0  0  0  0  0
    8.1230    9.1690    2.5930 O   0  0  0  0  0  0  0  0  0  0  0  0
    8.3970    6.8660    2.0920 H   0  0  0  0  0  0  0  0  0  0  0  0
   10.3830    9.5600    2.1940 C   0  0  0  0  0  0  0  0  0  0  0  0
   10.4630   10.3500    1.0420 C   0  0  0  0  0  3  0  0  0  0  0  0
   11.5840   11.1530    0.8190 C   0  0  0  0  0  3  0  0  0  0  0  0
   12.6330   11.1540    1.7390 C   0  0  0  0  0  3  0  0  0  0  0  0
   12.5680   10.3470    2.8760 C   0  0  0  0  0  3  0  0  0  0  0  0
   11.4500    9.5390    3.0980 C   0  0  0  0  0  3  0  0  0  0  0  0
   11.5390    4.5010    2.9370 O   0  0  0  0  0  0  0  0  0  0  0  0
   10.7970    5.4660    3.2860 C   0  0  0  0  0  0  0  0  0  0  0  0
   10.2930    5.7430    4.4120 O   0  0  0  0  0  1  0  0  0  0  0  0
  1 17  2  0  0  0  0
  1 28  1  0  0  0  0
  2  1  1  0  0  0  0
  3  2  1  0  0  0  0
  4  3  1  0  0  0  0
  5  4  2  0  0  0  0
  6  7  2  0  0  0  0
  6  5  1  0  0  0  0
  7  8  1  0  0  0  0
  8  3  2  0  0  0  0
  9 10  1  0  0  0  0
  9  6  1  0  0  0  0
 10 11  1  0  0  0  0
 11 12  2  0  0  0  0
 13 12  1  0  0  0  0
 14 13  2  0  0  0  0
 15 14  1  0  0  0  0
 15 10  2  0  0  0  0
 16 15  1  0  0  0  0
 17 18  1  0  0  0  0
 18 19  2  0  0  0  0
 20 17  1  0  0  0  0
 21 18  1  0  0  0  0
 21 26  1  0  0  0  0
 22 21  2  0  0  0  0
 23 22  1  0  0  0  0
 23 24  2  0  0  0  0
 24 25  1  0  0  0  0
 25 26  2  0  0  0  0
 27 28  2  0  0  0  0
 28 29  1  0  0  0  0
M  END
>  <minimizedAffinity>
-6.34603548

$$$$

 OpenBabel09122223443D

 29 31  0  0  0  0  0  0  0  0999 V2000
    7.0100   -3.2310    6.1920 C   0  0  0  0  0  0  0  0  0  0  0  0
    8.2270   -2.8550    5.7450 C   0  0  0  0  0  2  0  0  0  0  0  0
    8.5700   -2.4930    4.3670 C   0  0  0  0  0  0  0  0  0  0  0  0
    9.3210   -1.3390    4.1220 C   0  0  0  0  0  3  0  0  0  0  0  0
    9.6560   -0.9830    2.8140 C   0  0  0  0  0  3  0  0  0  0  0  0
    9.2510   -1.7850    1.7480 C   0  0  0  0  0  0  0  0  0  0  0  0
    8.4700   -2.9210    1.9800 C   0  0  0  0  0  3  0  0  0  0  0  0
    8.1360   -3.2760    3.2890 C   0  0  0  0  0  3  0  0  0  0  0  0
    9.6020   -1.3650    0.4840 O   0  0  0  0  0  0  0  0  0  0  0  0
   10.5800   -2.0840   -0.1690 C   0  0  0  0  0  0  0  0  0  0  0  0
   10.9890   -3.3340    0.3140 C   0  0  0  0  0  3  0  0  0  0  0  0
   12.0080   -4.0370   -0.3320 C   0  0  0  0  0  3  0  0  0  0  0  0
   12.6340   -3.4860   -1.4500 C   0  0  0  0  0  3  0  0  0  0  0  0
   12.2480   -2.2300   -1.9210 C   0  0  0  0  0  3  0  0  0  0  0  0
   11.2270   -1.5230   -1.2760 C   0  0  0  0  0  0  0  0  0  0  0  0
   10.7040    0.3570   -2.0300 I   0  0  0  0  0  0  0  0  0  0  0  0
    5.9360   -3.3830    5.3240 N   0  0  0  0  0  4  0  0  0  0  0  0
    4.5780   -3.3300    5.5410 C   0  0  0  0  0  0  0  0  0  0  0  0
    3.8090   -3.7610    4.6770 O   0  0  0  0  0  0  0  0  0  0  0  0
    6.1620   -3.6750    4.3830 H   0  0  0  0  0  0  0  0  0  0  0  0
    3.9900   -2.6700    6.7260 C   0  0  0  0  0  0  0  0  0  0  0  0
    3.0600   -3.3790    7.4960 C   0  0  0  0  0  3  0  0  0  0  0  0
    2.4270   -2.7590    8.5750 C   0  0  0  0  0  3  0  0  0  0  0  0
    2.7100   -1.4260    8.8760 C   0  0  0  0  0  3  0  0  0  0  0  0
    3.6170   -0.7090    8.0950 C   0  0  0  0  0  3  0  0  0  0  0  0
    4.2470   -1.3250    7.0110 C   0  0  0  0  0  3  0  0  0  0  0  0
    7.3300   -2.6300    8.4850 O   0  0  0  0  0  1  0  0  0  0  0  0
    6.9960   -3.5800    7.7160 C   0  0  0  0  0  0  0  0  0  0  0  0
    6.6920   -4.7780    7.9830 O   0  0  0  0  0  0  0  0  0  0  0  0
  1 28  1  0  0  0  0
  2  1  1  0  0  0  0
  3  2  1  0  0  0  0
  4  3  1  0  0  0  0
  5  4  2  0  0  0  0
  6  7  2  0  0  0  0
  6  5  1  0  0  0  0
  7  8  1  0  0  0  0
  8  3  2  0  0  0  0
  9  6  1  0  0  0  0
 10 11  1  0  0  0  0
 10  9  1  0  0  0  0
 12 11  2  0  0  0  0
 13 12  1  0  0  0  0
 14 13  2  0  0  0  0
 14 15  1  0  0  0  0
 15 10  2  0  0  0  0
 16 15  1  0  0  0  0
 17 18  1  0  0  0  0
 17  1  2  0  0  0  0
 18 21  1  0  0  0  0
 19 18  2  0  0  0  0
 20 17  1  0  0  0  0
 21 26  2  0  0  0  0
 21 22  1  0  0  0  0
 22 23  2  0  0  0  0
 23 24  1  0  0  0  0
 25 24  2  0  0  0  0
 26 25  1  0  0  0  0
 28 29  2  0  0  0  0
 28 27  1  0  0  0  0
M  END
>  <minimizedAffinity>
-6.21486807

$$$$

 OpenBabel09122223443D

 29 31  0  0  0  0  0  0  0  0999 V2000
    9.0820   10.4580   -0.1190 C   0  0  0  0  0  0  0  0  0  0  0  0
   10.1590    9.8860   -0.6960 C   0  0  0  0  0  2  0  0  0  0  0  0
   10.7380    8.5840   -0.3500 C   0  0  0  0  0  0  0  0  0  0  0  0
   11.9940    8.5280    0.2620 C   0  0  0  0  0  3  0  0  0  0  0  0
   12.5570    7.2950    0.5980 C   0  0  0  0  0  3  0  0  0  0  0  0
   11.8610    6.1160    0.3330 C   0  0  0  0  0  0  0  0  0  0  0  0
   10.6220    6.1610   -0.3110 C   0  0  0  0  0  3  0  0  0  0  0  0
   10.0600    7.3950   -0.6460 C   0  0  0  0  0  3  0  0  0  0  0  0
   12.4840    4.9360    0.6760 O   0  0  0  0  0  0  0  0  0  0  0  0
   11.7000    3.8030    0.7240 C   0  0  0  0  0  0  0  0  0  0  0  0
   11.5460    2.9940   -0.4100 C   0  0  0  0  0  3  0  0  0  0  0  0
   10.7190    1.8700   -0.3620 C   0  0  0  0  0  3  0  0  0  0  0  0
   10.0300    1.5610    0.8100 C   0  0  0  0  0  3  0  0  0  0  0  0
   10.1600    2.3780    1.9350 C   0  0  0  0  0  3  0  0  0  0  0  0
   10.9880    3.5040    1.8910 C   0  0  0  0  0  0  0  0  0  0  0  0
   11.1300    4.6880    3.6100 I   0  0  0  0  0  0  0  0  0  0  0  0
    8.4350    9.8630    0.9570 N   0  0  0  0  0  4  0  0  0  0  0  0
    8.8240    9.6820    2.2650 C   0  0  0  0  0  0  0  0  0  0  0  0
    8.2020    8.8900    2.9780 O   0  0  0  0  0  0  0  0  0  0  0  0
    7.5660    9.3920    0.7490 H   0  0  0  0  0  0  0  0  0  0  0  0
    9.8960   10.4860    2.8910 C   0  0  0  0  0  0  0  0  0  0  0  0
   11.0350    9.8290    3.3680 C   0  0  0  0  0  3  0  0  0  0  0  0
   12.0300   10.5470    4.0350 C   0  0  0  0  0  3  0  0  0  0  0  0
   11.8790   11.9190    4.2400 C   0  0  0  0  0  3  0  0  0  0  0  0
   10.7320   12.5730    3.7880 C   0  0  0  0  0  3  0  0  0  0  0  0
    9.7320   11.8550    3.1260 C   0  0  0  0  0  3  0  0  0  0  0  0
    9.4400   12.8200   -0.2360 O   0  0  0  0  0  1  0  0  0  0  0  0
    8.7470   11.8700   -0.7050 C   0  0  0  0  0  0  0  0  0  0  0  0
    7.7990   11.8850   -1.5410 O   0  0  0  0  0  0  0  0  0  0  0  0
  1 17  2  0  0  0  0
  2  3  1  0  0  0  0
  2  1  1  0  0  0  0
  3  4  1  0  0  0  0
  4  5  2  0  0  0  0
  6  5  1  0  0  0  0
  6  9  1  0  0  0  0
  7  6  2  0  0  0  0
  8  3  2  0  0  0  0
  8  7  1  0  0  0  0
  9 10  1  0  0  0  0
 10 15  1  0  0  0  0
 11 12  1  0  0  0  0
 11 10  2  0  0  0  0
 12 13  2  0  0  0  0
 13 14  1  0  0  0  0
 15 14  2  0  0  0  0
 15 16  1  0  0  0  0
 17 18  1  0  0  0  0
 18 21  1  0  0  0  0
 18 19  2  0  0  0  0
 20 17  1  0  0  0  0
 21 26  2  0  0  0  0
 21 22  1  0  0  0  0
 22 23  2  0  0  0  0
 23 24  1  0  0  0  0
 25 24  2  0  0  0  0
 26 25  1  0  0  0  0
 28 27  1  0  0  0  0
 28  1  1  0  0  0  0
 29 28  2  0  0  0  0
M  END
>  <minimizedAffinity>
-6.20524216

$$$$

 OpenBabel09122223443D

 29 31  0  0  0  0  0  0  0  0999 V2000
    8.8550   11.0900    0.2350 C   0  0  0  0  0  0  0  0  0  0  0  0
    8.4460    9.8700    0.6430 C   0  0  0  0  0  2  0  0  0  0  0  0
    9.3040    8.7100    0.9000 C   0  0  0  0  0  0  0  0  0  0  0  0
   10.0090    8.1250   -0.1560 C   0  0  0  0  0  3  0  0  0  0  0  0
   10.8320    7.0200    0.0740 C   0  0  0  0  0  3  0  0  0  0  0  0
   10.9600    6.5040    1.3630 C   0  0  0  0  0  0  0  0  0  0  0  0
   10.2320    7.0600    2.4180 C   0  0  0  0  0  3  0  0  0  0  0  0
    9.4100    8.1650    2.1860 C   0  0  0  0  0  3  0  0  0  0  0  0
   11.7730    5.4030    1.5150 O   0  0  0  0  0  0  0  0  0  0  0  0
   11.1620    4.2080    1.8260 C   0  0  0  0  0  0  0  0  0  0  0  0
   10.2890    3.5950    0.9170 C   0  0  0  0  0  3  0  0  0  0  0  0
    9.6450    2.4040    1.2570 C   0  0  0  0  0  3  0  0  0  0  0  0
    9.8550    1.8310    2.5100 C   0  0  0  0  0  3  0  0  0  0  0  0
   10.7040    2.4500    3.4300 C   0  0  0  0  0  3  0  0  0  0  0  0
   11.3520    3.6430    3.0930 C   0  0  0  0  0  0  0  0  0  0  0  0
   12.6040    4.5210    4.5210 I   0  0  0  0  0  0  0  0  0  0  0  0
   10.1890   11.3450   -0.0600 N   0  0  0  0  0  4  0  0  0  0  0  0
   11.2430   11.7120    0.7460 C   0  0  0  0  0  0  0  0  0  0  0  0
   12.2770   12.1450    0.2300 O   0  0  0  0  0  0  0  0  0  0  0  0
   10.4330   11.3590   -1.0400 H   0  0  0  0  0  0  0  0  0  0  0  0
   11.2330   11.5020    2.2090 C   0  0  0  0  0  0  0  0  0  0  0  0
   12.0190   10.4750    2.7440 C   0  0  0  0  0  3  0  0  0  0  0  0
   11.9720   10.1970    4.1120 C   0  0  0  0  0  3  0  0  0  0  0  0
   11.1290   10.9350    4.9440 C   0  0  0  0  0  3  0  0  0  0  0  0
   10.3260   11.9430    4.4090 C   0  0  0  0  0  3  0  0  0  0  0  0
   10.3650   12.2180    3.0400 C   0  0  0  0  0  3  0  0  0  0  0  0
    7.2660   12.1940   -1.1720 O   0  0  0  0  0  0  0  0  0  0  0  0
    7.6760   12.0950    0.0230 C   0  0  0  0  0  0  0  0  0  0  0  0
    7.3100   12.7100    1.0650 O   0  0  0  0  0  1  0  0  0  0  0  0
  1  2  1  0  0  0  0
  2  3  1  0  0  0  0
  3  8  1  0  0  0  0
  4  5  1  0  0  0  0
  4  3  2  0  0  0  0
  5  6  2  0  0  0  0
  6  9  1  0  0  0  0
  6  7  1  0  0  0  0
  8  7  2  0  0  0  0
  9 10  1  0  0  0  0
 10 15  1  0  0  0  0
 11 12  1  0  0  0  0
 11 10  2  0  0  0  0
 12 13  2  0  0  0  0
 13 14  1  0  0  0  0
 15 14  2  0  0  0  0
 15 16  1  0  0  0  0
 17  1  2  0  0  0  0
 17 18  1  0  0  0  0
 18 21  1  0  0  0  0
 19 18  2  0  0  0  0
 20 17  1  0  0  0  0
 21 22  2  0  0  0  0
 21 26  1  0  0  0  0
 22 23  1  0  0  0  0
 23 24  2  0  0  0  0
 25 24  1  0  0  0  0
 26 25  2  0  0  0  0
 27 28  2  0  0  0  0
 28  1  1  0  0  0  0
 28 29  1  0  0  0  0
M  END
>  <minimizedAffinity>
-6.19376612

$$$$

 OpenBabel09122223443D

 29 31  0  0  0  0  0  0  0  0999 V2000
    8.1750   -3.2280    2.5330 C   0  0  0  0  0  0  0  0  0  0  0  0
    8.5420   -3.5100    3.8000 C   0  0  0  0  0  2  0  0  0  0  0  0
    9.0010   -2.5460    4.8040 C   0  0  0  0  0  0  0  0  0  0  0  0
   10.3280   -2.1040    4.7810 C   0  0  0  0  0  3  0  0  0  0  0  0
   10.7790   -1.1840    5.7310 C   0  0  0  0  0  3  0  0  0  0  0  0
    9.9020   -0.6960    6.6980 C   0  0  0  0  0  0  0  0  0  0  0  0
    8.5850   -1.1590    6.7520 C   0  0  0  0  0  3  0  0  0  0  0  0
    8.1360   -2.0780    5.8010 C   0  0  0  0  0  3  0  0  0  0  0  0
   10.4190    0.1940    7.6130 O   0  0  0  0  0  0  0  0  0  0  0  0
    9.7880    1.4150    7.7280 C   0  0  0  0  0  0  0  0  0  0  0  0
    8.6170    1.5440    8.4860 C   0  0  0  0  0  3  0  0  0  0  0  0
    7.9640    2.7760    8.5640 C   0  0  0  0  0  3  0  0  0  0  0  0
    8.4680    3.8770    7.8720 C   0  0  0  0  0  3  0  0  0  0  0  0
    9.6210    3.7480    7.0940 C   0  0  0  0  0  3  0  0  0  0  0  0
   10.2770    2.5150    7.0140 C   0  0  0  0  0  0  0  0  0  0  0  0
   11.9950    2.3910    5.8260 I   0  0  0  0  0  0  0  0  0  0  0  0
    8.2700   -1.9400    2.0220 N   0  0  0  0  0  4  0  0  0  0  0  0
    9.2630   -1.3210    1.2960 C   0  0  0  0  0  0  0  0  0  0  0  0
    9.2520   -0.0930    1.1790 O   0  0  0  0  0  0  0  0  0  0  0  0
    7.5390   -1.2970    2.2940 H   0  0  0  0  0  0  0  0  0  0  0  0
   10.2870   -2.0810    0.5470 C   0  0  0  0  0  0  0  0  0  0  0  0
   11.1800   -2.8860    1.2630 C   0  0  0  0  0  3  0  0  0  0  0  0
   12.2090   -3.5540    0.5970 C   0  0  0  0  0  3  0  0  0  0  0  0
   12.3570   -3.4070   -0.7830 C   0  0  0  0  0  3  0  0  0  0  0  0
   11.4830   -2.5840   -1.4960 C   0  0  0  0  0  3  0  0  0  0  0  0
   10.4570   -1.9090   -0.8310 C   0  0  0  0  0  3  0  0  0  0  0  0
    8.3970   -4.6550    0.6270 O   0  0  0  0  0  0  0  0  0  0  0  0
    7.7670   -4.4970    1.7140 C   0  0  0  0  0  0  0  0  0  0  0  0
    6.8310   -5.1780    2.2230 O   0  0  0  0  0  1  0  0  0  0  0  0
  1  2  1  0  0  0  0
  2  3  1  0  0  0  0
  3  8  1  0  0  0  0
  4  3  2  0  0  0  0
  4  5  1  0  0  0  0
  5  6  2  0  0  0  0
  6  7  1  0  0  0  0
  6  9  1  0  0  0  0
  8  7  2  0  0  0  0
  9 10  1  0  0  0  0
 10 11  1  0  0  0  0
 11 12  2  0  0  0  0
 13 12  1  0  0  0  0
 14 13  2  0  0  0  0
 15 14  1  0  0  0  0
 15 10  2  0  0  0  0
 16 15  1  0  0  0  0
 17 20  1  0  0  0  0
 17  1  2  0  0  0  0
 18 17  1  0  0  0  0
 19 18  2  0  0  0  0
 21 22  1  0  0  0  0
 21 18  1  0  0  0  0
 23 22  2  0  0  0  0
 24 23  1  0  0  0  0
 25 26  1  0  0  0  0
 25 24  2  0  0  0  0
 26 21  2  0  0  0  0
 27 28  2  0  0  0  0
 28 29  1  0  0  0  0
 28  1  1  0  0  0  0
M  END
>  <minimizedAffinity>
-6.05986357

$$$$
