
 OpenBabel09132204463D

 29 31  0  0  0  0  0  0  0  0999 V2000
    9.7420    9.5240   -0.2660 C   0  0  0  0  0  0  0  0  0  0  0  0
    9.2640    8.4230    0.3500 C   0  0  0  0  0  2  0  0  0  0  0  0
    9.8280    7.0730    0.2700 C   0  0  0  0  0  0  0  0  0  0  0  0
    9.0970    6.0560   -0.3540 C   0  0  0  0  0  3  0  0  0  0  0  0
    9.6220    4.7640   -0.4400 C   0  0  0  0  0  3  0  0  0  0  0  0
   10.8830    4.4890    0.0890 C   0  0  0  0  0  0  0  0  0  0  0  0
   11.6040    5.4890    0.7460 C   0  0  0  0  0  3  0  0  0  0  0  0
   11.0780    6.7800    0.8290 C   0  0  0  0  0  3  0  0  0  0  0  0
   11.3310    3.1910   -0.0150 O   0  0  0  0  0  0  0  0  0  0  0  0
   10.5670    2.2120    0.5830 C   0  0  0  0  0  0  0  0  0  0  0  0
   10.0580    2.3930    1.8750 C   0  0  0  0  0  3  0  0  0  0  0  0
    9.3170    1.3800    2.4870 C   0  0  0  0  0  3  0  0  0  0  0  0
    9.0990    0.1760    1.8190 C   0  0  0  0  0  3  0  0  0  0  0  0
    9.6260   -0.0210    0.5410 C   0  0  0  0  0  3  0  0  0  0  0  0
   10.3670    0.9920   -0.0750 C   0  0  0  0  0  0  0  0  0  0  0  0
   11.1330    0.6270   -1.9880 I   0  0  0  0  0  0  0  0  0  0  0  0
   10.8260    9.4570   -1.1320 N   0  0  0  0  0  4  0  0  0  0  0  0
   10.8910    9.4190   -2.5060 C   0  0  0  0  0  0  0  0  0  0  0  0
   11.9470    9.0890   -3.0550 O   0  0  0  0  0  0  0  0  0  0  0  0
   11.7300    9.3170   -0.7030 H   0  0  0  0  0  0  0  0  0  0  0  0
    9.7750    9.8710   -3.3650 C   0  0  0  0  0  0  0  0  0  0  0  0
    9.1840    8.9490   -4.2350 C   0  0  0  0  0  3  0  0  0  0  0  0
    8.1810    9.3610   -5.1160 C   0  0  0  0  0  3  0  0  0  0  0  0
    7.7800   10.6970   -5.1380 C   0  0  0  0  0  3  0  0  0  0  0  0
    8.3860   11.6240   -4.2890 C   0  0  0  0  0  3  0  0  0  0  0  0
    9.3940   11.2160   -3.4120 C   0  0  0  0  0  3  0  0  0  0  0  0
    9.5370   11.8860    0.0570 O   0  0  0  0  0  0  0  0  0  0  0  0
    8.8820   10.8030    0.0060 C   0  0  0  0  0  0  0  0  0  0  0  0
    7.6500   10.5850    0.1810 O   0  0  0  0  0  1  0  0  0  0  0  0
  1 28  1  0  0  0  0
  1  2  1  0  0  0  0
  3  2  1  0  0  0  0
  3  8  1  0  0  0  0
  4  3  2  0  0  0  0
  5  4  1  0  0  0  0
  5  6  2  0  0  0  0
  6  7  1  0  0  0  0
  7  8  2  0  0  0  0
  9  6  1  0  0  0  0
  9 10  1  0  0  0  0
 10 11  1  0  0  0  0
 11 12  2  0  0  0  0
 13 12  1  0  0  0  0
 14 13  2  0  0  0  0
 15 14  1  0  0  0  0
 15 10  2  0  0  0  0
 16 15  1  0  0  0  0
 17 20  1  0  0  0  0
 17  1  2  0  0  0  0
 18 17  1  0  0  0  0
 19 18  2  0  0  0  0
 21 18  1  0  0  0  0
 22 21  2  0  0  0  0
 23 22  1  0  0  0  0
 24 23  2  0  0  0  0
 24 25  1  0  0  0  0
 25 26  2  0  0  0  0
 26 21  1  0  0  0  0
 28 27  2  0  0  0  0
 28 29  1  0  0  0  0
M  END
>  <minimizedAffinity>
-6.45404863

$$$$
