REMARK  Name = 
REMARK  9 active torsions:
REMARK  status: ('A' for Active; 'I' for Inactive)
REMARK    1  A    between atoms: C_1  and  N_2
REMARK    2  A    between atoms: N_2  and  C_3
REMARK    3  A    between atoms: C_4  and  C_6
REMARK    4  A    between atoms: C_6  and  N_7
REMARK    5  A    between atoms: C_8  and  C_9
REMARK    6  A    between atoms: C_13  and  C_14
REMARK    7  A    between atoms: C_14  and  N_15
REMARK    8  A    between atoms: C_24  and  C_25
REMARK    9  A    between atoms: C_34  and  C_35
REMARK                            x       y       z     vdW  Elec       q    Type
REMARK                         _______ _______ _______ _____ _____    ______ ____
ROOT
ATOM      1  N   UNL     1       0.553  -2.030   3.964  0.00  0.00    -0.331 N 
ATOM      2  C   UNL     1       0.955  -2.795   5.038  0.00  0.00    +0.054 A 
ATOM      3  C   UNL     1       1.309  -1.931   6.080  0.00  0.00    -0.011 A 
ATOM      4  C   UNL     1       1.123  -0.591   5.584  0.00  0.00    +0.004 A 
ATOM      5  C   UNL     1       1.307   0.712   6.099  0.00  0.00    +0.011 A 
ATOM      6  C   UNL     1       1.046   1.842   5.307  0.00  0.00    +0.010 A 
ATOM      7  C   UNL     1       0.596   1.720   3.993  0.00  0.00    -0.001 A 
ATOM      8  C   UNL     1       0.398   0.435   3.476  0.00  0.00    +0.036 A 
ATOM      9  C   UNL     1       0.665  -0.692   4.269  0.00  0.00    +0.051 A 
ENDROOT
BRANCH   2  10
ATOM     10  C   UNL     1       1.082  -4.246   4.967  0.00  0.00    -0.001 A 
ATOM     11  C   UNL     1       0.127  -5.101   5.514  0.00  0.00    +0.010 A 
ATOM     12  C   UNL     1       0.299  -6.483   5.419  0.00  0.00    +0.001 A 
ATOM     13  C   UNL     1       1.427  -7.014   4.785  0.00  0.00    +0.009 A 
ATOM     14  C   UNL     1       2.399  -6.164   4.241  0.00  0.00    -0.002 A 
ATOM     15  C   UNL     1       2.209  -4.782   4.341  0.00  0.00    +0.018 A 
BRANCH  14  16
ATOM     16  C   UNL     1       3.635  -6.686   3.568  0.00  0.00    +0.168 C 
BRANCH  16  17
ATOM     17  N   UNL     1       4.871  -6.743   4.444  0.00  0.00    +0.243 N 
ATOM     18  C   UNL     1       5.399  -5.386   4.858  0.00  0.00    +0.132 C 
ATOM     19  C   UNL     1       6.748  -5.563   5.555  0.00  0.00    +0.057 C 
ATOM     20  C   UNL     1       6.668  -6.517   6.749  0.00  0.00    +0.086 C 
ATOM     21  C   UNL     1       6.064  -7.852   6.348  0.00  0.00    +0.287 C 
ATOM     22  F   UNL     1       6.907  -8.472   5.478  0.00  0.00    -0.200 F 
ATOM     23  F   UNL     1       5.932  -8.658   7.421  0.00  0.00    -0.200 F 
ATOM     24  C   UNL     1       4.717  -7.672   5.645  0.00  0.00    +0.208 C 
ATOM     25  H   UNL     1       5.594  -7.164   3.843  0.00  0.00    +0.204 HD
ENDBRANCH  16  17
ENDBRANCH  14  16
ENDBRANCH   2  10
BRANCH   3  26
ATOM     26  C   UNL     1       1.828  -2.398   7.434  0.00  0.00    +0.022 C 
ATOM     27  C   UNL     1       3.319  -2.110   7.670  0.00  0.00    +0.008 C 
ATOM     28  C   UNL     1       3.622  -0.857   8.481  0.00  0.00    +0.001 C 
ATOM     29  C   UNL     1       2.774  -0.772   9.741  0.00  0.00    +0.000 C 
ATOM     30  C   UNL     1       1.285  -0.837   9.433  0.00  0.00    +0.001 C 
ATOM     31  C   UNL     1       0.911  -2.073   8.623  0.00  0.00    +0.008 C 
ENDBRANCH   3  26
BRANCH   7  32
ATOM     32  C   UNL     1       0.328   2.935   3.126  0.00  0.00    +0.072 C 
ATOM     33  O   UNL     1      -0.082   2.711   1.941  0.00  0.00    -0.545 OA
ATOM     34  O   UNL     1       0.538   4.075   3.642  0.00  0.00    -0.545 OA
ENDBRANCH   7  32
BRANCH   1  35
ATOM     35  C   UNL     1       0.014  -2.516   2.691  0.00  0.00    +0.218 C 
BRANCH  35  39
ATOM     36  C   UNL     1       1.918  -1.685  -0.544  0.00  0.00    +0.131 C 
ATOM     37  N   UNL     1       0.824  -1.875   0.396  0.00  0.00    -0.306 N 
ATOM     38  C   UNL     1      -0.424  -1.212   0.031  0.00  0.00    +0.131 C 
ATOM     39  C   UNL     1       1.068  -2.550   1.587  0.00  0.00    +0.235 C 
ATOM     40  O   UNL     1       2.112  -3.199   1.746  0.00  0.00    -0.274 OA
ENDBRANCH  35  39
ENDBRANCH   1  35
TORSDOF 7
