
 OpenBabel09122222393D

 40 44  0  0  0  0  0  0  0  0999 V2000
    3.4960   -8.4370    3.4030 N   0  0  0  0  0  0  0  0  0  0  0  0
    3.0510   -7.8620    4.5750 C   0  0  0  0  0  0  0  0  0  0  0  0
    3.3080   -6.4880    4.5110 C   0  0  0  0  0  0  0  0  0  0  0  0
    3.9530   -6.2490    3.2450 C   0  0  0  0  0  0  0  0  0  0  0  0
    4.4780   -5.1210    2.5750 C   0  0  0  0  0  3  0  0  0  0  0  0
    5.0880   -5.2500    1.3170 C   0  0  0  0  0  3  0  0  0  0  0  0
    5.1930   -6.4890    0.6850 C   0  0  0  0  0  0  0  0  0  0  0  0
    4.6660   -7.6110    1.3320 C   0  0  0  0  0  3  0  0  0  0  0  0
    4.0630   -7.4790    2.5930 C   0  0  0  0  0  0  0  0  0  0  0  0
    2.5330   -8.6470    5.6890 C   0  0  0  0  0  0  0  0  0  0  0  0
    1.1690   -8.8660    5.8710 C   0  0  0  0  0  3  0  0  0  0  0  0
    0.7280   -9.6250    6.9560 C   0  0  0  0  0  3  0  0  0  0  0  0
    1.6450  -10.1590    7.8660 C   0  0  0  0  0  3  0  0  0  0  0  0
    3.0190   -9.9370    7.7000 C   0  0  0  0  0  0  0  0  0  0  0  0
    3.4440   -9.1780    6.6040 C   0  0  0  0  0  3  0  0  0  0  0  0
    4.0400  -10.4740    8.6590 C   0  0  0  0  0  2  0  0  0  0  0  0
    3.8610  -10.0410   10.1010 N   0  0  0  0  0  4  0  0  0  0  0  0
    4.6690  -10.8480   11.0950 C   0  0  0  0  0  2  0  0  0  0  0  0
    4.2520  -10.4620   12.5140 C   0  0  0  0  0  2  0  0  0  0  0  0
    4.3890   -8.9600   12.7740 C   0  0  0  0  0  2  0  0  0  0  0  0
    3.6430   -8.1480   11.7290 C   0  0  0  0  0  0  0  0  0  0  0  0
    2.3100   -8.3910   11.8550 F   0  0  0  0  0  0  0  0  0  0  0  0
    3.8300   -6.8280   11.9260 F   0  0  0  0  0  0  0  0  0  0  0  0
    4.0570   -8.5420   10.3100 C   0  0  0  0  0  2  0  0  0  0  0  0
    2.8710  -10.2350   10.3070 H   0  0  0  0  0  0  0  0  0  0  0  0
    2.9780   -5.5080    5.6290 C   0  0  0  0  0  3  0  0  0  0  0  0
    4.2070   -4.9880    6.3930 C   0  0  0  0  0  2  0  0  0  0  0  0
    4.7230   -3.6260    5.9500 C   0  0  0  0  0  2  0  0  0  0  0  0
    3.6040   -2.6040    5.8210 C   0  0  0  0  0  2  0  0  0  0  0  0
    2.5100   -3.0720    4.8720 C   0  0  0  0  0  2  0  0  0  0  0  0
    1.9440   -4.4330    5.2610 C   0  0  0  0  0  2  0  0  0  0  0  0
    5.8650   -6.6390   -0.6670 C   0  0  0  0  0  0  0  0  0  0  0  0
    5.5950   -7.6980   -1.3230 O   0  0  0  0  0  0  0  0  0  0  0  0
    6.6440   -5.7090   -1.0350 O   0  0  0  0  0  1  0  0  0  0  0  0
    3.3520   -9.8390    3.0010 C   0  0  0  0  0  2  0  0  0  0  0  0
    5.3730  -12.7910    4.4090 C   0  0  0  0  0  1  0  0  0  0  0  0
    4.2930  -11.8380    4.2060 N   0  0  0  0  0  0  0  0  0  0  0  0
    2.9980  -12.2520    4.7380 C   0  0  0  0  0  1  0  0  0  0  0  0
    4.5330  -10.6970    3.4480 C   0  0  0  0  0  0  0  0  0  0  0  0
    5.6900  -10.3590    3.1600 O   0  0  0  0  0  0  0  0  0  0  0  0
  1  2  1  0  0  0  0
  2 10  1  0  0  0  0
  3  2  2  0  0  0  0
  3 26  1  0  0  0  0
  4  3  1  0  0  0  0
  5  4  2  0  0  0  0
  6  5  1  0  0  0  0
  7  6  2  0  0  0  0
  7  8  1  0  0  0  0
  8  9  2  0  0  0  0
  9  4  1  0  0  0  0
  9  1  1  0  0  0  0
 10 11  2  0  0  0  0
 10 15  1  0  0  0  0
 11 12  1  0  0  0  0
 12 13  2  0  0  0  0
 14 13  1  0  0  0  0
 14 16  1  0  0  0  0
 15 14  2  0  0  0  0
 16 17  1  0  0  0  0
 17 25  1  0  0  0  0
 17 24  1  0  0  0  0
 17 18  1  0  0  0  0
 18 19  1  0  0  0  0
 19 20  1  0  0  0  0
 21 22  1  0  0  0  0
 21 23  1  0  0  0  0
 21 20  1  0  0  0  0
 24 21  1  0  0  0  0
 26 27  1  0  0  0  0
 28 27  1  0  0  0  0
 29 28  1  0  0  0  0
 30 31  1  0  0  0  0
 30 29  1  0  0  0  0
 31 26  1  0  0  0  0
 32  7  1  0  0  0  0
 33 32  2  0  0  0  0
 34 32  1  0  0  0  0
 35  1  1  0  0  0  0
 35 39  1  0  0  0  0
 37 36  1  0  0  0  0
 37 38  1  0  0  0  0
 39 37  1  0  0  0  0
 40 39  2  0  0  0  0
M  END
>  <minimizedAffinity>
-7.91548014

$$$$
