
 OpenBabel09122222393D

 40 44  0  0  0  0  0  0  0  0999 V2000
    3.0790   -7.2270    4.6590 N   0  0  0  0  0  0  0  0  0  0  0  0
    3.5710   -7.9950    3.6260 C   0  0  0  0  0  0  0  0  0  0  0  0
    4.2870   -7.1580    2.7630 C   0  0  0  0  0  0  0  0  0  0  0  0
    4.1920   -5.8280    3.3090 C   0  0  0  0  0  0  0  0  0  0  0  0
    4.6590   -4.5470    2.9360 C   0  0  0  0  0  3  0  0  0  0  0  0
    4.3500   -3.4160    3.7090 C   0  0  0  0  0  3  0  0  0  0  0  0
    3.5800   -3.5160    4.8670 C   0  0  0  0  0  0  0  0  0  0  0  0
    3.1230   -4.7810    5.2530 C   0  0  0  0  0  3  0  0  0  0  0  0
    3.4290   -5.9080    4.4750 C   0  0  0  0  0  0  0  0  0  0  0  0
    3.2430   -9.4080    3.4700 C   0  0  0  0  0  0  0  0  0  0  0  0
    4.2230  -10.3780    3.2660 C   0  0  0  0  0  3  0  0  0  0  0  0
    3.8530  -11.7160    3.1220 C   0  0  0  0  0  3  0  0  0  0  0  0
    2.5060  -12.0880    3.1730 C   0  0  0  0  0  3  0  0  0  0  0  0
    1.5120  -11.1200    3.3670 C   0  0  0  0  0  0  0  0  0  0  0  0
    1.9000   -9.7840    3.5140 C   0  0  0  0  0  3  0  0  0  0  0  0
    0.0520  -11.4670    3.4110 C   0  0  0  0  0  2  0  0  0  0  0  0
   -0.8590  -10.3630    3.9120 N   0  0  0  0  0  4  0  0  0  0  0  0
   -2.3140  -10.5420    3.5350 C   0  0  0  0  0  2  0  0  0  0  0  0
   -3.0890   -9.2790    3.9110 C   0  0  0  0  0  2  0  0  0  0  0  0
   -2.9380   -8.9200    5.3910 C   0  0  0  0  0  2  0  0  0  0  0  0
   -1.4750   -8.8190    5.7870 C   0  0  0  0  0  0  0  0  0  0  0  0
   -0.9130   -7.7700    5.1270 F   0  0  0  0  0  0  0  0  0  0  0  0
   -1.3540   -8.5730    7.1070 F   0  0  0  0  0  0  0  0  0  0  0  0
   -0.7000  -10.0810    5.4040 C   0  0  0  0  0  2  0  0  0  0  0  0
   -0.5340   -9.5180    3.4220 H   0  0  0  0  0  0  0  0  0  0  0  0
    4.9670   -7.6340    1.4850 C   0  0  0  0  0  3  0  0  0  0  0  0
    4.2780   -7.1660    0.1940 C   0  0  0  0  0  2  0  0  0  0  0  0
    4.8880   -5.9360   -0.4640 C   0  0  0  0  0  2  0  0  0  0  0  0
    6.4020   -6.0400   -0.5790 C   0  0  0  0  0  2  0  0  0  0  0  0
    7.0620   -6.2820    0.7700 C   0  0  0  0  0  2  0  0  0  0  0  0
    6.4980   -7.5050    1.4840 C   0  0  0  0  0  2  0  0  0  0  0  0
    3.2280   -2.2970    5.6980 C   0  0  0  0  0  0  0  0  0  0  0  0
    2.0630   -1.8100    5.5320 O   0  0  0  0  0  0  0  0  0  0  0  0
    4.1190   -1.8540    6.4860 O   0  0  0  0  0  1  0  0  0  0  0  0
    2.3460   -7.7010    5.8360 C   0  0  0  0  0  2  0  0  0  0  0  0
    3.8030   -7.9430    9.3850 C   0  0  0  0  0  1  0  0  0  0  0  0
    3.1060   -7.4240    8.2190 N   0  0  0  0  0  0  0  0  0  0  0  0
    2.1810   -6.3280    8.4920 C   0  0  0  0  0  1  0  0  0  0  0  0
    3.2740   -8.0600    6.9940 C   0  0  0  0  0  0  0  0  0  0  0  0
    4.1820   -8.8860    6.8280 O   0  0  0  0  0  0  0  0  0  0  0  0
  1 35  1  0  0  0  0
  2  1  1  0  0  0  0
  3  4  1  0  0  0  0
  3  2  2  0  0  0  0
  4  9  1  0  0  0  0
  5  4  2  0  0  0  0
  5  6  1  0  0  0  0
  6  7  2  0  0  0  0
  7  8  1  0  0  0  0
  7 32  1  0  0  0  0
  9  1  1  0  0  0  0
  9  8  2  0  0  0  0
 10 15  1  0  0  0  0
 10  2  1  0  0  0  0
 11 10  2  0  0  0  0
 12 13  2  0  0  0  0
 12 11  1  0  0  0  0
 13 14  1  0  0  0  0
 14 16  1  0  0  0  0
 14 15  2  0  0  0  0
 16 17  1  0  0  0  0
 17 24  1  0  0  0  0
 18 19  1  0  0  0  0
 18 17  1  0  0  0  0
 19 20  1  0  0  0  0
 20 21  1  0  0  0  0
 21 23  1  0  0  0  0
 22 21  1  0  0  0  0
 24 21  1  0  0  0  0
 25 17  1  0  0  0  0
 26  3  1  0  0  0  0
 27 26  1  0  0  0  0
 28 27  1  0  0  0  0
 29 28  1  0  0  0  0
 29 30  1  0  0  0  0
 30 31  1  0  0  0  0
 31 26  1  0  0  0  0
 32 34  1  0  0  0  0
 33 32  2  0  0  0  0
 35 39  1  0  0  0  0
 37 38  1  0  0  0  0
 37 36  1  0  0  0  0
 39 37  1  0  0  0  0
 40 39  2  0  0  0  0
M  END
>  <minimizedAffinity>
-8.03251934

$$$$
