
 OpenBabel09122222393D

 40 44  0  0  0  0  0  0  0  0999 V2000
    3.5750   -6.3230    4.0900 N   0  0  0  0  0  0  0  0  0  0  0  0
    3.1190   -7.4170    4.7940 C   0  0  0  0  0  0  0  0  0  0  0  0
    3.8320   -8.5410    4.3620 C   0  0  0  0  0  0  0  0  0  0  0  0
    4.7380   -8.0840    3.3390 C   0  0  0  0  0  0  0  0  0  0  0  0
    5.7020   -8.6880    2.5010 C   0  0  0  0  0  3  0  0  0  0  0  0
    6.4150   -7.9260    1.5600 C   0  0  0  0  0  3  0  0  0  0  0  0
    6.2000   -6.5560    1.4220 C   0  0  0  0  0  0  0  0  0  0  0  0
    5.2570   -5.9450    2.2560 C   0  0  0  0  0  3  0  0  0  0  0  0
    4.5430   -6.7100    3.1910 C   0  0  0  0  0  0  0  0  0  0  0  0
    1.9930   -7.3450    5.7180 C   0  0  0  0  0  0  0  0  0  0  0  0
    0.6710   -7.4270    5.2830 C   0  0  0  0  0  3  0  0  0  0  0  0
   -0.3690   -7.3500    6.2100 C   0  0  0  0  0  3  0  0  0  0  0  0
   -0.0940   -7.1850    7.5710 C   0  0  0  0  0  3  0  0  0  0  0  0
    1.2310   -7.0910    8.0190 C   0  0  0  0  0  0  0  0  0  0  0  0
    2.2610   -7.1740    7.0770 C   0  0  0  0  0  3  0  0  0  0  0  0
    1.5760   -6.8950    9.4660 C   0  0  0  0  0  2  0  0  0  0  0  0
    1.3770   -5.4870    9.9920 N   0  0  0  0  0  4  0  0  0  0  0  0
    0.7590   -5.4240   11.3730 C   0  0  0  0  0  2  0  0  0  0  0  0
    0.4190   -3.9710   11.7050 C   0  0  0  0  0  2  0  0  0  0  0  0
    1.6340   -3.0460   11.5950 C   0  0  0  0  0  2  0  0  0  0  0  0
    2.2990   -3.1700   10.2350 C   0  0  0  0  0  0  0  0  0  0  0  0
    1.4410   -2.7130    9.2830 F   0  0  0  0  0  0  0  0  0  0  0  0
    3.4090   -2.4060   10.1750 F   0  0  0  0  0  0  0  0  0  0  0  0
    2.6330   -4.6260    9.9020 C   0  0  0  0  0  2  0  0  0  0  0  0
    0.6910   -5.0660    9.3490 H   0  0  0  0  0  0  0  0  0  0  0  0
    3.6000   -9.9510    4.8910 C   0  0  0  0  0  3  0  0  0  0  0  0
    2.9140  -10.8930    3.8890 C   0  0  0  0  0  2  0  0  0  0  0  0
    3.8480  -11.8130    3.1130 C   0  0  0  0  0  2  0  0  0  0  0  0
    4.8520  -12.5080    4.0210 C   0  0  0  0  0  2  0  0  0  0  0  0
    5.6690  -11.5140    4.8350 C   0  0  0  0  0  2  0  0  0  0  0  0
    4.7930  -10.5620    5.6410 C   0  0  0  0  0  2  0  0  0  0  0  0
    6.9540   -5.7300    0.3980 C   0  0  0  0  0  0  0  0  0  0  0  0
    7.9590   -5.0730    0.8220 O   0  0  0  0  0  1  0  0  0  0  0  0
    6.5230   -5.7510   -0.7960 O   0  0  0  0  0  0  0  0  0  0  0  0
    3.1730   -4.9260    4.2780 C   0  0  0  0  0  2  0  0  0  0  0  0
    4.2340   -2.4530    7.0240 C   0  0  0  0  0  1  0  0  0  0  0  0
    3.5770   -3.0000    5.8470 N   0  0  0  0  0  0  0  0  0  0  0  0
    2.4100   -2.2520    5.3890 C   0  0  0  0  0  1  0  0  0  0  0  0
    4.0180   -4.2140    5.3310 C   0  0  0  0  0  0  0  0  0  0  0  0
    5.0980   -4.7020    5.6930 O   0  0  0  0  0  0  0  0  0  0  0  0
  1 35  1  0  0  0  0
  1  2  1  0  0  0  0
  2 10  1  0  0  0  0
  3  2  2  0  0  0  0
  3 26  1  0  0  0  0
  4  3  1  0  0  0  0
  5  4  2  0  0  0  0
  6  5  1  0  0  0  0
  7  6  2  0  0  0  0
  7  8  1  0  0  0  0
  8  9  2  0  0  0  0
  9  4  1  0  0  0  0
  9  1  1  0  0  0  0
 10 15  1  0  0  0  0
 11 10  2  0  0  0  0
 11 12  1  0  0  0  0
 12 13  2  0  0  0  0
 13 14  1  0  0  0  0
 14 16  1  0  0  0  0
 15 14  2  0  0  0  0
 16 17  1  0  0  0  0
 17 18  1  0  0  0  0
 18 19  1  0  0  0  0
 20 19  1  0  0  0  0
 21 20  1  0  0  0  0
 22 21  1  0  0  0  0
 23 21  1  0  0  0  0
 24 17  1  0  0  0  0
 24 21  1  0  0  0  0
 25 17  1  0  0  0  0
 26 31  1  0  0  0  0
 27 26  1  0  0  0  0
 28 27  1  0  0  0  0
 28 29  1  0  0  0  0
 29 30  1  0  0  0  0
 30 31  1  0  0  0  0
 32 33  1  0  0  0  0
 32  7  1  0  0  0  0
 34 32  2  0  0  0  0
 35 39  1  0  0  0  0
 37 36  1  0  0  0  0
 38 37  1  0  0  0  0
 39 40  2  0  0  0  0
 39 37  1  0  0  0  0
M  END
>  <minimizedAffinity>
-7.96832514

$$$$
