
 OpenBabel09122222393D

 40 44  0  0  0  0  0  0  0  0999 V2000
    3.7580   -8.4120    3.6820 N   0  0  0  0  0  0  0  0  0  0  0  0
    3.4080   -7.8010    4.8670 C   0  0  0  0  0  0  0  0  0  0  0  0
    3.6330   -6.4260    4.7320 C   0  0  0  0  0  0  0  0  0  0  0  0
    4.1600   -6.2250    3.4060 C   0  0  0  0  0  0  0  0  0  0  0  0
    4.6030   -5.1140    2.6520 C   0  0  0  0  0  3  0  0  0  0  0  0
    5.1000   -5.2810    1.3500 C   0  0  0  0  0  3  0  0  0  0  0  0
    5.1720   -6.5400    0.7550 C   0  0  0  0  0  0  0  0  0  0  0  0
    4.7240   -7.6460    1.4870 C   0  0  0  0  0  3  0  0  0  0  0  0
    4.2320   -7.4760    2.7900 C   0  0  0  0  0  0  0  0  0  0  0  0
    3.0050   -8.5520    6.0500 C   0  0  0  0  0  0  0  0  0  0  0  0
    3.9330   -9.0410    6.9690 C   0  0  0  0  0  3  0  0  0  0  0  0
    3.4920   -9.7550    8.0840 C   0  0  0  0  0  3  0  0  0  0  0  0
    2.1280   -9.9890    8.2820 C   0  0  0  0  0  3  0  0  0  0  0  0
    1.1870   -9.5110    7.3590 C   0  0  0  0  0  0  0  0  0  0  0  0
    1.6450   -8.7940    6.2500 C   0  0  0  0  0  3  0  0  0  0  0  0
   -0.2860   -9.7530    7.5180 C   0  0  0  0  0  2  0  0  0  0  0  0
   -1.1700   -9.0110    6.5360 N   0  0  0  0  0  4  0  0  0  0  0  0
   -2.1080   -9.9030    5.7500 C   0  0  0  0  0  2  0  0  0  0  0  0
   -2.7910   -9.0780    4.6600 C   0  0  0  0  0  2  0  0  0  0  0  0
   -3.5250   -7.8590    5.2220 C   0  0  0  0  0  2  0  0  0  0  0  0
   -2.6020   -7.0060    6.0760 C   0  0  0  0  0  0  0  0  0  0  0  0
   -1.6320   -6.4780    5.2810 F   0  0  0  0  0  0  0  0  0  0  0  0
   -3.2750   -5.9750    6.6240 F   0  0  0  0  0  0  0  0  0  0  0  0
   -1.9140   -7.8350    7.1630 C   0  0  0  0  0  2  0  0  0  0  0  0
   -0.5140   -8.6070    5.8520 H   0  0  0  0  0  0  0  0  0  0  0  0
    3.3870   -5.4100    5.8400 C   0  0  0  0  0  3  0  0  0  0  0  0
    4.6660   -4.7670    6.3990 C   0  0  0  0  0  2  0  0  0  0  0  0
    5.0130   -3.3990    5.8270 C   0  0  0  0  0  2  0  0  0  0  0  0
    3.8130   -2.4640    5.8100 C   0  0  0  0  0  2  0  0  0  0  0  0
    2.6370   -3.0580    5.0460 C   0  0  0  0  0  2  0  0  0  0  0  0
    2.2340   -4.4310    5.5720 C   0  0  0  0  0  2  0  0  0  0  0  0
    5.7230   -6.7310   -0.6450 C   0  0  0  0  0  0  0  0  0  0  0  0
    5.4470   -7.8330   -1.2210 O   0  0  0  0  0  0  0  0  0  0  0  0
    6.4180   -5.7870   -1.1290 O   0  0  0  0  0  1  0  0  0  0  0  0
    3.6030   -9.8290    3.3440 C   0  0  0  0  0  2  0  0  0  0  0  0
    5.6590  -12.7250    4.8160 C   0  0  0  0  0  1  0  0  0  0  0  0
    4.5720  -11.7820    4.6010 N   0  0  0  0  0  0  0  0  0  0  0  0
    3.2900  -12.1790    5.1740 C   0  0  0  0  0  1  0  0  0  0  0  0
    4.7940  -10.6690    3.7980 C   0  0  0  0  0  0  0  0  0  0  0  0
    5.9450  -10.3390    3.4750 O   0  0  0  0  0  0  0  0  0  0  0  0
  1  2  1  0  0  0  0
  2 10  1  0  0  0  0
  3  2  2  0  0  0  0
  3 26  1  0  0  0  0
  4  3  1  0  0  0  0
  5  4  2  0  0  0  0
  6  5  1  0  0  0  0
  7  6  2  0  0  0  0
  7  8  1  0  0  0  0
  8  9  2  0  0  0  0
  9  4  1  0  0  0  0
  9  1  1  0  0  0  0
 10 15  2  0  0  0  0
 10 11  1  0  0  0  0
 11 12  2  0  0  0  0
 12 13  1  0  0  0  0
 14 16  1  0  0  0  0
 14 13  2  0  0  0  0
 15 14  1  0  0  0  0
 17 24  1  0  0  0  0
 17 16  1  0  0  0  0
 18 17  1  0  0  0  0
 19 20  1  0  0  0  0
 19 18  1  0  0  0  0
 20 21  1  0  0  0  0
 21 23  1  0  0  0  0
 21 24  1  0  0  0  0
 22 21  1  0  0  0  0
 25 17  1  0  0  0  0
 26 27  1  0  0  0  0
 28 27  1  0  0  0  0
 29 28  1  0  0  0  0
 30 31  1  0  0  0  0
 30 29  1  0  0  0  0
 31 26  1  0  0  0  0
 32  7  1  0  0  0  0
 33 32  2  0  0  0  0
 34 32  1  0  0  0  0
 35  1  1  0  0  0  0
 35 39  1  0  0  0  0
 37 36  1  0  0  0  0
 37 38  1  0  0  0  0
 39 37  1  0  0  0  0
 40 39  2  0  0  0  0
M  END
>  <minimizedAffinity>
-8.52239895

$$$$
