
 OpenBabel09122222393D

 40 44  0  0  0  0  0  0  0  0999 V2000
    3.5120   -6.2800    4.2170 N   0  0  0  0  0  0  0  0  0  0  0  0
    3.0380   -7.3680    4.9190 C   0  0  0  0  0  0  0  0  0  0  0  0
    3.7070   -8.5080    4.4610 C   0  0  0  0  0  0  0  0  0  0  0  0
    4.6060   -8.0680    3.4240 C   0  0  0  0  0  0  0  0  0  0  0  0
    5.5330   -8.6910    2.5590 C   0  0  0  0  0  3  0  0  0  0  0  0
    6.2490   -7.9410    1.6110 C   0  0  0  0  0  3  0  0  0  0  0  0
    6.0730   -6.5630    1.4920 C   0  0  0  0  0  0  0  0  0  0  0  0
    5.1660   -5.9330    2.3510 C   0  0  0  0  0  3  0  0  0  0  0  0
    4.4490   -6.6860    3.2940 C   0  0  0  0  0  0  0  0  0  0  0  0
    1.9340   -7.2720    5.8670 C   0  0  0  0  0  0  0  0  0  0  0  0
    2.1440   -7.0880    7.2330 C   0  0  0  0  0  3  0  0  0  0  0  0
    1.0510   -7.0040    8.0970 C   0  0  0  0  0  3  0  0  0  0  0  0
   -0.2520   -7.1110    7.6010 C   0  0  0  0  0  3  0  0  0  0  0  0
   -0.4750   -7.3070    6.2320 C   0  0  0  0  0  0  0  0  0  0  0  0
    0.6310   -7.3840    5.3800 C   0  0  0  0  0  3  0  0  0  0  0  0
   -1.8540   -7.4460    5.6560 C   0  0  0  0  0  2  0  0  0  0  0  0
   -2.2550   -8.8570    5.2750 N   0  0  0  0  0  4  0  0  0  0  0  0
   -3.1100   -9.5570    6.3090 C   0  0  0  0  0  2  0  0  0  0  0  0
   -3.2750  -11.0250    5.9150 C   0  0  0  0  0  2  0  0  0  0  0  0
   -3.8550  -11.1910    4.5090 C   0  0  0  0  0  2  0  0  0  0  0  0
   -3.0400  -10.4220    3.4830 C   0  0  0  0  0  0  0  0  0  0  0  0
   -1.7990  -10.9760    3.4030 F   0  0  0  0  0  0  0  0  0  0  0  0
   -3.6000  -10.5170    2.2600 F   0  0  0  0  0  0  0  0  0  0  0  0
   -2.8710   -8.9550    3.8820 C   0  0  0  0  0  2  0  0  0  0  0  0
   -1.3660   -9.3760    5.2360 H   0  0  0  0  0  0  0  0  0  0  0  0
    3.4440   -9.9160    4.9800 C   0  0  0  0  0  3  0  0  0  0  0  0
    2.6790  -10.8160    3.9960 C   0  0  0  0  0  2  0  0  0  0  0  0
    3.5410  -11.7580    3.1670 C   0  0  0  0  0  2  0  0  0  0  0  0
    4.5560  -12.5050    4.0200 C   0  0  0  0  0  2  0  0  0  0  0  0
    5.4460  -11.5560    4.8110 C   0  0  0  0  0  2  0  0  0  0  0  0
    4.6440  -10.5840    5.6680 C   0  0  0  0  0  2  0  0  0  0  0  0
    6.8290   -5.7490    0.4600 C   0  0  0  0  0  0  0  0  0  0  0  0
    6.4010   -5.8070   -0.7380 O   0  0  0  0  0  0  0  0  0  0  0  0
    7.8300   -5.0820    0.8650 O   0  0  0  0  0  1  0  0  0  0  0  0
    3.1570   -4.8740    4.4280 C   0  0  0  0  0  2  0  0  0  0  0  0
    4.1640   -2.5310    7.3040 C   0  0  0  0  0  1  0  0  0  0  0  0
    3.5510   -3.0140    6.0770 N   0  0  0  0  0  0  0  0  0  0  0  0
    2.4430   -2.2040    5.5810 C   0  0  0  0  0  1  0  0  0  0  0  0
    3.9710   -4.2290    5.5470 C   0  0  0  0  0  0  0  0  0  0  0  0
    5.0100   -4.7730    5.9510 O   0  0  0  0  0  0  0  0  0  0  0  0
  1 35  1  0  0  0  0
  1  2  1  0  0  0  0
  2 10  1  0  0  0  0
  3  2  2  0  0  0  0
  3 26  1  0  0  0  0
  4  3  1  0  0  0  0
  5  4  2  0  0  0  0
  6  5  1  0  0  0  0
  7  6  2  0  0  0  0
  7  8  1  0  0  0  0
  8  9  2  0  0  0  0
  9  4  1  0  0  0  0
  9  1  1  0  0  0  0
 10 11  1  0  0  0  0
 11 12  2  0  0  0  0
 13 12  1  0  0  0  0
 14 13  2  0  0  0  0
 15 10  2  0  0  0  0
 15 14  1  0  0  0  0
 16 14  1  0  0  0  0
 17 16  1  0  0  0  0
 17 18  1  0  0  0  0
 19 18  1  0  0  0  0
 20 19  1  0  0  0  0
 21 24  1  0  0  0  0
 21 20  1  0  0  0  0
 22 21  1  0  0  0  0
 23 21  1  0  0  0  0
 24 17  1  0  0  0  0
 25 17  1  0  0  0  0
 26 31  1  0  0  0  0
 27 26  1  0  0  0  0
 28 27  1  0  0  0  0
 28 29  1  0  0  0  0
 29 30  1  0  0  0  0
 30 31  1  0  0  0  0
 32 34  1  0  0  0  0
 32  7  1  0  0  0  0
 33 32  2  0  0  0  0
 35 39  1  0  0  0  0
 37 36  1  0  0  0  0
 38 37  1  0  0  0  0
 39 40  2  0  0  0  0
 39 37  1  0  0  0  0
M  END
>  <minimizedAffinity>
-8.36569595

$$$$
