REMARK  Name = 
REMARK  3 active torsions:
REMARK  status: ('A' for Active; 'I' for Inactive)
REMARK    1  A    between atoms: C_2  and  C_4
REMARK    2  A    between atoms: C_8  and  C_9
REMARK    3  A    between atoms: C_15  and  C_16
REMARK                            x       y       z     vdW  Elec       q    Type
REMARK                         _______ _______ _______ _____ _____    ______ ____
ROOT
ATOM      1  C   UNL     1       3.013   0.589  -1.281  0.00  0.00    +0.037 A 
ATOM      2  C   UNL     1       2.739   1.715  -2.037  0.00  0.00    +0.043 A 
ATOM      3  C   UNL     1       3.700   1.860  -3.069  0.00  0.00    +0.055 A 
ATOM      4  N   UNL     1       3.948   2.736  -4.091  0.00  0.00    -0.353 N 
ATOM      5  C   UNL     1       5.064   2.320  -4.777  0.00  0.00    +0.051 A 
ATOM      6  C   UNL     1       5.545   1.162  -4.175  0.00  0.00    -0.005 A 
ATOM      7  C   UNL     1       4.652   0.886  -3.089  0.00  0.00    +0.041 A 
ATOM      8  S   UNL     1       4.405  -0.270  -1.817  0.00  0.00    -0.085 S 
ATOM      9  H   UNL     1       3.364   3.539  -4.285  0.00  0.00    +0.166 HD
ENDROOT
BRANCH   5  10
ATOM     10  C   UNL     1       5.548   3.059  -5.940  0.00  0.00    -0.001 A 
ATOM     11  C   UNL     1       5.945   4.395  -5.817  0.00  0.00    +0.010 A 
ATOM     12  C   UNL     1       6.403   5.102  -6.931  0.00  0.00    +0.001 A 
ATOM     13  C   UNL     1       6.463   4.478  -8.177  0.00  0.00    +0.000 A 
ATOM     14  C   UNL     1       6.067   3.148  -8.309  0.00  0.00    +0.001 A 
ATOM     15  C   UNL     1       5.611   2.441  -7.194  0.00  0.00    +0.010 A 
ENDBRANCH   5  10
BRANCH   6  16
ATOM     16  C   UNL     1       6.746   0.336  -4.529  0.00  0.00    +0.022 C 
ATOM     17  C   UNL     1       7.796   0.297  -3.405  0.00  0.00    +0.008 C 
ATOM     18  C   UNL     1       9.026  -0.510  -3.818  0.00  0.00    +0.001 C 
ATOM     19  C   UNL     1       8.650  -1.914  -4.279  0.00  0.00    +0.000 C 
ATOM     20  C   UNL     1       7.612  -1.881  -5.397  0.00  0.00    +0.001 C 
ATOM     21  C   UNL     1       6.375  -1.081  -4.994  0.00  0.00    +0.008 C 
ENDBRANCH   6  16
BRANCH   1  23
ATOM     22  O   UNL     1       1.175   0.917   0.152  0.00  0.00    -0.544 OA
ATOM     23  C   UNL     1       2.172   0.174  -0.118  0.00  0.00    +0.078 C 
ATOM     24  O   UNL     1       2.509  -0.877   0.509  0.00  0.00    -0.544 OA
ENDBRANCH   1  23
TORSDOF 3
