
 OpenBabel09122222393D

 24 27  0  0  0  0  0  0  0  0999 V2000
    6.4360   -5.0020    2.1290 C   0  0  0  0  0  0  0  0  0  0  0  0
    7.1010   -5.3900    0.9790 C   0  0  0  0  0  3  0  0  0  0  0  0
    8.1440   -4.4760    0.6830 C   0  0  0  0  0  0  0  0  0  0  0  0
    9.1050   -4.3310   -0.2800 N   0  0  0  0  0  0  0  0  0  0  0  0
    9.8470   -3.2060   -0.0070 C   0  0  0  0  0  0  0  0  0  0  0  0
    9.3420   -2.6150    1.1460 C   0  0  0  0  0  0  0  0  0  0  0  0
    8.2580   -3.4490    1.5710 C   0  0  0  0  0  0  0  0  0  0  0  0
    7.0670   -3.5620    2.8300 S   0  0  0  0  0  0  0  0  0  0  0  0
    9.2260   -4.9840   -1.0430 H   0  0  0  0  0  0  0  0  0  0  0  0
   10.9650   -2.8190   -0.8640 C   0  0  0  0  0  0  0  0  0  0  0  0
   10.9740   -1.5730   -1.4990 C   0  0  0  0  0  3  0  0  0  0  0  0
   12.0410   -1.2060   -2.3220 C   0  0  0  0  0  3  0  0  0  0  0  0
   13.1050   -2.0870   -2.5180 C   0  0  0  0  0  3  0  0  0  0  0  0
   13.1030   -3.3310   -1.8910 C   0  0  0  0  0  3  0  0  0  0  0  0
   12.0360   -3.6960   -1.0660 C   0  0  0  0  0  3  0  0  0  0  0  0
    9.7850   -1.3620    1.8420 C   0  0  0  0  0  3  0  0  0  0  0  0
    9.2000   -0.0880    1.2080 C   0  0  0  0  0  2  0  0  0  0  0  0
    9.7100    1.1700    1.9100 C   0  0  0  0  0  2  0  0  0  0  0  0
    9.4480    1.1230    3.4110 C   0  0  0  0  0  2  0  0  0  0  0  0
   10.0300   -0.1360    4.0460 C   0  0  0  0  0  2  0  0  0  0  0  0
    9.5230   -1.4010    3.3560 C   0  0  0  0  0  2  0  0  0  0  0  0
    4.3660   -6.0930    1.8750 O   0  0  0  0  0  0  0  0  0  0  0  0
    5.2860   -5.7710    2.6930 C   0  0  0  0  0  0  0  0  0  0  0  0
    5.3090   -6.0440    3.9330 O   0  0  0  0  0  1  0  0  0  0  0  0
  1 23  1  0  0  0  0
  1  8  1  0  0  0  0
  2  1  2  0  0  0  0
  3  2  1  0  0  0  0
  3  7  2  0  0  0  0
  4  5  1  0  0  0  0
  4  3  1  0  0  0  0
  5  6  2  0  0  0  0
  6  7  1  0  0  0  0
  6 16  1  0  0  0  0
  7  8  1  0  0  0  0
  9  4  1  0  0  0  0
 10  5  1  0  0  0  0
 11 10  2  0  0  0  0
 12 11  1  0  0  0  0
 13 12  2  0  0  0  0
 13 14  1  0  0  0  0
 14 15  2  0  0  0  0
 15 10  1  0  0  0  0
 16 21  1  0  0  0  0
 17 16  1  0  0  0  0
 17 18  1  0  0  0  0
 18 19  1  0  0  0  0
 19 20  1  0  0  0  0
 21 20  1  0  0  0  0
 22 23  2  0  0  0  0
 23 24  1  0  0  0  0
M  END
>  <minimizedAffinity>
-6.27485418

$$$$
