
 OpenBabel09122222393D

 24 27  0  0  0  0  0  0  0  0999 V2000
   10.5340    4.8700    1.6370 C   0  0  0  0  0  0  0  0  0  0  0  0
    9.9250    3.9210    2.4380 C   0  0  0  0  0  3  0  0  0  0  0  0
    9.9550    2.6520    1.8070 C   0  0  0  0  0  0  0  0  0  0  0  0
    9.5320    1.3810    2.0910 N   0  0  0  0  0  0  0  0  0  0  0  0
    9.8740    0.5520    1.0500 C   0  0  0  0  0  0  0  0  0  0  0  0
   10.5180    1.3090    0.0770 C   0  0  0  0  0  0  0  0  0  0  0  0
   10.5620    2.6470    0.5880 C   0  0  0  0  0  0  0  0  0  0  0  0
   11.1300    4.2290    0.1540 S   0  0  0  0  0  0  0  0  0  0  0  0
    9.0630    1.1340    2.9520 H   0  0  0  0  0  0  0  0  0  0  0  0
    9.5640   -0.8750    1.0950 C   0  0  0  0  0  0  0  0  0  0  0  0
    8.7420   -1.3910    2.1030 C   0  0  0  0  0  3  0  0  0  0  0  0
    8.4510   -2.7560    2.1470 C   0  0  0  0  0  3  0  0  0  0  0  0
    8.9830   -3.6150    1.1860 C   0  0  0  0  0  3  0  0  0  0  0  0
    9.8050   -3.1090    0.1800 C   0  0  0  0  0  3  0  0  0  0  0  0
   10.0940   -1.7440    0.1340 C   0  0  0  0  0  3  0  0  0  0  0  0
   11.0630    0.8800   -1.2540 C   0  0  0  0  0  3  0  0  0  0  0  0
   12.4420    0.2070   -1.1450 C   0  0  0  0  0  2  0  0  0  0  0  0
   12.9880   -0.1710   -2.5210 C   0  0  0  0  0  2  0  0  0  0  0  0
   12.0050   -1.0370   -3.3000 C   0  0  0  0  0  2  0  0  0  0  0  0
   10.6360   -0.3710   -3.4150 C   0  0  0  0  0  2  0  0  0  0  0  0
   10.0770    0.0060   -2.0450 C   0  0  0  0  0  2  0  0  0  0  0  0
   11.2420    7.0730    1.2080 O   0  0  0  0  0  0  0  0  0  0  0  0
   10.6560    6.3040    2.0350 C   0  0  0  0  0  0  0  0  0  0  0  0
   10.1710    6.6490    3.1570 O   0  0  0  0  0  1  0  0  0  0  0  0
  1 23  1  0  0  0  0
  1  2  2  0  0  0  0
  3  4  1  0  0  0  0
  3  2  1  0  0  0  0
  4  9  1  0  0  0  0
  5 10  1  0  0  0  0
  5  4  1  0  0  0  0
  6  7  1  0  0  0  0
  6  5  2  0  0  0  0
  7  3  2  0  0  0  0
  8  7  1  0  0  0  0
  8  1  1  0  0  0  0
 10 11  1  0  0  0  0
 11 12  2  0  0  0  0
 13 12  1  0  0  0  0
 14 13  2  0  0  0  0
 15 14  1  0  0  0  0
 15 10  2  0  0  0  0
 16 17  1  0  0  0  0
 16  6  1  0  0  0  0
 18 17  1  0  0  0  0
 19 18  1  0  0  0  0
 20 19  1  0  0  0  0
 20 21  1  0  0  0  0
 21 16  1  0  0  0  0
 22 23  2  0  0  0  0
 23 24  1  0  0  0  0
M  END
>  <minimizedAffinity>
-4.41901302

$$$$
