
 OpenBabel09122222393D

 24 27  0  0  0  0  0  0  0  0999 V2000
   10.2280    2.8180    1.9670 C   0  0  0  0  0  0  0  0  0  0  0  0
    9.4670    1.9290    2.7050 C   0  0  0  0  0  3  0  0  0  0  0  0
    9.3950    0.6770    2.0450 C   0  0  0  0  0  0  0  0  0  0  0  0
    8.8150   -0.5420    2.2700 N   0  0  0  0  0  0  0  0  0  0  0  0
    9.1270   -1.3850    1.2300 C   0  0  0  0  0  0  0  0  0  0  0  0
    9.9110   -0.6880    0.3170 C   0  0  0  0  0  0  0  0  0  0  0  0
   10.0730    0.6270    0.8650 C   0  0  0  0  0  0  0  0  0  0  0  0
   10.8410    2.1430    0.5070 S   0  0  0  0  0  0  0  0  0  0  0  0
    8.2670   -0.7500    3.0950 H   0  0  0  0  0  0  0  0  0  0  0  0
    8.6570   -2.7680    1.2190 C   0  0  0  0  0  0  0  0  0  0  0  0
    8.9770   -3.6180    0.1550 C   0  0  0  0  0  3  0  0  0  0  0  0
    8.5230   -4.9390    0.1430 C   0  0  0  0  0  3  0  0  0  0  0  0
    7.7420   -5.4170    1.1960 C   0  0  0  0  0  3  0  0  0  0  0  0
    7.4160   -4.5760    2.2590 C   0  0  0  0  0  3  0  0  0  0  0  0
    7.8720   -3.2560    2.2700 C   0  0  0  0  0  3  0  0  0  0  0  0
   10.4880   -1.1500   -0.9880 C   0  0  0  0  0  3  0  0  0  0  0  0
   10.7050    0.0010   -1.9850 C   0  0  0  0  0  2  0  0  0  0  0  0
   11.2450   -0.5110   -3.3200 C   0  0  0  0  0  2  0  0  0  0  0  0
   12.5140   -1.3370   -3.1350 C   0  0  0  0  0  2  0  0  0  0  0  0
   12.3020   -2.4830   -2.1500 C   0  0  0  0  0  2  0  0  0  0  0  0
   11.7670   -1.9820   -0.8100 C   0  0  0  0  0  2  0  0  0  0  0  0
   10.5690    4.4130    3.6650 O   0  0  0  0  0  1  0  0  0  0  0  0
   10.4840    4.2220    2.4090 C   0  0  0  0  0  0  0  0  0  0  0  0
   10.5970    5.1130    1.5120 O   0  0  0  0  0  0  0  0  0  0  0  0
  1 23  1  0  0  0  0
  1  2  2  0  0  0  0
  3  4  1  0  0  0  0
  3  2  1  0  0  0  0
  4  9  1  0  0  0  0
  5  4  1  0  0  0  0
  6  7  1  0  0  0  0
  6  5  2  0  0  0  0
  7  3  2  0  0  0  0
  8  7  1  0  0  0  0
  8  1  1  0  0  0  0
 10  5  1  0  0  0  0
 10 15  1  0  0  0  0
 11 10  2  0  0  0  0
 12 11  1  0  0  0  0
 12 13  2  0  0  0  0
 13 14  1  0  0  0  0
 14 15  2  0  0  0  0
 16 21  1  0  0  0  0
 16  6  1  0  0  0  0
 17 16  1  0  0  0  0
 18 19  1  0  0  0  0
 18 17  1  0  0  0  0
 19 20  1  0  0  0  0
 20 21  1  0  0  0  0
 23 22  1  0  0  0  0
 24 23  2  0  0  0  0
M  END
>  <minimizedAffinity>
-6.14265633

$$$$
