
 OpenBabel09122218073D

 24 27  0  0  0  0  0  0  0  0999 V2000
    6.4360   -5.0020    2.1290 C   0  0  0  0  0  0  0  0  0  0  0  0
    7.1010   -5.3900    0.9790 C   0  0  0  0  0  3  0  0  0  0  0  0
    8.1440   -4.4760    0.6830 C   0  0  0  0  0  0  0  0  0  0  0  0
    9.1050   -4.3310   -0.2800 N   0  0  0  0  0  0  0  0  0  0  0  0
    9.8470   -3.2060   -0.0070 C   0  0  0  0  0  0  0  0  0  0  0  0
    9.3420   -2.6150    1.1460 C   0  0  0  0  0  0  0  0  0  0  0  0
    8.2580   -3.4490    1.5710 C   0  0  0  0  0  0  0  0  0  0  0  0
    7.0670   -3.5620    2.8300 S   0  0  0  0  0  0  0  0  0  0  0  0
    9.2260   -4.9840   -1.0430 H   0  0  0  0  0  0  0  0  0  0  0  0
   10.9650   -2.8190   -0.8640 C   0  0  0  0  0  0  0  0  0  0  0  0
   10.9740   -1.5730   -1.4990 C   0  0  0  0  0  3  0  0  0  0  0  0
   12.0410   -1.2060   -2.3220 C   0  0  0  0  0  3  0  0  0  0  0  0
   13.1050   -2.0870   -2.5180 C   0  0  0  0  0  3  0  0  0  0  0  0
   13.1030   -3.3310   -1.8910 C   0  0  0  0  0  3  0  0  0  0  0  0
   12.0360   -3.6960   -1.0660 C   0  0  0  0  0  3  0  0  0  0  0  0
    9.7850   -1.3620    1.8420 C   0  0  0  0  0  3  0  0  0  0  0  0
    9.2000   -0.0880    1.2080 C   0  0  0  0  0  2  0  0  0  0  0  0
    9.7100    1.1700    1.9100 C   0  0  0  0  0  2  0  0  0  0  0  0
    9.4480    1.1230    3.4110 C   0  0  0  0  0  2  0  0  0  0  0  0
   10.0300   -0.1360    4.0460 C   0  0  0  0  0  2  0  0  0  0  0  0
    9.5230   -1.4010    3.3560 C   0  0  0  0  0  2  0  0  0  0  0  0
    4.3660   -6.0930    1.8750 O   0  0  0  0  0  0  0  0  0  0  0  0
    5.2860   -5.7710    2.6930 C   0  0  0  0  0  0  0  0  0  0  0  0
    5.3090   -6.0440    3.9330 O   0  0  0  0  0  1  0  0  0  0  0  0
  1 23  1  0  0  0  0
  1  8  1  0  0  0  0
  2  1  2  0  0  0  0
  3  2  1  0  0  0  0
  3  7  2  0  0  0  0
  4  5  1  0  0  0  0
  4  3  1  0  0  0  0
  5  6  2  0  0  0  0
  6  7  1  0  0  0  0
  6 16  1  0  0  0  0
  7  8  1  0  0  0  0
  9  4  1  0  0  0  0
 10  5  1  0  0  0  0
 11 10  2  0  0  0  0
 12 11  1  0  0  0  0
 13 12  2  0  0  0  0
 13 14  1  0  0  0  0
 14 15  2  0  0  0  0
 15 10  1  0  0  0  0
 16 21  1  0  0  0  0
 17 16  1  0  0  0  0
 17 18  1  0  0  0  0
 18 19  1  0  0  0  0
 19 20  1  0  0  0  0
 21 20  1  0  0  0  0
 22 23  2  0  0  0  0
 23 24  1  0  0  0  0
M  END
>  <minimizedAffinity>
-6.27485418

$$$$

 OpenBabel09122218073D

 24 27  0  0  0  0  0  0  0  0999 V2000
   10.2280    2.8180    1.9670 C   0  0  0  0  0  0  0  0  0  0  0  0
    9.4670    1.9290    2.7050 C   0  0  0  0  0  3  0  0  0  0  0  0
    9.3950    0.6770    2.0450 C   0  0  0  0  0  0  0  0  0  0  0  0
    8.8150   -0.5420    2.2700 N   0  0  0  0  0  0  0  0  0  0  0  0
    9.1270   -1.3850    1.2300 C   0  0  0  0  0  0  0  0  0  0  0  0
    9.9110   -0.6880    0.3170 C   0  0  0  0  0  0  0  0  0  0  0  0
   10.0730    0.6270    0.8650 C   0  0  0  0  0  0  0  0  0  0  0  0
   10.8410    2.1430    0.5070 S   0  0  0  0  0  0  0  0  0  0  0  0
    8.2670   -0.7500    3.0950 H   0  0  0  0  0  0  0  0  0  0  0  0
    8.6570   -2.7680    1.2190 C   0  0  0  0  0  0  0  0  0  0  0  0
    8.9770   -3.6180    0.1550 C   0  0  0  0  0  3  0  0  0  0  0  0
    8.5230   -4.9390    0.1430 C   0  0  0  0  0  3  0  0  0  0  0  0
    7.7420   -5.4170    1.1960 C   0  0  0  0  0  3  0  0  0  0  0  0
    7.4160   -4.5760    2.2590 C   0  0  0  0  0  3  0  0  0  0  0  0
    7.8720   -3.2560    2.2700 C   0  0  0  0  0  3  0  0  0  0  0  0
   10.4880   -1.1500   -0.9880 C   0  0  0  0  0  3  0  0  0  0  0  0
   10.7050    0.0010   -1.9850 C   0  0  0  0  0  2  0  0  0  0  0  0
   11.2450   -0.5110   -3.3200 C   0  0  0  0  0  2  0  0  0  0  0  0
   12.5140   -1.3370   -3.1350 C   0  0  0  0  0  2  0  0  0  0  0  0
   12.3020   -2.4830   -2.1500 C   0  0  0  0  0  2  0  0  0  0  0  0
   11.7670   -1.9820   -0.8100 C   0  0  0  0  0  2  0  0  0  0  0  0
   10.5690    4.4130    3.6650 O   0  0  0  0  0  1  0  0  0  0  0  0
   10.4840    4.2220    2.4090 C   0  0  0  0  0  0  0  0  0  0  0  0
   10.5970    5.1130    1.5120 O   0  0  0  0  0  0  0  0  0  0  0  0
  1 23  1  0  0  0  0
  1  2  2  0  0  0  0
  3  4  1  0  0  0  0
  3  2  1  0  0  0  0
  4  9  1  0  0  0  0
  5  4  1  0  0  0  0
  6  7  1  0  0  0  0
  6  5  2  0  0  0  0
  7  3  2  0  0  0  0
  8  7  1  0  0  0  0
  8  1  1  0  0  0  0
 10  5  1  0  0  0  0
 10 15  1  0  0  0  0
 11 10  2  0  0  0  0
 12 11  1  0  0  0  0
 12 13  2  0  0  0  0
 13 14  1  0  0  0  0
 14 15  2  0  0  0  0
 16 21  1  0  0  0  0
 16  6  1  0  0  0  0
 17 16  1  0  0  0  0
 18 19  1  0  0  0  0
 18 17  1  0  0  0  0
 19 20  1  0  0  0  0
 20 21  1  0  0  0  0
 23 22  1  0  0  0  0
 24 23  2  0  0  0  0
M  END
>  <minimizedAffinity>
-6.14265633

$$$$

 OpenBabel09122218073D

 24 27  0  0  0  0  0  0  0  0999 V2000
    9.0930   -1.8910    2.7000 C   0  0  0  0  0  0  0  0  0  0  0  0
    9.0580   -0.6660    3.3410 C   0  0  0  0  0  3  0  0  0  0  0  0
    9.4530    0.3660    2.4530 C   0  0  0  0  0  0  0  0  0  0  0  0
    9.6110    1.7240    2.5020 N   0  0  0  0  0  0  0  0  0  0  0  0
   10.0250    2.1730    1.2710 C   0  0  0  0  0  0  0  0  0  0  0  0
   10.1450    1.0780    0.4210 C   0  0  0  0  0  0  0  0  0  0  0  0
    9.7680   -0.0650    1.2000 C   0  0  0  0  0  0  0  0  0  0  0  0
    9.5920   -1.7860    1.0560 S   0  0  0  0  0  0  0  0  0  0  0  0
    9.4220    2.2730    3.3310 H   0  0  0  0  0  0  0  0  0  0  0  0
   10.2500    3.5950    1.0270 C   0  0  0  0  0  0  0  0  0  0  0  0
   11.2740    4.2760    1.6950 C   0  0  0  0  0  3  0  0  0  0  0  0
   11.4850    5.6370    1.4650 C   0  0  0  0  0  3  0  0  0  0  0  0
   10.6700    6.3270    0.5680 C   0  0  0  0  0  3  0  0  0  0  0  0
    9.6470    5.6570   -0.1010 C   0  0  0  0  0  3  0  0  0  0  0  0
    9.4380    4.2950    0.1290 C   0  0  0  0  0  3  0  0  0  0  0  0
   10.5840    1.0320   -1.0130 C   0  0  0  0  0  3  0  0  0  0  0  0
   11.9910    1.6160   -1.2250 C   0  0  0  0  0  2  0  0  0  0  0  0
   12.3850    1.6000   -2.7020 C   0  0  0  0  0  2  0  0  0  0  0  0
   12.2640    0.2030   -3.3020 C   0  0  0  0  0  2  0  0  0  0  0  0
   10.8690   -0.3790   -3.0970 C   0  0  0  0  0  2  0  0  0  0  0  0
   10.4660   -0.3730   -1.6240 C   0  0  0  0  0  2  0  0  0  0  0  0
    9.4380   -3.4970    4.3850 O   0  0  0  0  0  1  0  0  0  0  0  0
    8.7280   -3.1690    3.3820 C   0  0  0  0  0  0  0  0  0  0  0  0
    7.7470   -3.8280    2.9160 O   0  0  0  0  0  0  0  0  0  0  0  0
  1  2  2  0  0  0  0
  1 23  1  0  0  0  0
  3  4  1  0  0  0  0
  3  2  1  0  0  0  0
  4  9  1  0  0  0  0
  5  4  1  0  0  0  0
  6  7  1  0  0  0  0
  6  5  2  0  0  0  0
  7  3  2  0  0  0  0
  8  7  1  0  0  0  0
  8  1  1  0  0  0  0
 10  5  1  0  0  0  0
 10 11  1  0  0  0  0
 12 11  2  0  0  0  0
 13 12  1  0  0  0  0
 14 15  1  0  0  0  0
 14 13  2  0  0  0  0
 15 10  2  0  0  0  0
 16  6  1  0  0  0  0
 17 16  1  0  0  0  0
 18 17  1  0  0  0  0
 19 20  1  0  0  0  0
 19 18  1  0  0  0  0
 20 21  1  0  0  0  0
 21 16  1  0  0  0  0
 23 22  1  0  0  0  0
 24 23  2  0  0  0  0
M  END
>  <minimizedAffinity>
-5.81106758

$$$$

 OpenBabel09122218073D

 24 27  0  0  0  0  0  0  0  0999 V2000
    8.0800   -3.7490    1.6290 C   0  0  0  0  0  0  0  0  0  0  0  0
    7.8660   -2.6410    2.4290 C   0  0  0  0  0  3  0  0  0  0  0  0
    8.6100   -1.5350    1.9460 C   0  0  0  0  0  0  0  0  0  0  0  0
    8.8000   -0.2260    2.2970 N   0  0  0  0  0  0  0  0  0  0  0  0
    9.6620    0.3580    1.4000 C   0  0  0  0  0  0  0  0  0  0  0  0
   10.0390   -0.6000    0.4640 C   0  0  0  0  0  0  0  0  0  0  0  0
    9.3480   -1.8000    0.8320 C   0  0  0  0  0  0  0  0  0  0  0  0
    9.1590   -3.4490    0.3220 S   0  0  0  0  0  0  0  0  0  0  0  0
    8.3430    0.2060    3.0890 H   0  0  0  0  0  0  0  0  0  0  0  0
   10.0270    1.7670    1.5180 C   0  0  0  0  0  0  0  0  0  0  0  0
   10.3840    2.3060    2.7590 C   0  0  0  0  0  3  0  0  0  0  0  0
   10.7280    3.6550    2.8720 C   0  0  0  0  0  3  0  0  0  0  0  0
   10.7120    4.4750    1.7440 C   0  0  0  0  0  3  0  0  0  0  0  0
   10.3550    3.9470    0.5040 C   0  0  0  0  0  3  0  0  0  0  0  0
   10.0140    2.5980    0.3920 C   0  0  0  0  0  3  0  0  0  0  0  0
   10.9760   -0.4730   -0.7010 C   0  0  0  0  0  3  0  0  0  0  0  0
   11.9050   -1.6900   -0.8550 C   0  0  0  0  0  2  0  0  0  0  0  0
   12.8780   -1.5050   -2.0180 C   0  0  0  0  0  2  0  0  0  0  0  0
   12.1490   -1.1920   -3.3190 C   0  0  0  0  0  2  0  0  0  0  0  0
   11.2290    0.0170   -3.1730 C   0  0  0  0  0  2  0  0  0  0  0  0
   10.2470   -0.1580   -2.0170 C   0  0  0  0  0  2  0  0  0  0  0  0
    6.4180   -5.0590    2.6600 O   0  0  0  0  0  1  0  0  0  0  0  0
    7.4300   -5.0690    1.8880 C   0  0  0  0  0  0  0  0  0  0  0  0
    7.9280   -6.0930    1.3270 O   0  0  0  0  0  0  0  0  0  0  0  0
  1 23  1  0  0  0  0
  1  2  2  0  0  0  0
  3  4  1  0  0  0  0
  3  2  1  0  0  0  0
  4  9  1  0  0  0  0
  5 10  1  0  0  0  0
  5  4  1  0  0  0  0
  6  7  1  0  0  0  0
  6  5  2  0  0  0  0
  7  3  2  0  0  0  0
  8  7  1  0  0  0  0
  8  1  1  0  0  0  0
 10 11  1  0  0  0  0
 11 12  2  0  0  0  0
 13 12  1  0  0  0  0
 14 13  2  0  0  0  0
 15 14  1  0  0  0  0
 15 10  2  0  0  0  0
 16  6  1  0  0  0  0
 17 16  1  0  0  0  0
 18 17  1  0  0  0  0
 19 20  1  0  0  0  0
 19 18  1  0  0  0  0
 20 21  1  0  0  0  0
 21 16  1  0  0  0  0
 23 22  1  0  0  0  0
 24 23  2  0  0  0  0
M  END
>  <minimizedAffinity>
-5.67012405

$$$$

 OpenBabel09122218073D

 24 27  0  0  0  0  0  0  0  0999 V2000
    9.6810    0.8000    2.4430 C   0  0  0  0  0  0  0  0  0  0  0  0
    9.4590    1.2560    1.1560 C   0  0  0  0  0  3  0  0  0  0  0  0
    9.8120    2.6250    1.0510 C   0  0  0  0  0  0  0  0  0  0  0  0
    9.8170    3.5870    0.0770 N   0  0  0  0  0  0  0  0  0  0  0  0
   10.2960    4.7600    0.6090 C   0  0  0  0  0  0  0  0  0  0  0  0
   10.5930    4.5470    1.9510 C   0  0  0  0  0  0  0  0  0  0  0  0
   10.2800    3.1730    2.2070 C   0  0  0  0  0  0  0  0  0  0  0  0
   10.3060    2.0100    3.4960 S   0  0  0  0  0  0  0  0  0  0  0  0
    9.5220    3.4110   -0.8750 H   0  0  0  0  0  0  0  0  0  0  0  0
   10.4340    5.9560   -0.2180 C   0  0  0  0  0  0  0  0  0  0  0  0
   11.7010    6.4370   -0.5650 C   0  0  0  0  0  3  0  0  0  0  0  0
   11.8310    7.5840   -1.3510 C   0  0  0  0  0  3  0  0  0  0  0  0
   10.6940    8.2600   -1.7930 C   0  0  0  0  0  3  0  0  0  0  0  0
    9.4270    7.7890   -1.4500 C   0  0  0  0  0  3  0  0  0  0  0  0
    9.2980    6.6410   -0.6650 C   0  0  0  0  0  3  0  0  0  0  0  0
   11.1190    5.5120    2.9720 C   0  0  0  0  0  3  0  0  0  0  0  0
   12.6550    5.6030    2.9710 C   0  0  0  0  0  2  0  0  0  0  0  0
   13.1580    6.5550    4.0550 C   0  0  0  0  0  2  0  0  0  0  0  0
   12.5170    7.9340    3.9360 C   0  0  0  0  0  2  0  0  0  0  0  0
   10.9940    7.8500    3.9400 C   0  0  0  0  0  2  0  0  0  0  0  0
   10.4780    6.9040    2.8570 C   0  0  0  0  0  2  0  0  0  0  0  0
    9.3950   -0.8350    4.1120 O   0  0  0  0  0  1  0  0  0  0  0  0
    9.4020   -0.6070    2.8600 C   0  0  0  0  0  0  0  0  0  0  0  0
    9.1950   -1.4640    1.9460 O   0  0  0  0  0  0  0  0  0  0  0  0
  1 23  1  0  0  0  0
  1  8  1  0  0  0  0
  2  1  2  0  0  0  0
  3  2  1  0  0  0  0
  3  7  2  0  0  0  0
  4  5  1  0  0  0  0
  4  3  1  0  0  0  0
  5  6  2  0  0  0  0
  6  7  1  0  0  0  0
  6 16  1  0  0  0  0
  7  8  1  0  0  0  0
  9  4  1  0  0  0  0
 10  5  1  0  0  0  0
 11 10  1  0  0  0  0
 12 11  2  0  0  0  0
 13 14  2  0  0  0  0
 13 12  1  0  0  0  0
 14 15  1  0  0  0  0
 15 10  2  0  0  0  0
 17 16  1  0  0  0  0
 17 18  1  0  0  0  0
 19 20  1  0  0  0  0
 19 18  1  0  0  0  0
 21 16  1  0  0  0  0
 21 20  1  0  0  0  0
 23 22  1  0  0  0  0
 24 23  2  0  0  0  0
M  END
>  <minimizedAffinity>
-5.34343433

$$$$

 OpenBabel09122218073D

 24 27  0  0  0  0  0  0  0  0999 V2000
   10.7690    4.5130    0.9710 C   0  0  0  0  0  0  0  0  0  0  0  0
   10.2920    3.9290    2.1320 C   0  0  0  0  0  3  0  0  0  0  0  0
   10.0760    2.5420    1.9320 C   0  0  0  0  0  0  0  0  0  0  0  0
    9.6340    1.4800    2.6730 N   0  0  0  0  0  0  0  0  0  0  0  0
    9.6580    0.3480    1.8930 C   0  0  0  0  0  0  0  0  0  0  0  0
   10.1130    0.6960    0.6250 C   0  0  0  0  0  0  0  0  0  0  0  0
   10.3780    2.1030    0.6780 C   0  0  0  0  0  0  0  0  0  0  0  0
   10.9500    3.3980   -0.3280 S   0  0  0  0  0  0  0  0  0  0  0  0
    9.3620    1.5580    3.6440 H   0  0  0  0  0  0  0  0  0  0  0  0
    9.2580   -0.9460    2.4380 C   0  0  0  0  0  0  0  0  0  0  0  0
    8.6500   -1.9040    1.6190 C   0  0  0  0  0  3  0  0  0  0  0  0
    8.2640   -3.1400    2.1420 C   0  0  0  0  0  3  0  0  0  0  0  0
    8.4790   -3.4240    3.4910 C   0  0  0  0  0  3  0  0  0  0  0  0
    9.0820   -2.4750    4.3140 C   0  0  0  0  0  3  0  0  0  0  0  0
    9.4700   -1.2400    3.7900 C   0  0  0  0  0  3  0  0  0  0  0  0
   10.2960   -0.1670   -0.5880 C   0  0  0  0  0  3  0  0  0  0  0  0
   10.6890    0.6380   -1.8390 C   0  0  0  0  0  2  0  0  0  0  0  0
   10.8180   -0.2640   -3.0650 C   0  0  0  0  0  2  0  0  0  0  0  0
   11.7850   -1.4160   -2.8170 C   0  0  0  0  0  2  0  0  0  0  0  0
   11.3980   -2.2210   -1.5800 C   0  0  0  0  0  2  0  0  0  0  0  0
   11.2710   -1.3300   -0.3460 C   0  0  0  0  0  2  0  0  0  0  0  0
   10.1300    6.7390    0.5540 O   0  0  0  0  0  0  0  0  0  0  0  0
   11.0900    5.9680    0.8740 C   0  0  0  0  0  0  0  0  0  0  0  0
   12.2840    6.3270    1.1150 O   0  0  0  0  0  1  0  0  0  0  0  0
  1  2  2  0  0  0  0
  3  2  1  0  0  0  0
  3  4  1  0  0  0  0
  4  9  1  0  0  0  0
  5 10  1  0  0  0  0
  5  4  1  0  0  0  0
  6  7  1  0  0  0  0
  6  5  2  0  0  0  0
  7  3  2  0  0  0  0
  8  7  1  0  0  0  0
  8  1  1  0  0  0  0
 10 15  1  0  0  0  0
 11 12  1  0  0  0  0
 11 10  2  0  0  0  0
 12 13  2  0  0  0  0
 13 14  1  0  0  0  0
 15 14  2  0  0  0  0
 16 21  1  0  0  0  0
 16  6  1  0  0  0  0
 17 16  1  0  0  0  0
 18 19  1  0  0  0  0
 18 17  1  0  0  0  0
 19 20  1  0  0  0  0
 20 21  1  0  0  0  0
 22 23  2  0  0  0  0
 23  1  1  0  0  0  0
 23 24  1  0  0  0  0
M  END
>  <minimizedAffinity>
-5.06479359

$$$$

 OpenBabel09122218073D

 24 27  0  0  0  0  0  0  0  0999 V2000
    9.7820    1.2900    2.0170 C   0  0  0  0  0  0  0  0  0  0  0  0
   10.1910    1.9460    3.1650 C   0  0  0  0  0  3  0  0  0  0  0  0
   10.5130    3.2950    2.8720 C   0  0  0  0  0  0  0  0  0  0  0  0
   10.9550    4.3920    3.5610 N   0  0  0  0  0  0  0  0  0  0  0  0
   11.0740    5.4500    2.6910 C   0  0  0  0  0  0  0  0  0  0  0  0
   10.7120    5.0170    1.4200 C   0  0  0  0  0  0  0  0  0  0  0  0
   10.3520    3.6380    1.5640 C   0  0  0  0  0  0  0  0  0  0  0  0
    9.7890    2.2940    0.6190 S   0  0  0  0  0  0  0  0  0  0  0  0
   11.1350    4.3840    4.5570 H   0  0  0  0  0  0  0  0  0  0  0  0
   11.5070    6.7620    3.1630 C   0  0  0  0  0  0  0  0  0  0  0  0
   12.7520    6.9190    3.7810 C   0  0  0  0  0  3  0  0  0  0  0  0
   13.1630    8.1750    4.2360 C   0  0  0  0  0  3  0  0  0  0  0  0
   12.3280    9.2810    4.0780 C   0  0  0  0  0  3  0  0  0  0  0  0
   11.0850    9.1330    3.4650 C   0  0  0  0  0  3  0  0  0  0  0  0
   10.6760    7.8780    3.0090 C   0  0  0  0  0  3  0  0  0  0  0  0
   10.6920    5.7790    0.1280 C   0  0  0  0  0  3  0  0  0  0  0  0
    9.4350    6.6510   -0.0330 C   0  0  0  0  0  2  0  0  0  0  0  0
    9.4240    7.3720   -1.3800 C   0  0  0  0  0  2  0  0  0  0  0  0
   10.6960    8.1840   -1.5950 C   0  0  0  0  0  2  0  0  0  0  0  0
   11.9470    7.3230   -1.4410 C   0  0  0  0  0  2  0  0  0  0  0  0
   11.9720    6.6000   -0.0960 C   0  0  0  0  0  2  0  0  0  0  0  0
    9.1330   -0.6610    0.8730 O   0  0  0  0  0  0  0  0  0  0  0  0
    9.3770   -0.1480    2.0110 C   0  0  0  0  0  0  0  0  0  0  0  0
    9.3060   -0.7460    3.1280 O   0  0  0  0  0  1  0  0  0  0  0  0
  1  2  2  0  0  0  0
  3  2  1  0  0  0  0
  3  4  1  0  0  0  0
  4  9  1  0  0  0  0
  5 10  1  0  0  0  0
  5  4  1  0  0  0  0
  6  7  1  0  0  0  0
  6  5  2  0  0  0  0
  7  3  2  0  0  0  0
  8  7  1  0  0  0  0
  8  1  1  0  0  0  0
 10 11  1  0  0  0  0
 11 12  2  0  0  0  0
 13 12  1  0  0  0  0
 14 13  2  0  0  0  0
 15 10  2  0  0  0  0
 15 14  1  0  0  0  0
 16  6  1  0  0  0  0
 17 16  1  0  0  0  0
 18 17  1  0  0  0  0
 19 20  1  0  0  0  0
 19 18  1  0  0  0  0
 20 21  1  0  0  0  0
 21 16  1  0  0  0  0
 22 23  2  0  0  0  0
 23  1  1  0  0  0  0
 23 24  1  0  0  0  0
M  END
>  <minimizedAffinity>
-4.86646891

$$$$

 OpenBabel09122218073D

 24 27  0  0  0  0  0  0  0  0999 V2000
   10.5790    3.6580    0.0990 C   0  0  0  0  0  0  0  0  0  0  0  0
    9.5570    2.9860    0.7460 C   0  0  0  0  0  3  0  0  0  0  0  0
    9.7110    1.5860    0.5890 C   0  0  0  0  0  0  0  0  0  0  0  0
    9.0480    0.4550    0.9810 N   0  0  0  0  0  0  0  0  0  0  0  0
    9.7190   -0.6460    0.5050 C   0  0  0  0  0  0  0  0  0  0  0  0
   10.8260   -0.2090   -0.2160 C   0  0  0  0  0  0  0  0  0  0  0  0
   10.8010    1.2210   -0.1420 C   0  0  0  0  0  0  0  0  0  0  0  0
   11.7000    2.6070   -0.6780 S   0  0  0  0  0  0  0  0  0  0  0  0
    8.2110    0.4730    1.5480 H   0  0  0  0  0  0  0  0  0  0  0  0
    9.2460   -1.9970    0.7950 C   0  0  0  0  0  0  0  0  0  0  0  0
    8.7660   -2.3220    2.0680 C   0  0  0  0  0  3  0  0  0  0  0  0
    8.3180   -3.6150    2.3460 C   0  0  0  0  0  3  0  0  0  0  0  0
    8.3510   -4.5940    1.3520 C   0  0  0  0  0  3  0  0  0  0  0  0
    8.8300   -4.2790    0.0820 C   0  0  0  0  0  3  0  0  0  0  0  0
    9.2760   -2.9840   -0.1960 C   0  0  0  0  0  3  0  0  0  0  0  0
   11.8590   -1.0130   -0.9500 C   0  0  0  0  0  3  0  0  0  0  0  0
   12.0700   -2.4110   -0.3430 C   0  0  0  0  0  2  0  0  0  0  0  0
   13.1620   -3.1810   -1.0830 C   0  0  0  0  0  2  0  0  0  0  0  0
   12.8820   -3.2590   -2.5800 C   0  0  0  0  0  2  0  0  0  0  0  0
   12.6760   -1.8750   -3.1870 C   0  0  0  0  0  2  0  0  0  0  0  0
   11.5820   -1.0960   -2.4590 C   0  0  0  0  0  2  0  0  0  0  0  0
   11.8180    5.6310   -0.2320 O   0  0  0  0  0  0  0  0  0  0  0  0
   10.6860    5.1480    0.0890 C   0  0  0  0  0  0  0  0  0  0  0  0
    9.6510    5.8160    0.3960 O   0  0  0  0  0  1  0  0  0  0  0  0
  1  2  2  0  0  0  0
  3  2  1  0  0  0  0
  3  4  1  0  0  0  0
  4  9  1  0  0  0  0
  5 10  1  0  0  0  0
  5  4  1  0  0  0  0
  6  7  1  0  0  0  0
  6  5  2  0  0  0  0
  7  3  2  0  0  0  0
  8  7  1  0  0  0  0
  8  1  1  0  0  0  0
 10 11  1  0  0  0  0
 11 12  2  0  0  0  0
 13 12  1  0  0  0  0
 14 13  2  0  0  0  0
 15 14  1  0  0  0  0
 15 10  2  0  0  0  0
 16 17  1  0  0  0  0
 16  6  1  0  0  0  0
 18 17  1  0  0  0  0
 19 18  1  0  0  0  0
 20 19  1  0  0  0  0
 20 21  1  0  0  0  0
 21 16  1  0  0  0  0
 22 23  2  0  0  0  0
 23  1  1  0  0  0  0
 23 24  1  0  0  0  0
M  END
>  <minimizedAffinity>
-4.60151911

$$$$

 OpenBabel09122218073D

 24 27  0  0  0  0  0  0  0  0999 V2000
   11.0280    6.4040    1.6660 C   0  0  0  0  0  0  0  0  0  0  0  0
   11.6550    6.0400    0.4870 C   0  0  0  0  0  3  0  0  0  0  0  0
   11.4420    4.6640    0.2210 C   0  0  0  0  0  0  0  0  0  0  0  0
   11.7930    3.7650   -0.7500 N   0  0  0  0  0  0  0  0  0  0  0  0
   11.2560    2.5390   -0.4400 C   0  0  0  0  0  0  0  0  0  0  0  0
   10.5580    2.6530    0.7580 C   0  0  0  0  0  0  0  0  0  0  0  0
   10.6880    4.0230    1.1570 C   0  0  0  0  0  0  0  0  0  0  0  0
   10.2000    5.1010    2.4280 S   0  0  0  0  0  0  0  0  0  0  0  0
   12.3450    4.0140   -1.5600 H   0  0  0  0  0  0  0  0  0  0  0  0
   11.4520    1.3900   -1.3210 C   0  0  0  0  0  0  0  0  0  0  0  0
   10.3570    0.7710   -1.9330 C   0  0  0  0  0  3  0  0  0  0  0  0
   10.5450   -0.3300   -2.7720 C   0  0  0  0  0  3  0  0  0  0  0  0
   11.8300   -0.8220   -3.0000 C   0  0  0  0  0  3  0  0  0  0  0  0
   12.9270   -0.2120   -2.3920 C   0  0  0  0  0  3  0  0  0  0  0  0
   12.7380    0.8910   -1.5560 C   0  0  0  0  0  3  0  0  0  0  0  0
    9.8170    1.6010    1.5290 C   0  0  0  0  0  3  0  0  0  0  0  0
    9.7860    0.2420    0.8080 C   0  0  0  0  0  2  0  0  0  0  0  0
    8.9820   -0.7900    1.5970 C   0  0  0  0  0  2  0  0  0  0  0  0
    9.4910   -0.9290    3.0270 C   0  0  0  0  0  2  0  0  0  0  0  0
    9.5190    0.4160    3.7480 C   0  0  0  0  0  2  0  0  0  0  0  0
   10.3250    1.4550    2.9720 C   0  0  0  0  0  2  0  0  0  0  0  0
   10.1880    8.0960    3.0690 O   0  0  0  0  0  1  0  0  0  0  0  0
   11.0760    7.7950    2.2090 C   0  0  0  0  0  0  0  0  0  0  0  0
   11.9870    8.5660    1.7770 O   0  0  0  0  0  0  0  0  0  0  0  0
  1 23  1  0  0  0  0
  1  8  1  0  0  0  0
  2  1  2  0  0  0  0
  3  2  1  0  0  0  0
  3  7  2  0  0  0  0
  4  5  1  0  0  0  0
  4  3  1  0  0  0  0
  5  6  2  0  0  0  0
  6  7  1  0  0  0  0
  6 16  1  0  0  0  0
  7  8  1  0  0  0  0
  9  4  1  0  0  0  0
 10  5  1  0  0  0  0
 11 10  2  0  0  0  0
 12 11  1  0  0  0  0
 13 12  2  0  0  0  0
 13 14  1  0  0  0  0
 14 15  2  0  0  0  0
 15 10  1  0  0  0  0
 16 21  1  0  0  0  0
 17 16  1  0  0  0  0
 17 18  1  0  0  0  0
 18 19  1  0  0  0  0
 19 20  1  0  0  0  0
 21 20  1  0  0  0  0
 23 22  1  0  0  0  0
 24 23  2  0  0  0  0
M  END
>  <minimizedAffinity>
-4.59703636

$$$$

 OpenBabel09122218073D

 24 27  0  0  0  0  0  0  0  0999 V2000
   10.5340    4.8700    1.6370 C   0  0  0  0  0  0  0  0  0  0  0  0
    9.9250    3.9210    2.4380 C   0  0  0  0  0  3  0  0  0  0  0  0
    9.9550    2.6520    1.8070 C   0  0  0  0  0  0  0  0  0  0  0  0
    9.5320    1.3810    2.0910 N   0  0  0  0  0  0  0  0  0  0  0  0
    9.8740    0.5520    1.0500 C   0  0  0  0  0  0  0  0  0  0  0  0
   10.5180    1.3090    0.0770 C   0  0  0  0  0  0  0  0  0  0  0  0
   10.5620    2.6470    0.5880 C   0  0  0  0  0  0  0  0  0  0  0  0
   11.1300    4.2290    0.1540 S   0  0  0  0  0  0  0  0  0  0  0  0
    9.0630    1.1340    2.9520 H   0  0  0  0  0  0  0  0  0  0  0  0
    9.5640   -0.8750    1.0950 C   0  0  0  0  0  0  0  0  0  0  0  0
    8.7420   -1.3910    2.1030 C   0  0  0  0  0  3  0  0  0  0  0  0
    8.4510   -2.7560    2.1470 C   0  0  0  0  0  3  0  0  0  0  0  0
    8.9830   -3.6150    1.1860 C   0  0  0  0  0  3  0  0  0  0  0  0
    9.8050   -3.1090    0.1800 C   0  0  0  0  0  3  0  0  0  0  0  0
   10.0940   -1.7440    0.1340 C   0  0  0  0  0  3  0  0  0  0  0  0
   11.0630    0.8800   -1.2540 C   0  0  0  0  0  3  0  0  0  0  0  0
   12.4420    0.2070   -1.1450 C   0  0  0  0  0  2  0  0  0  0  0  0
   12.9880   -0.1710   -2.5210 C   0  0  0  0  0  2  0  0  0  0  0  0
   12.0050   -1.0370   -3.3000 C   0  0  0  0  0  2  0  0  0  0  0  0
   10.6360   -0.3710   -3.4150 C   0  0  0  0  0  2  0  0  0  0  0  0
   10.0770    0.0060   -2.0450 C   0  0  0  0  0  2  0  0  0  0  0  0
   11.2420    7.0730    1.2080 O   0  0  0  0  0  0  0  0  0  0  0  0
   10.6560    6.3040    2.0350 C   0  0  0  0  0  0  0  0  0  0  0  0
   10.1710    6.6490    3.1570 O   0  0  0  0  0  1  0  0  0  0  0  0
  1 23  1  0  0  0  0
  1  2  2  0  0  0  0
  3  4  1  0  0  0  0
  3  2  1  0  0  0  0
  4  9  1  0  0  0  0
  5 10  1  0  0  0  0
  5  4  1  0  0  0  0
  6  7  1  0  0  0  0
  6  5  2  0  0  0  0
  7  3  2  0  0  0  0
  8  7  1  0  0  0  0
  8  1  1  0  0  0  0
 10 11  1  0  0  0  0
 11 12  2  0  0  0  0
 13 12  1  0  0  0  0
 14 13  2  0  0  0  0
 15 14  1  0  0  0  0
 15 10  2  0  0  0  0
 16 17  1  0  0  0  0
 16  6  1  0  0  0  0
 18 17  1  0  0  0  0
 19 18  1  0  0  0  0
 20 19  1  0  0  0  0
 20 21  1  0  0  0  0
 21 16  1  0  0  0  0
 22 23  2  0  0  0  0
 23 24  1  0  0  0  0
M  END
>  <minimizedAffinity>
-4.41901302

$$$$
