
 OpenBabel09122222393D

 29 31  0  0  0  0  0  0  0  0999 V2000
    4.3530   -4.2730    4.5520 C   0  0  0  0  0  0  0  0  0  0  0  0
    5.1670   -3.7820    3.6840 N   0  0  0  0  0  0  0  0  0  0  0  0
    6.4100   -3.3870    4.1400 C   0  0  0  0  0  0  0  0  0  0  0  0
    6.7900   -3.4160    5.4340 C   0  0  0  0  0  0  0  0  0  0  0  0
    5.8110   -3.9650    6.4000 C   0  0  0  0  0  0  0  0  0  0  0  0
    6.0350   -4.0390    7.6040 O   0  0  0  0  0  0  0  0  0  0  0  0
    4.6340   -4.4020    5.8710 N   0  0  0  0  0  0  0  0  0  0  0  0
    3.9460   -4.7910    6.5000 H   0  0  0  0  0  0  0  0  0  0  0  0
    7.3400   -2.9190    3.0840 C   0  0  0  0  0  0  0  0  0  0  0  0
    7.8130   -1.6020    3.1010 C   0  0  0  0  0  3  0  0  0  0  0  0
    8.6710   -1.1490    2.0980 C   0  0  0  0  0  3  0  0  0  0  0  0
    9.0580   -2.0060    1.0670 C   0  0  0  0  0  3  0  0  0  0  0  0
    8.5960   -3.3260    1.0310 C   0  0  0  0  0  0  0  0  0  0  0  0
    8.9760   -4.2360   -0.0990 C   0  0  0  0  0  1  0  0  0  0  0  0
    7.7210   -3.7690    2.0340 C   0  0  0  0  0  3  0  0  0  0  0  0
    8.0480   -2.9710    5.9200 C   0  0  0  0  0  0  0  0  0  0  0  0
    9.0680   -2.5870    6.3180 N   0  0  0  0  0  0  0  0  0  0  0  0
    2.7920   -4.8620    4.0930 S   0  0  0  0  0  0  0  0  0  0  0  0
    1.8080   -4.2400    5.4890 C   0  0  0  0  0  2  0  0  0  0  0  0
    1.0240   -0.5350    4.9830 C   0  0  0  0  0  0  0  0  0  0  0  0
    1.0280   -1.9230    4.8270 C   0  0  0  0  0  3  0  0  0  0  0  0
    1.8640   -2.7360    5.6050 C   0  0  0  0  0  0  0  0  0  0  0  0
    2.7300   -2.1230    6.5200 C   0  0  0  0  0  3  0  0  0  0  0  0
    2.7430   -0.7330    6.6750 C   0  0  0  0  0  0  0  0  0  0  0  0
    1.8870    0.0590    5.9070 C   0  0  0  0  0  3  0  0  0  0  0  0
    0.0990   -0.2560    2.8070 C   0  0  0  0  0  1  0  0  0  0  0  0
    0.1310    0.1190    4.1780 O   0  0  0  0  0  0  0  0  0  0  0  0
    3.6340   -0.2810    7.6110 O   0  0  0  0  0  0  0  0  0  0  0  0
    4.9560   -0.8030    7.5530 C   0  0  0  0  0  1  0  0  0  0  0  0
  1  7  1  0  0  0  0
  2  3  1  0  0  0  0
  2  1  2  0  0  0  0
  3  4  2  0  0  0  0
  4 16  1  0  0  0  0
  4  5  1  0  0  0  0
  5  6  2  0  0  0  0
  7  5  1  0  0  0  0
  7  8  1  0  0  0  0
  9 10  1  0  0  0  0
  9  3  1  0  0  0  0
 11 10  2  0  0  0  0
 12 11  1  0  0  0  0
 13 12  2  0  0  0  0
 13 15  1  0  0  0  0
 14 13  1  0  0  0  0
 15  9  2  0  0  0  0
 16 17  3  0  0  0  0
 18  1  1  0  0  0  0
 18 19  1  0  0  0  0
 19 22  1  0  0  0  0
 20 25  1  0  0  0  0
 21 20  2  0  0  0  0
 21 22  1  0  0  0  0
 22 23  2  0  0  0  0
 23 24  1  0  0  0  0
 24 28  1  0  0  0  0
 25 24  2  0  0  0  0
 26 27  1  0  0  0  0
 27 20  1  0  0  0  0
 29 28  1  0  0  0  0
M  END
>  <minimizedAffinity>
0.669975579

$$$$
