REMARK  Name = 
REMARK  10 active torsions:
REMARK  status: ('A' for Active; 'I' for Inactive)
REMARK    1  A    between atoms: C_1  and  C_2
REMARK    2  A    between atoms: C_2  and  C_3
REMARK    3  A    between atoms: C_2  and  C_4
REMARK    4  A    between atoms: C_4  and  C_5
REMARK    5  A    between atoms: C_5  and  N_6
REMARK    6  A    between atoms: C_9  and  C_10
REMARK    7  A    between atoms: C_17  and  N_18
REMARK    8  A    between atoms: N_18  and  S_19
REMARK    9  A    between atoms: S_19  and  C_22
REMARK   10  A    between atoms: C_32  and  O_33
REMARK                            x       y       z     vdW  Elec       q    Type
REMARK                         _______ _______ _______ _____ _____    ______ ____
ROOT
ATOM      1  C   UNL     1      -1.482  -3.520   1.162  0.00  0.00    +0.308 C 
ATOM      2  N   UNL     1      -2.497  -2.929   1.747  0.00  0.00    -0.131 N 
ATOM      3  S   UNL     1      -3.751  -2.275   0.993  0.00  0.00    +0.141 S 
ATOM      4  O   UNL     1      -4.799  -3.258   0.809  0.00  0.00    -0.129 OA
ATOM      5  O   UNL     1      -4.061  -1.003   1.616  0.00  0.00    -0.129 OA
ATOM      6  C   UNL     1      -3.162  -1.896  -0.622  0.00  0.00    +0.176 A 
ATOM      7  C   UNL     1      -3.754  -0.863  -1.352  0.00  0.00    +0.059 A 
ATOM      8  C   UNL     1      -3.204  -0.518  -2.581  0.00  0.00    +0.050 A 
ATOM      9  C   UNL     1      -2.118  -1.233  -3.088  0.00  0.00    +0.028 A 
ATOM     10  C   UNL     1      -1.554  -2.280  -2.350  0.00  0.00    +0.053 A 
ATOM     11  C   UNL     1      -2.055  -2.600  -1.087  0.00  0.00    +0.148 A 
ATOM     12  N   UNL     1      -1.380  -3.486  -0.250  0.00  0.00    -0.200 N 
ATOM     13  H   UNL     1      -2.525  -2.916   2.762  0.00  0.00    +0.339 HD
ATOM     14  H   UNL     1      -0.605  -4.026  -0.638  0.00  0.00    +0.298 HD
ENDROOT
BRANCH   1  18
ATOM     15  N   UNL     1       0.756  -4.018   4.170  0.00  0.00    -0.292 N 
ATOM     16  C   UNL     1      -0.406  -3.840   3.455  0.00  0.00    +0.271 A 
ATOM     17  O   UNL     1      -1.432  -3.339   3.924  0.00  0.00    -0.267 OA
ATOM     18  C   UNL     1      -0.385  -4.144   1.989  0.00  0.00    +0.170 A 
ATOM     19  C   UNL     1       0.667  -4.816   1.489  0.00  0.00    +0.148 A 
ATOM     20  C   UNL     1       1.745  -5.299   2.368  0.00  0.00    +0.060 A 
ATOM     21  C   UNL     1       2.737  -6.201   1.960  0.00  0.00    +0.016 A 
ATOM     22  C   UNL     1       3.774  -6.537   2.828  0.00  0.00    +0.021 A 
ATOM     23  C   UNL     1       3.788  -5.961   4.082  0.00  0.00    +0.113 A 
ATOM     24  N   UNL     1       2.834  -5.114   4.519  0.00  0.00    -0.237 NA
ATOM     25  C   UNL     1       1.816  -4.815   3.679  0.00  0.00    +0.147 A 
BRANCH  19  26
ATOM     26  O   UNL     1       0.801  -5.013   0.122  0.00  0.00    -0.505 OA
ATOM     27  H   UNL     1       1.734  -5.207  -0.088  0.00  0.00    +0.292 HD
ENDBRANCH  19  26
BRANCH  15  28
ATOM     28  C   UNL     1       0.914  -3.365   5.472  0.00  0.00    +0.127 C 
BRANCH  28  29
ATOM     29  C   UNL     1       1.861  -2.150   5.414  0.00  0.00    +0.025 C 
BRANCH  29  31
ATOM     30  C   UNL     1       0.202  -0.335   4.720  0.00  0.00    +0.007 C 
ATOM     31  C   UNL     1       1.494  -1.072   4.370  0.00  0.00    -0.016 C 
ATOM     32  C   UNL     1       2.637  -0.061   4.237  0.00  0.00    +0.007 C 
ENDBRANCH  29  31
ENDBRANCH  28  29
ENDBRANCH  15  28
ENDBRANCH   1  18
BRANCH   8  33
ATOM     33  N   UNL     1      -3.656   0.659  -3.235  0.00  0.00    -0.216 N 
ATOM     34  H   UNL     1      -4.644   0.905  -3.167  0.00  0.00    +0.174 HD
BRANCH  33  35
ATOM     35  S   UNL     1      -2.676   2.046  -3.135  0.00  0.00    +0.072 S 
ATOM     36  O   UNL     1      -1.409   1.764  -3.774  0.00  0.00    -0.150 OA
ATOM     37  O   UNL     1      -3.505   3.159  -3.546  0.00  0.00    -0.150 OA
BRANCH  35  38
ATOM     38  C   UNL     1      -2.388   2.208  -1.384  0.00  0.00    +0.108 A 
ATOM     39  C   UNL     1      -1.150   1.843  -0.844  0.00  0.00    +0.029 A 
ATOM     40  C   UNL     1      -0.947   1.939   0.533  0.00  0.00    +0.002 A 
ATOM     41  C   UNL     1      -1.973   2.403   1.359  0.00  0.00    +0.000 A 
ATOM     42  C   UNL     1      -3.199   2.786   0.811  0.00  0.00    +0.002 A 
ATOM     43  C   UNL     1      -3.410   2.699  -0.565  0.00  0.00    +0.029 A 
ENDBRANCH  35  38
ENDBRANCH  33  35
ENDBRANCH   8  33
TORSDOF 8
