
 OpenBabel09122222393D

 43 47  0  0  1  0  0  0  0  0999 V2000
    2.6590   -7.8060    6.0280 C   0  0  1  0  0  3  0  0  0  0  0  0
    2.4520   -6.9040    6.9580 N   0  0  0  0  0  0  0  0  0  0  0  0
    1.7050   -7.1630    8.3530 S   0  0  0  0  0  0  0  0  0  0  0  0
    2.6550   -7.5750    9.3660 O   0  0  0  0  0  0  0  0  0  0  0  0
    0.8090   -6.0540    8.6170 O   0  0  0  0  0  0  0  0  0  0  0  0
    0.6770   -8.5620    8.0630 C   0  0  0  0  0  0  0  0  0  0  0  0
   -0.4830   -8.7400    8.8210 C   0  0  0  0  0  3  0  0  0  0  0  0
   -1.3290   -9.7960    8.5030 C   0  0  0  0  0  0  0  0  0  0  0  0
   -0.9870  -10.6850    7.4830 C   0  0  0  0  0  3  0  0  0  0  0  0
    0.1920  -10.5020    6.7510 C   0  0  0  0  0  3  0  0  0  0  0  0
    1.0230   -9.4120    7.0160 C   0  0  0  0  0  0  0  0  0  0  0  0
    2.0790   -9.0910    6.1670 N   0  0  0  0  0  0  0  0  0  0  0  0
    2.8300   -5.9720    6.8160 H   0  0  0  0  0  0  0  0  0  0  0  0
    2.3410   -9.7610    5.4420 H   0  0  0  0  0  0  0  0  0  0  0  0
    4.6610   -5.6230    3.6770 N   0  0  0  0  0  0  0  0  0  0  0  0
    4.2850   -6.2250    4.8550 C   0  0  0  0  0  0  0  0  0  0  0  0
    4.5190   -5.7560    5.9730 O   0  0  0  0  0  0  0  0  0  0  0  0
    3.4240   -7.4480    4.7780 C   0  0  0  0  0  0  0  0  0  0  0  0
    3.2740   -8.0510    3.5850 C   0  0  0  0  0  0  0  0  0  0  0  0
    3.9880   -7.5630    2.3940 C   0  0  0  0  0  0  0  0  0  0  0  0
    4.0690   -8.2740    1.1890 C   0  0  0  0  0  3  0  0  0  0  0  0
    4.6870   -7.7000    0.0800 C   0  0  0  0  0  3  0  0  0  0  0  0
    5.2090   -6.4290    0.2090 C   0  0  0  0  0  3  0  0  0  0  0  0
    5.1770   -5.7280    1.3610 N   0  0  0  0  0  0  0  0  0  0  0  0
    4.5990   -6.3050    2.4400 C   0  0  0  0  0  0  0  0  0  0  0  0
    2.3890   -9.1090    3.4290 O   0  0  0  0  0  0  0  0  0  0  0  0
    2.1600   -9.2040    2.4860 H   0  0  0  0  0  0  0  0  0  0  0  0
    5.1350   -4.2360    3.6900 C   0  0  0  0  0  2  0  0  0  0  0  0
    4.0490   -3.2350    3.2510 C   0  0  0  0  0  2  0  0  0  0  0  0
    1.9800   -3.7290    4.6670 C   0  0  0  0  0  1  0  0  0  0  0  0
    3.1090   -2.7410    4.3730 C   0  0  0  0  0  3  0  0  0  0  0  0
    3.9100   -2.4870    5.6540 C   0  0  0  0  0  1  0  0  0  0  0  0
   -2.6080   -9.8670    9.1170 N   0  0  0  0  0  0  0  0  0  0  0  0
   -2.6610   -9.8400   10.1360 H   0  0  0  0  0  0  0  0  0  0  0  0
   -3.8720   -8.9680    8.4190 S   0  0  0  0  0  0  0  0  0  0  0  0
   -5.1230   -9.6400    8.6910 O   0  0  0  0  0  0  0  0  0  0  0  0
   -3.6490   -7.5900    8.8010 O   0  0  0  0  0  0  0  0  0  0  0  0
   -3.5410   -9.1010    6.6730 C   0  0  0  0  0  0  0  0  0  0  0  0
   -3.8360  -10.2890    5.9950 C   0  0  0  0  0  3  0  0  0  0  0  0
   -3.5400  -10.3960    4.6360 C   0  0  0  0  0  3  0  0  0  0  0  0
   -2.9600   -9.3190    3.9620 C   0  0  0  0  0  3  0  0  0  0  0  0
   -2.6880   -8.1280    4.6390 C   0  0  0  0  0  3  0  0  0  0  0  0
   -2.9860   -8.0100    5.9960 C   0  0  0  0  0  3  0  0  0  0  0  0
  1 18  1  6  0  0  0
  1 12  1  0  0  0  0
  1  2  1  0  0  0  0
  2  3  1  0  0  0  0
  3  5  2  0  0  0  0
  3  4  2  0  0  0  0
  6  3  1  0  0  0  0
  6  7  1  0  0  0  0
  8  7  2  0  0  0  0
  8 33  1  0  0  0  0
  9  8  1  0  0  0  0
 10 11  1  0  0  0  0
 10  9  2  0  0  0  0
 11  6  2  0  0  0  0
 12 11  1  0  0  0  0
 13  2  1  0  0  0  0
 14 12  1  0  0  0  0
 15 28  1  0  0  0  0
 15 16  1  0  0  0  0
 16 17  2  0  0  0  0
 18 16  1  0  0  0  0
 19 18  2  0  0  0  0
 20 25  1  0  0  0  0
 20 19  1  0  0  0  0
 21 20  2  0  0  0  0
 22 23  2  0  0  0  0
 22 21  1  0  0  0  0
 23 24  1  0  0  0  0
 24 25  2  0  0  0  0
 25 15  1  0  0  0  0
 26 19  1  0  0  0  0
 27 26  1  0  0  0  0
 29 28  1  0  0  0  0
 29 31  1  0  0  0  0
 31 30  1  0  0  0  0
 31 32  1  0  0  0  0
 33 34  1  0  0  0  0
 35 36  2  0  0  0  0
 35 37  2  0  0  0  0
 35 33  1  0  0  0  0
 38 35  1  0  0  0  0
 39 38  2  0  0  0  0
 40 39  1  0  0  0  0
 41 40  2  0  0  0  0
 41 42  1  0  0  0  0
 42 43  2  0  0  0  0
 43 38  1  0  0  0  0
M  END
>  <minimizedAffinity>
-7.02887678

$$$$
