
 OpenBabel09122222393D

 43 47  0  0  1  0  0  0  0  0999 V2000
    3.2320   -6.2460    8.3810 C   0  0  1  0  0  3  0  0  0  0  0  0
    2.4170   -6.8140    9.2390 N   0  0  0  0  0  0  0  0  0  0  0  0
    1.6330   -8.1920    9.0010 S   0  0  0  0  0  0  0  0  0  0  0  0
    2.4320   -9.3120    9.4550 O   0  0  0  0  0  0  0  0  0  0  0  0
    0.2710   -8.0430    9.4740 O   0  0  0  0  0  0  0  0  0  0  0  0
    1.5270   -8.3570    7.2520 C   0  0  0  0  0  0  0  0  0  0  0  0
    0.4850   -9.0960    6.6870 C   0  0  0  0  0  3  0  0  0  0  0  0
    0.3670   -9.1260    5.3020 C   0  0  0  0  0  0  0  0  0  0  0  0
    1.3080   -8.4730    4.5040 C   0  0  0  0  0  3  0  0  0  0  0  0
    2.3580   -7.7570    5.0910 C   0  0  0  0  0  3  0  0  0  0  0  0
    2.4570   -7.6660    6.4800 C   0  0  0  0  0  0  0  0  0  0  0  0
    3.3580   -6.7890    7.0800 N   0  0  0  0  0  0  0  0  0  0  0  0
    2.2970   -6.3790   10.1480 H   0  0  0  0  0  0  0  0  0  0  0  0
    4.0620   -6.3390    6.4920 H   0  0  0  0  0  0  0  0  0  0  0  0
    3.6920   -2.5220    8.8620 N   0  0  0  0  0  0  0  0  0  0  0  0
    3.0940   -3.7590    8.9430 C   0  0  0  0  0  0  0  0  0  0  0  0
    1.8770   -3.9280    9.0570 O   0  0  0  0  0  0  0  0  0  0  0  0
    3.9520   -4.9700    8.7460 C   0  0  0  0  0  0  0  0  0  0  0  0
    5.2880   -4.8190    8.7610 C   0  0  0  0  0  0  0  0  0  0  0  0
    5.8990   -3.5060    9.0270 C   0  0  0  0  0  0  0  0  0  0  0  0
    7.2620   -3.3220    9.2930 C   0  0  0  0  0  3  0  0  0  0  0  0
    7.7760   -2.0350    9.4440 C   0  0  0  0  0  3  0  0  0  0  0  0
    6.9080   -0.9680    9.3270 C   0  0  0  0  0  3  0  0  0  0  0  0
    5.5860   -1.1100    9.1030 N   0  0  0  0  0  0  0  0  0  0  0  0
    5.0920   -2.3640    8.9840 C   0  0  0  0  0  0  0  0  0  0  0  0
    6.1280   -5.8810    8.4570 O   0  0  0  0  0  0  0  0  0  0  0  0
    7.0020   -5.5380    8.1940 H   0  0  0  0  0  0  0  0  0  0  0  0
    2.8680   -1.3320    8.6360 C   0  0  0  0  0  2  0  0  0  0  0  0
    2.7550   -0.9650    7.1430 C   0  0  0  0  0  2  0  0  0  0  0  0
    1.6030   -1.8710    5.0500 C   0  0  0  0  0  1  0  0  0  0  0  0
    2.5950   -2.1590    6.1760 C   0  0  0  0  0  3  0  0  0  0  0  0
    3.9540   -2.5320    5.5750 C   0  0  0  0  0  1  0  0  0  0  0  0
   -0.7990   -9.6900    4.7200 N   0  0  0  0  0  0  0  0  0  0  0  0
   -1.1500  -10.5730    5.0910 H   0  0  0  0  0  0  0  0  0  0  0  0
   -2.0810   -8.6390    4.3370 S   0  0  0  0  0  0  0  0  0  0  0  0
   -1.5410   -7.3160    4.1090 O   0  0  0  0  0  0  0  0  0  0  0  0
   -2.8790   -9.3190    3.3390 O   0  0  0  0  0  0  0  0  0  0  0  0
   -3.0280   -8.5970    5.8450 C   0  0  0  0  0  0  0  0  0  0  0  0
   -3.0780   -7.4230    6.6050 C   0  0  0  0  0  3  0  0  0  0  0  0
   -3.7930   -7.4110    7.8030 C   0  0  0  0  0  3  0  0  0  0  0  0
   -4.4570   -8.5620    8.2320 C   0  0  0  0  0  3  0  0  0  0  0  0
   -4.4210   -9.7240    7.4580 C   0  0  0  0  0  3  0  0  0  0  0  0
   -3.7140   -9.7450    6.2560 C   0  0  0  0  0  3  0  0  0  0  0  0
  1 18  1  6  0  0  0
  1  2  1  0  0  0  0
  2 13  1  0  0  0  0
  3  2  1  0  0  0  0
  3  4  2  0  0  0  0
  3  5  2  0  0  0  0
  6  3  1  0  0  0  0
  7  6  1  0  0  0  0
  8  7  2  0  0  0  0
  9 10  2  0  0  0  0
  9  8  1  0  0  0  0
 10 11  1  0  0  0  0
 11 12  1  0  0  0  0
 11  6  2  0  0  0  0
 12  1  1  0  0  0  0
 14 12  1  0  0  0  0
 15 16  1  0  0  0  0
 15 25  1  0  0  0  0
 16 17  2  0  0  0  0
 18 19  2  0  0  0  0
 18 16  1  0  0  0  0
 19 20  1  0  0  0  0
 20 21  1  0  0  0  0
 21 22  2  0  0  0  0
 23 22  1  0  0  0  0
 24 23  2  0  0  0  0
 25 20  2  0  0  0  0
 25 24  1  0  0  0  0
 26 19  1  0  0  0  0
 27 26  1  0  0  0  0
 28 15  1  0  0  0  0
 29 28  1  0  0  0  0
 30 31  1  0  0  0  0
 31 29  1  0  0  0  0
 32 31  1  0  0  0  0
 33 34  1  0  0  0  0
 33  8  1  0  0  0  0
 35 33  1  0  0  0  0
 35 38  1  0  0  0  0
 36 35  2  0  0  0  0
 37 35  2  0  0  0  0
 38 43  2  0  0  0  0
 38 39  1  0  0  0  0
 39 40  2  0  0  0  0
 40 41  1  0  0  0  0
 42 41  2  0  0  0  0
 43 42  1  0  0  0  0
M  END
>  <minimizedAffinity>
-6.57176447

$$$$
