
 OpenBabel09122218453D

 43 47  0  0  1  0  0  0  0  0999 V2000
    2.6590   -7.8060    6.0280 C   0  0  1  0  0  3  0  0  0  0  0  0
    2.4520   -6.9040    6.9580 N   0  0  0  0  0  0  0  0  0  0  0  0
    1.7050   -7.1630    8.3530 S   0  0  0  0  0  0  0  0  0  0  0  0
    2.6550   -7.5750    9.3660 O   0  0  0  0  0  0  0  0  0  0  0  0
    0.8090   -6.0540    8.6170 O   0  0  0  0  0  0  0  0  0  0  0  0
    0.6770   -8.5620    8.0630 C   0  0  0  0  0  0  0  0  0  0  0  0
   -0.4830   -8.7400    8.8210 C   0  0  0  0  0  3  0  0  0  0  0  0
   -1.3290   -9.7960    8.5030 C   0  0  0  0  0  0  0  0  0  0  0  0
   -0.9870  -10.6850    7.4830 C   0  0  0  0  0  3  0  0  0  0  0  0
    0.1920  -10.5020    6.7510 C   0  0  0  0  0  3  0  0  0  0  0  0
    1.0230   -9.4120    7.0160 C   0  0  0  0  0  0  0  0  0  0  0  0
    2.0790   -9.0910    6.1670 N   0  0  0  0  0  0  0  0  0  0  0  0
    2.8300   -5.9720    6.8160 H   0  0  0  0  0  0  0  0  0  0  0  0
    2.3410   -9.7610    5.4420 H   0  0  0  0  0  0  0  0  0  0  0  0
    4.6610   -5.6230    3.6770 N   0  0  0  0  0  0  0  0  0  0  0  0
    4.2850   -6.2250    4.8550 C   0  0  0  0  0  0  0  0  0  0  0  0
    4.5190   -5.7560    5.9730 O   0  0  0  0  0  0  0  0  0  0  0  0
    3.4240   -7.4480    4.7780 C   0  0  0  0  0  0  0  0  0  0  0  0
    3.2740   -8.0510    3.5850 C   0  0  0  0  0  0  0  0  0  0  0  0
    3.9880   -7.5630    2.3940 C   0  0  0  0  0  0  0  0  0  0  0  0
    4.0690   -8.2740    1.1890 C   0  0  0  0  0  3  0  0  0  0  0  0
    4.6870   -7.7000    0.0800 C   0  0  0  0  0  3  0  0  0  0  0  0
    5.2090   -6.4290    0.2090 C   0  0  0  0  0  3  0  0  0  0  0  0
    5.1770   -5.7280    1.3610 N   0  0  0  0  0  0  0  0  0  0  0  0
    4.5990   -6.3050    2.4400 C   0  0  0  0  0  0  0  0  0  0  0  0
    2.3890   -9.1090    3.4290 O   0  0  0  0  0  0  0  0  0  0  0  0
    2.1600   -9.2040    2.4860 H   0  0  0  0  0  0  0  0  0  0  0  0
    5.1350   -4.2360    3.6900 C   0  0  0  0  0  2  0  0  0  0  0  0
    4.0490   -3.2350    3.2510 C   0  0  0  0  0  2  0  0  0  0  0  0
    1.9800   -3.7290    4.6670 C   0  0  0  0  0  1  0  0  0  0  0  0
    3.1090   -2.7410    4.3730 C   0  0  0  0  0  3  0  0  0  0  0  0
    3.9100   -2.4870    5.6540 C   0  0  0  0  0  1  0  0  0  0  0  0
   -2.6080   -9.8670    9.1170 N   0  0  0  0  0  0  0  0  0  0  0  0
   -2.6610   -9.8400   10.1360 H   0  0  0  0  0  0  0  0  0  0  0  0
   -3.8720   -8.9680    8.4190 S   0  0  0  0  0  0  0  0  0  0  0  0
   -5.1230   -9.6400    8.6910 O   0  0  0  0  0  0  0  0  0  0  0  0
   -3.6490   -7.5900    8.8010 O   0  0  0  0  0  0  0  0  0  0  0  0
   -3.5410   -9.1010    6.6730 C   0  0  0  0  0  0  0  0  0  0  0  0
   -3.8360  -10.2890    5.9950 C   0  0  0  0  0  3  0  0  0  0  0  0
   -3.5400  -10.3960    4.6360 C   0  0  0  0  0  3  0  0  0  0  0  0
   -2.9600   -9.3190    3.9620 C   0  0  0  0  0  3  0  0  0  0  0  0
   -2.6880   -8.1280    4.6390 C   0  0  0  0  0  3  0  0  0  0  0  0
   -2.9860   -8.0100    5.9960 C   0  0  0  0  0  3  0  0  0  0  0  0
  1 18  1  6  0  0  0
  1 12  1  0  0  0  0
  1  2  1  0  0  0  0
  2  3  1  0  0  0  0
  3  5  2  0  0  0  0
  3  4  2  0  0  0  0
  6  3  1  0  0  0  0
  6  7  1  0  0  0  0
  8  7  2  0  0  0  0
  8 33  1  0  0  0  0
  9  8  1  0  0  0  0
 10 11  1  0  0  0  0
 10  9  2  0  0  0  0
 11  6  2  0  0  0  0
 12 11  1  0  0  0  0
 13  2  1  0  0  0  0
 14 12  1  0  0  0  0
 15 28  1  0  0  0  0
 15 16  1  0  0  0  0
 16 17  2  0  0  0  0
 18 16  1  0  0  0  0
 19 18  2  0  0  0  0
 20 25  1  0  0  0  0
 20 19  1  0  0  0  0
 21 20  2  0  0  0  0
 22 23  2  0  0  0  0
 22 21  1  0  0  0  0
 23 24  1  0  0  0  0
 24 25  2  0  0  0  0
 25 15  1  0  0  0  0
 26 19  1  0  0  0  0
 27 26  1  0  0  0  0
 29 28  1  0  0  0  0
 29 31  1  0  0  0  0
 31 30  1  0  0  0  0
 31 32  1  0  0  0  0
 33 34  1  0  0  0  0
 35 36  2  0  0  0  0
 35 37  2  0  0  0  0
 35 33  1  0  0  0  0
 38 35  1  0  0  0  0
 39 38  2  0  0  0  0
 40 39  1  0  0  0  0
 41 40  2  0  0  0  0
 41 42  1  0  0  0  0
 42 43  2  0  0  0  0
 43 38  1  0  0  0  0
M  END
>  <minimizedAffinity>
-7.02887678

$$$$

 OpenBabel09122218453D

 43 47  0  0  1  0  0  0  0  0999 V2000
    3.2320   -6.2460    8.3810 C   0  0  1  0  0  3  0  0  0  0  0  0
    2.4170   -6.8140    9.2390 N   0  0  0  0  0  0  0  0  0  0  0  0
    1.6330   -8.1920    9.0010 S   0  0  0  0  0  0  0  0  0  0  0  0
    2.4320   -9.3120    9.4550 O   0  0  0  0  0  0  0  0  0  0  0  0
    0.2710   -8.0430    9.4740 O   0  0  0  0  0  0  0  0  0  0  0  0
    1.5270   -8.3570    7.2520 C   0  0  0  0  0  0  0  0  0  0  0  0
    0.4850   -9.0960    6.6870 C   0  0  0  0  0  3  0  0  0  0  0  0
    0.3670   -9.1260    5.3020 C   0  0  0  0  0  0  0  0  0  0  0  0
    1.3080   -8.4730    4.5040 C   0  0  0  0  0  3  0  0  0  0  0  0
    2.3580   -7.7570    5.0910 C   0  0  0  0  0  3  0  0  0  0  0  0
    2.4570   -7.6660    6.4800 C   0  0  0  0  0  0  0  0  0  0  0  0
    3.3580   -6.7890    7.0800 N   0  0  0  0  0  0  0  0  0  0  0  0
    2.2970   -6.3790   10.1480 H   0  0  0  0  0  0  0  0  0  0  0  0
    4.0620   -6.3390    6.4920 H   0  0  0  0  0  0  0  0  0  0  0  0
    3.6920   -2.5220    8.8620 N   0  0  0  0  0  0  0  0  0  0  0  0
    3.0940   -3.7590    8.9430 C   0  0  0  0  0  0  0  0  0  0  0  0
    1.8770   -3.9280    9.0570 O   0  0  0  0  0  0  0  0  0  0  0  0
    3.9520   -4.9700    8.7460 C   0  0  0  0  0  0  0  0  0  0  0  0
    5.2880   -4.8190    8.7610 C   0  0  0  0  0  0  0  0  0  0  0  0
    5.8990   -3.5060    9.0270 C   0  0  0  0  0  0  0  0  0  0  0  0
    7.2620   -3.3220    9.2930 C   0  0  0  0  0  3  0  0  0  0  0  0
    7.7760   -2.0350    9.4440 C   0  0  0  0  0  3  0  0  0  0  0  0
    6.9080   -0.9680    9.3270 C   0  0  0  0  0  3  0  0  0  0  0  0
    5.5860   -1.1100    9.1030 N   0  0  0  0  0  0  0  0  0  0  0  0
    5.0920   -2.3640    8.9840 C   0  0  0  0  0  0  0  0  0  0  0  0
    6.1280   -5.8810    8.4570 O   0  0  0  0  0  0  0  0  0  0  0  0
    7.0020   -5.5380    8.1940 H   0  0  0  0  0  0  0  0  0  0  0  0
    2.8680   -1.3320    8.6360 C   0  0  0  0  0  2  0  0  0  0  0  0
    2.7550   -0.9650    7.1430 C   0  0  0  0  0  2  0  0  0  0  0  0
    1.6030   -1.8710    5.0500 C   0  0  0  0  0  1  0  0  0  0  0  0
    2.5950   -2.1590    6.1760 C   0  0  0  0  0  3  0  0  0  0  0  0
    3.9540   -2.5320    5.5750 C   0  0  0  0  0  1  0  0  0  0  0  0
   -0.7990   -9.6900    4.7200 N   0  0  0  0  0  0  0  0  0  0  0  0
   -1.1500  -10.5730    5.0910 H   0  0  0  0  0  0  0  0  0  0  0  0
   -2.0810   -8.6390    4.3370 S   0  0  0  0  0  0  0  0  0  0  0  0
   -1.5410   -7.3160    4.1090 O   0  0  0  0  0  0  0  0  0  0  0  0
   -2.8790   -9.3190    3.3390 O   0  0  0  0  0  0  0  0  0  0  0  0
   -3.0280   -8.5970    5.8450 C   0  0  0  0  0  0  0  0  0  0  0  0
   -3.0780   -7.4230    6.6050 C   0  0  0  0  0  3  0  0  0  0  0  0
   -3.7930   -7.4110    7.8030 C   0  0  0  0  0  3  0  0  0  0  0  0
   -4.4570   -8.5620    8.2320 C   0  0  0  0  0  3  0  0  0  0  0  0
   -4.4210   -9.7240    7.4580 C   0  0  0  0  0  3  0  0  0  0  0  0
   -3.7140   -9.7450    6.2560 C   0  0  0  0  0  3  0  0  0  0  0  0
  1 18  1  6  0  0  0
  1  2  1  0  0  0  0
  2 13  1  0  0  0  0
  3  2  1  0  0  0  0
  3  4  2  0  0  0  0
  3  5  2  0  0  0  0
  6  3  1  0  0  0  0
  7  6  1  0  0  0  0
  8  7  2  0  0  0  0
  9 10  2  0  0  0  0
  9  8  1  0  0  0  0
 10 11  1  0  0  0  0
 11 12  1  0  0  0  0
 11  6  2  0  0  0  0
 12  1  1  0  0  0  0
 14 12  1  0  0  0  0
 15 16  1  0  0  0  0
 15 25  1  0  0  0  0
 16 17  2  0  0  0  0
 18 19  2  0  0  0  0
 18 16  1  0  0  0  0
 19 20  1  0  0  0  0
 20 21  1  0  0  0  0
 21 22  2  0  0  0  0
 23 22  1  0  0  0  0
 24 23  2  0  0  0  0
 25 20  2  0  0  0  0
 25 24  1  0  0  0  0
 26 19  1  0  0  0  0
 27 26  1  0  0  0  0
 28 15  1  0  0  0  0
 29 28  1  0  0  0  0
 30 31  1  0  0  0  0
 31 29  1  0  0  0  0
 32 31  1  0  0  0  0
 33 34  1  0  0  0  0
 33  8  1  0  0  0  0
 35 33  1  0  0  0  0
 35 38  1  0  0  0  0
 36 35  2  0  0  0  0
 37 35  2  0  0  0  0
 38 43  2  0  0  0  0
 38 39  1  0  0  0  0
 39 40  2  0  0  0  0
 40 41  1  0  0  0  0
 42 41  2  0  0  0  0
 43 42  1  0  0  0  0
M  END
>  <minimizedAffinity>
-6.57176447

$$$$

 OpenBabel09122218453D

 43 47  0  0  1  0  0  0  0  0999 V2000
    1.5260   -9.4210    3.6080 C   0  0  1  0  0  3  0  0  0  0  0  0
    1.2450   -9.2220    2.3420 N   0  0  0  0  0  0  0  0  0  0  0  0
    2.2870   -9.3350    1.1300 S   0  0  0  0  0  0  0  0  0  0  0  0
    2.3170  -10.6890    0.6140 O   0  0  0  0  0  0  0  0  0  0  0  0
    2.0740   -8.2250    0.2230 O   0  0  0  0  0  0  0  0  0  0  0  0
    3.8650   -9.0690    1.8640 C   0  0  0  0  0  0  0  0  0  0  0  0
    4.9120   -8.5590    1.0920 C   0  0  0  0  0  3  0  0  0  0  0  0
    6.1160   -8.2620    1.7190 C   0  0  0  0  0  0  0  0  0  0  0  0
    6.2810   -8.5250    3.0800 C   0  0  0  0  0  3  0  0  0  0  0  0
    5.2270   -9.0580    3.8300 C   0  0  0  0  0  3  0  0  0  0  0  0
    3.9910   -9.3040    3.2300 C   0  0  0  0  0  0  0  0  0  0  0  0
    2.8720   -9.6280    3.9950 N   0  0  0  0  0  0  0  0  0  0  0  0
    0.2820   -9.0210    2.0900 H   0  0  0  0  0  0  0  0  0  0  0  0
    3.0070   -9.8460    4.9830 H   0  0  0  0  0  0  0  0  0  0  0  0
    0.0330   -8.9110    7.0460 N   0  0  0  0  0  0  0  0  0  0  0  0
    0.8080   -8.6600    5.9370 C   0  0  0  0  0  0  0  0  0  0  0  0
    1.8520   -8.0020    5.9630 O   0  0  0  0  0  0  0  0  0  0  0  0
    0.4390   -9.3340    4.6520 C   0  0  0  0  0  0  0  0  0  0  0  0
   -0.7600   -9.9360    4.5650 C   0  0  0  0  0  0  0  0  0  0  0  0
   -1.7180   -9.8810    5.6820 C   0  0  0  0  0  0  0  0  0  0  0  0
   -3.0600  -10.2720    5.5770 C   0  0  0  0  0  3  0  0  0  0  0  0
   -3.8760  -10.2750    6.7060 C   0  0  0  0  0  3  0  0  0  0  0  0
   -3.3260   -9.8840    7.9100 C   0  0  0  0  0  3  0  0  0  0  0  0
   -2.0490   -9.4730    8.0420 N   0  0  0  0  0  0  0  0  0  0  0  0
   -1.2710   -9.4470    6.9350 C   0  0  0  0  0  0  0  0  0  0  0  0
   -1.1020  -10.6830    3.4470 O   0  0  0  0  0  0  0  0  0  0  0  0
   -1.8250  -11.2970    3.6760 H   0  0  0  0  0  0  0  0  0  0  0  0
    0.5630   -8.6260    8.3810 C   0  0  0  0  0  2  0  0  0  0  0  0
    0.4090   -7.1440    8.7760 C   0  0  0  0  0  2  0  0  0  0  0  0
    2.9580   -7.0740    8.9310 C   0  0  0  0  0  1  0  0  0  0  0  0
    1.6400   -6.5070    9.4580 C   0  0  0  0  0  3  0  0  0  0  0  0
    1.6230   -4.9890    9.2570 C   0  0  0  0  0  1  0  0  0  0  0  0
    7.1130   -7.5510    1.0000 N   0  0  0  0  0  0  0  0  0  0  0  0
    7.6880   -8.0610    0.3290 H   0  0  0  0  0  0  0  0  0  0  0  0
    6.7110   -6.0080    0.4050 S   0  0  0  0  0  0  0  0  0  0  0  0
    7.9320   -5.3110    0.0660 O   0  0  0  0  0  0  0  0  0  0  0  0
    5.6550   -6.2100   -0.5640 O   0  0  0  0  0  0  0  0  0  0  0  0
    5.9920   -5.2060    1.8240 C   0  0  0  0  0  0  0  0  0  0  0  0
    6.7900   -4.4110    2.6550 C   0  0  0  0  0  3  0  0  0  0  0  0
    6.2250   -3.8170    3.7840 C   0  0  0  0  0  3  0  0  0  0  0  0
    4.8730   -4.0130    4.0740 C   0  0  0  0  0  3  0  0  0  0  0  0
    4.0780   -4.7900    3.2290 C   0  0  0  0  0  3  0  0  0  0  0  0
    4.6310   -5.3840    2.0950 C   0  0  0  0  0  3  0  0  0  0  0  0
  1 12  1  0  0  0  0
  1 18  1  1  0  0  0
  2  1  1  0  0  0  0
  3  6  1  0  0  0  0
  3  2  1  0  0  0  0
  4  3  2  0  0  0  0
  5  3  2  0  0  0  0
  6 11  1  0  0  0  0
  7  8  1  0  0  0  0
  7  6  2  0  0  0  0
  8  9  2  0  0  0  0
  9 10  1  0  0  0  0
 11 10  2  0  0  0  0
 11 12  1  0  0  0  0
 12 14  1  0  0  0  0
 13  2  1  0  0  0  0
 15 28  1  0  0  0  0
 16 17  2  0  0  0  0
 16 15  1  0  0  0  0
 18 16  1  0  0  0  0
 19 18  2  0  0  0  0
 19 20  1  0  0  0  0
 20 25  1  0  0  0  0
 21 20  2  0  0  0  0
 21 22  1  0  0  0  0
 22 23  2  0  0  0  0
 23 24  1  0  0  0  0
 25 15  1  0  0  0  0
 25 24  2  0  0  0  0
 26 27  1  0  0  0  0
 26 19  1  0  0  0  0
 28 29  1  0  0  0  0
 29 31  1  0  0  0  0
 30 31  1  0  0  0  0
 32 31  1  0  0  0  0
 33  8  1  0  0  0  0
 34 33  1  0  0  0  0
 35 33  1  0  0  0  0
 35 38  1  0  0  0  0
 36 35  2  0  0  0  0
 37 35  2  0  0  0  0
 38 43  2  0  0  0  0
 38 39  1  0  0  0  0
 39 40  2  0  0  0  0
 40 41  1  0  0  0  0
 42 41  2  0  0  0  0
 43 42  1  0  0  0  0
M  END
>  <minimizedAffinity>
-6.23157263

$$$$

 OpenBabel09122218453D

 43 47  0  0  1  0  0  0  0  0999 V2000
    0.9510   -7.6190    7.8060 C   0  0  1  0  0  3  0  0  0  0  0  0
    2.1550   -8.0590    7.5290 N   0  0  0  0  0  0  0  0  0  0  0  0
    3.5140   -7.5280    8.1940 S   0  0  0  0  0  0  0  0  0  0  0  0
    3.8220   -8.2880    9.3880 O   0  0  0  0  0  0  0  0  0  0  0  0
    4.5170   -7.3810    7.1570 O   0  0  0  0  0  0  0  0  0  0  0  0
    3.1410   -5.8990    8.7470 C   0  0  0  0  0  0  0  0  0  0  0  0
    4.1640   -4.9550    8.8640 C   0  0  0  0  0  3  0  0  0  0  0  0
    3.8280   -3.6500    9.2040 C   0  0  0  0  0  0  0  0  0  0  0  0
    2.5000   -3.3160    9.4730 C   0  0  0  0  0  3  0  0  0  0  0  0
    1.4930   -4.2830    9.3720 C   0  0  0  0  0  3  0  0  0  0  0  0
    1.8040   -5.5840    8.9720 C   0  0  0  0  0  0  0  0  0  0  0  0
    0.8010   -6.4980    8.6580 N   0  0  0  0  0  0  0  0  0  0  0  0
    2.2460   -8.8290    6.8730 H   0  0  0  0  0  0  0  0  0  0  0  0
   -0.1650   -6.2570    8.8850 H   0  0  0  0  0  0  0  0  0  0  0  0
   -2.1940   -9.7060    7.5600 N   0  0  0  0  0  0  0  0  0  0  0  0
   -1.3060   -8.7840    8.0650 C   0  0  0  0  0  0  0  0  0  0  0  0
   -1.2510   -8.4640    9.2560 O   0  0  0  0  0  0  0  0  0  0  0  0
   -0.2560   -8.2400    7.1470 C   0  0  0  0  0  0  0  0  0  0  0  0
   -0.3810   -8.4640    5.8270 C   0  0  0  0  0  0  0  0  0  0  0  0
   -1.5530   -9.1720    5.2860 C   0  0  0  0  0  0  0  0  0  0  0  0
   -1.8660   -9.2300    3.9210 C   0  0  0  0  0  3  0  0  0  0  0  0
   -2.9430   -9.9990    3.4840 C   0  0  0  0  0  3  0  0  0  0  0  0
   -3.6790  -10.6870    4.4280 C   0  0  0  0  0  3  0  0  0  0  0  0
   -3.4260  -10.6300    5.7510 N   0  0  0  0  0  0  0  0  0  0  0  0
   -2.3940   -9.8590    6.1680 C   0  0  0  0  0  0  0  0  0  0  0  0
    0.6240   -8.0950    4.9440 O   0  0  0  0  0  0  0  0  0  0  0  0
    0.5340   -8.6050    4.1180 H   0  0  0  0  0  0  0  0  0  0  0  0
   -2.9530  -10.5600    8.4760 C   0  0  0  0  0  2  0  0  0  0  0  0
   -3.8070   -9.7500    9.4710 C   0  0  0  0  0  2  0  0  0  0  0  0
   -4.9190   -7.8640    8.1530 C   0  0  0  0  0  1  0  0  0  0  0  0
   -5.1260   -9.1790    8.9040 C   0  0  0  0  0  3  0  0  0  0  0  0
   -5.7790  -10.2010    7.9690 C   0  0  0  0  0  1  0  0  0  0  0  0
    4.8190   -2.6360    9.1210 N   0  0  0  0  0  0  0  0  0  0  0  0
    5.8000   -2.9070    9.1980 H   0  0  0  0  0  0  0  0  0  0  0  0
    4.6150   -1.4230    7.9460 S   0  0  0  0  0  0  0  0  0  0  0  0
    3.4490   -0.6380    8.2900 O   0  0  0  0  0  0  0  0  0  0  0  0
    5.9150   -0.8150    7.7600 O   0  0  0  0  0  0  0  0  0  0  0  0
    4.2390   -2.3520    6.4720 C   0  0  0  0  0  0  0  0  0  0  0  0
    2.9870   -2.2190    5.8640 C   0  0  0  0  0  3  0  0  0  0  0  0
    2.6900   -2.9780    4.7310 C   0  0  0  0  0  3  0  0  0  0  0  0
    3.6420   -3.8560    4.2100 C   0  0  0  0  0  3  0  0  0  0  0  0
    4.8990   -3.9680    4.8100 C   0  0  0  0  0  3  0  0  0  0  0  0
    5.2070   -3.2090    5.9390 C   0  0  0  0  0  3  0  0  0  0  0  0
  1 18  1  6  0  0  0
  1 12  1  0  0  0  0
  2  1  1  0  0  0  0
  2  3  1  0  0  0  0
  3  6  1  0  0  0  0
  3  4  2  0  0  0  0
  5  3  2  0  0  0  0
  6  7  2  0  0  0  0
  6 11  1  0  0  0  0
  7  8  1  0  0  0  0
  8  9  2  0  0  0  0
 10  9  1  0  0  0  0
 11 10  2  0  0  0  0
 12 14  1  0  0  0  0
 12 11  1  0  0  0  0
 13  2  1  0  0  0  0
 15 16  1  0  0  0  0
 15 28  1  0  0  0  0
 16 17  2  0  0  0  0
 18 16  1  0  0  0  0
 19 18  2  0  0  0  0
 20 19  1  0  0  0  0
 20 25  1  0  0  0  0
 21 20  2  0  0  0  0
 22 21  1  0  0  0  0
 22 23  2  0  0  0  0
 23 24  1  0  0  0  0
 24 25  2  0  0  0  0
 25 15  1  0  0  0  0
 26 19  1  0  0  0  0
 27 26  1  0  0  0  0
 28 29  1  0  0  0  0
 30 31  1  0  0  0  0
 31 29  1  0  0  0  0
 32 31  1  0  0  0  0
 33 34  1  0  0  0  0
 33  8  1  0  0  0  0
 35 36  2  0  0  0  0
 35 33  1  0  0  0  0
 37 35  2  0  0  0  0
 38 35  1  0  0  0  0
 39 38  2  0  0  0  0
 40 39  1  0  0  0  0
 41 40  2  0  0  0  0
 41 42  1  0  0  0  0
 42 43  2  0  0  0  0
 43 38  1  0  0  0  0
M  END
>  <minimizedAffinity>
-6.07608175

$$$$

 OpenBabel09122218453D

 43 47  0  0  1  0  0  0  0  0999 V2000
    0.9650   -6.7430    6.8840 C   0  0  1  0  0  3  0  0  0  0  0  0
    2.0150   -7.2100    7.5160 N   0  0  0  0  0  0  0  0  0  0  0  0
    3.4870   -6.5770    7.4660 S   0  0  0  0  0  0  0  0  0  0  0  0
    3.6490   -5.5930    8.5170 O   0  0  0  0  0  0  0  0  0  0  0  0
    4.4540   -7.6480    7.3300 O   0  0  0  0  0  0  0  0  0  0  0  0
    3.5410   -5.6750    5.9550 C   0  0  0  0  0  0  0  0  0  0  0  0
    4.7660   -5.4620    5.3180 C   0  0  0  0  0  3  0  0  0  0  0  0
    4.7690   -4.8370    4.0760 C   0  0  0  0  0  0  0  0  0  0  0  0
    3.5730   -4.3880    3.5150 C   0  0  0  0  0  3  0  0  0  0  0  0
    2.3590   -4.5910    4.1810 C   0  0  0  0  0  3  0  0  0  0  0  0
    2.3310   -5.2710    5.4000 C   0  0  0  0  0  0  0  0  0  0  0  0
    1.1240   -5.6720    5.9710 N   0  0  0  0  0  0  0  0  0  0  0  0
    1.8910   -8.0130    8.1250 H   0  0  0  0  0  0  0  0  0  0  0  0
    0.2550   -5.3150    5.5710 H   0  0  0  0  0  0  0  0  0  0  0  0
   -2.5330   -7.8160    5.9260 N   0  0  0  0  0  0  0  0  0  0  0  0
   -1.1770   -7.6180    5.8040 C   0  0  0  0  0  0  0  0  0  0  0  0
   -0.5940   -7.4960    4.7230 O   0  0  0  0  0  0  0  0  0  0  0  0
   -0.3820   -7.4020    7.0550 C   0  0  0  0  0  0  0  0  0  0  0  0
   -0.9630   -7.6680    8.2380 C   0  0  0  0  0  0  0  0  0  0  0  0
   -2.3270   -8.2180    8.3050 C   0  0  0  0  0  0  0  0  0  0  0  0
   -2.9000   -8.7370    9.4740 C   0  0  0  0  0  3  0  0  0  0  0  0
   -4.2300   -9.1550    9.4730 C   0  0  0  0  0  3  0  0  0  0  0  0
   -4.9480   -9.0420    8.3000 C   0  0  0  0  0  3  0  0  0  0  0  0
   -4.4210   -8.5760    7.1500 N   0  0  0  0  0  0  0  0  0  0  0  0
   -3.1210   -8.1990    7.1530 C   0  0  0  0  0  0  0  0  0  0  0  0
   -0.3210   -7.3660    9.4300 O   0  0  0  0  0  0  0  0  0  0  0  0
   -0.9790   -7.3080   10.1480 H   0  0  0  0  0  0  0  0  0  0  0  0
   -3.4010   -7.6220    4.7610 C   0  0  0  0  0  2  0  0  0  0  0  0
   -2.9680   -8.4740    3.5510 C   0  0  0  0  0  2  0  0  0  0  0  0
   -3.6880  -10.6740    2.4700 C   0  0  0  0  0  1  0  0  0  0  0  0
   -3.1280  -10.0000    3.7230 C   0  0  0  0  0  3  0  0  0  0  0  0
   -1.7800  -10.6320    4.0810 C   0  0  0  0  0  1  0  0  0  0  0  0
    5.9720   -4.8030    3.3220 N   0  0  0  0  0  0  0  0  0  0  0  0
    6.8600   -4.9000    3.8170 H   0  0  0  0  0  0  0  0  0  0  0  0
    6.0040   -5.6450    1.8440 S   0  0  0  0  0  0  0  0  0  0  0  0
    5.0620   -5.0250    0.9390 O   0  0  0  0  0  0  0  0  0  0  0  0
    7.4010   -5.8040    1.4980 O   0  0  0  0  0  0  0  0  0  0  0  0
    5.3730   -7.2520    2.2850 C   0  0  0  0  0  0  0  0  0  0  0  0
    6.2330   -8.2160    2.8220 C   0  0  0  0  0  3  0  0  0  0  0  0
    5.7370   -9.4830    3.1290 C   0  0  0  0  0  3  0  0  0  0  0  0
    4.3910   -9.7780    2.9060 C   0  0  0  0  0  3  0  0  0  0  0  0
    3.5330   -8.8050    2.3900 C   0  0  0  0  0  3  0  0  0  0  0  0
    4.0180   -7.5330    2.0850 C   0  0  0  0  0  3  0  0  0  0  0  0
  1 18  1  6  0  0  0
  1  2  1  0  0  0  0
  2 13  1  0  0  0  0
  3  2  1  0  0  0  0
  3  4  2  0  0  0  0
  5  3  2  0  0  0  0
  6  3  1  0  0  0  0
  7  6  2  0  0  0  0
  8  7  1  0  0  0  0
  9  8  2  0  0  0  0
  9 10  1  0  0  0  0
 10 11  2  0  0  0  0
 11  6  1  0  0  0  0
 11 12  1  0  0  0  0
 12  1  1  0  0  0  0
 14 12  1  0  0  0  0
 15 25  1  0  0  0  0
 16 15  1  0  0  0  0
 16 18  1  0  0  0  0
 17 16  2  0  0  0  0
 18 19  2  0  0  0  0
 19 20  1  0  0  0  0
 19 26  1  0  0  0  0
 20 21  1  0  0  0  0
 22 21  2  0  0  0  0
 23 22  1  0  0  0  0
 24 25  1  0  0  0  0
 24 23  2  0  0  0  0
 25 20  2  0  0  0  0
 26 27  1  0  0  0  0
 28 15  1  0  0  0  0
 29 31  1  0  0  0  0
 29 28  1  0  0  0  0
 30 31  1  0  0  0  0
 31 32  1  0  0  0  0
 33 34  1  0  0  0  0
 33  8  1  0  0  0  0
 35 38  1  0  0  0  0
 35 33  1  0  0  0  0
 36 35  2  0  0  0  0
 37 35  2  0  0  0  0
 38 39  1  0  0  0  0
 39 40  2  0  0  0  0
 41 40  1  0  0  0  0
 42 41  2  0  0  0  0
 43 38  2  0  0  0  0
 43 42  1  0  0  0  0
M  END
>  <minimizedAffinity>
-5.85457802

$$$$

 OpenBabel09122218453D

 43 47  0  0  1  0  0  0  0  0999 V2000
    2.1520   -7.0350    5.9030 C   0  0  1  0  0  3  0  0  0  0  0  0
    2.5400   -6.2000    4.9680 N   0  0  0  0  0  0  0  0  0  0  0  0
    3.9570   -5.4530    4.9200 S   0  0  0  0  0  0  0  0  0  0  0  0
    4.9270   -6.2560    4.2040 O   0  0  0  0  0  0  0  0  0  0  0  0
    3.7460   -4.0710    4.5360 O   0  0  0  0  0  0  0  0  0  0  0  0
    4.5070   -5.4160    6.5920 C   0  0  0  0  0  0  0  0  0  0  0  0
    5.3810   -4.4110    7.0130 C   0  0  0  0  0  3  0  0  0  0  0  0
    5.7190   -4.3460    8.3590 C   0  0  0  0  0  0  0  0  0  0  0  0
    5.2320   -5.3030    9.2510 C   0  0  0  0  0  3  0  0  0  0  0  0
    4.3760   -6.3150    8.8040 C   0  0  0  0  0  3  0  0  0  0  0  0
    3.9780   -6.3600    7.4660 C   0  0  0  0  0  0  0  0  0  0  0  0
    2.9660   -7.2210    7.0470 N   0  0  0  0  0  0  0  0  0  0  0  0
    1.9180   -6.0380    4.1820 H   0  0  0  0  0  0  0  0  0  0  0  0
    2.6370   -7.9370    7.6970 H   0  0  0  0  0  0  0  0  0  0  0  0
   -1.1380   -8.4350    7.1350 N   0  0  0  0  0  0  0  0  0  0  0  0
   -0.1110   -7.5340    6.9740 C   0  0  0  0  0  0  0  0  0  0  0  0
    0.1660   -6.6540    7.7930 O   0  0  0  0  0  0  0  0  0  0  0  0
    0.8090   -7.7150    5.8060 C   0  0  0  0  0  0  0  0  0  0  0  0
    0.4490   -8.5720    4.8340 C   0  0  0  0  0  0  0  0  0  0  0  0
   -0.8470   -9.2700    4.8800 C   0  0  0  0  0  0  0  0  0  0  0  0
   -1.3870   -9.9810    3.8000 C   0  0  0  0  0  3  0  0  0  0  0  0
   -2.5770  -10.6890    3.9560 C   0  0  0  0  0  3  0  0  0  0  0  0
   -3.1940  -10.6640    5.1900 C   0  0  0  0  0  3  0  0  0  0  0  0
   -2.7200   -9.9650    6.2420 N   0  0  0  0  0  0  0  0  0  0  0  0
   -1.5790   -9.2580    6.0730 C   0  0  0  0  0  0  0  0  0  0  0  0
    1.3170   -8.8750    3.7950 O   0  0  0  0  0  0  0  0  0  0  0  0
    1.0520   -9.7200    3.3860 H   0  0  0  0  0  0  0  0  0  0  0  0
   -1.7960   -8.5600    8.4380 C   0  0  0  0  0  2  0  0  0  0  0  0
   -2.8000   -7.4220    8.7060 C   0  0  0  0  0  2  0  0  0  0  0  0
   -5.0940   -8.5430    8.6200 C   0  0  0  0  0  1  0  0  0  0  0  0
   -4.1490   -7.5380    7.9630 C   0  0  0  0  0  3  0  0  0  0  0  0
   -4.8300   -6.1680    7.8950 C   0  0  0  0  0  1  0  0  0  0  0  0
    6.4290   -3.2140    8.8400 N   0  0  0  0  0  0  0  0  0  0  0  0
    7.3970   -3.3370    9.1380 H   0  0  0  0  0  0  0  0  0  0  0  0
    6.2330   -1.7440    8.0060 S   0  0  0  0  0  0  0  0  0  0  0  0
    6.8830   -0.6940    8.7610 O   0  0  0  0  0  0  0  0  0  0  0  0
    6.5740   -2.0120    6.6250 O   0  0  0  0  0  0  0  0  0  0  0  0
    4.4740   -1.4710    8.0830 C   0  0  0  0  0  0  0  0  0  0  0  0
    3.7050   -1.5480    6.9160 C   0  0  0  0  0  3  0  0  0  0  0  0
    2.3340   -1.2970    6.9810 C   0  0  0  0  0  3  0  0  0  0  0  0
    1.7390   -0.9790    8.2040 C   0  0  0  0  0  3  0  0  0  0  0  0
    2.5090   -0.9260    9.3680 C   0  0  0  0  0  3  0  0  0  0  0  0
    3.8790   -1.1810    9.3150 C   0  0  0  0  0  3  0  0  0  0  0  0
  1 18  1  1  0  0  0
  1 12  1  0  0  0  0
  2  1  1  0  0  0  0
  3  2  1  0  0  0  0
  3  6  1  0  0  0  0
  4  3  2  0  0  0  0
  5  3  2  0  0  0  0
  6  7  2  0  0  0  0
  6 11  1  0  0  0  0
  7  8  1  0  0  0  0
  8 33  1  0  0  0  0
  8  9  2  0  0  0  0
 10  9  1  0  0  0  0
 11 10  2  0  0  0  0
 12 11  1  0  0  0  0
 12 14  1  0  0  0  0
 13  2  1  0  0  0  0
 15 28  1  0  0  0  0
 16 15  1  0  0  0  0
 16 17  2  0  0  0  0
 18 16  1  0  0  0  0
 19 20  1  0  0  0  0
 19 18  2  0  0  0  0
 20 25  1  0  0  0  0
 21 22  1  0  0  0  0
 21 20  2  0  0  0  0
 22 23  2  0  0  0  0
 23 24  1  0  0  0  0
 25 24  2  0  0  0  0
 25 15  1  0  0  0  0
 26 19  1  0  0  0  0
 27 26  1  0  0  0  0
 28 29  1  0  0  0  0
 31 30  1  0  0  0  0
 31 29  1  0  0  0  0
 32 31  1  0  0  0  0
 33 34  1  0  0  0  0
 35 38  1  0  0  0  0
 35 36  2  0  0  0  0
 35 33  1  0  0  0  0
 37 35  2  0  0  0  0
 38 43  1  0  0  0  0
 39 40  1  0  0  0  0
 39 38  2  0  0  0  0
 40 41  2  0  0  0  0
 41 42  1  0  0  0  0
 43 42  2  0  0  0  0
M  END
>  <minimizedAffinity>
-5.82844543

$$$$

 OpenBabel09122218453D

 43 47  0  0  1  0  0  0  0  0999 V2000
    2.2480  -10.0730    3.6070 C   0  0  1  0  0  3  0  0  0  0  0  0
    1.7760   -9.6680    2.4520 N   0  0  0  0  0  0  0  0  0  0  0  0
    2.6380   -9.4620    1.1170 S   0  0  0  0  0  0  0  0  0  0  0  0
    2.6780  -10.6880    0.3460 O   0  0  0  0  0  0  0  0  0  0  0  0
    2.2270   -8.2260    0.4790 O   0  0  0  0  0  0  0  0  0  0  0  0
    4.2860   -9.1960    1.6770 C   0  0  0  0  0  0  0  0  0  0  0  0
    5.1760   -8.4610    0.8920 C   0  0  0  0  0  3  0  0  0  0  0  0
    6.4380   -8.1800    1.4040 C   0  0  0  0  0  0  0  0  0  0  0  0
    6.8130   -8.6750    2.6540 C   0  0  0  0  0  3  0  0  0  0  0  0
    5.9120   -9.4290    3.4150 C   0  0  0  0  0  3  0  0  0  0  0  0
    4.6210   -9.6690    2.9430 C   0  0  0  0  0  0  0  0  0  0  0  0
    3.6470  -10.2270    3.7680 N   0  0  0  0  0  0  0  0  0  0  0  0
    0.7760   -9.5110    2.3700 H   0  0  0  0  0  0  0  0  0  0  0  0
    3.9360  -10.6120    4.6690 H   0  0  0  0  0  0  0  0  0  0  0  0
   -1.0510  -10.2320    5.4490 N   0  0  0  0  0  0  0  0  0  0  0  0
   -0.1300  -10.4570    4.4520 C   0  0  0  0  0  0  0  0  0  0  0  0
   -0.4310  -10.6880    3.2770 O   0  0  0  0  0  0  0  0  0  0  0  0
    1.3200  -10.2780    4.7790 C   0  0  0  0  0  0  0  0  0  0  0  0
    1.6770  -10.1670    6.0700 C   0  0  0  0  0  0  0  0  0  0  0  0
    0.6770  -10.2800    7.1450 C   0  0  0  0  0  0  0  0  0  0  0  0
    1.0040  -10.4130    8.5020 C   0  0  0  0  0  3  0  0  0  0  0  0
   -0.0040  -10.4230    9.4640 C   0  0  0  0  0  3  0  0  0  0  0  0
   -1.3110  -10.3010    9.0410 C   0  0  0  0  0  3  0  0  0  0  0  0
   -1.6640  -10.2030    7.7430 N   0  0  0  0  0  0  0  0  0  0  0  0
   -0.6810  -10.2220    6.8140 C   0  0  0  0  0  0  0  0  0  0  0  0
    2.9860   -9.8720    6.4240 O   0  0  0  0  0  0  0  0  0  0  0  0
    3.0040   -9.5100    7.3300 H   0  0  0  0  0  0  0  0  0  0  0  0
   -2.4530   -9.9890    5.1000 C   0  0  0  0  0  2  0  0  0  0  0  0
   -2.6550   -8.6550    4.3540 C   0  0  0  0  0  2  0  0  0  0  0  0
   -3.6760   -7.7240    6.5030 C   0  0  0  0  0  1  0  0  0  0  0  0
   -2.8520   -7.4150    5.2540 C   0  0  0  0  0  3  0  0  0  0  0  0
   -1.4910   -6.8480    5.6700 C   0  0  0  0  0  1  0  0  0  0  0  0
    7.2740   -7.2610    0.7160 N   0  0  0  0  0  0  0  0  0  0  0  0
    7.8810   -7.6150   -0.0240 H   0  0  0  0  0  0  0  0  0  0  0  0
    6.6110   -5.7540    0.2880 S   0  0  0  0  0  0  0  0  0  0  0  0
    7.6910   -4.8500   -0.0410 O   0  0  0  0  0  0  0  0  0  0  0  0
    5.5400   -6.0320   -0.6460 O   0  0  0  0  0  0  0  0  0  0  0  0
    5.8670   -5.1970    1.8080 C   0  0  0  0  0  0  0  0  0  0  0  0
    6.5900   -4.3750    2.6790 C   0  0  0  0  0  3  0  0  0  0  0  0
    6.0120   -3.9750    3.8840 C   0  0  0  0  0  3  0  0  0  0  0  0
    4.7190   -4.3890    4.2090 C   0  0  0  0  0  3  0  0  0  0  0  0
    3.9940   -5.1920    3.3260 C   0  0  0  0  0  3  0  0  0  0  0  0
    4.5610   -5.5930    2.1160 C   0  0  0  0  0  3  0  0  0  0  0  0
  1 12  1  0  0  0  0
  1 18  1  1  0  0  0
  2  1  1  0  0  0  0
  3  6  1  0  0  0  0
  3  2  1  0  0  0  0
  4  3  2  0  0  0  0
  5  3  2  0  0  0  0
  6 11  1  0  0  0  0
  7  8  1  0  0  0  0
  7  6  2  0  0  0  0
  8  9  2  0  0  0  0
  9 10  1  0  0  0  0
 11 10  2  0  0  0  0
 11 12  1  0  0  0  0
 12 14  1  0  0  0  0
 13  2  1  0  0  0  0
 15 25  1  0  0  0  0
 16 18  1  0  0  0  0
 16 15  1  0  0  0  0
 17 16  2  0  0  0  0
 18 19  2  0  0  0  0
 19 26  1  0  0  0  0
 19 20  1  0  0  0  0
 20 21  1  0  0  0  0
 21 22  2  0  0  0  0
 23 22  1  0  0  0  0
 24 23  2  0  0  0  0
 25 20  2  0  0  0  0
 25 24  1  0  0  0  0
 26 27  1  0  0  0  0
 28 15  1  0  0  0  0
 29 28  1  0  0  0  0
 29 31  1  0  0  0  0
 31 32  1  0  0  0  0
 31 30  1  0  0  0  0
 33  8  1  0  0  0  0
 34 33  1  0  0  0  0
 35 33  1  0  0  0  0
 35 38  1  0  0  0  0
 36 35  2  0  0  0  0
 37 35  2  0  0  0  0
 38 43  2  0  0  0  0
 38 39  1  0  0  0  0
 39 40  2  0  0  0  0
 40 41  1  0  0  0  0
 42 41  2  0  0  0  0
 43 42  1  0  0  0  0
M  END
>  <minimizedAffinity>
-5.75874233

$$$$

 OpenBabel09122218453D

 43 47  0  0  1  0  0  0  0  0999 V2000
    2.9350   -8.2320    4.6690 C   0  0  1  0  0  3  0  0  0  0  0  0
    2.9890   -8.3790    5.9720 N   0  0  0  0  0  0  0  0  0  0  0  0
    2.1370   -9.4360    6.8230 S   0  0  0  0  0  0  0  0  0  0  0  0
    2.8570  -10.6880    6.9400 O   0  0  0  0  0  0  0  0  0  0  0  0
    1.6350   -8.7820    8.0160 O   0  0  0  0  0  0  0  0  0  0  0  0
    0.7270   -9.7880    5.8300 C   0  0  0  0  0  0  0  0  0  0  0  0
   -0.4610  -10.2060    6.4340 C   0  0  0  0  0  3  0  0  0  0  0  0
   -1.5870  -10.3780    5.6380 C   0  0  0  0  0  0  0  0  0  0  0  0
   -1.5050  -10.1870    4.2580 C   0  0  0  0  0  3  0  0  0  0  0  0
   -0.2990   -9.7890    3.6690 C   0  0  0  0  0  3  0  0  0  0  0  0
    0.8260   -9.5530    4.4620 C   0  0  0  0  0  0  0  0  0  0  0  0
    1.9660   -8.9540    3.9300 N   0  0  0  0  0  0  0  0  0  0  0  0
    3.6520   -7.8120    6.4910 H   0  0  0  0  0  0  0  0  0  0  0  0
    2.0300   -8.8450    2.9170 H   0  0  0  0  0  0  0  0  0  0  0  0
    5.5370   -7.0000    2.2170 N   0  0  0  0  0  0  0  0  0  0  0  0
    4.4230   -7.6650    2.6740 C   0  0  0  0  0  0  0  0  0  0  0  0
    3.9500   -8.6680    2.1310 O   0  0  0  0  0  0  0  0  0  0  0  0
    3.8290   -7.2320    3.9780 C   0  0  0  0  0  0  0  0  0  0  0  0
    4.2350   -6.0670    4.5120 C   0  0  0  0  0  0  0  0  0  0  0  0
    5.1940   -5.2020    3.8040 C   0  0  0  0  0  0  0  0  0  0  0  0
    5.4750   -3.8810    4.1790 C   0  0  0  0  0  3  0  0  0  0  0  0
    6.4640   -3.1620    3.5100 C   0  0  0  0  0  3  0  0  0  0  0  0
    7.1420   -3.7860    2.4820 C   0  0  0  0  0  3  0  0  0  0  0  0
    6.8770   -5.0430    2.0750 N   0  0  0  0  0  0  0  0  0  0  0  0
    5.8960   -5.7240    2.7120 C   0  0  0  0  0  0  0  0  0  0  0  0
    3.8150   -5.6780    5.7760 O   0  0  0  0  0  0  0  0  0  0  0  0
    4.4330   -5.0130    6.1330 H   0  0  0  0  0  0  0  0  0  0  0  0
    6.3860   -7.6210    1.1970 C   0  0  0  0  0  2  0  0  0  0  0  0
    5.6780   -7.7430   -0.1670 C   0  0  0  0  0  2  0  0  0  0  0  0
    4.4260   -5.5250   -0.3660 C   0  0  0  0  0  1  0  0  0  0  0  0
    5.5160   -6.4220   -0.9510 C   0  0  0  0  0  3  0  0  0  0  0  0
    6.8440   -5.6590   -0.9740 C   0  0  0  0  0  1  0  0  0  0  0  0
   -2.8460  -10.5950    6.2580 N   0  0  0  0  0  0  0  0  0  0  0  0
   -3.2890  -11.5090    6.1550 H   0  0  0  0  0  0  0  0  0  0  0  0
   -3.0690   -9.9850    7.8300 S   0  0  0  0  0  0  0  0  0  0  0  0
   -4.1740  -10.6880    8.4460 O   0  0  0  0  0  0  0  0  0  0  0  0
   -1.7570   -9.9460    8.4400 O   0  0  0  0  0  0  0  0  0  0  0  0
   -3.5770   -8.3020    7.5390 C   0  0  0  0  0  0  0  0  0  0  0  0
   -4.6340   -7.7550    8.2760 C   0  0  0  0  0  3  0  0  0  0  0  0
   -5.0480   -6.4490    8.0150 C   0  0  0  0  0  3  0  0  0  0  0  0
   -4.4040   -5.6960    7.0300 C   0  0  0  0  0  3  0  0  0  0  0  0
   -3.3360   -6.2410    6.3140 C   0  0  0  0  0  3  0  0  0  0  0  0
   -2.9110   -7.5440    6.5710 C   0  0  0  0  0  3  0  0  0  0  0  0
  1 18  1  1  0  0  0
  1  2  1  0  0  0  0
  2 13  1  0  0  0  0
  2  3  1  0  0  0  0
  3  4  2  0  0  0  0
  3  5  2  0  0  0  0
  6  7  1  0  0  0  0
  6  3  1  0  0  0  0
  8 33  1  0  0  0  0
  8  7  2  0  0  0  0
  9  8  1  0  0  0  0
 10  9  2  0  0  0  0
 10 11  1  0  0  0  0
 11  6  2  0  0  0  0
 12 11  1  0  0  0  0
 12  1  1  0  0  0  0
 14 12  1  0  0  0  0
 15 16  1  0  0  0  0
 15 25  1  0  0  0  0
 16 18  1  0  0  0  0
 17 16  2  0  0  0  0
 18 19  2  0  0  0  0
 19 26  1  0  0  0  0
 20 21  1  0  0  0  0
 20 19  1  0  0  0  0
 22 21  2  0  0  0  0
 23 22  1  0  0  0  0
 24 23  2  0  0  0  0
 24 25  1  0  0  0  0
 25 20  2  0  0  0  0
 26 27  1  0  0  0  0
 28 15  1  0  0  0  0
 29 28  1  0  0  0  0
 31 30  1  0  0  0  0
 31 29  1  0  0  0  0
 32 31  1  0  0  0  0
 33 35  1  0  0  0  0
 34 33  1  0  0  0  0
 35 37  2  0  0  0  0
 35 36  2  0  0  0  0
 38 35  1  0  0  0  0
 38 39  1  0  0  0  0
 40 39  2  0  0  0  0
 41 40  1  0  0  0  0
 42 43  1  0  0  0  0
 42 41  2  0  0  0  0
 43 38  2  0  0  0  0
M  END
>  <minimizedAffinity>
-4.67164993

$$$$

 OpenBabel09122218453D

 43 47  0  0  1  0  0  0  0  0999 V2000
    2.9710   -6.6110    5.4240 C   0  0  1  0  0  3  0  0  0  0  0  0
    3.2330   -7.8540    5.0960 N   0  0  0  0  0  0  0  0  0  0  0  0
    2.1500   -8.9380    4.6260 S   0  0  0  0  0  0  0  0  0  0  0  0
    1.9840   -8.8950    3.1880 O   0  0  0  0  0  0  0  0  0  0  0  0
    2.4360  -10.2000    5.2790 O   0  0  0  0  0  0  0  0  0  0  0  0
    0.6240   -8.3760    5.3000 C   0  0  0  0  0  0  0  0  0  0  0  0
   -0.3940   -9.2920    5.5720 C   0  0  0  0  0  3  0  0  0  0  0  0
   -1.5490   -8.8370    6.1980 C   0  0  0  0  0  0  0  0  0  0  0  0
   -1.6970   -7.4810    6.4930 C   0  0  0  0  0  3  0  0  0  0  0  0
   -0.6740   -6.5750    6.1910 C   0  0  0  0  0  3  0  0  0  0  0  0
    0.5170   -7.0250    5.6180 C   0  0  0  0  0  0  0  0  0  0  0  0
    1.6230   -6.1850    5.5090 N   0  0  0  0  0  0  0  0  0  0  0  0
    4.2020   -8.1560    5.0940 H   0  0  0  0  0  0  0  0  0  0  0  0
    1.4980   -5.1890    5.6990 H   0  0  0  0  0  0  0  0  0  0  0  0
    4.9250   -4.2230    7.6120 N   0  0  0  0  0  0  0  0  0  0  0  0
    4.2270   -5.3550    7.2580 C   0  0  0  0  0  0  0  0  0  0  0  0
    3.6130   -6.0630    8.0610 O   0  0  0  0  0  0  0  0  0  0  0  0
    4.0910   -5.6720    5.8010 C   0  0  0  0  0  0  0  0  0  0  0  0
    4.8600   -5.0020    4.9250 C   0  0  0  0  0  0  0  0  0  0  0  0
    5.8600   -4.0250    5.3870 C   0  0  0  0  0  0  0  0  0  0  0  0
    6.8490   -3.4730    4.5610 C   0  0  0  0  0  3  0  0  0  0  0  0
    7.7000   -2.4860    5.0560 C   0  0  0  0  0  3  0  0  0  0  0  0
    7.5370   -2.0790    6.3640 C   0  0  0  0  0  3  0  0  0  0  0  0
    6.6170   -2.6090    7.1960 N   0  0  0  0  0  0  0  0  0  0  0  0
    5.8140   -3.5870    6.7150 C   0  0  0  0  0  0  0  0  0  0  0  0
    4.6860   -5.1620    3.5570 O   0  0  0  0  0  0  0  0  0  0  0  0
    5.0680   -4.3950    3.0900 H   0  0  0  0  0  0  0  0  0  0  0  0
    4.7460   -3.6490    8.9480 C   0  0  0  0  0  2  0  0  0  0  0  0
    3.4180   -2.8790    9.0890 C   0  0  0  0  0  2  0  0  0  0  0  0
    1.8900   -1.1070    8.0620 C   0  0  0  0  0  1  0  0  0  0  0  0
    3.3320   -1.5540    8.3000 C   0  0  0  0  0  3  0  0  0  0  0  0
    4.0910   -0.4510    9.0450 C   0  0  0  0  0  1  0  0  0  0  0  0
   -2.4980   -9.7820    6.6710 N   0  0  0  0  0  0  0  0  0  0  0  0
   -2.3950  -10.7570    6.3910 H   0  0  0  0  0  0  0  0  0  0  0  0
   -2.9900   -9.6640    8.2950 S   0  0  0  0  0  0  0  0  0  0  0  0
   -2.3080  -10.6860    9.0600 O   0  0  0  0  0  0  0  0  0  0  0  0
   -2.8990   -8.2630    8.6460 O   0  0  0  0  0  0  0  0  0  0  0  0
   -4.7190  -10.0890    8.2220 C   0  0  0  0  0  0  0  0  0  0  0  0
   -5.3180  -10.3640    6.9880 C   0  0  0  0  0  3  0  0  0  0  0  0
   -6.6810  -10.6600    6.9380 C   0  0  0  0  0  3  0  0  0  0  0  0
   -7.4330  -10.6870    8.1140 C   0  0  0  0  0  3  0  0  0  0  0  0
   -6.8240  -10.4330    9.3450 C   0  0  0  0  0  3  0  0  0  0  0  0
   -5.4610  -10.1410    9.4060 C   0  0  0  0  0  3  0  0  0  0  0  0
  1 12  1  0  0  0  0
  1 18  1  1  0  0  0
  2  1  1  0  0  0  0
  3  2  1  0  0  0  0
  3  5  2  0  0  0  0
  3  6  1  0  0  0  0
  4  3  2  0  0  0  0
  6  7  2  0  0  0  0
  6 11  1  0  0  0  0
  7  8  1  0  0  0  0
  8  9  2  0  0  0  0
  8 33  1  0  0  0  0
 10  9  1  0  0  0  0
 11 10  2  0  0  0  0
 12 11  1  0  0  0  0
 12 14  1  0  0  0  0
 13  2  1  0  0  0  0
 15 28  1  0  0  0  0
 16 15  1  0  0  0  0
 16 17  2  0  0  0  0
 18 16  1  0  0  0  0
 19 20  1  0  0  0  0
 19 18  2  0  0  0  0
 20 25  1  0  0  0  0
 21 22  1  0  0  0  0
 21 20  2  0  0  0  0
 22 23  2  0  0  0  0
 23 24  1  0  0  0  0
 25 24  2  0  0  0  0
 25 15  1  0  0  0  0
 26 19  1  0  0  0  0
 27 26  1  0  0  0  0
 28 29  1  0  0  0  0
 30 31  1  0  0  0  0
 31 32  1  0  0  0  0
 31 29  1  0  0  0  0
 33 35  1  0  0  0  0
 34 33  1  0  0  0  0
 35 37  2  0  0  0  0
 35 36  2  0  0  0  0
 38 35  1  0  0  0  0
 38 43  1  0  0  0  0
 39 38  2  0  0  0  0
 40 39  1  0  0  0  0
 40 41  2  0  0  0  0
 41 42  1  0  0  0  0
 42 43  2  0  0  0  0
M  END
>  <minimizedAffinity>
-4.63174677

$$$$

 OpenBabel09122218453D

 43 47  0  0  1  0  0  0  0  0999 V2000
    1.9320   -5.2390    5.0550 C   0  0  1  0  0  3  0  0  0  0  0  0
    1.3020   -4.1070    5.2610 N   0  0  0  0  0  0  0  0  0  0  0  0
    1.9730   -2.6510    5.2240 S   0  0  0  0  0  0  0  0  0  0  0  0
    1.9210   -2.1050    3.8840 O   0  0  0  0  0  0  0  0  0  0  0  0
    1.4650   -1.8730    6.3370 O   0  0  0  0  0  0  0  0  0  0  0  0
    3.6780   -2.9290    5.5620 C   0  0  0  0  0  0  0  0  0  0  0  0
    4.4450   -1.9150    6.1400 C   0  0  0  0  0  3  0  0  0  0  0  0
    5.7610   -2.1950    6.4890 C   0  0  0  0  0  0  0  0  0  0  0  0
    6.3080   -3.4480    6.2120 C   0  0  0  0  0  3  0  0  0  0  0  0
    5.5290   -4.4430    5.6110 C   0  0  0  0  0  3  0  0  0  0  0  0
    4.1880   -4.1990    5.3100 C   0  0  0  0  0  0  0  0  0  0  0  0
    3.3410   -5.2330    4.9140 N   0  0  0  0  0  0  0  0  0  0  0  0
    0.2990   -4.1360    5.4150 H   0  0  0  0  0  0  0  0  0  0  0  0
    3.7540   -6.1380    4.6850 H   0  0  0  0  0  0  0  0  0  0  0  0
    1.4290   -8.9750    4.7520 N   0  0  0  0  0  0  0  0  0  0  0  0
    2.0020   -7.7890    5.1500 C   0  0  0  0  0  0  0  0  0  0  0  0
    3.1890   -7.6710    5.4650 O   0  0  0  0  0  0  0  0  0  0  0  0
    1.1750   -6.5440    5.0660 C   0  0  0  0  0  0  0  0  0  0  0  0
   -0.1490   -6.6660    4.8620 C   0  0  0  0  0  0  0  0  0  0  0  0
   -0.7850   -7.9920    4.7850 C   0  0  0  0  0  0  0  0  0  0  0  0
   -2.1710   -8.1930    4.8150 C   0  0  0  0  0  3  0  0  0  0  0  0
   -2.6940   -9.4740    4.6460 C   0  0  0  0  0  3  0  0  0  0  0  0
   -1.8130  -10.5180    4.4530 C   0  0  0  0  0  3  0  0  0  0  0  0
   -0.4730  -10.3660    4.4490 N   0  0  0  0  0  0  0  0  0  0  0  0
    0.0270   -9.1230    4.6420 C   0  0  0  0  0  0  0  0  0  0  0  0
   -0.9420   -5.5480    4.6480 O   0  0  0  0  0  0  0  0  0  0  0  0
   -1.7680   -5.8160    4.2030 H   0  0  0  0  0  0  0  0  0  0  0  0
    2.2830  -10.1200    4.4240 C   0  0  0  0  0  2  0  0  0  0  0  0
    3.6020   -9.6990    3.7460 C   0  0  0  0  0  2  0  0  0  0  0  0
    2.2460  -10.1670    1.6320 C   0  0  0  0  0  1  0  0  0  0  0  0
    3.5800   -9.6870    2.2020 C   0  0  0  0  0  3  0  0  0  0  0  0
    3.8770   -8.2760    1.6840 C   0  0  0  0  0  1  0  0  0  0  0  0
    6.4860   -1.2510    7.2660 N   0  0  0  0  0  0  0  0  0  0  0  0
    6.5080   -0.2800    6.9560 H   0  0  0  0  0  0  0  0  0  0  0  0
    6.3470   -1.3460    8.9590 S   0  0  0  0  0  0  0  0  0  0  0  0
    7.4730   -2.0940    9.4740 O   0  0  0  0  0  0  0  0  0  0  0  0
    6.0490   -0.0060    9.4170 O   0  0  0  0  0  0  0  0  0  0  0  0
    4.8790   -2.3310    9.1860 C   0  0  0  0  0  0  0  0  0  0  0  0
    4.9810   -3.7240    9.2760 C   0  0  0  0  0  3  0  0  0  0  0  0
    3.8230   -4.4880    9.4170 C   0  0  0  0  0  3  0  0  0  0  0  0
    2.5760   -3.8620    9.4740 C   0  0  0  0  0  3  0  0  0  0  0  0
    2.4830   -2.4700    9.4050 C   0  0  0  0  0  3  0  0  0  0  0  0
    3.6360   -1.6970    9.2700 C   0  0  0  0  0  3  0  0  0  0  0  0
  1 18  1  1  0  0  0
  1  2  1  0  0  0  0
  2 13  1  0  0  0  0
  3  2  1  0  0  0  0
  3  6  1  0  0  0  0
  3  5  2  0  0  0  0
  4  3  2  0  0  0  0
  6  7  1  0  0  0  0
  7  8  2  0  0  0  0
  8 33  1  0  0  0  0
  9  8  1  0  0  0  0
 10  9  2  0  0  0  0
 11  6  2  0  0  0  0
 11 10  1  0  0  0  0
 12  1  1  0  0  0  0
 12 11  1  0  0  0  0
 14 12  1  0  0  0  0
 15 16  1  0  0  0  0
 16 17  2  0  0  0  0
 18 16  1  0  0  0  0
 19 18  2  0  0  0  0
 20 21  1  0  0  0  0
 20 19  1  0  0  0  0
 22 21  2  0  0  0  0
 23 22  1  0  0  0  0
 24 23  2  0  0  0  0
 24 25  1  0  0  0  0
 25 15  1  0  0  0  0
 25 20  2  0  0  0  0
 26 19  1  0  0  0  0
 27 26  1  0  0  0  0
 28 15  1  0  0  0  0
 29 28  1  0  0  0  0
 30 31  1  0  0  0  0
 31 29  1  0  0  0  0
 32 31  1  0  0  0  0
 33 35  1  0  0  0  0
 34 33  1  0  0  0  0
 35 38  1  0  0  0  0
 35 37  2  0  0  0  0
 35 36  2  0  0  0  0
 38 43  2  0  0  0  0
 38 39  1  0  0  0  0
 39 40  2  0  0  0  0
 40 41  1  0  0  0  0
 42 41  2  0  0  0  0
 43 42  1  0  0  0  0
M  END
>  <minimizedAffinity>
-4.16923714

$$$$
