REMARK  Name = 
REMARK  8 active torsions:
REMARK  status: ('A' for Active; 'I' for Inactive)
REMARK    1  A    between atoms: C_2  and  C_19
REMARK    2  A    between atoms: N_3  and  CA_4
REMARK    3  A    between atoms: CA_4  and  C_5
REMARK    4  A    between atoms: CA_4  and  C_16
REMARK    5  A    between atoms: C_5  and  C_6
REMARK    6  A    between atoms: C_12  and  O_13
REMARK    7  A    between atoms: C_26  and  C_27
REMARK    8  A    between atoms: N_32  and  C_33
REMARK                            x       y       z     vdW  Elec       q    Type
REMARK                         _______ _______ _______ _____ _____    ______ ____
ROOT
ATOM      1  O   UNL     1       3.267   5.250   0.129  0.00  0.00    -0.270 OA
ATOM      2  C   UNL     1       3.636   4.096  -0.072  0.00  0.00    +0.245 C 
ATOM      3  N   UNL     1       4.472   3.440   0.783  0.00  0.00    -0.303 N 
ATOM      4  H   UNL     1       4.817   3.970   1.581  0.00  0.00    +0.150 HD
ENDROOT
BRANCH   2   5
ATOM      5  C   UNL     1       3.162   3.407  -1.288  0.00  0.00    +0.039 A 
ATOM      6  C   UNL     1       4.078   2.933  -2.232  0.00  0.00    +0.015 A 
ATOM      7  C   UNL     1       3.644   2.299  -3.400  0.00  0.00    +0.029 A 
ATOM      8  C   UNL     1       2.261   2.185  -3.599  0.00  0.00    +0.069 A 
ATOM      9  C   UNL     1       1.340   2.670  -2.673  0.00  0.00    +0.090 A 
ATOM     10  C   UNL     1       1.783   3.305  -1.505  0.00  0.00    +0.043 A 
ATOM     11  N   UNL     1       0.061   2.417  -3.084  0.00  0.00    -0.227 NA
ATOM     12  C   UNL     1       0.158   1.720  -4.200  0.00  0.00    +0.145 A 
ATOM     13  N   UNL     1       1.478   1.666  -4.617  0.00  0.00    -0.320 N 
BRANCH  13  14
ATOM     14  C   UNL     1       1.960   1.218  -5.919  0.00  0.00    +0.089 C 
ATOM     15  C   UNL     1       2.789   2.273  -6.676  0.00  0.00    +0.025 C 
ATOM     16  C   UNL     1       3.205   1.762  -8.055  0.00  0.00    +0.002 C 
ATOM     17  C   UNL     1       3.939   0.427  -7.960  0.00  0.00    +0.000 C 
ATOM     18  C   UNL     1       3.110  -0.621  -7.221  0.00  0.00    +0.002 C 
ATOM     19  C   UNL     1       2.682  -0.134  -5.838  0.00  0.00    +0.025 C 
ENDBRANCH  13  14
BRANCH  12  20
ATOM     20  C   UNL     1      -1.060   1.113  -4.818  0.00  0.00    +0.055 A 
ATOM     21  C   UNL     1      -1.226   0.154  -5.846  0.00  0.00    +0.052 A 
ATOM     22  C   UNL     1      -2.583  -0.041  -5.978  0.00  0.00    +0.195 A 
ATOM     23  O   UNL     1      -3.264   0.723  -5.087  0.00  0.00    -0.470 OA
ATOM     24  C   UNL     1      -2.332   1.407  -4.374  0.00  0.00    +0.206 A 
ENDBRANCH  12  20
ENDBRANCH   2   5
BRANCH   3  25
ATOM     25  CA  UNL     1       4.926   2.026   0.822  0.00  0.00    +0.123 C 
BRANCH  25  26
ATOM     26  C   UNL     1       6.128   1.787   1.789  0.00  0.00    +0.062 C 
ATOM     27  O   UNL     1       6.699   0.663   1.681  0.00  0.00    -0.548 OA
ATOM     28  OXT UNL     1       6.424   2.771   2.534  0.00  0.00    -0.548 OA
ENDBRANCH  25  26
BRANCH  25  29
ATOM     29  C   UNL     1       3.810   1.022   1.157  0.00  0.00    +0.065 C 
BRANCH  29  30
ATOM     30  C   UNL     1       2.912   1.393   2.308  0.00  0.00    -0.020 A 
ATOM     31  C   UNL     1       3.314   1.749   3.580  0.00  0.00    +0.087 A 
ATOM     32  N   UNL     1       2.206   2.043   4.322  0.00  0.00    -0.360 N 
ATOM     33  C   UNL     1       1.067   1.842   3.579  0.00  0.00    +0.047 A 
ATOM     34  C   UNL     1      -0.279   2.002   3.931  0.00  0.00    +0.030 A 
ATOM     35  C   UNL     1      -1.243   1.723   2.957  0.00  0.00    +0.047 A 
ATOM     36  C   UNL     1      -0.859   1.300   1.690  0.00  0.00    +0.118 A 
ATOM     37  C   UNL     1       0.484   1.145   1.347  0.00  0.00    +0.055 A 
ATOM     38  C   UNL     1       1.477   1.426   2.309  0.00  0.00    +0.006 A 
ATOM     39  H   UNL     1       2.226   2.364   5.278  0.00  0.00    +0.165 HD
BRANCH  36  40
ATOM     40  O   UNL     1      -1.792   1.019   0.731  0.00  0.00    -0.507 OA
ATOM     41  H   UNL     1      -2.657   1.313   1.055  0.00  0.00    +0.292 HD
ENDBRANCH  36  40
ENDBRANCH  29  30
ENDBRANCH  25  29
ENDBRANCH   3  25
TORSDOF 8
