
 OpenBabel09122222393D

 41 46  0  0  1  0  0  0  0  0999 V2000
    9.2350   -4.6230   -0.4860 O   0  0  0  0  0  0  0  0  0  0  0  0
    9.2410   -3.7960    0.4230 C   0  0  0  0  0  0  0  0  0  0  0  0
   10.1630   -2.7940    0.4900 N   0  0  0  0  0  0  0  0  0  0  0  0
   10.8830   -2.7880   -0.2300 H   0  0  0  0  0  0  0  0  0  0  0  0
    8.2160   -3.9050    1.4800 C   0  0  0  0  0  0  0  0  0  0  0  0
    6.9440   -4.4030    1.1800 C   0  0  0  0  0  3  0  0  0  0  0  0
    5.9560   -4.4900    2.1650 C   0  0  0  0  0  3  0  0  0  0  0  0
    6.2810   -4.0350    3.4500 C   0  0  0  0  0  0  0  0  0  0  0  0
    7.5400   -3.5210    3.7550 C   0  0  0  0  0  0  0  0  0  0  0  0
    8.5250   -3.4360    2.7620 C   0  0  0  0  0  3  0  0  0  0  0  0
    7.6130   -3.1690    5.0740 N   0  0  0  0  0  0  0  0  0  0  0  0
    6.4640   -3.5200    5.6190 C   0  0  0  0  0  0  0  0  0  0  0  0
    5.5760   -3.9340    4.6390 N   0  0  0  0  0  0  0  0  0  0  0  0
    4.1430   -4.1520    4.8010 C   0  0  0  0  0  3  0  0  0  0  0  0
    3.7000   -4.3330    6.2660 C   0  0  0  0  0  2  0  0  0  0  0  0
    2.2020   -4.6220    6.3570 C   0  0  0  0  0  2  0  0  0  0  0  0
    1.3800   -3.5510    5.6450 C   0  0  0  0  0  2  0  0  0  0  0  0
    1.8120   -3.3830    4.1900 C   0  0  0  0  0  2  0  0  0  0  0  0
    3.3070   -3.0920    4.0720 C   0  0  0  0  0  2  0  0  0  0  0  0
    6.2790   -3.4490    7.1000 C   0  0  0  0  0  0  0  0  0  0  0  0
    6.1110   -4.4510    8.0860 C   0  0  0  0  0  3  0  0  0  0  0  0
    6.0130   -3.7950    9.2920 C   0  0  0  0  0  3  0  0  0  0  0  0
    6.1270   -2.4540    9.1170 O   0  0  0  0  0  0  0  0  0  0  0  0
    6.3060   -2.2530    7.7860 C   0  0  0  0  0  3  0  0  0  0  0  0
   10.2750   -1.6200    1.3930 C   0  0  1  0  0  3  0  0  0  0  0  0
    9.2410   -0.4940    1.0770 C   0  0  0  0  0  0  0  0  0  0  0  0
    9.6230    0.3790    0.2440 O   0  0  0  0  0  0  0  0  0  0  0  0
    8.1180   -0.6160    1.6550 O   0  0  0  0  0  1  0  0  0  0  0  0
   10.1870   -1.9720    2.8870 C   0  0  0  0  0  2  0  0  0  0  0  0
   10.3080   -0.8170    3.8460 C   0  0  0  0  0  0  0  0  0  0  0  0
   10.3940    0.5200    3.5120 C   0  0  0  0  0  3  0  0  0  0  0  0
   10.4570    1.2540    4.6620 N   0  0  0  0  0  0  0  0  0  0  0  0
   10.4630    0.4240    5.7580 C   0  0  0  0  0  0  0  0  0  0  0  0
   10.5310    0.7330    7.1220 C   0  0  0  0  0  3  0  0  0  0  0  0
   10.5160   -0.3300    8.0310 C   0  0  0  0  0  3  0  0  0  0  0  0
   10.4400   -1.6410    7.5760 C   0  0  0  0  0  0  0  0  0  0  0  0
   10.3710   -1.9400    6.2160 C   0  0  0  0  0  3  0  0  0  0  0  0
   10.3770   -0.8860    5.2780 C   0  0  0  0  0  0  0  0  0  0  0  0
   10.4920    2.2610    4.6970 H   0  0  0  0  0  0  0  0  0  0  0  0
   10.4300   -2.6890    8.4540 O   0  0  0  0  0  0  0  0  0  0  0  0
   10.3300   -2.3320    9.3500 H   0  0  0  0  0  0  0  0  0  0  0  0
  1  2  2  0  0  0  0
  2  3  1  0  0  0  0
  2  5  1  0  0  0  0
  3 25  1  0  0  0  0
  4  3  1  0  0  0  0
  5 10  1  0  0  0  0
  6  5  2  0  0  0  0
  6  7  1  0  0  0  0
  7  8  2  0  0  0  0
  8  9  1  0  0  0  0
  8 13  1  0  0  0  0
  9 11  1  0  0  0  0
 10  9  2  0  0  0  0
 11 12  2  0  0  0  0
 12 20  1  0  0  0  0
 13 14  1  0  0  0  0
 13 12  1  0  0  0  0
 14 15  1  0  0  0  0
 15 16  1  0  0  0  0
 17 16  1  0  0  0  0
 18 17  1  0  0  0  0
 19 18  1  0  0  0  0
 19 14  1  0  0  0  0
 20 24  2  0  0  0  0
 20 21  1  0  0  0  0
 21 22  2  0  0  0  0
 23 22  1  0  0  0  0
 24 23  1  0  0  0  0
 25 29  1  1  0  0  0
 26 25  1  0  0  0  0
 26 28  1  0  0  0  0
 27 26  2  0  0  0  0
 29 30  1  0  0  0  0
 30 38  1  0  0  0  0
 31 30  2  0  0  0  0
 31 32  1  0  0  0  0
 32 39  1  0  0  0  0
 32 33  1  0  0  0  0
 33 34  1  0  0  0  0
 34 35  2  0  0  0  0
 36 35  1  0  0  0  0
 36 40  1  0  0  0  0
 37 36  2  0  0  0  0
 38 33  2  0  0  0  0
 38 37  1  0  0  0  0
 40 41  1  0  0  0  0
M  END
>  <minimizedAffinity>
-4.79052067

$$$$
