
 OpenBabel09122222393D

 41 46  0  0  1  0  0  0  0  0999 V2000
    1.5690   -1.4600    9.2940 O   0  0  0  0  0  0  0  0  0  0  0  0
    2.1900   -1.7060    8.2630 C   0  0  0  0  0  0  0  0  0  0  0  0
    1.5900   -2.2420    7.1620 N   0  0  0  0  0  0  0  0  0  0  0  0
    0.6020   -2.4730    7.2470 H   0  0  0  0  0  0  0  0  0  0  0  0
    3.6370   -1.4190    8.2280 C   0  0  0  0  0  0  0  0  0  0  0  0
    4.5330   -2.3730    7.7360 C   0  0  0  0  0  3  0  0  0  0  0  0
    5.9090   -2.1250    7.7180 C   0  0  0  0  0  3  0  0  0  0  0  0
    6.3530   -0.9010    8.2380 C   0  0  0  0  0  0  0  0  0  0  0  0
    5.4700    0.0490    8.7470 C   0  0  0  0  0  0  0  0  0  0  0  0
    4.0920   -0.2080    8.7620 C   0  0  0  0  0  3  0  0  0  0  0  0
    6.1440    1.1610    9.1680 N   0  0  0  0  0  0  0  0  0  0  0  0
    7.4130    0.9650    8.8660 C   0  0  0  0  0  0  0  0  0  0  0  0
    7.6030   -0.3310    8.4140 N   0  0  0  0  0  0  0  0  0  0  0  0
    8.8820   -1.0070    8.2280 C   0  0  0  0  0  3  0  0  0  0  0  0
    9.0910   -2.2170    9.1580 C   0  0  0  0  0  2  0  0  0  0  0  0
   10.4740   -2.8360    8.9550 C   0  0  0  0  0  2  0  0  0  0  0  0
   10.7170   -3.1980    7.4920 C   0  0  0  0  0  2  0  0  0  0  0  0
   10.5230   -1.9940    6.5740 C   0  0  0  0  0  2  0  0  0  0  0  0
    9.1470   -1.3570    6.7570 C   0  0  0  0  0  2  0  0  0  0  0  0
    8.4040    2.0730    9.0200 C   0  0  0  0  0  0  0  0  0  0  0  0
    9.7930    2.0740    9.2960 C   0  0  0  0  0  3  0  0  0  0  0  0
   10.1870    3.3940    9.2970 C   0  0  0  0  0  3  0  0  0  0  0  0
    9.1350    4.2060    9.0230 O   0  0  0  0  0  0  0  0  0  0  0  0
    8.0600    3.3960    8.8380 C   0  0  0  0  0  3  0  0  0  0  0  0
    2.0960   -2.4830    5.7860 C   0  0  1  0  0  3  0  0  0  0  0  0
    1.8200   -1.3000    4.8070 C   0  0  0  0  0  0  0  0  0  0  0  0
    1.8650   -1.5890    3.5760 O   0  0  0  0  0  0  0  0  0  0  0  0
    1.5290   -0.1960    5.3630 O   0  0  0  0  0  1  0  0  0  0  0  0
    3.5910   -2.8400    5.7260 C   0  0  0  0  0  2  0  0  0  0  0  0
    4.0570   -3.5180    4.4640 C   0  0  0  0  0  0  0  0  0  0  0  0
    3.2620   -4.1580    3.5350 C   0  0  0  0  0  3  0  0  0  0  0  0
    4.0550   -4.6130    2.5200 N   0  0  0  0  0  0  0  0  0  0  0  0
    5.3740   -4.3290    2.7820 C   0  0  0  0  0  0  0  0  0  0  0  0
    6.5230   -4.6160    2.0350 C   0  0  0  0  0  3  0  0  0  0  0  0
    7.7550   -4.1990    2.5510 C   0  0  0  0  0  3  0  0  0  0  0  0
    7.8160   -3.5270    3.7660 C   0  0  0  0  0  0  0  0  0  0  0  0
    6.6660   -3.2430    4.5020 C   0  0  0  0  0  3  0  0  0  0  0  0
    5.4100   -3.6460    4.0020 C   0  0  0  0  0  0  0  0  0  0  0  0
    3.7150   -5.0860    1.6970 H   0  0  0  0  0  0  0  0  0  0  0  0
    9.0140   -3.1190    4.2830 O   0  0  0  0  0  0  0  0  0  0  0  0
    9.6950   -3.2450    3.6050 H   0  0  0  0  0  0  0  0  0  0  0  0
  2  1  2  0  0  0  0
  3  4  1  0  0  0  0
  3  2  1  0  0  0  0
  5  2  1  0  0  0  0
  5 10  1  0  0  0  0
  6  5  2  0  0  0  0
  7  6  1  0  0  0  0
  7  8  2  0  0  0  0
  8 13  1  0  0  0  0
  8  9  1  0  0  0  0
  9 10  2  0  0  0  0
  9 11  1  0  0  0  0
 12 20  1  0  0  0  0
 12 11  2  0  0  0  0
 13 12  1  0  0  0  0
 14 13  1  0  0  0  0
 14 15  1  0  0  0  0
 16 15  1  0  0  0  0
 17 16  1  0  0  0  0
 18 19  1  0  0  0  0
 18 17  1  0  0  0  0
 19 14  1  0  0  0  0
 20 21  1  0  0  0  0
 21 22  2  0  0  0  0
 23 22  1  0  0  0  0
 24 20  2  0  0  0  0
 24 23  1  0  0  0  0
 25 29  1  1  0  0  0
 25  3  1  0  0  0  0
 26 28  1  0  0  0  0
 26 25  1  0  0  0  0
 27 26  2  0  0  0  0
 30 29  1  0  0  0  0
 31 30  2  0  0  0  0
 32 33  1  0  0  0  0
 32 31  1  0  0  0  0
 33 38  1  0  0  0  0
 34 35  1  0  0  0  0
 34 33  2  0  0  0  0
 35 36  2  0  0  0  0
 36 40  1  0  0  0  0
 36 37  1  0  0  0  0
 38 30  1  0  0  0  0
 38 37  2  0  0  0  0
 39 32  1  0  0  0  0
 41 40  1  0  0  0  0
M  END
>  <minimizedAffinity>
-5.0159502

$$$$
