REMARK  Name = 
REMARK  4 active torsions:
REMARK  status: ('A' for Active; 'I' for Inactive)
REMARK    1  A    between atoms: C_3  and  C_4
REMARK    2  A    between atoms: C_17  and  O_18
REMARK    3  A    between atoms: N_25  and  C_26
REMARK    4  A    between atoms: C_26  and  C_27
REMARK                            x       y       z     vdW  Elec       q    Type
REMARK                         _______ _______ _______ _____ _____    ______ ____
ROOT
ATOM      1  O   UNL     1       1.482  -0.588  -1.744  0.00  0.00    -0.267 OA
ATOM      2  C   UNL     1       2.608  -0.545  -1.264  0.00  0.00    +0.272 A 
ATOM      3  C   UNL     1       3.119  -1.718  -0.462  0.00  0.00    +0.170 A 
ATOM      4  C   UNL     1       4.464  -1.842  -0.533  0.00  0.00    +0.148 A 
ATOM      5  C   UNL     1       5.248  -0.768  -1.198  0.00  0.00    +0.060 A 
ATOM      6  C   UNL     1       6.573  -0.904  -1.597  0.00  0.00    +0.016 A 
ATOM      7  C   UNL     1       7.258   0.221  -2.051  0.00  0.00    +0.021 A 
ATOM      8  C   UNL     1       6.602   1.447  -2.059  0.00  0.00    +0.113 A 
ATOM      9  N   UNL     1       5.322   1.627  -1.658  0.00  0.00    -0.237 NA
ATOM     10  C   UNL     1       4.668   0.522  -1.255  0.00  0.00    +0.147 A 
ATOM     11  N   UNL     1       3.308   0.585  -0.831  0.00  0.00    -0.288 N 
ENDROOT
BRANCH   3  12
ATOM     12  C   UNL     1       2.334  -1.565   0.837  0.00  0.00    +0.308 C 
ATOM     13  N   UNL     1       1.012  -1.568   0.684  0.00  0.00    -0.131 N 
ATOM     14  S   UNL     1       0.049  -0.340   1.171  0.00  0.00    +0.141 S 
ATOM     15  O   UNL     1      -1.036  -0.186   0.225  0.00  0.00    -0.129 OA
ATOM     16  O   UNL     1      -0.229  -0.416   2.588  0.00  0.00    -0.129 OA
ATOM     17  C   UNL     1       1.106   1.053   0.915  0.00  0.00    +0.176 A 
ATOM     18  C   UNL     1       0.671   2.682   0.179  0.00  0.00    +0.035 A 
ATOM     19  C   UNL     1       1.984   3.928  -0.019  0.00  0.00    +0.003 A 
ATOM     20  C   UNL     1       3.717   3.523   0.426  0.00  0.00    +0.019 A 
ATOM     21  C   UNL     1       4.100   1.892   1.184  0.00  0.00    +0.064 A 
ATOM     22 BR   UNL     1       5.867   1.480   1.768  0.00  0.00    -0.046 Br
ATOM     23  C   UNL     1       2.772   0.702   1.492  0.00  0.00    +0.162 A 
ATOM     24  N   UNL     1       2.991  -0.687   1.770  0.00  0.00    -0.199 N 
ATOM     25  H   UNL     1       0.629  -2.027  -0.131  0.00  0.00    +0.339 HD
ATOM     26  H   UNL     1       3.972  -0.876   1.985  0.00  0.00    +0.298 HD
ENDBRANCH   3  12
BRANCH   4  27
ATOM     27  O   UNL     1       5.198  -2.668   0.291  0.00  0.00    -0.505 OA
ATOM     28  H   UNL     1       4.659  -3.434   0.559  0.00  0.00    +0.292 HD
ENDBRANCH   4  27
BRANCH  11  29
ATOM     29  C   UNL     1       2.586   1.951  -0.244  0.00  0.00    +0.162 C 
BRANCH  29  30
ATOM     30  C   UNL     1       2.191   2.726   1.731  0.00  0.00    -0.028 A 
ATOM     31  C   UNL     1       0.880   2.759   2.561  0.00  0.00    +0.005 A 
ATOM     32  C   UNL     1       0.636   3.241   3.880  0.00  0.00    +0.000 A 
ATOM     33  C   UNL     1       1.634   3.815   4.625  0.00  0.00    +0.000 A 
ATOM     34  C   UNL     1       2.872   3.933   4.048  0.00  0.00    +0.000 A 
ATOM     35  C   UNL     1       3.125   3.451   2.731  0.00  0.00    +0.005 A 
ENDBRANCH  29  30
ENDBRANCH  11  29
TORSDOF 4
