CHEMBL4646449
Actelion Java MolfileCreator 2.0

  0  0  0  0  0  0              0 V3000
M  V30 BEGIN CTAB
M  V30 COUNTS 35 39 0 0 0
M  V30 BEGIN ATOM
M  V30 1 S 3.8971 0.0 0.0 0
M  V30 2 O 4.6471 1.299 0.0 0
M  V30 3 O 3.1471 1.299 0.0 0
M  V30 4 N 2.598 -0.75 0.0 0
M  V30 5 C 5.1961 -0.75 0.0 0
M  V30 6 C 1.299 0.0 0.0 0
M  V30 7 C 5.9461 -2.049 0.0 0
M  V30 8 C 6.6961 -0.75 0.0 0
M  V30 9 O 1.299 1.5 0.0 0
M  V30 10 C 0.0 -0.75 0.0 0
M  V30 11 N -1.3703 -0.1398 0.0 0
M  V30 12 C -0.1567 -2.2417 0.0 0
M  V30 13 C -2.374 -1.2546 0.0 0
M  V30 14 C -1.6821 1.3273 0.0 0
M  V30 15 C 0.9579 -3.2454 0.0 0
M  V30 16 C -1.624 -2.5536 0.0 0
M  V30 17 C -3.874 -1.2546 0.0 0
M  V30 18 C -3.1087 1.7908 0.0 0
M  V30 19 C 0.646 -4.7127 0.0 0
M  V30 20 C 2.3845 -2.7819 0.0 0
M  V30 21 C -2.374 -3.8526 0.0 0
M  V30 22 C -4.624 -2.5536 0.0 0
M  V30 23 C -3.4206 3.258 0.0 0
M  V30 24 C -4.2234 0.7871 0.0 0
M  V30 25 O -0.7805 -5.1762 0.0 0
M  V30 26 N 1.7607 -5.7164 0.0 0
M  V30 27 C 3.4992 -3.7856 0.0 0
M  V30 28 C -3.874 -3.8526 0.0 0
M  V30 29 C -6.124 -2.5536 0.0 0
M  V30 30 F -2.3059 4.2617 0.0 0
M  V30 31 C -4.8472 3.7216 0.0 0
M  V30 32 C -5.65 1.2506 0.0 0
M  V30 33 C 3.1873 -5.2528 0.0 0
M  V30 34 C -5.9619 2.7179 0.0 0
M  V30 35 F -6.7647 0.2469 0.0 0
M  V30 END ATOM
M  V30 BEGIN BOND
M  V30 1 2 1 2
M  V30 2 2 1 3
M  V30 3 1 1 4
M  V30 4 1 1 5
M  V30 5 1 4 6
M  V30 6 1 5 7
M  V30 7 1 5 8
M  V30 8 2 6 9
M  V30 9 1 6 10
M  V30 10 1 10 11
M  V30 11 2 10 12
M  V30 12 1 11 13
M  V30 13 1 11 14
M  V30 14 1 12 15
M  V30 15 1 12 16
M  V30 16 1 13 17
M  V30 17 1 14 18
M  V30 18 1 15 19
M  V30 19 2 15 20
M  V30 20 1 16 21
M  V30 21 2 17 22
M  V30 22 2 18 23
M  V30 23 1 18 24
M  V30 24 2 19 25
M  V30 25 1 19 26
M  V30 26 1 20 27
M  V30 27 2 21 28
M  V30 28 1 22 29
M  V30 29 1 23 30
M  V30 30 1 23 31
M  V30 31 2 24 32
M  V30 32 1 26 33
M  V30 33 2 31 34
M  V30 34 1 32 35
M  V30 35 1 7 8
M  V30 36 2 13 16
M  V30 37 1 22 28
M  V30 38 2 27 33
M  V30 39 1 32 34
M  V30 END BOND
M  V30 END CTAB
M  END
>  <Molecule ChEMBL ID>
CHEMBL4646449

>  <Smiles>
Cc1ccc2c(-c3ccc[nH]c3=O)c(C(=O)NS(=O)(=O)C3CC3)n(Cc3cc(F)ccc3F)c2c1

>  <Standard Value>
5

$$$$
CHEMBL4633142
Actelion Java MolfileCreator 2.0

  0  0  0  0  0  0              0 V3000
M  V30 BEGIN CTAB
M  V30 COUNTS 36 40 0 0 0
M  V30 BEGIN ATOM
M  V30 1 S 3.8971 0.0 0.0 0
M  V30 2 O 4.6471 -1.299 0.0 0
M  V30 3 O 3.1471 1.299 0.0 0
M  V30 4 N 2.598 -0.75 0.0 0
M  V30 5 C 5.1961 0.75 0.0 0
M  V30 6 C 1.299 0.0 0.0 0
M  V30 7 O 1.299 1.5 0.0 0
M  V30 8 C 0.0 -0.75 0.0 0
M  V30 9 N -1.3703 -0.1398 0.0 0
M  V30 10 C -0.1567 -2.2417 0.0 0
M  V30 11 C -2.374 -1.2546 0.0 0
M  V30 12 C -1.6821 1.3273 0.0 0
M  V30 13 C 0.9579 -3.2454 0.0 0
M  V30 14 C -1.624 -2.5536 0.0 0
M  V30 15 C -3.874 -1.2546 0.0 0
M  V30 16 C -3.1087 1.7908 0.0 0
M  V30 17 C 0.646 -4.7127 0.0 0
M  V30 18 C 2.3845 -2.7819 0.0 0
M  V30 19 C -2.374 -3.8526 0.0 0
M  V30 20 C -4.624 -2.5536 0.0 0
M  V30 21 C -3.4206 3.258 0.0 0
M  V30 22 C -4.2234 0.7871 0.0 0
M  V30 23 O -0.7805 -5.1762 0.0 0
M  V30 24 N 1.7607 -5.7163 0.0 0
M  V30 25 C 3.4992 -3.7856 0.0 0
M  V30 26 C -3.874 -3.8526 0.0 0
M  V30 27 C -6.0912 -2.8655 0.0 0 CFG=2
M  V30 28 F -2.3059 4.2617 0.0 0
M  V30 29 C -4.8472 3.7215 0.0 0
M  V30 30 C -5.65 1.2506 0.0 0
M  V30 31 C 3.1873 -5.2528 0.0 0
M  V30 32 O -4.8777 -4.9674 0.0 0
M  V30 33 C -6.248 -4.3573 0.0 0
M  V30 34 C -7.2059 -1.8618 0.0 0
M  V30 35 C -5.9619 2.7179 0.0 0
M  V30 36 F -6.7647 0.2469 0.0 0
M  V30 END ATOM
M  V30 BEGIN BOND
M  V30 1 2 1 2
M  V30 2 2 1 3
M  V30 3 1 1 4
M  V30 4 1 1 5
M  V30 5 1 4 6
M  V30 6 2 6 7
M  V30 7 1 6 8
M  V30 8 1 8 9
M  V30 9 2 8 10
M  V30 10 1 9 11
M  V30 11 1 9 12
M  V30 12 1 10 13
M  V30 13 1 10 14
M  V30 14 1 11 15
M  V30 15 1 12 16
M  V30 16 1 13 17
M  V30 17 2 13 18
M  V30 18 1 14 19
M  V30 19 2 15 20
M  V30 20 2 16 21
M  V30 21 1 16 22
M  V30 22 2 17 23
M  V30 23 1 17 24
M  V30 24 1 18 25
M  V30 25 2 19 26
M  V30 26 1 27 20
M  V30 27 1 21 28
M  V30 28 1 21 29
M  V30 29 2 22 30
M  V30 30 1 24 31
M  V30 31 1 26 32
M  V30 32 1 27 33
M  V30 33 1 27 34 CFG=3
M  V30 34 2 29 35
M  V30 35 1 30 36
M  V30 36 2 11 14
M  V30 37 1 20 26
M  V30 38 2 25 31
M  V30 39 1 30 35
M  V30 40 1 32 33
M  V30 END BOND
M  V30 BEGIN COLLECTION
M  V30 MDLV30/STERAC1 ATOMS=(1 27)
M  V30 END COLLECTION
M  V30 END CTAB
M  END
>  <Molecule ChEMBL ID>
CHEMBL4633142

>  <Smiles>
CC1COc2cc3c(-c4ccc[nH]c4=O)c(C(=O)NS(C)(=O)=O)n(Cc4cc(F)ccc4F)c3cc21

>  <Standard Value>
6

$$$$
CHEMBL2011266
Actelion Java MolfileCreator 2.0

  0  0  0  0  0  0              0 V3000
M  V30 BEGIN CTAB
M  V30 COUNTS 36 40 0 0 0
M  V30 BEGIN ATOM
M  V30 1 S 3.8971 0.0 0.0 0
M  V30 2 O 4.6471 1.299 0.0 0
M  V30 3 O 3.1471 1.299 0.0 0
M  V30 4 N 2.598 -0.75 0.0 0
M  V30 5 C 5.1961 -0.75 0.0 0
M  V30 6 C 1.299 0.0 0.0 0
M  V30 7 C 5.9461 -2.049 0.0 0
M  V30 8 C 6.6961 -0.75 0.0 0
M  V30 9 O 1.299 1.5 0.0 0
M  V30 10 C 0.0 -0.75 0.0 0
M  V30 11 N -1.3703 -0.1398 0.0 0
M  V30 12 C -0.1567 -2.2417 0.0 0
M  V30 13 C -2.374 -1.2546 0.0 0
M  V30 14 C -1.6821 1.3273 0.0 0
M  V30 15 C 0.9579 -3.2454 0.0 0
M  V30 16 C -1.624 -2.5536 0.0 0
M  V30 17 C -3.874 -1.2546 0.0 0
M  V30 18 C -3.1087 1.7908 0.0 0
M  V30 19 C 0.646 -4.7127 0.0 0
M  V30 20 C 2.3845 -2.7819 0.0 0
M  V30 21 C -2.374 -3.8526 0.0 0
M  V30 22 C -4.624 -2.5536 0.0 0
M  V30 23 C -3.4206 3.258 0.0 0
M  V30 24 C -4.2234 0.7871 0.0 0
M  V30 25 O -0.7805 -5.1762 0.0 0
M  V30 26 N 1.7607 -5.7164 0.0 0
M  V30 27 C 3.4992 -3.7856 0.0 0
M  V30 28 C -3.874 -3.8526 0.0 0
M  V30 29 F -6.124 -2.5536 0.0 0
M  V30 30 F -2.3059 4.2617 0.0 0
M  V30 31 C -4.8472 3.7216 0.0 0
M  V30 32 C -5.65 1.2506 0.0 0
M  V30 33 C 3.1873 -5.2528 0.0 0
M  V30 34 C -4.624 -5.1517 0.0 0
M  V30 35 C -5.9619 2.7179 0.0 0
M  V30 36 F -6.7647 0.2469 0.0 0
M  V30 END ATOM
M  V30 BEGIN BOND
M  V30 1 2 1 2
M  V30 2 2 1 3
M  V30 3 1 1 4
M  V30 4 1 1 5
M  V30 5 1 4 6
M  V30 6 1 5 7
M  V30 7 1 5 8
M  V30 8 2 6 9
M  V30 9 1 6 10
M  V30 10 1 10 11
M  V30 11 2 10 12
M  V30 12 1 11 13
M  V30 13 1 11 14
M  V30 14 1 12 15
M  V30 15 1 12 16
M  V30 16 1 13 17
M  V30 17 1 14 18
M  V30 18 1 15 19
M  V30 19 2 15 20
M  V30 20 1 16 21
M  V30 21 2 17 22
M  V30 22 2 18 23
M  V30 23 1 18 24
M  V30 24 2 19 25
M  V30 25 1 19 26
M  V30 26 1 20 27
M  V30 27 2 21 28
M  V30 28 1 22 29
M  V30 29 1 23 30
M  V30 30 1 23 31
M  V30 31 2 24 32
M  V30 32 1 26 33
M  V30 33 1 28 34
M  V30 34 2 31 35
M  V30 35 1 32 36
M  V30 36 1 7 8
M  V30 37 2 13 16
M  V30 38 1 22 28
M  V30 39 2 27 33
M  V30 40 1 32 35
M  V30 END BOND
M  V30 END CTAB
M  END
>  <Molecule ChEMBL ID>
CHEMBL2011266

>  <Smiles>
Cc1cc2c(-c3ccc[nH]c3=O)c(C(=O)NS(=O)(=O)C3CC3)n(Cc3cc(F)ccc3F)c2cc1F

>  <Standard Value>
8

$$$$
CHEMBL353549
Actelion Java MolfileCreator 2.0

  0  0  0  0  0  0              0 V3000
M  V30 BEGIN CTAB
M  V30 COUNTS 37 42 0 0 0
M  V30 BEGIN ATOM
M  V30 1 O 2.598 0.0 0.0 0
M  V30 2 C 3.4641 -0.5 0.0 0
M  V30 3 N 4.3301 0.0 0.0 0
M  V30 4 C 3.4641 -1.5 0.0 0
M  V30 5 C 5.1961 -0.4999 0.0 0 CFG=2
M  V30 6 C 2.598 -2.0 0.0 0
M  V30 7 C 4.3301 -1.9999 0.0 0
M  V30 8 C 6.0621 0.0 0.0 0
M  V30 9 C 5.1961 -1.4999 0.0 0
M  V30 10 C 2.598 -3.0 0.0 0
M  V30 11 C 4.3301 -2.9999 0.0 0
M  V30 12 O 6.9282 -0.4999 0.0 0
M  V30 13 O 6.0621 1.0 0.0 0
M  V30 14 C 6.0621 -1.9999 0.0 0
M  V30 15 N 1.8549 -3.6691 0.0 0
M  V30 16 C 3.4641 -3.5 0.0 0
M  V30 17 C 6.1667 -2.9945 0.0 0
M  V30 18 C 6.9757 -1.5932 0.0 0
M  V30 19 C 2.2616 -4.5826 0.0 0
M  V30 20 N 3.2561 -4.4781 0.0 0
M  V30 21 C 7.1448 -3.2024 0.0 0
M  V30 22 C 5.4975 -3.7376 0.0 0
M  V30 23 N 7.6448 -2.3364 0.0 0
M  V30 24 C 1.7616 -5.4487 0.0 0
M  V30 25 C 3.9253 -5.2212 0.0 0
M  V30 26 C 7.4538 -4.1534 0.0 0
M  V30 27 C 5.8065 -4.6887 0.0 0
M  V30 28 C 0.7671 -5.5532 0.0 0
M  V30 29 C 2.1684 -6.3622 0.0 0
M  V30 30 C 3.6163 -6.1723 0.0 0
M  V30 31 C 4.9034 -5.0133 0.0 0
M  V30 32 C 6.7847 -4.8966 0.0 0
M  V30 33 O 0.5592 -6.5313 0.0 0
M  V30 34 C 1.4252 -7.0313 0.0 0
M  V30 35 C 4.2854 -6.9154 0.0 0
M  V30 36 C 5.5725 -5.7565 0.0 0
M  V30 37 C 5.2635 -6.7075 0.0 0
M  V30 END ATOM
M  V30 BEGIN BOND
M  V30 1 2 1 2
M  V30 2 1 2 3
M  V30 3 1 2 4
M  V30 4 1 5 3 CFG=3
M  V30 5 2 4 6
M  V30 6 1 4 7
M  V30 7 1 5 8
M  V30 8 1 5 9
M  V30 9 1 6 10
M  V30 10 2 7 11
M  V30 11 2 8 12
M  V30 12 1 8 13
M  V30 13 1 9 14
M  V30 14 1 10 15
M  V30 15 2 10 16
M  V30 16 1 14 17
M  V30 17 2 14 18
M  V30 18 2 15 19
M  V30 19 1 16 20
M  V30 20 2 17 21
M  V30 21 1 17 22
M  V30 22 1 18 23
M  V30 23 1 19 24
M  V30 24 1 20 25
M  V30 25 1 21 26
M  V30 26 2 22 27
M  V30 27 2 24 28
M  V30 28 1 24 29
M  V30 29 1 25 30
M  V30 30 1 25 31
M  V30 31 2 26 32
M  V30 32 1 28 33
M  V30 33 2 29 34
M  V30 34 1 30 35
M  V30 35 1 31 36
M  V30 36 1 35 37
M  V30 37 1 11 16
M  V30 38 1 19 20
M  V30 39 1 21 23
M  V30 40 1 27 32
M  V30 41 1 33 34
M  V30 42 1 36 37
M  V30 END BOND
M  V30 BEGIN COLLECTION
M  V30 MDLV30/STEABS ATOMS=(1 5)
M  V30 END COLLECTION
M  V30 END CTAB
M  END
>  <Molecule ChEMBL ID>
CHEMBL353549

>  <Smiles>
O=C(N[C@@H](Cc1c[nH]c2ccccc12)C(=O)O)c1ccc2c(c1)nc(-c1ccoc1)n2C1CCCCC1

>  <Standard Value>
19

$$$$
CHEMBL4641917
Actelion Java MolfileCreator 2.0

  0  0  0  0  0  0              0 V3000
M  V30 BEGIN CTAB
M  V30 COUNTS 42 46 0 0 0
M  V30 BEGIN ATOM
M  V30 1 Cl 11.3201 -2.5536 0.0 0
M  V30 2 C 9.8201 -2.5536 0.0 0
M  V30 3 C 9.0701 -1.2546 0.0 0
M  V30 4 C 9.0701 -3.8526 0.0 0
M  V30 5 C 7.5701 -1.2546 0.0 0
M  V30 6 C 7.5701 -3.8526 0.0 0
M  V30 7 N 6.5664 -0.1398 0.0 0
M  V30 8 C 6.8201 -2.5536 0.0 0
M  V30 9 C 5.1961 -0.75 0.0 0
M  V30 10 C 6.8783 1.3273 0.0 0
M  V30 11 C 5.3529 -2.2417 0.0 0
M  V30 12 C 3.8971 0.0 0.0 0
M  V30 13 C 8.3049 1.7908 0.0 0
M  V30 14 C 4.2382 -3.2454 0.0 0
M  V30 15 O 3.8971 1.5 0.0 0
M  V30 16 N 2.598 -0.75 0.0 0
M  V30 17 C 9.4196 0.7871 0.0 0
M  V30 18 C 8.6167 3.258 0.0 0
M  V30 19 C 4.55 -4.7127 0.0 0
M  V30 20 C 2.8116 -2.7819 0.0 0
M  V30 21 S 1.299 0.0 0.0 0
M  V30 22 C 10.8462 1.2506 0.0 0
M  V30 23 C 10.0433 3.7216 0.0 0
M  V30 24 O 5.9766 -5.1762 0.0 0
M  V30 25 N 3.4353 -5.7164 0.0 0
M  V30 26 C 1.6969 -3.7856 0.0 0
M  V30 27 O 2.049 1.299 0.0 0
M  V30 28 O 0.549 1.299 0.0 0
M  V30 29 C 0.0 -0.75 0.0 0
M  V30 30 N 11.1581 2.7179 0.0 0
M  V30 31 N 11.9609 0.2469 0.0 0
M  V30 32 C 2.0087 -5.2528 0.0 0
M  V30 33 C -1.299 0.0 0.0 0
M  V30 34 C 0.0 -2.25 0.0 0
M  V30 35 C -2.598 -0.75 0.0 0
M  V30 36 C -1.299 -3.0 0.0 0
M  V30 37 N -3.8971 0.0 0.0 0
M  V30 38 C -2.598 -2.25 0.0 0
M  V30 39 S -5.1961 -0.75 0.0 0
M  V30 40 O -5.9461 0.549 0.0 0
M  V30 41 O -4.4461 -2.049 0.0 0
M  V30 42 C -6.4951 -1.5 0.0 0
M  V30 END ATOM
M  V30 BEGIN BOND
M  V30 1 1 1 2
M  V30 2 2 2 3
M  V30 3 1 2 4
M  V30 4 1 3 5
M  V30 5 2 4 6
M  V30 6 1 5 7
M  V30 7 2 5 8
M  V30 8 1 7 9
M  V30 9 1 7 10
M  V30 10 1 8 11
M  V30 11 1 9 12
M  V30 12 1 10 13
M  V30 13 1 11 14
M  V30 14 2 12 15
M  V30 15 1 12 16
M  V30 16 2 13 17
M  V30 17 1 13 18
M  V30 18 1 14 19
M  V30 19 2 14 20
M  V30 20 1 16 21
M  V30 21 1 17 22
M  V30 22 2 18 23
M  V30 23 2 19 24
M  V30 24 1 19 25
M  V30 25 1 20 26
M  V30 26 2 21 27
M  V30 27 2 21 28
M  V30 28 1 21 29
M  V30 29 2 22 30
M  V30 30 1 22 31
M  V30 31 1 25 32
M  V30 32 2 29 33
M  V30 33 1 29 34
M  V30 34 1 33 35
M  V30 35 2 34 36
M  V30 36 1 35 37
M  V30 37 2 35 38
M  V30 38 1 37 39
M  V30 39 2 39 40
M  V30 40 2 39 41
M  V30 41 1 39 42
M  V30 42 1 6 8
M  V30 43 2 9 11
M  V30 44 1 23 30
M  V30 45 2 26 32
M  V30 46 1 36 38
M  V30 END BOND
M  V30 END CTAB
M  END
>  <Molecule ChEMBL ID>
CHEMBL4641917

>  <Smiles>
CS(=O)(=O)Nc1cccc(S(=O)(=O)NC(=O)c2c(-c3ccc[nH]c3=O)c3ccc(Cl)cc3n2Cc2ccnc(N)c2)c1

>  <Standard Value>
39

$$$$
CHEMBL4636786
Actelion Java MolfileCreator 2.0

  0  0  0  0  0  0              0 V3000
M  V30 BEGIN CTAB
M  V30 COUNTS 28 31 0 0 0
M  V30 BEGIN ATOM
M  V30 1 Cl 6.3626 3.0251 0.0 0
M  V30 2 C 5.8991 1.5985 0.0 0
M  V30 3 C 4.4319 1.2866 0.0 0
M  V30 4 C 6.9028 0.4838 0.0 0
M  V30 5 C 3.9683 -0.1398 0.0 0
M  V30 6 C 6.4393 -0.9427 0.0 0
M  V30 7 N 2.598 -0.75 0.0 0
M  V30 8 C 4.972 -1.2546 0.0 0
M  V30 9 C 2.7548 -2.2417 0.0 0
M  V30 10 C 1.299 0.0 0.0 0
M  V30 11 C 4.222 -2.5536 0.0 0
M  V30 12 C 1.6401 -3.2454 0.0 0
M  V30 13 C 1.299 1.4999 0.0 0
M  V30 14 C 4.8321 -3.9239 0.0 0
M  V30 15 O 0.2135 -2.7819 0.0 0
M  V30 16 O 1.952 -4.7127 0.0 0
M  V30 17 C 2.598 2.2499 0.0 0
M  V30 18 C 0.0 2.25 0.0 0
M  V30 19 C 6.3239 -4.0807 0.0 0
M  V30 20 C 3.9505 -5.1374 0.0 0
M  V30 21 C 2.598 3.7499 0.0 0
M  V30 22 C 0.0 3.75 0.0 0
M  V30 23 O 7.2056 -2.8672 0.0 0
M  V30 24 N 6.934 -5.451 0.0 0
M  V30 25 C 4.5606 -6.5078 0.0 0
M  V30 26 N 1.299 4.5 0.0 0
M  V30 27 N 3.8971 4.4999 0.0 0
M  V30 28 C 6.0524 -6.6646 0.0 0
M  V30 END ATOM
M  V30 BEGIN BOND
M  V30 1 1 1 2
M  V30 2 2 2 3
M  V30 3 1 2 4
M  V30 4 1 3 5
M  V30 5 2 4 6
M  V30 6 1 5 7
M  V30 7 2 5 8
M  V30 8 1 7 9
M  V30 9 1 7 10
M  V30 10 1 8 11
M  V30 11 1 9 12
M  V30 12 1 10 13
M  V30 13 1 11 14
M  V30 14 2 12 15
M  V30 15 1 12 16
M  V30 16 2 13 17
M  V30 17 1 13 18
M  V30 18 1 14 19
M  V30 19 2 14 20
M  V30 20 1 17 21
M  V30 21 2 18 22
M  V30 22 2 19 23
M  V30 23 1 19 24
M  V30 24 1 20 25
M  V30 25 2 21 26
M  V30 26 1 21 27
M  V30 27 1 24 28
M  V30 28 1 6 8
M  V30 29 2 9 11
M  V30 30 1 22 26
M  V30 31 2 25 28
M  V30 END BOND
M  V30 END CTAB
M  END
>  <Molecule ChEMBL ID>
CHEMBL4636786

>  <Smiles>
Nc1cc(Cn2c(C(=O)O)c(-c3ccc[nH]c3=O)c3ccc(Cl)cc32)ccn1

>  <Standard Value>
53

$$$$
CHEMBL175177
Actelion Java MolfileCreator 2.0

  0  0  0  0  0  0              0 V3000
M  V30 BEGIN CTAB
M  V30 COUNTS 23 26 0 0 0
M  V30 BEGIN ATOM
M  V30 1 O 2.598 -0.75 0.0 0
M  V30 2 C 1.299 0.0 0.0 0
M  V30 3 O 1.299 1.5 0.0 0
M  V30 4 C 0.0 -0.75 0.0 0
M  V30 5 C -1.299 0.0 0.0 0
M  V30 6 C 0.0 -2.2499 0.0 0
M  V30 7 C -2.598 -0.7499 0.0 0
M  V30 8 C -1.299 -2.9999 0.0 0
M  V30 9 N -4.0246 -0.2864 0.0 0
M  V30 10 C -2.598 -2.2499 0.0 0
M  V30 11 C -4.9063 -1.4999 0.0 0
M  V30 12 N -4.0246 -2.7135 0.0 0
M  V30 13 C -6.4063 -1.4999 0.0 0
M  V30 14 C -4.4881 -4.1401 0.0 0
M  V30 15 C -7.288 -0.2864 0.0 0
M  V30 16 C -7.288 -2.7135 0.0 0
M  V30 17 C -5.9554 -4.4519 0.0 0
M  V30 18 C -3.4844 -5.2548 0.0 0
M  V30 19 O -8.7146 -0.7499 0.0 0
M  V30 20 C -8.7146 -2.2499 0.0 0
M  V30 21 C -6.4189 -5.8785 0.0 0
M  V30 22 C -3.948 -6.6814 0.0 0
M  V30 23 C -5.4152 -6.9932 0.0 0
M  V30 END ATOM
M  V30 BEGIN BOND
M  V30 1 2 1 2
M  V30 2 1 2 3
M  V30 3 1 2 4
M  V30 4 2 4 5
M  V30 5 1 4 6
M  V30 6 1 5 7
M  V30 7 2 6 8
M  V30 8 1 7 9
M  V30 9 2 7 10
M  V30 10 2 9 11
M  V30 11 1 10 12
M  V30 12 1 11 13
M  V30 13 1 12 14
M  V30 14 2 13 15
M  V30 15 1 13 16
M  V30 16 1 14 17
M  V30 17 1 14 18
M  V30 18 1 15 19
M  V30 19 2 16 20
M  V30 20 1 17 21
M  V30 21 1 18 22
M  V30 22 1 21 23
M  V30 23 1 8 10
M  V30 24 1 11 12
M  V30 25 1 19 20
M  V30 26 1 22 23
M  V30 END BOND
M  V30 END CTAB
M  END
>  <Molecule ChEMBL ID>
CHEMBL175177

>  <Smiles>
O=C(O)c1ccc2c(c1)nc(-c1ccoc1)n2C1CCCCC1

>  <Standard Value>
1600

$$$$
CHEMBL4640738
Actelion Java MolfileCreator 2.0

  0  0  0  0  0  0              0 V3000
M  V30 BEGIN CTAB
M  V30 COUNTS 23 25 0 0 0
M  V30 BEGIN ATOM
M  V30 1 Cl 1.7376 -4.1007 0.0 0
M  V30 2 C 0.7431 -3.9962 0.0 0
M  V30 3 C 0.3364 -3.0826 0.0 0
M  V30 4 C 0.1553 -4.8052 0.0 0
M  V30 5 N 0.7431 -2.1691 0.0 0
M  V30 6 C -0.6581 -2.9781 0.0 0
M  V30 7 C -0.8391 -4.7007 0.0 0
M  V30 8 C 0.0 -1.4999 0.0 0
M  V30 9 C -1.2458 -3.7871 0.0 0
M  V30 10 C -0.866 -1.9999 0.0 0
M  V30 11 C 0.0 -0.5 0.0 0
M  V30 12 C -2.2404 -3.6826 0.0 0
M  V30 13 C -1.732 -1.5 0.0 0
M  V30 14 O -0.866 0.0 0.0 0
M  V30 15 C 0.866 0.0 0.0 0
M  V30 16 C 0.0 0.4999 0.0 0
M  V30 17 C -2.8282 -4.4916 0.0 0
M  V30 18 C -1.732 -0.4999 0.0 0
M  V30 19 C 1.732 -0.5 0.0 0
M  V30 20 C 0.866 0.9999 0.0 0
M  V30 21 O 2.598 0.0 0.0 0
M  V30 22 O 1.732 -1.5 0.0 0
M  V30 23 C 0.866 1.9999 0.0 0
M  V30 END ATOM
M  V30 BEGIN BOND
M  V30 1 1 1 2
M  V30 2 2 2 3
M  V30 3 1 2 4
M  V30 4 1 3 5
M  V30 5 1 3 6
M  V30 6 2 4 7
M  V30 7 1 5 8
M  V30 8 2 6 9
M  V30 9 1 6 10
M  V30 10 1 8 11
M  V30 11 1 9 12
M  V30 12 1 10 13
M  V30 13 1 11 14
M  V30 14 1 11 15
M  V30 15 1 11 16
M  V30 16 1 12 17
M  V30 17 1 13 18
M  V30 18 1 15 19
M  V30 19 1 16 20
M  V30 20 2 19 21
M  V30 21 1 19 22
M  V30 22 1 20 23
M  V30 23 1 7 9
M  V30 24 1 8 10
M  V30 25 1 14 18
M  V30 END BOND
M  V30 END CTAB
M  END
>  <Molecule ChEMBL ID>
CHEMBL4640738

>  <Smiles>
CCCC1(CC(=O)O)OCCC2c3c(CC)ccc(Cl)c3NC21

>  <Standard Value>
3000

$$$$
CHEMBL3617579
Actelion Java MolfileCreator 2.0

  0  0  0  0  0  0              0 V3000
M  V30 BEGIN CTAB
M  V30 COUNTS 24 26 0 0 0
M  V30 BEGIN ATOM
M  V30 1 O 11.6913 0.0 0.0 0
M  V30 2 C 10.3923 -0.75 0.0 0
M  V30 3 N 9.0932 0.0 0.0 0
M  V30 4 C 10.3923 -2.25 0.0 0
M  V30 5 O 9.0932 1.4999 0.0 0
M  V30 6 C 7.7942 -0.75 0.0 0
M  V30 7 C 9.0932 -3.0 0.0 0
M  V30 8 C 11.6913 -2.9999 0.0 0
M  V30 9 N 7.7942 -2.25 0.0 0
M  V30 10 C 6.4951 0.0 0.0 0
M  V30 11 C 9.0932 -4.5 0.0 0
M  V30 12 C 11.6913 -4.5 0.0 0
M  V30 13 O 6.4951 1.5 0.0 0
M  V30 14 N 5.1961 -0.75 0.0 0
M  V30 15 C 10.3923 -5.25 0.0 0
M  V30 16 C 3.8971 0.0 0.0 0
M  V30 17 C 2.598 -0.75 0.0 0
M  V30 18 C 1.299 0.0 0.0 0
M  V30 19 C 0.0 -0.75 0.0 0
M  V30 20 C -1.299 0.0 0.0 0
M  V30 21 C 0.0 -2.2499 0.0 0
M  V30 22 C -2.598 -0.7499 0.0 0
M  V30 23 C -1.299 -2.9999 0.0 0
M  V30 24 C -2.598 -2.2499 0.0 0
M  V30 END ATOM
M  V30 BEGIN BOND
M  V30 1 2 1 2
M  V30 2 1 2 3
M  V30 3 1 2 4
M  V30 4 1 3 5
M  V30 5 1 3 6
M  V30 6 2 4 7
M  V30 7 1 4 8
M  V30 8 2 6 9
M  V30 9 1 6 10
M  V30 10 1 7 11
M  V30 11 2 8 12
M  V30 12 2 10 13
M  V30 13 1 10 14
M  V30 14 2 11 15
M  V30 15 1 14 16
M  V30 16 1 16 17
M  V30 17 1 17 18
M  V30 18 1 18 19
M  V30 19 2 19 20
M  V30 20 1 19 21
M  V30 21 1 20 22
M  V30 22 2 21 23
M  V30 23 2 22 24
M  V30 24 1 7 9
M  V30 25 1 12 15
M  V30 26 1 23 24
M  V30 END BOND
M  V30 END CTAB
M  END
>  <Molecule ChEMBL ID>
CHEMBL3617579

>  <Smiles>
O=C(NCCCc1ccccc1)c1nc2ccccc2c(=O)n1O

>  <Standard Value>
8800

$$$$
CHEMBL4641216
Actelion Java MolfileCreator 2.0

  0  0  0  0  0  0              0 V3000
M  V30 BEGIN CTAB
M  V30 COUNTS 21 23 0 0 0
M  V30 BEGIN ATOM
M  V30 1 O 6.4951 0.0 0.0 0
M  V30 2 C 5.1961 -0.75 0.0 0
M  V30 3 N 3.8971 0.0 0.0 0
M  V30 4 C 5.1961 -2.2499 0.0 0
M  V30 5 O 3.8971 1.5 0.0 0
M  V30 6 C 2.598 -0.75 0.0 0
M  V30 7 C 3.8971 -3.0 0.0 0
M  V30 8 C 6.4951 -2.9999 0.0 0
M  V30 9 C 1.299 0.0 0.0 0
M  V30 10 C 2.598 -2.25 0.0 0
M  V30 11 C 3.8971 -4.5 0.0 0
M  V30 12 C 6.4951 -4.5 0.0 0
M  V30 13 O 1.299 1.5 0.0 0
M  V30 14 O 0.0 -0.75 0.0 0
M  V30 15 C 1.299 -2.9999 0.0 0
M  V30 16 C 5.1961 -5.25 0.0 0
M  V30 17 C 0.0 -2.2499 0.0 0
M  V30 18 C 1.299 -4.4999 0.0 0
M  V30 19 C -1.299 -2.9999 0.0 0
M  V30 20 C 0.0 -5.2499 0.0 0
M  V30 21 C -1.299 -4.4999 0.0 0
M  V30 END ATOM
M  V30 BEGIN BOND
M  V30 1 2 1 2
M  V30 2 1 2 3
M  V30 3 1 2 4
M  V30 4 1 3 5
M  V30 5 1 3 6
M  V30 6 2 4 7
M  V30 7 1 4 8
M  V30 8 1 6 9
M  V30 9 1 6 10
M  V30 10 1 7 11
M  V30 11 2 8 12
M  V30 12 2 9 13
M  V30 13 1 9 14
M  V30 14 1 10 15
M  V30 15 2 11 16
M  V30 16 2 15 17
M  V30 17 1 15 18
M  V30 18 1 17 19
M  V30 19 2 18 20
M  V30 20 2 19 21
M  V30 21 1 7 10
M  V30 22 1 12 16
M  V30 23 1 20 21
M  V30 END BOND
M  V30 END CTAB
M  END
>  <Molecule ChEMBL ID>
CHEMBL4641216

>  <Smiles>
O=C(O)C1C(c2ccccc2)c2ccccc2C(=O)N1O

>  <Standard Value>
15700

$$$$
CHEMBL474496
Actelion Java MolfileCreator 2.0

  0  0  0  0  0  0              0 V3000
M  V30 BEGIN CTAB
M  V30 COUNTS 26 27 0 0 0
M  V30 BEGIN ATOM
M  V30 1 Cl 4.3301 6.0 0.0 0
M  V30 2 C 5.1961 5.5 0.0 0
M  V30 3 C 5.1961 4.4999 0.0 0
M  V30 4 C 6.0621 6.0 0.0 0
M  V30 5 C 4.3301 4.0 0.0 0
M  V30 6 C 6.0621 3.9999 0.0 0
M  V30 7 C 6.9282 5.4999 0.0 0
M  V30 8 N 3.4641 3.5 0.0 0
M  V30 9 C 6.9282 4.4999 0.0 0
M  V30 10 C 6.0621 2.9999 0.0 0
M  V30 11 Cl 7.7942 5.9999 0.0 0
M  V30 12 O 5.1961 2.4999 0.0 0
M  V30 13 C 5.1961 1.4999 0.0 0
M  V30 14 C 4.3301 1.0 0.0 0
M  V30 15 C 6.0621 0.9999 0.0 0
M  V30 16 C 4.3301 0.0 0.0 0
M  V30 17 C 6.0621 0.0 0.0 0
M  V30 18 C 3.4641 -0.5 0.0 0
M  V30 19 C 5.1961 -0.5 0.0 0
M  V30 20 O 3.4641 -1.5 0.0 0
M  V30 21 C 2.598 0.0 0.0 0
M  V30 22 C 1.732 -0.5 0.0 0
M  V30 23 O 1.732 -1.5 0.0 0
M  V30 24 C 0.866 0.0 0.0 0
M  V30 25 O 0.866 1.0 0.0 0
M  V30 26 O 0.0 -0.5 0.0 0
M  V30 END ATOM
M  V30 BEGIN BOND
M  V30 1 1 1 2
M  V30 2 2 2 3
M  V30 3 1 2 4
M  V30 4 1 3 5
M  V30 5 1 3 6
M  V30 6 2 4 7
M  V30 7 3 5 8
M  V30 8 2 6 9
M  V30 9 1 6 10
M  V30 10 1 7 11
M  V30 11 1 10 12
M  V30 12 1 12 13
M  V30 13 2 13 14
M  V30 14 1 13 15
M  V30 15 1 14 16
M  V30 16 2 15 17
M  V30 17 1 16 18
M  V30 18 2 16 19
M  V30 19 2 18 20
M  V30 20 1 18 21
M  V30 21 2 21 22
M  V30 22 1 22 23
M  V30 23 1 22 24
M  V30 24 2 24 25
M  V30 25 1 24 26
M  V30 26 1 7 9
M  V30 27 1 17 19
M  V30 END BOND
M  V30 END CTAB
M  END
>  <Molecule ChEMBL ID>
CHEMBL474496

>  <Smiles>
N#Cc1c(Cl)cc(Cl)cc1COc1cccc(C(=O)/C=C(\O)C(=O)O)c1

>  <Standard Value>
45000

$$$$
