CHEMBL210597
Actelion Java MolfileCreator 2.0

  0  0  0  0  0  0              0 V3000
M  V30 BEGIN CTAB
M  V30 COUNTS 21 22 0 0 0
M  V30 BEGIN ATOM
M  V30 1 Cl 3.8971 -4.5 0.0 0
M  V30 2 C 3.8971 -3.0 0.0 0
M  V30 3 C 5.1961 -2.25 0.0 0
M  V30 4 C 2.598 -2.25 0.0 0
M  V30 5 Cl 6.4952 -3.0 0.0 0
M  V30 6 C 5.1961 -0.75 0.0 0
M  V30 7 O 1.299 -3.0 0.0 0
M  V30 8 C 2.598 -0.75 0.0 0
M  V30 9 Cl 6.4952 0.0 0.0 0
M  V30 10 C 3.8971 0.0 0.0 0
M  V30 11 S 1.299 0.0 0.0 0
M  V30 12 O 2.049 1.299 0.0 0
M  V30 13 O 0.549 1.299 0.0 0
M  V30 14 N 0.0 -0.75 0.0 0
M  V30 15 C -1.3703 -0.1398 0.0 0 CFG=2
M  V30 16 C -0.1567 -2.2417 0.0 0
M  V30 17 C -1.6821 1.3273 0.0 0
M  V30 18 C -2.374 -1.2546 0.0 0
M  V30 19 C -1.624 -2.5536 0.0 0
M  V30 20 O -0.5674 2.331 0.0 0
M  V30 21 O -3.1087 1.7908 0.0 0
M  V30 END ATOM
M  V30 BEGIN BOND
M  V30 1 1 1 2
M  V30 2 2 2 3
M  V30 3 1 2 4
M  V30 4 1 3 5
M  V30 5 1 3 6
M  V30 6 1 4 7
M  V30 7 2 4 8
M  V30 8 1 6 9
M  V30 9 2 6 10
M  V30 10 1 8 11
M  V30 11 2 11 12
M  V30 12 2 11 13
M  V30 13 1 11 14
M  V30 14 1 15 14
M  V30 15 1 14 16
M  V30 16 1 15 17 CFG=1
M  V30 17 1 15 18
M  V30 18 1 16 19
M  V30 19 2 17 20
M  V30 20 1 17 21
M  V30 21 1 8 10
M  V30 22 1 18 19
M  V30 END BOND
M  V30 BEGIN COLLECTION
M  V30 MDLV30/STEABS ATOMS=(1 15)
M  V30 END COLLECTION
M  V30 END CTAB
M  END
>  <Molecule ChEMBL ID>
CHEMBL210597

>  <Smiles>
O=C(O)[C@@H]1CCCN1S(=O)(=O)c1cc(Cl)c(Cl)c(Cl)c1O

>  <Standard Value>
80

$$$$
CHEMBL207911
Actelion Java MolfileCreator 2.0

  0  0  0  0  0  0              0 V3000
M  V30 BEGIN CTAB
M  V30 COUNTS 20 21 0 0 0
M  V30 BEGIN ATOM
M  V30 1 Cl 6.4952 0.0 0.0 0
M  V30 2 C 5.1961 -0.75 0.0 0
M  V30 3 C 3.8971 0.0 0.0 0
M  V30 4 C 5.1961 -2.25 0.0 0
M  V30 5 O 3.8971 1.5 0.0 0
M  V30 6 C 2.598 -0.75 0.0 0
M  V30 7 C 3.8971 -3.0 0.0 0
M  V30 8 S 1.299 0.0 0.0 0
M  V30 9 C 2.598 -2.25 0.0 0
M  V30 10 Cl 3.8971 -4.5 0.0 0
M  V30 11 O 2.049 1.299 0.0 0
M  V30 12 O 0.549 1.299 0.0 0
M  V30 13 N 0.0 -0.75 0.0 0
M  V30 14 C -1.3703 -0.1398 0.0 0 CFG=2
M  V30 15 C -0.1567 -2.2417 0.0 0
M  V30 16 C -1.6821 1.3273 0.0 0
M  V30 17 C -2.374 -1.2546 0.0 0
M  V30 18 S -1.624 -2.5536 0.0 0
M  V30 19 O -0.5674 2.331 0.0 0
M  V30 20 O -3.1087 1.7908 0.0 0
M  V30 END ATOM
M  V30 BEGIN BOND
M  V30 1 1 1 2
M  V30 2 2 2 3
M  V30 3 1 2 4
M  V30 4 1 3 5
M  V30 5 1 3 6
M  V30 6 2 4 7
M  V30 7 1 6 8
M  V30 8 2 6 9
M  V30 9 1 7 10
M  V30 10 2 8 11
M  V30 11 2 8 12
M  V30 12 1 8 13
M  V30 13 1 14 13
M  V30 14 1 13 15
M  V30 15 1 14 16 CFG=1
M  V30 16 1 14 17
M  V30 17 1 15 18
M  V30 18 2 16 19
M  V30 19 1 16 20
M  V30 20 1 7 9
M  V30 21 1 17 18
M  V30 END BOND
M  V30 BEGIN COLLECTION
M  V30 MDLV30/STEABS ATOMS=(1 14)
M  V30 END COLLECTION
M  V30 END CTAB
M  END
>  <Molecule ChEMBL ID>
CHEMBL207911

>  <Smiles>
O=C(O)[C@@H]1CSCN1S(=O)(=O)c1cc(Cl)cc(Cl)c1O

>  <Standard Value>
240

$$$$
CHEMBL210596
Actelion Java MolfileCreator 2.0

  0  0  0  0  0  0              0 V3000
M  V30 BEGIN CTAB
M  V30 COUNTS 20 21 0 0 0
M  V30 BEGIN ATOM
M  V30 1 Br 6.4952 0.0 0.0 0
M  V30 2 C 5.1961 -0.75 0.0 0
M  V30 3 C 3.8971 0.0 0.0 0
M  V30 4 C 5.1961 -2.25 0.0 0
M  V30 5 O 3.8971 1.5 0.0 0
M  V30 6 C 2.598 -0.75 0.0 0
M  V30 7 C 3.8971 -3.0 0.0 0
M  V30 8 S 1.299 0.0 0.0 0
M  V30 9 C 2.598 -2.25 0.0 0
M  V30 10 Cl 3.8971 -4.5 0.0 0
M  V30 11 O 2.049 1.299 0.0 0
M  V30 12 O 0.549 1.299 0.0 0
M  V30 13 N 0.0 -0.75 0.0 0
M  V30 14 C -1.3703 -0.1398 0.0 0 CFG=2
M  V30 15 C -0.1567 -2.2417 0.0 0
M  V30 16 C -1.6821 1.3273 0.0 0
M  V30 17 C -2.374 -1.2546 0.0 0
M  V30 18 C -1.624 -2.5536 0.0 0
M  V30 19 O -0.5674 2.331 0.0 0
M  V30 20 O -3.1087 1.7908 0.0 0
M  V30 END ATOM
M  V30 BEGIN BOND
M  V30 1 1 1 2
M  V30 2 2 2 3
M  V30 3 1 2 4
M  V30 4 1 3 5
M  V30 5 1 3 6
M  V30 6 2 4 7
M  V30 7 1 6 8
M  V30 8 2 6 9
M  V30 9 1 7 10
M  V30 10 2 8 11
M  V30 11 2 8 12
M  V30 12 1 8 13
M  V30 13 1 14 13
M  V30 14 1 13 15
M  V30 15 1 14 16 CFG=1
M  V30 16 1 14 17
M  V30 17 1 15 18
M  V30 18 2 16 19
M  V30 19 1 16 20
M  V30 20 1 7 9
M  V30 21 1 17 18
M  V30 END BOND
M  V30 BEGIN COLLECTION
M  V30 MDLV30/STEABS ATOMS=(1 14)
M  V30 END COLLECTION
M  V30 END CTAB
M  END
>  <Molecule ChEMBL ID>
CHEMBL210596

>  <Smiles>
O=C(O)[C@@H]1CCCN1S(=O)(=O)c1cc(Cl)cc(Br)c1O

>  <Standard Value>
260

$$$$
CHEMBL378114
Actelion Java MolfileCreator 2.0

  0  0  0  0  0  0              0 V3000
M  V30 BEGIN CTAB
M  V30 COUNTS 22 24 0 0 0
M  V30 BEGIN ATOM
M  V30 1 Cl 6.4952 0.0 0.0 0
M  V30 2 C 5.1961 -0.75 0.0 0
M  V30 3 C 3.8971 0.0 0.0 0
M  V30 4 C 5.1961 -2.25 0.0 0
M  V30 5 O 3.8971 1.5 0.0 0
M  V30 6 C 2.598 -0.75 0.0 0
M  V30 7 C 3.8971 -3.0 0.0 0
M  V30 8 S 1.299 0.0 0.0 0
M  V30 9 C 2.598 -2.25 0.0 0
M  V30 10 Cl 3.8971 -4.5 0.0 0
M  V30 11 O 2.049 1.299 0.0 0
M  V30 12 O 0.549 1.299 0.0 0
M  V30 13 N 0.0 -0.75 0.0 0
M  V30 14 C -1.3703 -0.1398 0.0 0 CFG=2
M  V30 15 C -0.1567 -2.2417 0.0 0
M  V30 16 C -1.6821 1.3273 0.0 0
M  V30 17 C -2.374 -1.2546 0.0 0
M  V30 18 C -1.624 -2.5536 0.0 0
M  V30 19 N -0.6784 2.442 0.0 0
M  V30 20 N -3.0525 1.9374 0.0 0
M  V30 21 N -1.4284 3.741 0.0 0
M  V30 22 N -2.8957 3.4292 0.0 0
M  V30 END ATOM
M  V30 BEGIN BOND
M  V30 1 1 1 2
M  V30 2 2 2 3
M  V30 3 1 2 4
M  V30 4 1 3 5
M  V30 5 1 3 6
M  V30 6 2 4 7
M  V30 7 1 6 8
M  V30 8 2 6 9
M  V30 9 1 7 10
M  V30 10 2 8 11
M  V30 11 2 8 12
M  V30 12 1 8 13
M  V30 13 1 14 13
M  V30 14 1 13 15
M  V30 15 1 14 16 CFG=1
M  V30 16 1 14 17
M  V30 17 1 15 18
M  V30 18 1 16 19
M  V30 19 2 16 20
M  V30 20 2 19 21
M  V30 21 1 20 22
M  V30 22 1 7 9
M  V30 23 1 17 18
M  V30 24 1 21 22
M  V30 END BOND
M  V30 BEGIN COLLECTION
M  V30 MDLV30/STEABS ATOMS=(1 14)
M  V30 END COLLECTION
M  V30 END CTAB
M  END
>  <Molecule ChEMBL ID>
CHEMBL378114

>  <Smiles>
O=S(=O)(c1cc(Cl)cc(Cl)c1O)N1CCC[C@H]1c1nn[nH]n1

>  <Standard Value>
560

$$$$
CHEMBL207979
Actelion Java MolfileCreator 2.0

  0  0  0  0  0  0              0 V3000
M  V30 BEGIN CTAB
M  V30 COUNTS 20 21 0 0 0
M  V30 BEGIN ATOM
M  V30 1 Cl 6.4952 0.0 0.0 0
M  V30 2 C 5.1961 -0.75 0.0 0
M  V30 3 C 3.8971 0.0 0.0 0
M  V30 4 C 5.1961 -2.25 0.0 0
M  V30 5 O 3.8971 1.5 0.0 0
M  V30 6 C 2.598 -0.75 0.0 0
M  V30 7 C 3.8971 -3.0 0.0 0
M  V30 8 S 1.299 0.0 0.0 0
M  V30 9 C 2.598 -2.25 0.0 0
M  V30 10 Cl 3.8971 -4.5 0.0 0
M  V30 11 O 2.049 1.299 0.0 0
M  V30 12 O 0.549 1.299 0.0 0
M  V30 13 N 0.0 -0.75 0.0 0
M  V30 14 C -1.3703 -0.1398 0.0 0 CFG=2
M  V30 15 C -0.1567 -2.2417 0.0 0
M  V30 16 C -1.6821 1.3273 0.0 0
M  V30 17 C -2.374 -1.2546 0.0 0
M  V30 18 C -1.624 -2.5536 0.0 0
M  V30 19 O -0.5674 2.331 0.0 0
M  V30 20 O -3.1087 1.7908 0.0 0
M  V30 END ATOM
M  V30 BEGIN BOND
M  V30 1 1 1 2
M  V30 2 2 2 3
M  V30 3 1 2 4
M  V30 4 1 3 5
M  V30 5 1 3 6
M  V30 6 2 4 7
M  V30 7 1 6 8
M  V30 8 2 6 9
M  V30 9 1 7 10
M  V30 10 2 8 11
M  V30 11 2 8 12
M  V30 12 1 8 13
M  V30 13 1 14 13
M  V30 14 1 13 15
M  V30 15 1 14 16 CFG=1
M  V30 16 1 14 17
M  V30 17 1 15 18
M  V30 18 2 16 19
M  V30 19 1 16 20
M  V30 20 1 7 9
M  V30 21 1 17 18
M  V30 END BOND
M  V30 BEGIN COLLECTION
M  V30 MDLV30/STEABS ATOMS=(1 14)
M  V30 END COLLECTION
M  V30 END CTAB
M  END
>  <Molecule ChEMBL ID>
CHEMBL207979

>  <Smiles>
O=C(O)[C@@H]1CCCN1S(=O)(=O)c1cc(Cl)cc(Cl)c1O

>  <Standard Value>
770

$$$$
CHEMBL426503
Actelion Java MolfileCreator 2.0

  0  0  0  0  0  0              0 V3000
M  V30 BEGIN CTAB
M  V30 COUNTS 19 20 0 0 0
M  V30 BEGIN ATOM
M  V30 1 Cl 6.4952 0.0 0.0 0
M  V30 2 C 5.1961 -0.75 0.0 0
M  V30 3 C 3.8971 0.0 0.0 0
M  V30 4 C 5.1961 -2.25 0.0 0
M  V30 5 O 3.8971 1.5 0.0 0
M  V30 6 C 2.598 -0.75 0.0 0
M  V30 7 C 3.8971 -3.0 0.0 0
M  V30 8 S 1.299 0.0 0.0 0
M  V30 9 C 2.598 -2.25 0.0 0
M  V30 10 Cl 3.8971 -4.5 0.0 0
M  V30 11 O 2.049 1.299 0.0 0
M  V30 12 O 0.549 1.299 0.0 0
M  V30 13 N 0.0 -0.75 0.0 0
M  V30 14 C -1.3703 -0.1398 0.0 0 CFG=2
M  V30 15 C -0.1567 -2.2417 0.0 0
M  V30 16 C -1.6821 1.3273 0.0 0
M  V30 17 C -2.374 -1.2546 0.0 0
M  V30 18 C -1.624 -2.5536 0.0 0
M  V30 19 N -1.994 2.7945 0.0 0
M  V30 END ATOM
M  V30 BEGIN BOND
M  V30 1 1 1 2
M  V30 2 2 2 3
M  V30 3 1 2 4
M  V30 4 1 3 5
M  V30 5 1 3 6
M  V30 6 2 4 7
M  V30 7 1 6 8
M  V30 8 2 6 9
M  V30 9 1 7 10
M  V30 10 2 8 11
M  V30 11 2 8 12
M  V30 12 1 8 13
M  V30 13 1 14 13
M  V30 14 1 13 15
M  V30 15 1 14 16 CFG=1
M  V30 16 1 14 17
M  V30 17 1 15 18
M  V30 18 3 16 19
M  V30 19 1 7 9
M  V30 20 1 17 18
M  V30 END BOND
M  V30 BEGIN COLLECTION
M  V30 MDLV30/STEABS ATOMS=(1 14)
M  V30 END COLLECTION
M  V30 END CTAB
M  END
>  <Molecule ChEMBL ID>
CHEMBL426503

>  <Smiles>
N#C[C@@H]1CCCN1S(=O)(=O)c1cc(Cl)cc(Cl)c1O

>  <Standard Value>
1400

$$$$
CHEMBL382995
Actelion Java MolfileCreator 2.0

  0  0  0  0  0  0              0 V3000
M  V30 BEGIN CTAB
M  V30 COUNTS 20 21 0 0 0
M  V30 BEGIN ATOM
M  V30 1 Cl 6.4952 0.0 0.0 0
M  V30 2 C 5.1961 -0.75 0.0 0
M  V30 3 C 3.8971 0.0 0.0 0
M  V30 4 C 5.1961 -2.25 0.0 0
M  V30 5 O 3.8971 1.5 0.0 0
M  V30 6 C 2.598 -0.75 0.0 0
M  V30 7 C 3.8971 -3.0 0.0 0
M  V30 8 S 1.299 0.0 0.0 0
M  V30 9 C 2.598 -2.25 0.0 0
M  V30 10 Cl 3.8971 -4.5 0.0 0
M  V30 11 O 2.049 1.299 0.0 0
M  V30 12 O 0.549 1.299 0.0 0
M  V30 13 N 0.0 -0.75 0.0 0
M  V30 14 C -1.3703 -0.1398 0.0 0 CFG=1
M  V30 15 C -0.1567 -2.2417 0.0 0
M  V30 16 C -1.6821 1.3273 0.0 0
M  V30 17 C -2.374 -1.2546 0.0 0
M  V30 18 S -1.624 -2.5536 0.0 0
M  V30 19 O -0.5674 2.331 0.0 0
M  V30 20 O -3.1087 1.7908 0.0 0
M  V30 END ATOM
M  V30 BEGIN BOND
M  V30 1 1 1 2
M  V30 2 2 2 3
M  V30 3 1 2 4
M  V30 4 1 3 5
M  V30 5 1 3 6
M  V30 6 2 4 7
M  V30 7 1 6 8
M  V30 8 2 6 9
M  V30 9 1 7 10
M  V30 10 2 8 11
M  V30 11 2 8 12
M  V30 12 1 8 13
M  V30 13 1 14 13
M  V30 14 1 13 15
M  V30 15 1 14 16 CFG=3
M  V30 16 1 14 17
M  V30 17 1 15 18
M  V30 18 2 16 19
M  V30 19 1 16 20
M  V30 20 1 7 9
M  V30 21 1 17 18
M  V30 END BOND
M  V30 BEGIN COLLECTION
M  V30 MDLV30/STEABS ATOMS=(1 14)
M  V30 END COLLECTION
M  V30 END CTAB
M  END
>  <Molecule ChEMBL ID>
CHEMBL382995

>  <Smiles>
O=C(O)[C@H]1CSCN1S(=O)(=O)c1cc(Cl)cc(Cl)c1O

>  <Standard Value>
1700

$$$$
CHEMBL208803
Actelion Java MolfileCreator 2.0

  0  0  0  0  0  0              0 V3000
M  V30 BEGIN CTAB
M  V30 COUNTS 21 22 0 0 0
M  V30 BEGIN ATOM
M  V30 1 Cl 6.4952 0.0 0.0 0
M  V30 2 C 5.1961 -0.75 0.0 0
M  V30 3 C 3.8971 0.0 0.0 0
M  V30 4 C 5.1961 -2.25 0.0 0
M  V30 5 O 3.8971 1.5 0.0 0
M  V30 6 C 2.598 -0.75 0.0 0
M  V30 7 C 3.8971 -3.0 0.0 0
M  V30 8 S 1.299 0.0 0.0 0
M  V30 9 C 2.598 -2.25 0.0 0
M  V30 10 Cl 3.8971 -4.5 0.0 0
M  V30 11 O 2.049 1.299 0.0 0
M  V30 12 O 0.549 1.299 0.0 0
M  V30 13 N 0.0 -0.75 0.0 0
M  V30 14 C -1.299 0.0 0.0 0 CFG=2
M  V30 15 C 0.0 -2.25 0.0 0
M  V30 16 C -1.299 1.5 0.0 0
M  V30 17 C -2.598 -0.75 0.0 0
M  V30 18 C -1.299 -3.0 0.0 0
M  V30 19 O 0.0 2.25 0.0 0
M  V30 20 O -2.598 2.25 0.0 0
M  V30 21 C -2.598 -2.25 0.0 0
M  V30 END ATOM
M  V30 BEGIN BOND
M  V30 1 1 1 2
M  V30 2 2 2 3
M  V30 3 1 2 4
M  V30 4 1 3 5
M  V30 5 1 3 6
M  V30 6 2 4 7
M  V30 7 1 6 8
M  V30 8 2 6 9
M  V30 9 1 7 10
M  V30 10 2 8 11
M  V30 11 2 8 12
M  V30 12 1 8 13
M  V30 13 1 14 13
M  V30 14 1 13 15
M  V30 15 1 14 16 CFG=1
M  V30 16 1 14 17
M  V30 17 1 15 18
M  V30 18 2 16 19
M  V30 19 1 16 20
M  V30 20 1 17 21
M  V30 21 1 7 9
M  V30 22 1 18 21
M  V30 END BOND
M  V30 BEGIN COLLECTION
M  V30 MDLV30/STEABS ATOMS=(1 14)
M  V30 END COLLECTION
M  V30 END CTAB
M  END
>  <Molecule ChEMBL ID>
CHEMBL208803

>  <Smiles>
O=C(O)[C@@H]1CCCCN1S(=O)(=O)c1cc(Cl)cc(Cl)c1O

>  <Standard Value>
2000

$$$$
CHEMBL207500
Actelion Java MolfileCreator 2.0

  0  0  0  0  0  0              0 V3000
M  V30 BEGIN CTAB
M  V30 COUNTS 20 21 0 0 0
M  V30 BEGIN ATOM
M  V30 1 Cl 6.4952 0.0 0.0 0
M  V30 2 C 5.1961 -0.75 0.0 0
M  V30 3 C 3.8971 0.0 0.0 0
M  V30 4 C 5.1961 -2.25 0.0 0
M  V30 5 O 3.8971 1.5 0.0 0
M  V30 6 C 2.598 -0.75 0.0 0
M  V30 7 C 3.8971 -3.0 0.0 0
M  V30 8 S 1.299 0.0 0.0 0
M  V30 9 C 2.598 -2.25 0.0 0
M  V30 10 F 3.8971 -4.5 0.0 0
M  V30 11 O 2.049 1.299 0.0 0
M  V30 12 O 0.549 1.299 0.0 0
M  V30 13 N 0.0 -0.75 0.0 0
M  V30 14 C -1.3703 -0.1398 0.0 0 CFG=2
M  V30 15 C -0.1567 -2.2417 0.0 0
M  V30 16 C -1.6821 1.3273 0.0 0
M  V30 17 C -2.374 -1.2546 0.0 0
M  V30 18 C -1.624 -2.5536 0.0 0
M  V30 19 O -0.5674 2.331 0.0 0
M  V30 20 O -3.1087 1.7908 0.0 0
M  V30 END ATOM
M  V30 BEGIN BOND
M  V30 1 1 1 2
M  V30 2 2 2 3
M  V30 3 1 2 4
M  V30 4 1 3 5
M  V30 5 1 3 6
M  V30 6 2 4 7
M  V30 7 1 6 8
M  V30 8 2 6 9
M  V30 9 1 7 10
M  V30 10 2 8 11
M  V30 11 2 8 12
M  V30 12 1 8 13
M  V30 13 1 14 13
M  V30 14 1 13 15
M  V30 15 1 14 16 CFG=1
M  V30 16 1 14 17
M  V30 17 1 15 18
M  V30 18 2 16 19
M  V30 19 1 16 20
M  V30 20 1 7 9
M  V30 21 1 17 18
M  V30 END BOND
M  V30 BEGIN COLLECTION
M  V30 MDLV30/STEABS ATOMS=(1 14)
M  V30 END COLLECTION
M  V30 END CTAB
M  END
>  <Molecule ChEMBL ID>
CHEMBL207500

>  <Smiles>
O=C(O)[C@@H]1CCCN1S(=O)(=O)c1cc(F)cc(Cl)c1O

>  <Standard Value>
2100

$$$$
CHEMBL210593
Actelion Java MolfileCreator 2.0

  0  0  0  0  0  0              0 V3000
M  V30 BEGIN CTAB
M  V30 COUNTS 20 21 0 0 0
M  V30 BEGIN ATOM
M  V30 1 Cl 6.4952 -3.0 0.0 0
M  V30 2 C 5.1961 -2.25 0.0 0
M  V30 3 C 5.1961 -0.75 0.0 0
M  V30 4 C 3.8971 -3.0 0.0 0
M  V30 5 C 3.8971 0.0 0.0 0
M  V30 6 C 6.4952 0.0 0.0 0
M  V30 7 C 2.598 -2.25 0.0 0
M  V30 8 C 2.598 -0.75 0.0 0
M  V30 9 N 1.299 -3.0 0.0 0
M  V30 10 S 1.299 0.0 0.0 0
M  V30 11 O 2.049 1.299 0.0 0
M  V30 12 O 0.549 1.299 0.0 0
M  V30 13 N 0.0 -0.75 0.0 0
M  V30 14 C -1.3703 -0.1398 0.0 0 CFG=2
M  V30 15 C -0.1567 -2.2417 0.0 0
M  V30 16 C -1.6821 1.3273 0.0 0
M  V30 17 C -2.374 -1.2546 0.0 0
M  V30 18 C -1.624 -2.5536 0.0 0
M  V30 19 O -0.5674 2.331 0.0 0
M  V30 20 O -3.1087 1.7908 0.0 0
M  V30 END ATOM
M  V30 BEGIN BOND
M  V30 1 1 1 2
M  V30 2 2 2 3
M  V30 3 1 2 4
M  V30 4 1 3 5
M  V30 5 1 3 6
M  V30 6 2 4 7
M  V30 7 2 5 8
M  V30 8 1 7 9
M  V30 9 1 8 10
M  V30 10 2 10 11
M  V30 11 2 10 12
M  V30 12 1 10 13
M  V30 13 1 14 13
M  V30 14 1 13 15
M  V30 15 1 14 16 CFG=1
M  V30 16 1 14 17
M  V30 17 1 15 18
M  V30 18 2 16 19
M  V30 19 1 16 20
M  V30 20 1 7 8
M  V30 21 1 17 18
M  V30 END BOND
M  V30 BEGIN COLLECTION
M  V30 MDLV30/STEABS ATOMS=(1 14)
M  V30 END COLLECTION
M  V30 END CTAB
M  END
>  <Molecule ChEMBL ID>
CHEMBL210593

>  <Smiles>
Cc1cc(S(=O)(=O)N2CCC[C@H]2C(=O)O)c(N)cc1Cl

>  <Standard Value>
3100

$$$$
CHEMBL379855
Actelion Java MolfileCreator 2.0

  0  0  0  0  0  0              0 V3000
M  V30 BEGIN CTAB
M  V30 COUNTS 17 18 0 0 0
M  V30 BEGIN ATOM
M  V30 1 Cl 6.4952 0.0 0.0 0
M  V30 2 C 5.1961 -0.75 0.0 0
M  V30 3 C 3.8971 0.0 0.0 0
M  V30 4 C 5.1961 -2.25 0.0 0
M  V30 5 O 3.8971 1.5 0.0 0
M  V30 6 C 2.598 -0.75 0.0 0
M  V30 7 C 3.8971 -3.0 0.0 0
M  V30 8 S 1.299 0.0 0.0 0
M  V30 9 C 2.598 -2.25 0.0 0
M  V30 10 Cl 3.8971 -4.5 0.0 0
M  V30 11 O 2.049 1.299 0.0 0
M  V30 12 O 0.549 1.299 0.0 0
M  V30 13 N 0.0 -0.75 0.0 0
M  V30 14 C -1.3703 -0.1398 0.0 0
M  V30 15 C -0.1567 -2.2417 0.0 0
M  V30 16 C -2.374 -1.2546 0.0 0
M  V30 17 C -1.624 -2.5536 0.0 0
M  V30 END ATOM
M  V30 BEGIN BOND
M  V30 1 1 1 2
M  V30 2 2 2 3
M  V30 3 1 2 4
M  V30 4 1 3 5
M  V30 5 1 3 6
M  V30 6 2 4 7
M  V30 7 1 6 8
M  V30 8 2 6 9
M  V30 9 1 7 10
M  V30 10 2 8 11
M  V30 11 2 8 12
M  V30 12 1 8 13
M  V30 13 1 13 14
M  V30 14 1 13 15
M  V30 15 1 14 16
M  V30 16 1 15 17
M  V30 17 1 7 9
M  V30 18 1 16 17
M  V30 END BOND
M  V30 END CTAB
M  END
>  <Molecule ChEMBL ID>
CHEMBL379855

>  <Smiles>
O=S(=O)(c1cc(Cl)cc(Cl)c1O)N1CCCC1

>  <Standard Value>
4800

$$$$
CHEMBL208442
Actelion Java MolfileCreator 2.0

  0  0  0  0  0  0              0 V3000
M  V30 BEGIN CTAB
M  V30 COUNTS 20 21 0 0 0
M  V30 BEGIN ATOM
M  V30 1 Cl 3.8971 -4.5 0.0 0
M  V30 2 C 3.8971 -3.0 0.0 0
M  V30 3 C 5.1961 -2.25 0.0 0
M  V30 4 C 2.598 -2.25 0.0 0
M  V30 5 C 5.1961 -0.75 0.0 0
M  V30 6 C 6.4952 -3.0 0.0 0
M  V30 7 C 2.598 -0.75 0.0 0
M  V30 8 C 3.8971 0.0 0.0 0
M  V30 9 S 1.299 0.0 0.0 0
M  V30 10 N 3.8971 1.5 0.0 0
M  V30 11 O 2.049 1.299 0.0 0
M  V30 12 O 0.549 1.299 0.0 0
M  V30 13 N 0.0 -0.75 0.0 0
M  V30 14 C -1.3703 -0.1398 0.0 0 CFG=2
M  V30 15 C -0.1567 -2.2417 0.0 0
M  V30 16 C -1.6821 1.3273 0.0 0
M  V30 17 C -2.374 -1.2546 0.0 0
M  V30 18 C -1.624 -2.5536 0.0 0
M  V30 19 O -0.5674 2.331 0.0 0
M  V30 20 O -3.1087 1.7908 0.0 0
M  V30 END ATOM
M  V30 BEGIN BOND
M  V30 1 1 1 2
M  V30 2 2 2 3
M  V30 3 1 2 4
M  V30 4 1 3 5
M  V30 5 1 3 6
M  V30 6 2 4 7
M  V30 7 2 5 8
M  V30 8 1 7 9
M  V30 9 1 8 10
M  V30 10 2 9 11
M  V30 11 2 9 12
M  V30 12 1 9 13
M  V30 13 1 14 13
M  V30 14 1 13 15
M  V30 15 1 14 16 CFG=1
M  V30 16 1 14 17
M  V30 17 1 15 18
M  V30 18 2 16 19
M  V30 19 1 16 20
M  V30 20 1 7 8
M  V30 21 1 17 18
M  V30 END BOND
M  V30 BEGIN COLLECTION
M  V30 MDLV30/STEABS ATOMS=(1 14)
M  V30 END COLLECTION
M  V30 END CTAB
M  END
>  <Molecule ChEMBL ID>
CHEMBL208442

>  <Smiles>
Cc1cc(N)c(S(=O)(=O)N2CCC[C@H]2C(=O)O)cc1Cl

>  <Standard Value>
5950

$$$$
CHEMBL209167
Actelion Java MolfileCreator 2.0

  0  0  0  0  0  0              0 V3000
M  V30 BEGIN CTAB
M  V30 COUNTS 21 22 0 0 0
M  V30 BEGIN ATOM
M  V30 1 Cl 6.4952 0.0 0.0 0
M  V30 2 C 5.1961 -0.75 0.0 0
M  V30 3 C 3.8971 0.0 0.0 0
M  V30 4 C 5.1961 -2.25 0.0 0
M  V30 5 O 3.8971 1.5 0.0 0
M  V30 6 C 2.598 -0.75 0.0 0
M  V30 7 C 3.8971 -3.0 0.0 0
M  V30 8 S 1.299 0.0 0.0 0
M  V30 9 C 2.598 -2.25 0.0 0
M  V30 10 Cl 3.8971 -4.5 0.0 0
M  V30 11 O 2.049 1.299 0.0 0
M  V30 12 O 0.549 1.299 0.0 0
M  V30 13 N 0.0 -0.75 0.0 0
M  V30 14 C -1.299 0.0 0.0 0 CFG=1
M  V30 15 C 0.0 -2.25 0.0 0
M  V30 16 C -1.299 1.5 0.0 0
M  V30 17 C -2.598 -0.75 0.0 0
M  V30 18 C -1.299 -3.0 0.0 0
M  V30 19 O 0.0 2.25 0.0 0
M  V30 20 O -2.598 2.25 0.0 0
M  V30 21 C -2.598 -2.25 0.0 0
M  V30 END ATOM
M  V30 BEGIN BOND
M  V30 1 1 1 2
M  V30 2 2 2 3
M  V30 3 1 2 4
M  V30 4 1 3 5
M  V30 5 1 3 6
M  V30 6 2 4 7
M  V30 7 1 6 8
M  V30 8 2 6 9
M  V30 9 1 7 10
M  V30 10 2 8 11
M  V30 11 2 8 12
M  V30 12 1 8 13
M  V30 13 1 14 13
M  V30 14 1 13 15
M  V30 15 1 14 16 CFG=3
M  V30 16 1 14 17
M  V30 17 1 15 18
M  V30 18 2 16 19
M  V30 19 1 16 20
M  V30 20 1 17 21
M  V30 21 1 7 9
M  V30 22 1 18 21
M  V30 END BOND
M  V30 BEGIN COLLECTION
M  V30 MDLV30/STEABS ATOMS=(1 14)
M  V30 END COLLECTION
M  V30 END CTAB
M  END
>  <Molecule ChEMBL ID>
CHEMBL209167

>  <Smiles>
O=C(O)[C@H]1CCCCN1S(=O)(=O)c1cc(Cl)cc(Cl)c1O

>  <Standard Value>
7100

$$$$
CHEMBL380182
Actelion Java MolfileCreator 2.0

  0  0  0  0  0  0              0 V3000
M  V30 BEGIN CTAB
M  V30 COUNTS 20 21 0 0 0
M  V30 BEGIN ATOM
M  V30 1 Cl 6.4952 0.0 0.0 0
M  V30 2 C 5.1961 -0.75 0.0 0
M  V30 3 C 3.8971 0.0 0.0 0
M  V30 4 C 5.1961 -2.25 0.0 0
M  V30 5 O 3.8971 1.5 0.0 0
M  V30 6 C 2.598 -0.75 0.0 0
M  V30 7 C 3.8971 -3.0 0.0 0
M  V30 8 S 1.299 0.0 0.0 0
M  V30 9 C 2.598 -2.25 0.0 0
M  V30 10 Cl 3.8971 -4.5 0.0 0
M  V30 11 O 2.049 1.299 0.0 0
M  V30 12 O 0.549 1.299 0.0 0
M  V30 13 N 0.0 -0.75 0.0 0
M  V30 14 C -1.3703 -0.1398 0.0 0 CFG=1
M  V30 15 C -0.1567 -2.2417 0.0 0
M  V30 16 C -1.6821 1.3273 0.0 0
M  V30 17 C -2.374 -1.2546 0.0 0
M  V30 18 C -1.624 -2.5536 0.0 0
M  V30 19 O -0.5674 2.331 0.0 0
M  V30 20 O -3.1087 1.7908 0.0 0
M  V30 END ATOM
M  V30 BEGIN BOND
M  V30 1 1 1 2
M  V30 2 2 2 3
M  V30 3 1 2 4
M  V30 4 1 3 5
M  V30 5 1 3 6
M  V30 6 2 4 7
M  V30 7 1 6 8
M  V30 8 2 6 9
M  V30 9 1 7 10
M  V30 10 2 8 11
M  V30 11 2 8 12
M  V30 12 1 8 13
M  V30 13 1 14 13
M  V30 14 1 13 15
M  V30 15 1 14 16 CFG=3
M  V30 16 1 14 17
M  V30 17 1 15 18
M  V30 18 2 16 19
M  V30 19 1 16 20
M  V30 20 1 7 9
M  V30 21 1 17 18
M  V30 END BOND
M  V30 BEGIN COLLECTION
M  V30 MDLV30/STEABS ATOMS=(1 14)
M  V30 END COLLECTION
M  V30 END CTAB
M  END
>  <Molecule ChEMBL ID>
CHEMBL380182

>  <Smiles>
O=C(O)[C@H]1CCCN1S(=O)(=O)c1cc(Cl)cc(Cl)c1O

>  <Standard Value>
7900

$$$$
CHEMBL206946
Actelion Java MolfileCreator 2.0

  0  0  0  0  0  0              0 V3000
M  V30 BEGIN CTAB
M  V30 COUNTS 19 20 0 0 0
M  V30 BEGIN ATOM
M  V30 1 Cl 3.8971 -4.5 0.0 0
M  V30 2 C 3.8971 -3.0 0.0 0
M  V30 3 C 5.1961 -2.25 0.0 0
M  V30 4 C 2.598 -2.25 0.0 0
M  V30 5 C 5.1961 -0.75 0.0 0
M  V30 6 C 2.598 -0.75 0.0 0
M  V30 7 Cl 6.4952 0.0 0.0 0
M  V30 8 C 3.8971 0.0 0.0 0
M  V30 9 S 1.299 0.0 0.0 0
M  V30 10 O 2.049 1.299 0.0 0
M  V30 11 O 0.549 1.299 0.0 0
M  V30 12 N 0.0 -0.75 0.0 0
M  V30 13 C -1.3703 -0.1398 0.0 0 CFG=2
M  V30 14 C -0.1567 -2.2417 0.0 0
M  V30 15 C -1.6821 1.3273 0.0 0
M  V30 16 C -2.374 -1.2546 0.0 0
M  V30 17 C -1.624 -2.5536 0.0 0
M  V30 18 O -0.5674 2.331 0.0 0
M  V30 19 O -3.1087 1.7908 0.0 0
M  V30 END ATOM
M  V30 BEGIN BOND
M  V30 1 1 1 2
M  V30 2 2 2 3
M  V30 3 1 2 4
M  V30 4 1 3 5
M  V30 5 2 4 6
M  V30 6 1 5 7
M  V30 7 2 5 8
M  V30 8 1 6 9
M  V30 9 2 9 10
M  V30 10 2 9 11
M  V30 11 1 9 12
M  V30 12 1 13 12
M  V30 13 1 12 14
M  V30 14 1 13 15 CFG=1
M  V30 15 1 13 16
M  V30 16 1 14 17
M  V30 17 2 15 18
M  V30 18 1 15 19
M  V30 19 1 6 8
M  V30 20 1 16 17
M  V30 END BOND
M  V30 BEGIN COLLECTION
M  V30 MDLV30/STEABS ATOMS=(1 13)
M  V30 END COLLECTION
M  V30 END CTAB
M  END
>  <Molecule ChEMBL ID>
CHEMBL206946

>  <Smiles>
O=C(O)[C@@H]1CCCN1S(=O)(=O)c1cc(Cl)cc(Cl)c1

>  <Standard Value>
20000

$$$$
CHEMBL379608
Actelion Java MolfileCreator 2.0

  0  0  0  0  0  0              0 V3000
M  V30 BEGIN CTAB
M  V30 COUNTS 21 22 0 0 0
M  V30 BEGIN ATOM
M  V30 1 Cl 1.3334 7.4373 0.0 0
M  V30 2 C 2.4482 6.4336 0.0 0
M  V30 3 C 2.1363 4.9664 0.0 0
M  V30 4 C 3.8748 6.8971 0.0 0
M  V30 5 O 0.7097 4.5028 0.0 0
M  V30 6 C 3.251 3.9627 0.0 0
M  V30 7 C 4.9895 5.8934 0.0 0
M  V30 8 S 2.9391 2.4954 0.0 0
M  V30 9 C 4.6776 4.4262 0.0 0
M  V30 10 Cl 6.4161 6.3569 0.0 0
M  V30 11 O 1.472 2.8073 0.0 0
M  V30 12 O 1.9355 1.3807 0.0 0
M  V30 13 N 4.0539 1.4917 0.0 0
M  V30 14 C 3.8971 0.0 0.0 0 CFG=2
M  V30 15 C 5.5211 1.8036 0.0 0
M  V30 16 C 2.598 -0.75 0.0 0
M  V30 17 C 5.2674 -0.6101 0.0 0
M  V30 18 C 6.2711 0.5046 0.0 0
M  V30 19 O 2.598 -2.25 0.0 0
M  V30 20 O 1.299 0.0 0.0 0
M  V30 21 C 0.0 -0.75 0.0 0
M  V30 END ATOM
M  V30 BEGIN BOND
M  V30 1 1 1 2
M  V30 2 2 2 3
M  V30 3 1 2 4
M  V30 4 1 3 5
M  V30 5 1 3 6
M  V30 6 2 4 7
M  V30 7 1 6 8
M  V30 8 2 6 9
M  V30 9 1 7 10
M  V30 10 2 8 11
M  V30 11 2 8 12
M  V30 12 1 8 13
M  V30 13 1 14 13
M  V30 14 1 13 15
M  V30 15 1 14 16 CFG=1
M  V30 16 1 14 17
M  V30 17 1 15 18
M  V30 18 2 16 19
M  V30 19 1 16 20
M  V30 20 1 20 21
M  V30 21 1 7 9
M  V30 22 1 17 18
M  V30 END BOND
M  V30 BEGIN COLLECTION
M  V30 MDLV30/STEABS ATOMS=(1 14)
M  V30 END COLLECTION
M  V30 END CTAB
M  END
>  <Molecule ChEMBL ID>
CHEMBL379608

>  <Smiles>
COC(=O)[C@@H]1CCCN1S(=O)(=O)c1cc(Cl)cc(Cl)c1O

>  <Standard Value>
20000

$$$$
CHEMBL379117
Actelion Java MolfileCreator 2.0

  0  0  0  0  0  0              0 V3000
M  V30 BEGIN CTAB
M  V30 COUNTS 23 24 0 0 0
M  V30 BEGIN ATOM
M  V30 1 Cl 7.7942 2.25 0.0 0
M  V30 2 C 6.4952 1.5 0.0 0
M  V30 3 C 5.1961 2.25 0.0 0
M  V30 4 C 6.4952 0.0 0.0 0
M  V30 5 C 3.8971 1.5 0.0 0
M  V30 6 C 5.1961 3.75 0.0 0
M  V30 7 C 5.1961 -0.75 0.0 0
M  V30 8 C 3.8971 0.0 0.0 0
M  V30 9 S 5.1961 -2.25 0.0 0
M  V30 10 N 2.598 -0.75 0.0 0
M  V30 11 O 3.6961 -2.2499 0.0 0
M  V30 12 O 4.4461 -3.549 0.0 0
M  V30 13 N 6.4952 -3.0 0.0 0
M  V30 14 C 1.299 0.0 0.0 0
M  V30 15 C 6.6519 -4.4917 0.0 0 CFG=2
M  V30 16 C 7.8655 -2.3898 0.0 0
M  V30 17 O 1.299 1.5 0.0 0
M  V30 18 C 0.0 -0.75 0.0 0
M  V30 19 C 5.5372 -5.4954 0.0 0
M  V30 20 C 8.1192 -4.8036 0.0 0
M  V30 21 C 8.8692 -3.5046 0.0 0
M  V30 22 O 4.1106 -5.0319 0.0 0
M  V30 23 O 5.8491 -6.9627 0.0 0
M  V30 END ATOM
M  V30 BEGIN BOND
M  V30 1 1 1 2
M  V30 2 2 2 3
M  V30 3 1 2 4
M  V30 4 1 3 5
M  V30 5 1 3 6
M  V30 6 2 4 7
M  V30 7 2 5 8
M  V30 8 1 7 9
M  V30 9 1 8 10
M  V30 10 2 9 11
M  V30 11 2 9 12
M  V30 12 1 9 13
M  V30 13 1 10 14
M  V30 14 1 15 13
M  V30 15 1 13 16
M  V30 16 2 14 17
M  V30 17 1 14 18
M  V30 18 1 15 19 CFG=1
M  V30 19 1 15 20
M  V30 20 1 16 21
M  V30 21 2 19 22
M  V30 22 1 19 23
M  V30 23 1 7 8
M  V30 24 1 20 21
M  V30 END BOND
M  V30 BEGIN COLLECTION
M  V30 MDLV30/STEABS ATOMS=(1 15)
M  V30 END COLLECTION
M  V30 END CTAB
M  END
>  <Molecule ChEMBL ID>
CHEMBL379117

>  <Smiles>
CC(=O)Nc1cc(C)c(Cl)cc1S(=O)(=O)N1CCC[C@H]1C(=O)O

>  <Standard Value>
20000

$$$$
CHEMBL208343
Actelion Java MolfileCreator 2.0

  0  0  0  0  0  0              0 V3000
M  V30 BEGIN CTAB
M  V30 COUNTS 18 19 0 0 0
M  V30 BEGIN ATOM
M  V30 1 S 1.299 0.0 0.0 0
M  V30 2 O 2.049 1.299 0.0 0
M  V30 3 O 0.549 1.299 0.0 0
M  V30 4 N 2.598 -0.75 0.0 0
M  V30 5 C 0.0 -0.75 0.0 0
M  V30 6 C 3.9684 -0.1398 0.0 0 CFG=2
M  V30 7 C 2.7548 -2.2417 0.0 0
M  V30 8 C -1.299 0.0 0.0 0
M  V30 9 C 0.0 -2.25 0.0 0
M  V30 10 C 4.2802 1.3273 0.0 0
M  V30 11 C 4.9721 -1.2546 0.0 0
M  V30 12 C 4.2221 -2.5536 0.0 0
M  V30 13 N -1.299 1.5 0.0 0
M  V30 14 C -2.598 -0.75 0.0 0
M  V30 15 C -1.299 -3.0 0.0 0
M  V30 16 O 3.1655 2.331 0.0 0
M  V30 17 O 5.7068 1.7908 0.0 0
M  V30 18 C -2.598 -2.25 0.0 0
M  V30 END ATOM
M  V30 BEGIN BOND
M  V30 1 2 1 2
M  V30 2 2 1 3
M  V30 3 1 1 4
M  V30 4 1 1 5
M  V30 5 1 6 4
M  V30 6 1 4 7
M  V30 7 2 5 8
M  V30 8 1 5 9
M  V30 9 1 6 10 CFG=3
M  V30 10 1 6 11
M  V30 11 1 7 12
M  V30 12 1 8 13
M  V30 13 1 8 14
M  V30 14 2 9 15
M  V30 15 2 10 16
M  V30 16 1 10 17
M  V30 17 2 14 18
M  V30 18 1 11 12
M  V30 19 1 15 18
M  V30 END BOND
M  V30 BEGIN COLLECTION
M  V30 MDLV30/STEABS ATOMS=(1 6)
M  V30 END COLLECTION
M  V30 END CTAB
M  END
>  <Molecule ChEMBL ID>
CHEMBL208343

>  <Smiles>
Nc1ccccc1S(=O)(=O)N1CCC[C@H]1C(=O)O

>  <Standard Value>
20000

$$$$
CHEMBL208084
Actelion Java MolfileCreator 2.0

  0  0  0  0  0  0              0 V3000
M  V30 BEGIN CTAB
M  V30 COUNTS 28 30 0 0 0
M  V30 BEGIN ATOM
M  V30 1 Cl 7.7942 2.25 0.0 0
M  V30 2 C 6.4952 1.5 0.0 0
M  V30 3 C 5.1961 2.25 0.0 0
M  V30 4 C 6.4952 0.0 0.0 0
M  V30 5 C 3.8971 1.5 0.0 0
M  V30 6 C 5.1961 3.75 0.0 0
M  V30 7 C 5.1961 -0.75 0.0 0
M  V30 8 C 3.8971 0.0 0.0 0
M  V30 9 S 5.1961 -2.25 0.0 0
M  V30 10 N 2.598 -0.75 0.0 0
M  V30 11 O 3.6961 -2.2499 0.0 0
M  V30 12 O 4.4461 -3.549 0.0 0
M  V30 13 N 6.4952 -3.0 0.0 0
M  V30 14 C 1.299 0.0 0.0 0
M  V30 15 C 6.6519 -4.4917 0.0 0 CFG=2
M  V30 16 C 7.8655 -2.3898 0.0 0
M  V30 17 O 1.299 1.5 0.0 0
M  V30 18 C 0.0 -0.75 0.0 0
M  V30 19 C 5.5372 -5.4954 0.0 0
M  V30 20 C 8.1192 -4.8036 0.0 0
M  V30 21 C 8.8692 -3.5046 0.0 0
M  V30 22 C -1.299 0.0 0.0 0
M  V30 23 C 0.0 -2.25 0.0 0
M  V30 24 O 4.1106 -5.0319 0.0 0
M  V30 25 O 5.8491 -6.9627 0.0 0
M  V30 26 C -2.598 -0.75 0.0 0
M  V30 27 C -1.299 -3.0 0.0 0
M  V30 28 C -2.598 -2.25 0.0 0
M  V30 END ATOM
M  V30 BEGIN BOND
M  V30 1 1 1 2
M  V30 2 2 2 3
M  V30 3 1 2 4
M  V30 4 1 3 5
M  V30 5 1 3 6
M  V30 6 2 4 7
M  V30 7 2 5 8
M  V30 8 1 7 9
M  V30 9 1 8 10
M  V30 10 2 9 11
M  V30 11 2 9 12
M  V30 12 1 9 13
M  V30 13 1 10 14
M  V30 14 1 15 13
M  V30 15 1 13 16
M  V30 16 2 14 17
M  V30 17 1 14 18
M  V30 18 1 15 19 CFG=1
M  V30 19 1 15 20
M  V30 20 1 16 21
M  V30 21 2 18 22
M  V30 22 1 18 23
M  V30 23 2 19 24
M  V30 24 1 19 25
M  V30 25 1 22 26
M  V30 26 2 23 27
M  V30 27 2 26 28
M  V30 28 1 7 8
M  V30 29 1 20 21
M  V30 30 1 27 28
M  V30 END BOND
M  V30 BEGIN COLLECTION
M  V30 MDLV30/STEABS ATOMS=(1 15)
M  V30 END COLLECTION
M  V30 END CTAB
M  END
>  <Molecule ChEMBL ID>
CHEMBL208084

>  <Smiles>
Cc1cc(NC(=O)c2ccccc2)c(S(=O)(=O)N2CCC[C@H]2C(=O)O)cc1Cl

>  <Standard Value>
20000

$$$$
CHEMBL210593
Actelion Java MolfileCreator 2.0

  0  0  0  0  0  0              0 V3000
M  V30 BEGIN CTAB
M  V30 COUNTS 20 21 0 0 0
M  V30 BEGIN ATOM
M  V30 1 Cl 6.4952 -3.0 0.0 0
M  V30 2 C 5.1961 -2.25 0.0 0
M  V30 3 C 5.1961 -0.75 0.0 0
M  V30 4 C 3.8971 -3.0 0.0 0
M  V30 5 C 3.8971 0.0 0.0 0
M  V30 6 C 6.4952 0.0 0.0 0
M  V30 7 C 2.598 -2.25 0.0 0
M  V30 8 C 2.598 -0.75 0.0 0
M  V30 9 N 1.299 -3.0 0.0 0
M  V30 10 S 1.299 0.0 0.0 0
M  V30 11 O 2.049 1.299 0.0 0
M  V30 12 O 0.549 1.299 0.0 0
M  V30 13 N 0.0 -0.75 0.0 0
M  V30 14 C -1.3703 -0.1398 0.0 0 CFG=2
M  V30 15 C -0.1567 -2.2417 0.0 0
M  V30 16 C -1.6821 1.3273 0.0 0
M  V30 17 C -2.374 -1.2546 0.0 0
M  V30 18 C -1.624 -2.5536 0.0 0
M  V30 19 O -0.5674 2.331 0.0 0
M  V30 20 O -3.1087 1.7908 0.0 0
M  V30 END ATOM
M  V30 BEGIN BOND
M  V30 1 1 1 2
M  V30 2 2 2 3
M  V30 3 1 2 4
M  V30 4 1 3 5
M  V30 5 1 3 6
M  V30 6 2 4 7
M  V30 7 2 5 8
M  V30 8 1 7 9
M  V30 9 1 8 10
M  V30 10 2 10 11
M  V30 11 2 10 12
M  V30 12 1 10 13
M  V30 13 1 14 13
M  V30 14 1 13 15
M  V30 15 1 14 16 CFG=1
M  V30 16 1 14 17
M  V30 17 1 15 18
M  V30 18 2 16 19
M  V30 19 1 16 20
M  V30 20 1 7 8
M  V30 21 1 17 18
M  V30 END BOND
M  V30 BEGIN COLLECTION
M  V30 MDLV30/STEABS ATOMS=(1 14)
M  V30 END COLLECTION
M  V30 END CTAB
M  END
>  <Molecule ChEMBL ID>
CHEMBL210593

>  <Smiles>
Cc1cc(S(=O)(=O)N2CCC[C@H]2C(=O)O)c(N)cc1Cl

>  <Standard Value>
75000

$$$$
CHEMBL210597
Actelion Java MolfileCreator 2.0

  0  0  0  0  0  0              0 V3000
M  V30 BEGIN CTAB
M  V30 COUNTS 21 22 0 0 0
M  V30 BEGIN ATOM
M  V30 1 Cl 3.8971 -4.5 0.0 0
M  V30 2 C 3.8971 -3.0 0.0 0
M  V30 3 C 5.1961 -2.25 0.0 0
M  V30 4 C 2.598 -2.25 0.0 0
M  V30 5 Cl 6.4952 -3.0 0.0 0
M  V30 6 C 5.1961 -0.75 0.0 0
M  V30 7 O 1.299 -3.0 0.0 0
M  V30 8 C 2.598 -0.75 0.0 0
M  V30 9 Cl 6.4952 0.0 0.0 0
M  V30 10 C 3.8971 0.0 0.0 0
M  V30 11 S 1.299 0.0 0.0 0
M  V30 12 O 2.049 1.299 0.0 0
M  V30 13 O 0.549 1.299 0.0 0
M  V30 14 N 0.0 -0.75 0.0 0
M  V30 15 C -1.3703 -0.1398 0.0 0 CFG=2
M  V30 16 C -0.1567 -2.2417 0.0 0
M  V30 17 C -1.6821 1.3273 0.0 0
M  V30 18 C -2.374 -1.2546 0.0 0
M  V30 19 C -1.624 -2.5536 0.0 0
M  V30 20 O -0.5674 2.331 0.0 0
M  V30 21 O -3.1087 1.7908 0.0 0
M  V30 END ATOM
M  V30 BEGIN BOND
M  V30 1 1 1 2
M  V30 2 2 2 3
M  V30 3 1 2 4
M  V30 4 1 3 5
M  V30 5 1 3 6
M  V30 6 1 4 7
M  V30 7 2 4 8
M  V30 8 1 6 9
M  V30 9 2 6 10
M  V30 10 1 8 11
M  V30 11 2 11 12
M  V30 12 2 11 13
M  V30 13 1 11 14
M  V30 14 1 15 14
M  V30 15 1 14 16
M  V30 16 1 15 17 CFG=1
M  V30 17 1 15 18
M  V30 18 1 16 19
M  V30 19 2 17 20
M  V30 20 1 17 21
M  V30 21 1 8 10
M  V30 22 1 18 19
M  V30 END BOND
M  V30 BEGIN COLLECTION
M  V30 MDLV30/STEABS ATOMS=(1 15)
M  V30 END COLLECTION
M  V30 END CTAB
M  END
>  <Molecule ChEMBL ID>
CHEMBL210597

>  <Smiles>
O=C(O)[C@@H]1CCCN1S(=O)(=O)c1cc(Cl)c(Cl)c(Cl)c1O

>  <Standard Value>
100000

$$$$
