CHEMBL366197
Actelion Java MolfileCreator 2.0

  0  0  0  0  0  0              0 V3000
M  V30 BEGIN CTAB
M  V30 COUNTS 29 31 0 0 0
M  V30 BEGIN ATOM
M  V30 1 Br 12.9903 3.75 0.0 0
M  V30 2 C 12.9903 2.2499 0.0 0
M  V30 3 C 11.6913 1.4999 0.0 0
M  V30 4 C 14.2894 1.5 0.0 0
M  V30 5 O 10.3923 2.2499 0.0 0
M  V30 6 C 11.6913 0.0 0.0 0
M  V30 7 C 14.2894 0.0 0.0 0
M  V30 8 C 9.0932 1.4999 0.0 0
M  V30 9 F 10.3923 -0.75 0.0 0
M  V30 10 C 12.9903 -0.75 0.0 0
M  V30 11 C 7.7942 2.2499 0.0 0
M  V30 12 C 9.0932 0.0 0.0 0
M  V30 13 C 6.4951 1.5 0.0 0
M  V30 14 C 7.7942 -0.75 0.0 0
M  V30 15 C 6.4951 0.0 0.0 0
M  V30 16 C 5.1961 -0.75 0.0 0
M  V30 17 C 3.8971 0.0 0.0 0
M  V30 18 N 3.8971 1.4999 0.0 0
M  V30 19 C 2.598 -0.75 0.0 0
M  V30 20 C 2.598 2.2499 0.0 0
M  V30 21 O 2.598 -2.25 0.0 0
M  V30 22 O 1.299 0.0 0.0 0
M  V30 23 O 1.299 1.4999 0.0 0
M  V30 24 C 2.598 3.75 0.0 0
M  V30 25 C 1.299 4.4999 0.0 0
M  V30 26 C 3.8971 4.5 0.0 0
M  V30 27 C 1.299 5.9999 0.0 0
M  V30 28 C 3.8971 6.0 0.0 0
M  V30 29 C 2.598 6.7499 0.0 0
M  V30 END ATOM
M  V30 BEGIN BOND
M  V30 1 1 1 2
M  V30 2 2 2 3
M  V30 3 1 2 4
M  V30 4 1 3 5
M  V30 5 1 3 6
M  V30 6 2 4 7
M  V30 7 1 5 8
M  V30 8 1 6 9
M  V30 9 2 6 10
M  V30 10 2 8 11
M  V30 11 1 8 12
M  V30 12 1 11 13
M  V30 13 2 12 14
M  V30 14 2 13 15
M  V30 15 1 15 16
M  V30 16 2 16 17
M  V30 17 1 17 18
M  V30 18 1 17 19
M  V30 19 1 18 20
M  V30 20 2 19 21
M  V30 21 1 19 22
M  V30 22 2 20 23
M  V30 23 1 20 24
M  V30 24 2 24 25
M  V30 25 1 24 26
M  V30 26 1 25 27
M  V30 27 2 26 28
M  V30 28 2 27 29
M  V30 29 1 7 10
M  V30 30 1 14 15
M  V30 31 1 28 29
M  V30 END BOND
M  V30 END CTAB
M  END
>  <Molecule ChEMBL ID>
CHEMBL366197

>  <Smiles>
O=C(O)/C(=C/c1ccc(Oc2c(F)cccc2Br)cc1)NC(=O)c1ccccc1

>  <IC50>
30

$$$$
CHEMBL370679
Actelion Java MolfileCreator 2.0

  0  0  0  0  0  0              0 V3000
M  V30 BEGIN CTAB
M  V30 COUNTS 28 30 0 0 0
M  V30 BEGIN ATOM
M  V30 1 I 12.9903 3.75 0.0 0
M  V30 2 C 12.9903 2.2499 0.0 0
M  V30 3 C 11.6913 1.4999 0.0 0
M  V30 4 C 14.2894 1.5 0.0 0
M  V30 5 O 10.3923 2.2499 0.0 0
M  V30 6 C 11.6913 0.0 0.0 0
M  V30 7 C 14.2894 0.0 0.0 0
M  V30 8 C 9.0932 1.4999 0.0 0
M  V30 9 C 12.9903 -0.75 0.0 0
M  V30 10 C 7.7942 2.2499 0.0 0
M  V30 11 C 9.0932 0.0 0.0 0
M  V30 12 C 6.4951 1.5 0.0 0
M  V30 13 C 7.7942 -0.75 0.0 0
M  V30 14 C 6.4951 0.0 0.0 0
M  V30 15 C 5.1961 -0.75 0.0 0
M  V30 16 C 3.8971 0.0 0.0 0
M  V30 17 N 3.8971 1.4999 0.0 0
M  V30 18 C 2.598 -0.75 0.0 0
M  V30 19 C 2.598 2.2499 0.0 0
M  V30 20 O 2.598 -2.25 0.0 0
M  V30 21 O 1.299 0.0 0.0 0
M  V30 22 O 1.299 1.4999 0.0 0
M  V30 23 C 2.598 3.75 0.0 0
M  V30 24 C 1.299 4.4999 0.0 0
M  V30 25 C 3.8971 4.5 0.0 0
M  V30 26 C 1.299 5.9999 0.0 0
M  V30 27 C 3.8971 6.0 0.0 0
M  V30 28 C 2.598 6.7499 0.0 0
M  V30 END ATOM
M  V30 BEGIN BOND
M  V30 1 1 1 2
M  V30 2 2 2 3
M  V30 3 1 2 4
M  V30 4 1 3 5
M  V30 5 1 3 6
M  V30 6 2 4 7
M  V30 7 1 5 8
M  V30 8 2 6 9
M  V30 9 2 8 10
M  V30 10 1 8 11
M  V30 11 1 10 12
M  V30 12 2 11 13
M  V30 13 2 12 14
M  V30 14 1 14 15
M  V30 15 2 15 16
M  V30 16 1 16 17
M  V30 17 1 16 18
M  V30 18 1 17 19
M  V30 19 2 18 20
M  V30 20 1 18 21
M  V30 21 2 19 22
M  V30 22 1 19 23
M  V30 23 2 23 24
M  V30 24 1 23 25
M  V30 25 1 24 26
M  V30 26 2 25 27
M  V30 27 2 26 28
M  V30 28 1 7 9
M  V30 29 1 13 14
M  V30 30 1 27 28
M  V30 END BOND
M  V30 END CTAB
M  END
>  <Molecule ChEMBL ID>
CHEMBL370679

>  <Smiles>
O=C(O)/C(=C/c1ccc(Oc2ccccc2I)cc1)NC(=O)c1ccccc1

>  <IC50>
40

$$$$
CHEMBL193427
Actelion Java MolfileCreator 2.0

  0  0  0  0  0  0              0 V3000
M  V30 BEGIN CTAB
M  V30 COUNTS 29 31 0 0 0
M  V30 BEGIN ATOM
M  V30 1 Cl 12.9903 3.75 0.0 0
M  V30 2 C 12.9903 2.2499 0.0 0
M  V30 3 C 11.6913 1.4999 0.0 0
M  V30 4 C 14.2894 1.5 0.0 0
M  V30 5 O 10.3923 2.2499 0.0 0
M  V30 6 C 11.6913 0.0 0.0 0
M  V30 7 C 14.2894 0.0 0.0 0
M  V30 8 C 9.0932 1.4999 0.0 0
M  V30 9 F 10.3923 -0.75 0.0 0
M  V30 10 C 12.9903 -0.75 0.0 0
M  V30 11 C 7.7942 2.2499 0.0 0
M  V30 12 C 9.0932 0.0 0.0 0
M  V30 13 C 6.4951 1.5 0.0 0
M  V30 14 C 7.7942 -0.75 0.0 0
M  V30 15 C 6.4951 0.0 0.0 0
M  V30 16 C 5.1961 -0.75 0.0 0
M  V30 17 C 3.8971 0.0 0.0 0
M  V30 18 N 3.8971 1.4999 0.0 0
M  V30 19 C 2.598 -0.75 0.0 0
M  V30 20 C 2.598 2.2499 0.0 0
M  V30 21 O 2.598 -2.25 0.0 0
M  V30 22 O 1.299 0.0 0.0 0
M  V30 23 O 1.299 1.4999 0.0 0
M  V30 24 C 2.598 3.75 0.0 0
M  V30 25 C 1.299 4.4999 0.0 0
M  V30 26 C 3.8971 4.5 0.0 0
M  V30 27 C 1.299 5.9999 0.0 0
M  V30 28 C 3.8971 6.0 0.0 0
M  V30 29 C 2.598 6.7499 0.0 0
M  V30 END ATOM
M  V30 BEGIN BOND
M  V30 1 1 1 2
M  V30 2 2 2 3
M  V30 3 1 2 4
M  V30 4 1 3 5
M  V30 5 1 3 6
M  V30 6 2 4 7
M  V30 7 1 5 8
M  V30 8 1 6 9
M  V30 9 2 6 10
M  V30 10 2 8 11
M  V30 11 1 8 12
M  V30 12 1 11 13
M  V30 13 2 12 14
M  V30 14 2 13 15
M  V30 15 1 15 16
M  V30 16 2 16 17
M  V30 17 1 17 18
M  V30 18 1 17 19
M  V30 19 1 18 20
M  V30 20 2 19 21
M  V30 21 1 19 22
M  V30 22 2 20 23
M  V30 23 1 20 24
M  V30 24 2 24 25
M  V30 25 1 24 26
M  V30 26 1 25 27
M  V30 27 2 26 28
M  V30 28 2 27 29
M  V30 29 1 7 10
M  V30 30 1 14 15
M  V30 31 1 28 29
M  V30 END BOND
M  V30 END CTAB
M  END
>  <Molecule ChEMBL ID>
CHEMBL193427

>  <Smiles>
O=C(O)/C(=C/c1ccc(Oc2c(F)cccc2Cl)cc1)NC(=O)c1ccccc1

>  <IC50>
70

$$$$
CHEMBL188442
Actelion Java MolfileCreator 2.0

  0  0  0  0  0  0              0 V3000
M  V30 BEGIN CTAB
M  V30 COUNTS 28 30 0 0 0
M  V30 BEGIN ATOM
M  V30 1 Br 12.9903 3.75 0.0 0
M  V30 2 C 12.9903 2.2499 0.0 0
M  V30 3 C 11.6913 1.4999 0.0 0
M  V30 4 C 14.2894 1.5 0.0 0
M  V30 5 O 10.3923 2.2499 0.0 0
M  V30 6 C 11.6913 0.0 0.0 0
M  V30 7 C 14.2894 0.0 0.0 0
M  V30 8 C 9.0932 1.4999 0.0 0
M  V30 9 C 12.9903 -0.75 0.0 0
M  V30 10 C 7.7942 2.2499 0.0 0
M  V30 11 C 9.0932 0.0 0.0 0
M  V30 12 C 6.4951 1.5 0.0 0
M  V30 13 C 7.7942 -0.75 0.0 0
M  V30 14 C 6.4951 0.0 0.0 0
M  V30 15 C 5.1961 -0.75 0.0 0
M  V30 16 C 3.8971 0.0 0.0 0
M  V30 17 N 3.8971 1.4999 0.0 0
M  V30 18 C 2.598 -0.75 0.0 0
M  V30 19 C 2.598 2.2499 0.0 0
M  V30 20 O 2.598 -2.25 0.0 0
M  V30 21 O 1.299 0.0 0.0 0
M  V30 22 O 1.299 1.4999 0.0 0
M  V30 23 C 2.598 3.75 0.0 0
M  V30 24 C 1.299 4.4999 0.0 0
M  V30 25 C 3.8971 4.5 0.0 0
M  V30 26 C 1.299 5.9999 0.0 0
M  V30 27 C 3.8971 6.0 0.0 0
M  V30 28 C 2.598 6.7499 0.0 0
M  V30 END ATOM
M  V30 BEGIN BOND
M  V30 1 1 1 2
M  V30 2 2 2 3
M  V30 3 1 2 4
M  V30 4 1 3 5
M  V30 5 1 3 6
M  V30 6 2 4 7
M  V30 7 1 5 8
M  V30 8 2 6 9
M  V30 9 2 8 10
M  V30 10 1 8 11
M  V30 11 1 10 12
M  V30 12 2 11 13
M  V30 13 2 12 14
M  V30 14 1 14 15
M  V30 15 2 15 16
M  V30 16 1 16 17
M  V30 17 1 16 18
M  V30 18 1 17 19
M  V30 19 2 18 20
M  V30 20 1 18 21
M  V30 21 2 19 22
M  V30 22 1 19 23
M  V30 23 2 23 24
M  V30 24 1 23 25
M  V30 25 1 24 26
M  V30 26 2 25 27
M  V30 27 2 26 28
M  V30 28 1 7 9
M  V30 29 1 13 14
M  V30 30 1 27 28
M  V30 END BOND
M  V30 END CTAB
M  END
>  <Molecule ChEMBL ID>
CHEMBL188442

>  <Smiles>
O=C(O)/C(=C/c1ccc(Oc2ccccc2Br)cc1)NC(=O)c1ccccc1

>  <IC50>
100

$$$$
CHEMBL195476
Actelion Java MolfileCreator 2.0

  0  0  0  0  0  0              0 V3000
M  V30 BEGIN CTAB
M  V30 COUNTS 28 30 0 0 0
M  V30 BEGIN ATOM
M  V30 1 Cl 12.9903 3.75 0.0 0
M  V30 2 C 12.9903 2.2499 0.0 0
M  V30 3 C 11.6913 1.4999 0.0 0
M  V30 4 C 14.2894 1.5 0.0 0
M  V30 5 O 10.3923 2.2499 0.0 0
M  V30 6 C 11.6913 0.0 0.0 0
M  V30 7 C 14.2894 0.0 0.0 0
M  V30 8 C 9.0932 1.4999 0.0 0
M  V30 9 C 12.9903 -0.75 0.0 0
M  V30 10 C 7.7942 2.2499 0.0 0
M  V30 11 C 9.0932 0.0 0.0 0
M  V30 12 C 6.4951 1.5 0.0 0
M  V30 13 C 7.7942 -0.75 0.0 0
M  V30 14 C 6.4951 0.0 0.0 0
M  V30 15 C 5.1961 -0.75 0.0 0
M  V30 16 C 3.8971 0.0 0.0 0
M  V30 17 N 3.8971 1.4999 0.0 0
M  V30 18 C 2.598 -0.75 0.0 0
M  V30 19 C 2.598 2.2499 0.0 0
M  V30 20 O 2.598 -2.25 0.0 0
M  V30 21 O 1.299 0.0 0.0 0
M  V30 22 O 1.299 1.4999 0.0 0
M  V30 23 C 2.598 3.75 0.0 0
M  V30 24 C 1.299 4.4999 0.0 0
M  V30 25 C 3.8971 4.5 0.0 0
M  V30 26 C 1.299 5.9999 0.0 0
M  V30 27 C 3.8971 6.0 0.0 0
M  V30 28 C 2.598 6.7499 0.0 0
M  V30 END ATOM
M  V30 BEGIN BOND
M  V30 1 1 1 2
M  V30 2 2 2 3
M  V30 3 1 2 4
M  V30 4 1 3 5
M  V30 5 1 3 6
M  V30 6 2 4 7
M  V30 7 1 5 8
M  V30 8 2 6 9
M  V30 9 2 8 10
M  V30 10 1 8 11
M  V30 11 1 10 12
M  V30 12 2 11 13
M  V30 13 2 12 14
M  V30 14 1 14 15
M  V30 15 2 15 16
M  V30 16 1 16 17
M  V30 17 1 16 18
M  V30 18 1 17 19
M  V30 19 2 18 20
M  V30 20 1 18 21
M  V30 21 2 19 22
M  V30 22 1 19 23
M  V30 23 2 23 24
M  V30 24 1 23 25
M  V30 25 1 24 26
M  V30 26 2 25 27
M  V30 27 2 26 28
M  V30 28 1 7 9
M  V30 29 1 13 14
M  V30 30 1 27 28
M  V30 END BOND
M  V30 END CTAB
M  END
>  <Molecule ChEMBL ID>
CHEMBL195476

>  <Smiles>
O=C(O)/C(=C/c1ccc(Oc2ccccc2Cl)cc1)NC(=O)c1ccccc1

>  <IC50>
200

$$$$
CHEMBL194438
Actelion Java MolfileCreator 2.0

  0  0  0  0  0  0              0 V3000
M  V30 BEGIN CTAB
M  V30 COUNTS 29 31 0 0 0
M  V30 BEGIN ATOM
M  V30 1 Cl 12.9903 3.75 0.0 0
M  V30 2 C 12.9903 2.2499 0.0 0
M  V30 3 C 11.6913 1.4999 0.0 0
M  V30 4 C 14.2894 1.5 0.0 0
M  V30 5 O 10.3923 2.2499 0.0 0
M  V30 6 C 11.6913 0.0 0.0 0
M  V30 7 C 14.2894 0.0 0.0 0
M  V30 8 C 9.0932 1.4999 0.0 0
M  V30 9 C 12.9903 -0.75 0.0 0
M  V30 10 C 10.3923 -0.75 0.0 0
M  V30 11 C 7.7942 2.2499 0.0 0
M  V30 12 C 9.0932 0.0 0.0 0
M  V30 13 C 6.4951 1.5 0.0 0
M  V30 14 C 7.7942 -0.75 0.0 0
M  V30 15 C 6.4951 0.0 0.0 0
M  V30 16 C 5.1961 -0.75 0.0 0
M  V30 17 C 3.8971 0.0 0.0 0
M  V30 18 N 3.8971 1.4999 0.0 0
M  V30 19 C 2.598 -0.75 0.0 0
M  V30 20 C 2.598 2.2499 0.0 0
M  V30 21 O 2.598 -2.25 0.0 0
M  V30 22 O 1.299 0.0 0.0 0
M  V30 23 O 1.299 1.4999 0.0 0
M  V30 24 C 2.598 3.75 0.0 0
M  V30 25 C 1.299 4.4999 0.0 0
M  V30 26 C 3.8971 4.5 0.0 0
M  V30 27 C 1.299 5.9999 0.0 0
M  V30 28 C 3.8971 6.0 0.0 0
M  V30 29 C 2.598 6.7499 0.0 0
M  V30 END ATOM
M  V30 BEGIN BOND
M  V30 1 1 1 2
M  V30 2 2 2 3
M  V30 3 1 2 4
M  V30 4 1 3 5
M  V30 5 1 3 6
M  V30 6 2 4 7
M  V30 7 1 5 8
M  V30 8 2 6 9
M  V30 9 1 6 10
M  V30 10 2 8 11
M  V30 11 1 8 12
M  V30 12 1 11 13
M  V30 13 2 12 14
M  V30 14 2 13 15
M  V30 15 1 15 16
M  V30 16 2 16 17
M  V30 17 1 17 18
M  V30 18 1 17 19
M  V30 19 1 18 20
M  V30 20 2 19 21
M  V30 21 1 19 22
M  V30 22 2 20 23
M  V30 23 1 20 24
M  V30 24 2 24 25
M  V30 25 1 24 26
M  V30 26 1 25 27
M  V30 27 2 26 28
M  V30 28 2 27 29
M  V30 29 1 7 9
M  V30 30 1 14 15
M  V30 31 1 28 29
M  V30 END BOND
M  V30 END CTAB
M  END
>  <Molecule ChEMBL ID>
CHEMBL194438

>  <Smiles>
Cc1cccc(Cl)c1Oc1ccc(/C=C(\NC(=O)c2ccccc2)C(=O)O)cc1

>  <IC50>
200

$$$$
CHEMBL371573
Actelion Java MolfileCreator 2.0

  0  0  0  0  0  0              0 V3000
M  V30 BEGIN CTAB
M  V30 COUNTS 29 31 0 0 0
M  V30 BEGIN ATOM
M  V30 1 Cl 12.9903 3.75 0.0 0
M  V30 2 C 12.9903 2.2499 0.0 0
M  V30 3 C 11.6913 1.4999 0.0 0
M  V30 4 C 14.2894 1.5 0.0 0
M  V30 5 O 10.3923 2.2499 0.0 0
M  V30 6 C 11.6913 0.0 0.0 0
M  V30 7 C 14.2894 0.0 0.0 0
M  V30 8 C 9.0932 1.4999 0.0 0
M  V30 9 N 10.3923 -0.75 0.0 0
M  V30 10 C 12.9903 -0.75 0.0 0
M  V30 11 C 7.7942 2.2499 0.0 0
M  V30 12 C 9.0932 0.0 0.0 0
M  V30 13 C 6.4951 1.5 0.0 0
M  V30 14 C 7.7942 -0.75 0.0 0
M  V30 15 C 6.4951 0.0 0.0 0
M  V30 16 C 5.1961 -0.75 0.0 0
M  V30 17 C 3.8971 0.0 0.0 0
M  V30 18 N 3.8971 1.4999 0.0 0
M  V30 19 C 2.598 -0.75 0.0 0
M  V30 20 C 2.598 2.2499 0.0 0
M  V30 21 O 2.598 -2.25 0.0 0
M  V30 22 O 1.299 0.0 0.0 0
M  V30 23 O 1.299 1.4999 0.0 0
M  V30 24 C 2.598 3.75 0.0 0
M  V30 25 C 1.299 4.4999 0.0 0
M  V30 26 C 3.8971 4.5 0.0 0
M  V30 27 C 1.299 5.9999 0.0 0
M  V30 28 C 3.8971 6.0 0.0 0
M  V30 29 C 2.598 6.7499 0.0 0
M  V30 END ATOM
M  V30 BEGIN BOND
M  V30 1 1 1 2
M  V30 2 2 2 3
M  V30 3 1 2 4
M  V30 4 1 3 5
M  V30 5 1 3 6
M  V30 6 2 4 7
M  V30 7 1 5 8
M  V30 8 1 6 9
M  V30 9 2 6 10
M  V30 10 2 8 11
M  V30 11 1 8 12
M  V30 12 1 11 13
M  V30 13 2 12 14
M  V30 14 2 13 15
M  V30 15 1 15 16
M  V30 16 2 16 17
M  V30 17 1 17 18
M  V30 18 1 17 19
M  V30 19 1 18 20
M  V30 20 2 19 21
M  V30 21 1 19 22
M  V30 22 2 20 23
M  V30 23 1 20 24
M  V30 24 2 24 25
M  V30 25 1 24 26
M  V30 26 1 25 27
M  V30 27 2 26 28
M  V30 28 2 27 29
M  V30 29 1 7 10
M  V30 30 1 14 15
M  V30 31 1 28 29
M  V30 END BOND
M  V30 END CTAB
M  END
>  <Molecule ChEMBL ID>
CHEMBL371573

>  <Smiles>
Nc1cccc(Cl)c1Oc1ccc(/C=C(\NC(=O)c2ccccc2)C(=O)O)cc1

>  <IC50>
310

$$$$
CHEMBL373305
Actelion Java MolfileCreator 2.0

  0  0  0  0  0  0              0 V3000
M  V30 BEGIN CTAB
M  V30 COUNTS 28 30 0 0 0
M  V30 BEGIN ATOM
M  V30 1 O 5.1961 -2.2499 0.0 0
M  V30 2 C 3.8971 -2.9999 0.0 0
M  V30 3 N 2.598 -2.2499 0.0 0
M  V30 4 C 3.8971 -4.5 0.0 0
M  V30 5 C 2.598 -0.75 0.0 0
M  V30 6 C 2.598 -5.2499 0.0 0
M  V30 7 C 5.1961 -5.25 0.0 0
M  V30 8 C 3.8971 0.0 0.0 0
M  V30 9 C 1.299 0.0 0.0 0
M  V30 10 C 2.598 -6.7499 0.0 0
M  V30 11 C 5.1961 -6.75 0.0 0
M  V30 12 O 3.8971 1.4999 0.0 0
M  V30 13 O 5.1961 -0.7499 0.0 0
M  V30 14 C 0.0 -0.75 0.0 0
M  V30 15 C 3.8971 -7.4999 0.0 0
M  V30 16 C -1.299 0.0 0.0 0
M  V30 17 C 0.0 -2.2499 0.0 0
M  V30 18 C -2.598 -0.7499 0.0 0
M  V30 19 C -1.299 -2.9999 0.0 0
M  V30 20 C -2.598 -2.2499 0.0 0
M  V30 21 O -3.8971 -2.9999 0.0 0
M  V30 22 C -3.8971 -4.4999 0.0 0
M  V30 23 C -5.1961 -5.2499 0.0 0
M  V30 24 C -2.598 -5.2499 0.0 0
M  V30 25 C -5.1961 -6.7499 0.0 0
M  V30 26 C -6.4951 -4.4999 0.0 0
M  V30 27 C -2.598 -6.7499 0.0 0
M  V30 28 C -3.8971 -7.4999 0.0 0
M  V30 END ATOM
M  V30 BEGIN BOND
M  V30 1 2 1 2
M  V30 2 1 2 3
M  V30 3 1 2 4
M  V30 4 1 3 5
M  V30 5 2 4 6
M  V30 6 1 4 7
M  V30 7 1 5 8
M  V30 8 2 5 9
M  V30 9 1 6 10
M  V30 10 2 7 11
M  V30 11 2 8 12
M  V30 12 1 8 13
M  V30 13 1 9 14
M  V30 14 2 10 15
M  V30 15 2 14 16
M  V30 16 1 14 17
M  V30 17 1 16 18
M  V30 18 2 17 19
M  V30 19 2 18 20
M  V30 20 1 20 21
M  V30 21 1 21 22
M  V30 22 2 22 23
M  V30 23 1 22 24
M  V30 24 1 23 25
M  V30 25 1 23 26
M  V30 26 2 24 27
M  V30 27 2 25 28
M  V30 28 1 11 15
M  V30 29 1 19 20
M  V30 30 1 27 28
M  V30 END BOND
M  V30 END CTAB
M  END
>  <Molecule ChEMBL ID>
CHEMBL373305

>  <Smiles>
Cc1ccccc1Oc1ccc(/C=C(\NC(=O)c2ccccc2)C(=O)O)cc1

>  <IC50>
580

$$$$
CHEMBL363563
Actelion Java MolfileCreator 2.0

  0  0  0  0  0  0              0 V3000
M  V30 BEGIN CTAB
M  V30 COUNTS 26 28 0 0 0
M  V30 BEGIN ATOM
M  V30 1 Cl 1.4625 -4.2446 0.0 0
M  V30 2 C 2.0726 -5.6149 0.0 0
M  V30 3 C 3.5644 -5.7717 0.0 0
M  V30 4 C 1.191 -6.8285 0.0 0
M  V30 5 C 4.4461 -4.5582 0.0 0
M  V30 6 C 4.1745 -7.1421 0.0 0
M  V30 7 C 1.8011 -8.1988 0.0 0
M  V30 8 S 3.9826 -3.1316 0.0 0
M  V30 9 C 5.9461 -4.5582 0.0 0
M  V30 10 C 3.2929 -8.3556 0.0 0
M  V30 11 C 5.1961 -2.25 0.0 0
M  V30 12 C 6.4096 -3.1316 0.0 0
M  V30 13 C 5.1961 -0.75 0.0 0
M  V30 14 C 3.8971 0.0 0.0 0
M  V30 15 N 2.598 -0.75 0.0 0
M  V30 16 C 3.8971 1.5 0.0 0
M  V30 17 C 1.299 0.0 0.0 0
M  V30 18 O 5.1961 2.25 0.0 0
M  V30 19 O 2.598 2.25 0.0 0
M  V30 20 O 1.299 1.5 0.0 0
M  V30 21 C 0.0 -0.75 0.0 0
M  V30 22 C -1.299 0.0 0.0 0
M  V30 23 C 0.0 -2.2499 0.0 0
M  V30 24 C -2.598 -0.7499 0.0 0
M  V30 25 C -1.299 -2.9999 0.0 0
M  V30 26 C -2.598 -2.2499 0.0 0
M  V30 END ATOM
M  V30 BEGIN BOND
M  V30 1 1 1 2
M  V30 2 2 2 3
M  V30 3 1 2 4
M  V30 4 1 3 5
M  V30 5 1 3 6
M  V30 6 2 4 7
M  V30 7 1 5 8
M  V30 8 2 5 9
M  V30 9 2 6 10
M  V30 10 1 8 11
M  V30 11 1 9 12
M  V30 12 1 11 13
M  V30 13 2 13 14
M  V30 14 1 14 15
M  V30 15 1 14 16
M  V30 16 1 15 17
M  V30 17 2 16 18
M  V30 18 1 16 19
M  V30 19 2 17 20
M  V30 20 1 17 21
M  V30 21 2 21 22
M  V30 22 1 21 23
M  V30 23 1 22 24
M  V30 24 2 23 25
M  V30 25 2 24 26
M  V30 26 1 7 10
M  V30 27 2 11 12
M  V30 28 1 25 26
M  V30 END BOND
M  V30 END CTAB
M  END
>  <Molecule ChEMBL ID>
CHEMBL363563

>  <Smiles>
O=C(O)/C(=C/c1ccc(-c2ccccc2Cl)s1)NC(=O)c1ccccc1

>  <IC50>
660

$$$$
CHEMBL371410
Actelion Java MolfileCreator 2.0

  0  0  0  0  0  0              0 V3000
M  V30 BEGIN CTAB
M  V30 COUNTS 31 33 0 0 0
M  V30 BEGIN ATOM
M  V30 1 F 11.4903 3.75 0.0 0
M  V30 2 C 12.9903 3.75 0.0 0
M  V30 3 F 12.9903 5.25 0.0 0
M  V30 4 F 14.4903 3.75 0.0 0
M  V30 5 C 12.9903 2.2499 0.0 0
M  V30 6 C 11.6913 1.4999 0.0 0
M  V30 7 C 14.2894 1.5 0.0 0
M  V30 8 O 10.3923 2.2499 0.0 0
M  V30 9 C 11.6913 0.0 0.0 0
M  V30 10 C 14.2894 0.0 0.0 0
M  V30 11 C 9.0932 1.4999 0.0 0
M  V30 12 C 12.9903 -0.75 0.0 0
M  V30 13 C 7.7942 2.25 0.0 0
M  V30 14 C 9.0932 0.0 0.0 0
M  V30 15 C 6.4951 1.5 0.0 0
M  V30 16 C 7.7942 -0.75 0.0 0
M  V30 17 C 6.4951 0.0 0.0 0
M  V30 18 C 5.1961 -0.75 0.0 0
M  V30 19 C 3.8971 0.0 0.0 0
M  V30 20 N 3.8971 1.5 0.0 0
M  V30 21 C 2.598 -0.75 0.0 0
M  V30 22 C 2.598 2.25 0.0 0
M  V30 23 O 2.598 -2.25 0.0 0
M  V30 24 O 1.299 0.0 0.0 0
M  V30 25 O 1.299 1.4999 0.0 0
M  V30 26 C 2.598 3.75 0.0 0
M  V30 27 C 1.299 4.4999 0.0 0
M  V30 28 C 3.8971 4.5 0.0 0
M  V30 29 C 1.299 6.0 0.0 0
M  V30 30 C 3.8971 6.0 0.0 0
M  V30 31 C 2.598 6.7499 0.0 0
M  V30 END ATOM
M  V30 BEGIN BOND
M  V30 1 1 1 2
M  V30 2 1 2 3
M  V30 3 1 2 4
M  V30 4 1 2 5
M  V30 5 2 5 6
M  V30 6 1 5 7
M  V30 7 1 6 8
M  V30 8 1 6 9
M  V30 9 2 7 10
M  V30 10 1 8 11
M  V30 11 2 9 12
M  V30 12 2 11 13
M  V30 13 1 11 14
M  V30 14 1 13 15
M  V30 15 2 14 16
M  V30 16 2 15 17
M  V30 17 1 17 18
M  V30 18 2 18 19
M  V30 19 1 19 20
M  V30 20 1 19 21
M  V30 21 1 20 22
M  V30 22 2 21 23
M  V30 23 1 21 24
M  V30 24 2 22 25
M  V30 25 1 22 26
M  V30 26 2 26 27
M  V30 27 1 26 28
M  V30 28 1 27 29
M  V30 29 2 28 30
M  V30 30 2 29 31
M  V30 31 1 10 12
M  V30 32 1 16 17
M  V30 33 1 30 31
M  V30 END BOND
M  V30 END CTAB
M  END
>  <Molecule ChEMBL ID>
CHEMBL371410

>  <Smiles>
O=C(O)/C(=C/c1ccc(Oc2ccccc2C(F)(F)F)cc1)NC(=O)c1ccccc1

>  <IC50>
1300

$$$$
CHEMBL372060
Actelion Java MolfileCreator 2.0

  0  0  0  0  0  0              0 V3000
M  V30 BEGIN CTAB
M  V30 COUNTS 26 28 0 0 0
M  V30 BEGIN ATOM
M  V30 1 Cl 1.4625 -4.2446 0.0 0
M  V30 2 C 2.0726 -5.6149 0.0 0
M  V30 3 C 3.5644 -5.7717 0.0 0
M  V30 4 C 1.191 -6.8285 0.0 0
M  V30 5 C 4.4461 -4.5582 0.0 0
M  V30 6 C 4.1745 -7.1421 0.0 0
M  V30 7 C 1.8011 -8.1988 0.0 0
M  V30 8 O 3.9826 -3.1316 0.0 0
M  V30 9 C 5.9461 -4.5582 0.0 0
M  V30 10 C 3.2929 -8.3556 0.0 0
M  V30 11 C 5.1961 -2.25 0.0 0
M  V30 12 C 6.4096 -3.1316 0.0 0
M  V30 13 C 5.1961 -0.75 0.0 0
M  V30 14 C 3.8971 0.0 0.0 0
M  V30 15 N 2.598 -0.75 0.0 0
M  V30 16 C 3.8971 1.5 0.0 0
M  V30 17 C 1.299 0.0 0.0 0
M  V30 18 O 5.1961 2.25 0.0 0
M  V30 19 O 2.598 2.25 0.0 0
M  V30 20 O 1.299 1.5 0.0 0
M  V30 21 C 0.0 -0.75 0.0 0
M  V30 22 C -1.299 0.0 0.0 0
M  V30 23 C 0.0 -2.2499 0.0 0
M  V30 24 C -2.598 -0.7499 0.0 0
M  V30 25 C -1.299 -2.9999 0.0 0
M  V30 26 C -2.598 -2.2499 0.0 0
M  V30 END ATOM
M  V30 BEGIN BOND
M  V30 1 1 1 2
M  V30 2 2 2 3
M  V30 3 1 2 4
M  V30 4 1 3 5
M  V30 5 1 3 6
M  V30 6 2 4 7
M  V30 7 1 5 8
M  V30 8 2 5 9
M  V30 9 2 6 10
M  V30 10 1 8 11
M  V30 11 1 9 12
M  V30 12 1 11 13
M  V30 13 2 13 14
M  V30 14 1 14 15
M  V30 15 1 14 16
M  V30 16 1 15 17
M  V30 17 2 16 18
M  V30 18 1 16 19
M  V30 19 2 17 20
M  V30 20 1 17 21
M  V30 21 2 21 22
M  V30 22 1 21 23
M  V30 23 1 22 24
M  V30 24 2 23 25
M  V30 25 2 24 26
M  V30 26 1 7 10
M  V30 27 2 11 12
M  V30 28 1 25 26
M  V30 END BOND
M  V30 END CTAB
M  END
>  <Molecule ChEMBL ID>
CHEMBL372060

>  <Smiles>
O=C(O)/C(=C/c1ccc(-c2ccccc2Cl)o1)NC(=O)c1ccccc1

>  <IC50>
1300

$$$$
CHEMBL195798
Actelion Java MolfileCreator 2.0

  0  0  0  0  0  0              0 V3000
M  V30 BEGIN CTAB
M  V30 COUNTS 27 29 0 0 0
M  V30 BEGIN ATOM
M  V30 1 Cl 5.1961 3.7499 0.0 0
M  V30 2 C 6.4951 4.5 0.0 0
M  V30 3 C 7.7942 3.75 0.0 0
M  V30 4 C 6.4951 5.9999 0.0 0
M  V30 5 C 7.7942 2.25 0.0 0
M  V30 6 C 9.0932 4.5 0.0 0
M  V30 7 C 7.7942 6.75 0.0 0
M  V30 8 C 6.4951 1.5 0.0 0
M  V30 9 C 9.0932 1.4999 0.0 0
M  V30 10 C 9.0932 6.0 0.0 0
M  V30 11 C 6.4951 0.0 0.0 0
M  V30 12 C 9.0932 0.0 0.0 0
M  V30 13 C 7.7942 -0.75 0.0 0
M  V30 14 C 5.1961 -0.75 0.0 0
M  V30 15 C 3.8971 0.0 0.0 0
M  V30 16 N 3.8971 1.4999 0.0 0
M  V30 17 C 2.598 -0.75 0.0 0
M  V30 18 C 2.598 2.2499 0.0 0
M  V30 19 O 2.598 -2.25 0.0 0
M  V30 20 O 1.299 0.0 0.0 0
M  V30 21 O 1.299 1.4999 0.0 0
M  V30 22 C 2.598 3.75 0.0 0
M  V30 23 C 1.299 4.4999 0.0 0
M  V30 24 C 3.8971 4.5 0.0 0
M  V30 25 C 1.299 5.9999 0.0 0
M  V30 26 C 3.8971 6.0 0.0 0
M  V30 27 C 2.598 6.7499 0.0 0
M  V30 END ATOM
M  V30 BEGIN BOND
M  V30 1 1 1 2
M  V30 2 2 2 3
M  V30 3 1 2 4
M  V30 4 1 3 5
M  V30 5 1 3 6
M  V30 6 2 4 7
M  V30 7 2 5 8
M  V30 8 1 5 9
M  V30 9 2 6 10
M  V30 10 1 8 11
M  V30 11 2 9 12
M  V30 12 2 11 13
M  V30 13 1 11 14
M  V30 14 2 14 15
M  V30 15 1 15 16
M  V30 16 1 15 17
M  V30 17 1 16 18
M  V30 18 2 17 19
M  V30 19 1 17 20
M  V30 20 2 18 21
M  V30 21 1 18 22
M  V30 22 2 22 23
M  V30 23 1 22 24
M  V30 24 1 23 25
M  V30 25 2 24 26
M  V30 26 2 25 27
M  V30 27 1 7 10
M  V30 28 1 12 13
M  V30 29 1 26 27
M  V30 END BOND
M  V30 END CTAB
M  END
>  <Molecule ChEMBL ID>
CHEMBL195798

>  <Smiles>
O=C(O)/C(=C/c1cccc(-c2ccccc2Cl)c1)NC(=O)c1ccccc1

>  <IC50>
1300

$$$$
CHEMBL373120
Actelion Java MolfileCreator 2.0

  0  0  0  0  0  0              0 V3000
M  V30 BEGIN CTAB
M  V30 COUNTS 26 28 0 0 0
M  V30 BEGIN ATOM
M  V30 1 S 6.4096 -3.1316 0.0 0
M  V30 2 C 5.9461 -4.5582 0.0 0
M  V30 3 C 5.1961 -2.25 0.0 0
M  V30 4 C 6.8278 -5.7717 0.0 0
M  V30 5 C 4.4461 -4.5582 0.0 0
M  V30 6 C 3.9826 -3.1316 0.0 0
M  V30 7 C 5.1961 -0.75 0.0 0
M  V30 8 C 8.3196 -5.6149 0.0 0
M  V30 9 C 6.2177 -7.1421 0.0 0
M  V30 10 C 3.8971 0.0 0.0 0
M  V30 11 C 9.2012 -6.8285 0.0 0
M  V30 12 C 8.9297 -4.2446 0.0 0
M  V30 13 C 7.0994 -8.3556 0.0 0
M  V30 14 N 2.598 -0.75 0.0 0
M  V30 15 C 3.8971 1.5 0.0 0
M  V30 16 C 8.5911 -8.1988 0.0 0
M  V30 17 C 1.299 0.0 0.0 0
M  V30 18 O 5.1961 2.25 0.0 0
M  V30 19 O 2.598 2.25 0.0 0
M  V30 20 O 1.299 1.5 0.0 0
M  V30 21 C 0.0 -0.75 0.0 0
M  V30 22 C -1.299 0.0 0.0 0
M  V30 23 C 0.0 -2.2499 0.0 0
M  V30 24 C -2.598 -0.7499 0.0 0
M  V30 25 C -1.299 -2.9999 0.0 0
M  V30 26 C -2.598 -2.2499 0.0 0
M  V30 END ATOM
M  V30 BEGIN BOND
M  V30 1 1 1 2
M  V30 2 1 1 3
M  V30 3 1 2 4
M  V30 4 2 2 5
M  V30 5 2 3 6
M  V30 6 1 3 7
M  V30 7 2 4 8
M  V30 8 1 4 9
M  V30 9 2 7 10
M  V30 10 1 8 11
M  V30 11 1 8 12
M  V30 12 2 9 13
M  V30 13 1 10 14
M  V30 14 1 10 15
M  V30 15 2 11 16
M  V30 16 1 14 17
M  V30 17 2 15 18
M  V30 18 1 15 19
M  V30 19 2 17 20
M  V30 20 1 17 21
M  V30 21 2 21 22
M  V30 22 1 21 23
M  V30 23 1 22 24
M  V30 24 2 23 25
M  V30 25 2 24 26
M  V30 26 1 5 6
M  V30 27 1 13 16
M  V30 28 1 25 26
M  V30 END BOND
M  V30 END CTAB
M  END
>  <Molecule ChEMBL ID>
CHEMBL373120

>  <Smiles>
Cc1ccccc1-c1ccc(/C=C(\NC(=O)c2ccccc2)C(=O)O)s1

>  <IC50>
1400

$$$$
CHEMBL194178
Actelion Java MolfileCreator 2.0

  0  0  0  0  0  0              0 V3000
M  V30 BEGIN CTAB
M  V30 COUNTS 25 27 0 0 0
M  V30 BEGIN ATOM
M  V30 1 S 6.4096 -3.1316 0.0 0
M  V30 2 C 5.9461 -4.5582 0.0 0
M  V30 3 C 5.1961 -2.25 0.0 0
M  V30 4 C 6.8278 -5.7717 0.0 0
M  V30 5 C 4.4461 -4.5582 0.0 0
M  V30 6 C 3.9826 -3.1316 0.0 0
M  V30 7 C 5.1961 -0.75 0.0 0
M  V30 8 C 8.3196 -5.6149 0.0 0
M  V30 9 C 6.2177 -7.1421 0.0 0
M  V30 10 C 3.8971 0.0 0.0 0
M  V30 11 C 9.2012 -6.8285 0.0 0
M  V30 12 C 7.0994 -8.3556 0.0 0
M  V30 13 N 2.598 -0.75 0.0 0
M  V30 14 C 3.8971 1.5 0.0 0
M  V30 15 C 8.5911 -8.1988 0.0 0
M  V30 16 C 1.299 0.0 0.0 0
M  V30 17 O 5.1961 2.25 0.0 0
M  V30 18 O 2.598 2.25 0.0 0
M  V30 19 O 1.299 1.5 0.0 0
M  V30 20 C 0.0 -0.75 0.0 0
M  V30 21 C -1.299 0.0 0.0 0
M  V30 22 C 0.0 -2.2499 0.0 0
M  V30 23 C -2.598 -0.7499 0.0 0
M  V30 24 C -1.299 -2.9999 0.0 0
M  V30 25 C -2.598 -2.2499 0.0 0
M  V30 END ATOM
M  V30 BEGIN BOND
M  V30 1 1 1 2
M  V30 2 1 1 3
M  V30 3 1 2 4
M  V30 4 2 2 5
M  V30 5 2 3 6
M  V30 6 1 3 7
M  V30 7 2 4 8
M  V30 8 1 4 9
M  V30 9 2 7 10
M  V30 10 1 8 11
M  V30 11 2 9 12
M  V30 12 1 10 13
M  V30 13 1 10 14
M  V30 14 2 11 15
M  V30 15 1 13 16
M  V30 16 2 14 17
M  V30 17 1 14 18
M  V30 18 2 16 19
M  V30 19 1 16 20
M  V30 20 2 20 21
M  V30 21 1 20 22
M  V30 22 1 21 23
M  V30 23 2 22 24
M  V30 24 2 23 25
M  V30 25 1 5 6
M  V30 26 1 12 15
M  V30 27 1 24 25
M  V30 END BOND
M  V30 END CTAB
M  END
>  <Molecule ChEMBL ID>
CHEMBL194178

>  <Smiles>
O=C(O)/C(=C/c1ccc(-c2ccccc2)s1)NC(=O)c1ccccc1

>  <IC50>
1500

$$$$
CHEMBL194380
Actelion Java MolfileCreator 2.0

  0  0  0  0  0  0              0 V3000
M  V30 BEGIN CTAB
M  V30 COUNTS 29 31 0 0 0
M  V30 BEGIN ATOM
M  V30 1 S 8.6602 2.5 0.0 0
M  V30 2 C 8.6602 1.4999 0.0 0
M  V30 3 C 7.7942 2.9999 0.0 0
M  V30 4 C 7.7942 0.9999 0.0 0
M  V30 5 C 9.5262 0.9999 0.0 0
M  V30 6 O 6.9282 1.4999 0.0 0
M  V30 7 C 7.7942 0.0 0.0 0
M  V30 8 C 9.5262 0.0 0.0 0
M  V30 9 C 6.0621 0.9999 0.0 0
M  V30 10 C 8.6602 -0.4999 0.0 0
M  V30 11 C 5.1961 1.4999 0.0 0
M  V30 12 C 6.0621 0.0 0.0 0
M  V30 13 C 4.3301 0.9999 0.0 0
M  V30 14 C 5.1961 -0.5 0.0 0
M  V30 15 C 4.3301 0.0 0.0 0
M  V30 16 C 3.4641 -0.5 0.0 0
M  V30 17 C 2.598 0.0 0.0 0
M  V30 18 N 2.598 0.9999 0.0 0
M  V30 19 C 1.732 -0.5 0.0 0
M  V30 20 C 1.732 1.4999 0.0 0
M  V30 21 O 1.732 -1.5 0.0 0
M  V30 22 O 0.866 0.0 0.0 0
M  V30 23 O 0.866 0.9999 0.0 0
M  V30 24 C 1.732 2.4999 0.0 0
M  V30 25 C 0.866 2.9999 0.0 0
M  V30 26 C 2.598 3.0 0.0 0
M  V30 27 C 0.866 3.9999 0.0 0
M  V30 28 C 2.598 4.0 0.0 0
M  V30 29 C 1.732 4.4999 0.0 0
M  V30 END ATOM
M  V30 BEGIN BOND
M  V30 1 1 1 2
M  V30 2 1 1 3
M  V30 3 2 2 4
M  V30 4 1 2 5
M  V30 5 1 4 6
M  V30 6 1 4 7
M  V30 7 2 5 8
M  V30 8 1 6 9
M  V30 9 2 7 10
M  V30 10 2 9 11
M  V30 11 1 9 12
M  V30 12 1 11 13
M  V30 13 2 12 14
M  V30 14 2 13 15
M  V30 15 1 15 16
M  V30 16 2 16 17
M  V30 17 1 17 18
M  V30 18 1 17 19
M  V30 19 1 18 20
M  V30 20 2 19 21
M  V30 21 1 19 22
M  V30 22 2 20 23
M  V30 23 1 20 24
M  V30 24 2 24 25
M  V30 25 1 24 26
M  V30 26 1 25 27
M  V30 27 2 26 28
M  V30 28 2 27 29
M  V30 29 1 8 10
M  V30 30 1 14 15
M  V30 31 1 28 29
M  V30 END BOND
M  V30 END CTAB
M  END
>  <Molecule ChEMBL ID>
CHEMBL194380

>  <Smiles>
CSc1ccccc1Oc1ccc(/C=C(\NC(=O)c2ccccc2)C(=O)O)cc1

>  <IC50>
1800

$$$$
CHEMBL193630
Actelion Java MolfileCreator 2.0

  0  0  0  0  0  0              0 V3000
M  V30 BEGIN CTAB
M  V30 COUNTS 26 28 0 0 0
M  V30 BEGIN ATOM
M  V30 1 S 6.4096 -3.1316 0.0 0
M  V30 2 C 5.9461 -4.5582 0.0 0
M  V30 3 C 5.1961 -2.25 0.0 0
M  V30 4 C 6.8278 -5.7717 0.0 0
M  V30 5 C 4.4461 -4.5582 0.0 0
M  V30 6 C 3.9826 -3.1316 0.0 0
M  V30 7 C 5.1961 -0.75 0.0 0
M  V30 8 C 8.3196 -5.6149 0.0 0
M  V30 9 C 6.2177 -7.1421 0.0 0
M  V30 10 C 3.8971 0.0 0.0 0
M  V30 11 F 8.9297 -4.2446 0.0 0
M  V30 12 C 9.2012 -6.8285 0.0 0
M  V30 13 C 7.0994 -8.3556 0.0 0
M  V30 14 N 2.598 -0.75 0.0 0
M  V30 15 C 3.8971 1.5 0.0 0
M  V30 16 C 8.5911 -8.1988 0.0 0
M  V30 17 C 1.299 0.0 0.0 0
M  V30 18 O 5.1961 2.25 0.0 0
M  V30 19 O 2.598 2.25 0.0 0
M  V30 20 O 1.299 1.5 0.0 0
M  V30 21 C 0.0 -0.75 0.0 0
M  V30 22 C -1.299 0.0 0.0 0
M  V30 23 C 0.0 -2.2499 0.0 0
M  V30 24 C -2.598 -0.7499 0.0 0
M  V30 25 C -1.299 -2.9999 0.0 0
M  V30 26 C -2.598 -2.2499 0.0 0
M  V30 END ATOM
M  V30 BEGIN BOND
M  V30 1 1 1 2
M  V30 2 1 1 3
M  V30 3 1 2 4
M  V30 4 2 2 5
M  V30 5 2 3 6
M  V30 6 1 3 7
M  V30 7 2 4 8
M  V30 8 1 4 9
M  V30 9 2 7 10
M  V30 10 1 8 11
M  V30 11 1 8 12
M  V30 12 2 9 13
M  V30 13 1 10 14
M  V30 14 1 10 15
M  V30 15 2 12 16
M  V30 16 1 14 17
M  V30 17 2 15 18
M  V30 18 1 15 19
M  V30 19 2 17 20
M  V30 20 1 17 21
M  V30 21 2 21 22
M  V30 22 1 21 23
M  V30 23 1 22 24
M  V30 24 2 23 25
M  V30 25 2 24 26
M  V30 26 1 5 6
M  V30 27 1 13 16
M  V30 28 1 25 26
M  V30 END BOND
M  V30 END CTAB
M  END
>  <Molecule ChEMBL ID>
CHEMBL193630

>  <Smiles>
O=C(O)/C(=C/c1ccc(-c2ccccc2F)s1)NC(=O)c1ccccc1

>  <IC50>
2600

$$$$
CHEMBL364017
Actelion Java MolfileCreator 2.0

  0  0  0  0  0  0              0 V3000
M  V30 BEGIN CTAB
M  V30 COUNTS 26 28 0 0 0
M  V30 BEGIN ATOM
M  V30 1 O 5.1961 -2.2499 0.0 0
M  V30 2 C 3.8971 -2.9999 0.0 0
M  V30 3 N 2.598 -2.2499 0.0 0
M  V30 4 C 3.8971 -4.5 0.0 0
M  V30 5 C 2.598 -0.75 0.0 0
M  V30 6 C 2.598 -5.2499 0.0 0
M  V30 7 C 5.1961 -5.25 0.0 0
M  V30 8 C 3.8971 0.0 0.0 0
M  V30 9 C 1.299 0.0 0.0 0
M  V30 10 C 2.598 -6.7499 0.0 0
M  V30 11 C 5.1961 -6.75 0.0 0
M  V30 12 O 3.8971 1.4999 0.0 0
M  V30 13 O 5.1961 -0.7499 0.0 0
M  V30 14 C 0.0 -0.75 0.0 0
M  V30 15 C 3.8971 -7.4999 0.0 0
M  V30 16 O -1.3703 -0.1398 0.0 0
M  V30 17 C -0.1567 -2.2417 0.0 0
M  V30 18 C -2.374 -1.2546 0.0 0
M  V30 19 C -1.624 -2.5536 0.0 0
M  V30 20 C -3.8657 -1.0978 0.0 0
M  V30 21 C -4.4759 0.2724 0.0 0
M  V30 22 C -4.7474 -2.3113 0.0 0
M  V30 23 C -5.9676 0.4292 0.0 0
M  V30 24 C -3.5942 1.486 0.0 0
M  V30 25 C -6.2392 -2.1545 0.0 0
M  V30 26 C -6.8493 -0.7842 0.0 0
M  V30 END ATOM
M  V30 BEGIN BOND
M  V30 1 2 1 2
M  V30 2 1 2 3
M  V30 3 1 2 4
M  V30 4 1 3 5
M  V30 5 2 4 6
M  V30 6 1 4 7
M  V30 7 1 5 8
M  V30 8 2 5 9
M  V30 9 1 6 10
M  V30 10 2 7 11
M  V30 11 2 8 12
M  V30 12 1 8 13
M  V30 13 1 9 14
M  V30 14 2 10 15
M  V30 15 1 14 16
M  V30 16 2 14 17
M  V30 17 1 16 18
M  V30 18 1 17 19
M  V30 19 1 18 20
M  V30 20 2 20 21
M  V30 21 1 20 22
M  V30 22 1 21 23
M  V30 23 1 21 24
M  V30 24 2 22 25
M  V30 25 2 23 26
M  V30 26 1 11 15
M  V30 27 2 18 19
M  V30 28 1 25 26
M  V30 END BOND
M  V30 END CTAB
M  END
>  <Molecule ChEMBL ID>
CHEMBL364017

>  <Smiles>
Cc1ccccc1-c1ccc(/C=C(\NC(=O)c2ccccc2)C(=O)O)o1

>  <IC50>
3000

$$$$
CHEMBL193403
Actelion Java MolfileCreator 2.0

  0  0  0  0  0  0              0 V3000
M  V30 BEGIN CTAB
M  V30 COUNTS 26 28 0 0 0
M  V30 BEGIN ATOM
M  V30 1 F 1.4625 -4.2446 0.0 0
M  V30 2 C 2.0726 -5.6149 0.0 0
M  V30 3 C 3.5644 -5.7717 0.0 0
M  V30 4 C 1.191 -6.8285 0.0 0
M  V30 5 C 4.4461 -4.5582 0.0 0
M  V30 6 C 4.1745 -7.1421 0.0 0
M  V30 7 C 1.8011 -8.1988 0.0 0
M  V30 8 O 3.9826 -3.1316 0.0 0
M  V30 9 C 5.9461 -4.5582 0.0 0
M  V30 10 C 3.2929 -8.3556 0.0 0
M  V30 11 C 5.1961 -2.25 0.0 0
M  V30 12 C 6.4096 -3.1316 0.0 0
M  V30 13 C 5.1961 -0.75 0.0 0
M  V30 14 C 3.8971 0.0 0.0 0
M  V30 15 N 2.598 -0.75 0.0 0
M  V30 16 C 3.8971 1.5 0.0 0
M  V30 17 C 1.299 0.0 0.0 0
M  V30 18 O 5.1961 2.25 0.0 0
M  V30 19 O 2.598 2.25 0.0 0
M  V30 20 O 1.299 1.5 0.0 0
M  V30 21 C 0.0 -0.75 0.0 0
M  V30 22 C -1.299 0.0 0.0 0
M  V30 23 C 0.0 -2.2499 0.0 0
M  V30 24 C -2.598 -0.7499 0.0 0
M  V30 25 C -1.299 -2.9999 0.0 0
M  V30 26 C -2.598 -2.2499 0.0 0
M  V30 END ATOM
M  V30 BEGIN BOND
M  V30 1 1 1 2
M  V30 2 2 2 3
M  V30 3 1 2 4
M  V30 4 1 3 5
M  V30 5 1 3 6
M  V30 6 2 4 7
M  V30 7 1 5 8
M  V30 8 2 5 9
M  V30 9 2 6 10
M  V30 10 1 8 11
M  V30 11 1 9 12
M  V30 12 1 11 13
M  V30 13 2 13 14
M  V30 14 1 14 15
M  V30 15 1 14 16
M  V30 16 1 15 17
M  V30 17 2 16 18
M  V30 18 1 16 19
M  V30 19 2 17 20
M  V30 20 1 17 21
M  V30 21 2 21 22
M  V30 22 1 21 23
M  V30 23 1 22 24
M  V30 24 2 23 25
M  V30 25 2 24 26
M  V30 26 1 7 10
M  V30 27 2 11 12
M  V30 28 1 25 26
M  V30 END BOND
M  V30 END CTAB
M  END
>  <Molecule ChEMBL ID>
CHEMBL193403

>  <Smiles>
O=C(O)/C(=C/c1ccc(-c2ccccc2F)o1)NC(=O)c1ccccc1

>  <IC50>
3100

$$$$
CHEMBL193549
Actelion Java MolfileCreator 2.0

  0  0  0  0  0  0              0 V3000
M  V30 BEGIN CTAB
M  V30 COUNTS 26 28 0 0 0
M  V30 BEGIN ATOM
M  V30 1 F -0.3007 -6.6717 0.0 0
M  V30 2 C 1.191 -6.8285 0.0 0
M  V30 3 C 2.0726 -5.6149 0.0 0
M  V30 4 C 1.8011 -8.1988 0.0 0
M  V30 5 C 3.5644 -5.7717 0.0 0
M  V30 6 C 3.2929 -8.3556 0.0 0
M  V30 7 C 4.4461 -4.5582 0.0 0
M  V30 8 C 4.1745 -7.1421 0.0 0
M  V30 9 O 3.9826 -3.1316 0.0 0
M  V30 10 C 5.9461 -4.5582 0.0 0
M  V30 11 C 5.1961 -2.25 0.0 0
M  V30 12 C 6.4096 -3.1316 0.0 0
M  V30 13 C 5.1961 -0.75 0.0 0
M  V30 14 C 3.8971 0.0 0.0 0
M  V30 15 N 2.598 -0.75 0.0 0
M  V30 16 C 3.8971 1.5 0.0 0
M  V30 17 C 1.299 0.0 0.0 0
M  V30 18 O 5.1961 2.25 0.0 0
M  V30 19 O 2.598 2.25 0.0 0
M  V30 20 O 1.299 1.5 0.0 0
M  V30 21 C 0.0 -0.75 0.0 0
M  V30 22 C -1.299 0.0 0.0 0
M  V30 23 C 0.0 -2.2499 0.0 0
M  V30 24 C -2.598 -0.7499 0.0 0
M  V30 25 C -1.299 -2.9999 0.0 0
M  V30 26 C -2.598 -2.2499 0.0 0
M  V30 END ATOM
M  V30 BEGIN BOND
M  V30 1 1 1 2
M  V30 2 2 2 3
M  V30 3 1 2 4
M  V30 4 1 3 5
M  V30 5 2 4 6
M  V30 6 1 5 7
M  V30 7 2 5 8
M  V30 8 1 7 9
M  V30 9 2 7 10
M  V30 10 1 9 11
M  V30 11 1 10 12
M  V30 12 1 11 13
M  V30 13 2 13 14
M  V30 14 1 14 15
M  V30 15 1 14 16
M  V30 16 1 15 17
M  V30 17 2 16 18
M  V30 18 1 16 19
M  V30 19 2 17 20
M  V30 20 1 17 21
M  V30 21 2 21 22
M  V30 22 1 21 23
M  V30 23 1 22 24
M  V30 24 2 23 25
M  V30 25 2 24 26
M  V30 26 1 6 8
M  V30 27 2 11 12
M  V30 28 1 25 26
M  V30 END BOND
M  V30 END CTAB
M  END
>  <Molecule ChEMBL ID>
CHEMBL193549

>  <Smiles>
O=C(O)/C(=C/c1ccc(-c2cccc(F)c2)o1)NC(=O)c1ccccc1

>  <IC50>
3900

$$$$
CHEMBL194116
Actelion Java MolfileCreator 2.0

  0  0  0  0  0  0              0 V3000
M  V30 BEGIN CTAB
M  V30 COUNTS 30 32 0 0 0
M  V30 BEGIN ATOM
M  V30 1 F 8.5008 0.5214 0.0 0
M  V30 2 C 8.3963 1.516 0.0 0
M  V30 3 F 9.3908 1.6205 0.0 0
M  V30 4 F 8.2918 2.5105 0.0 0
M  V30 5 O 7.4018 1.4114 0.0 0
M  V30 6 C 6.814 2.2205 0.0 0
M  V30 7 C 5.8195 2.1159 0.0 0
M  V30 8 C 7.2207 3.134 0.0 0
M  V30 9 C 5.4128 1.2024 0.0 0
M  V30 10 C 5.2317 2.9249 0.0 0
M  V30 11 C 6.633 3.943 0.0 0
M  V30 12 O 4.4346 0.9945 0.0 0
M  V30 13 C 5.9128 0.3364 0.0 0
M  V30 14 C 5.6384 3.8385 0.0 0
M  V30 15 C 4.3301 0.0 0.0 0
M  V30 16 C 5.2436 -0.4067 0.0 0
M  V30 17 C 3.4641 -0.5 0.0 0
M  V30 18 C 2.598 0.0 0.0 0
M  V30 19 N 2.598 0.9999 0.0 0
M  V30 20 C 1.732 -0.5 0.0 0
M  V30 21 C 1.732 1.4999 0.0 0
M  V30 22 O 1.732 -1.5 0.0 0
M  V30 23 O 0.866 0.0 0.0 0
M  V30 24 O 0.866 0.9999 0.0 0
M  V30 25 C 1.732 2.4999 0.0 0
M  V30 26 C 0.866 2.9999 0.0 0
M  V30 27 C 2.598 3.0 0.0 0
M  V30 28 C 0.866 3.9999 0.0 0
M  V30 29 C 2.598 4.0 0.0 0
M  V30 30 C 1.732 4.4999 0.0 0
M  V30 END ATOM
M  V30 BEGIN BOND
M  V30 1 1 1 2
M  V30 2 1 2 3
M  V30 3 1 2 4
M  V30 4 1 2 5
M  V30 5 1 5 6
M  V30 6 2 6 7
M  V30 7 1 6 8
M  V30 8 1 7 9
M  V30 9 1 7 10
M  V30 10 2 8 11
M  V30 11 1 9 12
M  V30 12 2 9 13
M  V30 13 2 10 14
M  V30 14 1 12 15
M  V30 15 1 13 16
M  V30 16 1 15 17
M  V30 17 2 17 18
M  V30 18 1 18 19
M  V30 19 1 18 20
M  V30 20 1 19 21
M  V30 21 2 20 22
M  V30 22 1 20 23
M  V30 23 2 21 24
M  V30 24 1 21 25
M  V30 25 2 25 26
M  V30 26 1 25 27
M  V30 27 1 26 28
M  V30 28 2 27 29
M  V30 29 2 28 30
M  V30 30 1 11 14
M  V30 31 2 15 16
M  V30 32 1 29 30
M  V30 END BOND
M  V30 END CTAB
M  END
>  <Molecule ChEMBL ID>
CHEMBL194116

>  <Smiles>
O=C(O)/C(=C/c1ccc(-c2ccccc2OC(F)(F)F)o1)NC(=O)c1ccccc1

>  <IC50>
4000

$$$$
CHEMBL194064
Actelion Java MolfileCreator 2.0

  0  0  0  0  0  0              0 V3000
M  V30 BEGIN CTAB
M  V30 COUNTS 26 28 0 0 0
M  V30 BEGIN ATOM
M  V30 1 Cl 0.6129 -6.2749 0.0 0
M  V30 2 C 1.2007 -5.4658 0.0 0
M  V30 3 C 0.794 -4.5523 0.0 0
M  V30 4 C 2.1952 -5.5704 0.0 0
M  V30 5 C 1.3817 -3.7433 0.0 0
M  V30 6 C 2.783 -4.7614 0.0 0
M  V30 7 C 2.3763 -3.8478 0.0 0
M  V30 8 C 2.9641 -3.0388 0.0 0
M  V30 9 O 2.655 -2.0877 0.0 0
M  V30 10 C 3.9641 -3.0388 0.0 0
M  V30 11 C 3.4641 -1.5 0.0 0
M  V30 12 C 4.2731 -2.0877 0.0 0
M  V30 13 C 3.4641 -0.5 0.0 0
M  V30 14 C 2.598 0.0 0.0 0
M  V30 15 N 1.732 -0.5 0.0 0
M  V30 16 C 2.598 1.0 0.0 0
M  V30 17 C 0.866 0.0 0.0 0
M  V30 18 O 3.4641 1.4999 0.0 0
M  V30 19 O 1.732 1.5 0.0 0
M  V30 20 O 0.866 1.0 0.0 0
M  V30 21 C 0.0 -0.5 0.0 0
M  V30 22 C -0.866 0.0 0.0 0
M  V30 23 C 0.0 -1.4999 0.0 0
M  V30 24 C -1.732 -0.4999 0.0 0
M  V30 25 C -0.866 -1.9999 0.0 0
M  V30 26 C -1.732 -1.4999 0.0 0
M  V30 END ATOM
M  V30 BEGIN BOND
M  V30 1 1 1 2
M  V30 2 2 2 3
M  V30 3 1 2 4
M  V30 4 1 3 5
M  V30 5 2 4 6
M  V30 6 2 5 7
M  V30 7 1 7 8
M  V30 8 1 8 9
M  V30 9 2 8 10
M  V30 10 1 9 11
M  V30 11 1 10 12
M  V30 12 1 11 13
M  V30 13 2 13 14
M  V30 14 1 14 15
M  V30 15 1 14 16
M  V30 16 1 15 17
M  V30 17 2 16 18
M  V30 18 1 16 19
M  V30 19 2 17 20
M  V30 20 1 17 21
M  V30 21 2 21 22
M  V30 22 1 21 23
M  V30 23 1 22 24
M  V30 24 2 23 25
M  V30 25 2 24 26
M  V30 26 1 6 7
M  V30 27 2 11 12
M  V30 28 1 25 26
M  V30 END BOND
M  V30 END CTAB
M  END
>  <Molecule ChEMBL ID>
CHEMBL194064

>  <Smiles>
O=C(O)/C(=C/c1ccc(-c2ccc(Cl)cc2)o1)NC(=O)c1ccccc1

>  <IC50>
4600

$$$$
CHEMBL365127
Actelion Java MolfileCreator 2.0

  0  0  0  0  0  0              0 V3000
M  V30 BEGIN CTAB
M  V30 COUNTS 26 28 0 0 0
M  V30 BEGIN ATOM
M  V30 1 Cl 1.4625 -4.2446 0.0 0
M  V30 2 C 2.0726 -5.6149 0.0 0
M  V30 3 C 3.5644 -5.7717 0.0 0
M  V30 4 C 1.191 -6.8285 0.0 0
M  V30 5 C 4.4461 -4.5582 0.0 0
M  V30 6 C 4.1745 -7.1421 0.0 0
M  V30 7 C 1.8011 -8.1988 0.0 0
M  V30 8 S 3.9826 -3.1316 0.0 0
M  V30 9 C 5.9461 -4.5582 0.0 0
M  V30 10 C 3.2929 -8.3556 0.0 0
M  V30 11 C 5.1961 -2.25 0.0 0
M  V30 12 N 6.4096 -3.1316 0.0 0
M  V30 13 C 5.1961 -0.75 0.0 0
M  V30 14 C 3.8971 0.0 0.0 0
M  V30 15 N 2.598 -0.75 0.0 0
M  V30 16 C 3.8971 1.5 0.0 0
M  V30 17 C 1.299 0.0 0.0 0
M  V30 18 O 5.1961 2.25 0.0 0
M  V30 19 O 2.598 2.25 0.0 0
M  V30 20 O 1.299 1.5 0.0 0
M  V30 21 C 0.0 -0.75 0.0 0
M  V30 22 C -1.299 0.0 0.0 0
M  V30 23 C 0.0 -2.2499 0.0 0
M  V30 24 C -2.598 -0.7499 0.0 0
M  V30 25 C -1.299 -2.9999 0.0 0
M  V30 26 C -2.598 -2.2499 0.0 0
M  V30 END ATOM
M  V30 BEGIN BOND
M  V30 1 1 1 2
M  V30 2 2 2 3
M  V30 3 1 2 4
M  V30 4 1 3 5
M  V30 5 1 3 6
M  V30 6 2 4 7
M  V30 7 1 5 8
M  V30 8 2 5 9
M  V30 9 2 6 10
M  V30 10 1 8 11
M  V30 11 1 9 12
M  V30 12 1 11 13
M  V30 13 2 13 14
M  V30 14 1 14 15
M  V30 15 1 14 16
M  V30 16 1 15 17
M  V30 17 2 16 18
M  V30 18 1 16 19
M  V30 19 2 17 20
M  V30 20 1 17 21
M  V30 21 2 21 22
M  V30 22 1 21 23
M  V30 23 1 22 24
M  V30 24 2 23 25
M  V30 25 2 24 26
M  V30 26 1 7 10
M  V30 27 2 11 12
M  V30 28 1 25 26
M  V30 END BOND
M  V30 END CTAB
M  END
>  <Molecule ChEMBL ID>
CHEMBL365127

>  <Smiles>
O=C(O)/C(=C/c1ncc(-c2ccccc2Cl)s1)NC(=O)c1ccccc1

>  <IC50>
5200

$$$$
CHEMBL195256
Actelion Java MolfileCreator 2.0

  0  0  0  0  0  0              0 V3000
M  V30 BEGIN CTAB
M  V30 COUNTS 31 33 0 0 0
M  V30 BEGIN ATOM
M  V30 1 Cl 10.3923 -0.75 0.0 0
M  V30 2 C 11.6913 0.0 0.0 0
M  V30 3 C 11.6913 1.4999 0.0 0
M  V30 4 C 12.9903 -0.75 0.0 0
M  V30 5 O 10.3923 2.2499 0.0 0
M  V30 6 C 12.9903 2.2499 0.0 0
M  V30 7 C 14.2894 0.0 0.0 0
M  V30 8 C 9.0932 1.4999 0.0 0
M  V30 9 N 12.9903 3.7499 0.0 0 CHG=1
M  V30 10 C 14.2894 1.4999 0.0 0
M  V30 11 C 7.7942 2.25 0.0 0
M  V30 12 C 9.0932 0.0 0.0 0
M  V30 13 O 11.6913 4.5 0.0 0
M  V30 14 O 14.2894 4.4999 0.0 0 CHG=-1
M  V30 15 C 6.4951 1.5 0.0 0
M  V30 16 C 7.7942 -0.75 0.0 0
M  V30 17 C 6.4951 0.0 0.0 0
M  V30 18 C 5.1961 -0.75 0.0 0
M  V30 19 C 3.8971 0.0 0.0 0
M  V30 20 N 3.8971 1.5 0.0 0
M  V30 21 C 2.598 -0.75 0.0 0
M  V30 22 C 2.598 2.25 0.0 0
M  V30 23 O 2.598 -2.25 0.0 0
M  V30 24 O 1.299 0.0 0.0 0
M  V30 25 O 1.299 1.4999 0.0 0
M  V30 26 C 2.598 3.75 0.0 0
M  V30 27 C 1.299 4.4999 0.0 0
M  V30 28 C 3.8971 4.5 0.0 0
M  V30 29 C 1.299 6.0 0.0 0
M  V30 30 C 3.8971 6.0 0.0 0
M  V30 31 C 2.598 6.7499 0.0 0
M  V30 END ATOM
M  V30 BEGIN BOND
M  V30 1 1 1 2
M  V30 2 2 2 3
M  V30 3 1 2 4
M  V30 4 1 3 5
M  V30 5 1 3 6
M  V30 6 2 4 7
M  V30 7 1 5 8
M  V30 8 1 6 9
M  V30 9 2 6 10
M  V30 10 2 8 11
M  V30 11 1 8 12
M  V30 12 2 9 13
M  V30 13 1 9 14
M  V30 14 1 11 15
M  V30 15 2 12 16
M  V30 16 2 15 17
M  V30 17 1 17 18
M  V30 18 2 18 19
M  V30 19 1 19 20
M  V30 20 1 19 21
M  V30 21 1 20 22
M  V30 22 2 21 23
M  V30 23 1 21 24
M  V30 24 2 22 25
M  V30 25 1 22 26
M  V30 26 2 26 27
M  V30 27 1 26 28
M  V30 28 1 27 29
M  V30 29 2 28 30
M  V30 30 2 29 31
M  V30 31 1 7 10
M  V30 32 1 16 17
M  V30 33 1 30 31
M  V30 END BOND
M  V30 END CTAB
M  END
>  <Molecule ChEMBL ID>
CHEMBL195256

>  <Smiles>
O=C(O)/C(=C/c1ccc(Oc2c(Cl)cccc2[N+](=O)[O-])cc1)NC(=O)c1ccccc1

>  <IC50>
5500

$$$$
CHEMBL364301
Actelion Java MolfileCreator 2.0

  0  0  0  0  0  0              0 V3000
M  V30 BEGIN CTAB
M  V30 COUNTS 29 31 0 0 0
M  V30 BEGIN ATOM
M  V30 1 F 6.5126 2.7389 0.0 0
M  V30 2 C 6.3558 4.2307 0.0 0
M  V30 3 F 4.864 4.0739 0.0 0
M  V30 4 F 6.199 5.7224 0.0 0
M  V30 5 C 7.8476 4.3874 0.0 0
M  V30 6 C 8.7293 3.1739 0.0 0
M  V30 7 C 8.4577 5.7578 0.0 0
M  V30 8 C 8.1192 1.8036 0.0 0
M  V30 9 C 10.221 3.3307 0.0 0
M  V30 10 C 9.9495 5.9146 0.0 0
M  V30 11 O 6.6519 1.4917 0.0 0
M  V30 12 C 8.8692 0.5046 0.0 0
M  V30 13 C 10.8311 4.701 0.0 0
M  V30 14 C 6.4951 0.0 0.0 0
M  V30 15 C 7.8655 -0.6101 0.0 0
M  V30 16 C 5.1961 -0.75 0.0 0
M  V30 17 C 5.1961 -2.25 0.0 0
M  V30 18 N 6.4951 -3.0 0.0 0
M  V30 19 C 3.8971 -2.9999 0.0 0
M  V30 20 C 6.4951 -4.5 0.0 0
M  V30 21 O 2.598 -2.2499 0.0 0
M  V30 22 O 3.8971 -4.5 0.0 0
M  V30 23 O 5.1961 -5.25 0.0 0
M  V30 24 C 7.7942 -5.25 0.0 0
M  V30 25 C 7.7942 -6.75 0.0 0
M  V30 26 C 9.0932 -4.5 0.0 0
M  V30 27 C 9.0932 -7.5 0.0 0
M  V30 28 C 10.3923 -5.25 0.0 0
M  V30 29 C 10.3923 -6.75 0.0 0
M  V30 END ATOM
M  V30 BEGIN BOND
M  V30 1 1 1 2
M  V30 2 1 2 3
M  V30 3 1 2 4
M  V30 4 1 2 5
M  V30 5 2 5 6
M  V30 6 1 5 7
M  V30 7 1 6 8
M  V30 8 1 6 9
M  V30 9 2 7 10
M  V30 10 1 8 11
M  V30 11 2 8 12
M  V30 12 2 9 13
M  V30 13 1 11 14
M  V30 14 1 12 15
M  V30 15 1 14 16
M  V30 16 2 16 17
M  V30 17 1 17 18
M  V30 18 1 17 19
M  V30 19 1 18 20
M  V30 20 2 19 21
M  V30 21 1 19 22
M  V30 22 2 20 23
M  V30 23 1 20 24
M  V30 24 2 24 25
M  V30 25 1 24 26
M  V30 26 1 25 27
M  V30 27 2 26 28
M  V30 28 2 27 29
M  V30 29 1 10 13
M  V30 30 2 14 15
M  V30 31 1 28 29
M  V30 END BOND
M  V30 END CTAB
M  END
>  <Molecule ChEMBL ID>
CHEMBL364301

>  <Smiles>
O=C(O)/C(=C/c1ccc(-c2ccccc2C(F)(F)F)o1)NC(=O)c1ccccc1

>  <IC50>
5600

$$$$
CHEMBL364072
Actelion Java MolfileCreator 2.0

  0  0  0  0  0  0              0 V3000
M  V30 BEGIN CTAB
M  V30 COUNTS 26 28 0 0 0
M  V30 BEGIN ATOM
M  V30 1 Cl -0.3007 -6.6717 0.0 0
M  V30 2 C 1.191 -6.8285 0.0 0
M  V30 3 C 2.0726 -5.6149 0.0 0
M  V30 4 C 1.8011 -8.1988 0.0 0
M  V30 5 C 3.5644 -5.7717 0.0 0
M  V30 6 C 3.2929 -8.3556 0.0 0
M  V30 7 C 4.4461 -4.5582 0.0 0
M  V30 8 C 4.1745 -7.1421 0.0 0
M  V30 9 O 3.9826 -3.1316 0.0 0
M  V30 10 C 5.9461 -4.5582 0.0 0
M  V30 11 C 5.1961 -2.25 0.0 0
M  V30 12 C 6.4096 -3.1316 0.0 0
M  V30 13 C 5.1961 -0.75 0.0 0
M  V30 14 C 3.8971 0.0 0.0 0
M  V30 15 N 2.598 -0.75 0.0 0
M  V30 16 C 3.8971 1.5 0.0 0
M  V30 17 C 1.299 0.0 0.0 0
M  V30 18 O 5.1961 2.25 0.0 0
M  V30 19 O 2.598 2.25 0.0 0
M  V30 20 O 1.299 1.5 0.0 0
M  V30 21 C 0.0 -0.75 0.0 0
M  V30 22 C -1.299 0.0 0.0 0
M  V30 23 C 0.0 -2.2499 0.0 0
M  V30 24 C -2.598 -0.7499 0.0 0
M  V30 25 C -1.299 -2.9999 0.0 0
M  V30 26 C -2.598 -2.2499 0.0 0
M  V30 END ATOM
M  V30 BEGIN BOND
M  V30 1 1 1 2
M  V30 2 2 2 3
M  V30 3 1 2 4
M  V30 4 1 3 5
M  V30 5 2 4 6
M  V30 6 1 5 7
M  V30 7 2 5 8
M  V30 8 1 7 9
M  V30 9 2 7 10
M  V30 10 1 9 11
M  V30 11 1 10 12
M  V30 12 1 11 13
M  V30 13 2 13 14
M  V30 14 1 14 15
M  V30 15 1 14 16
M  V30 16 1 15 17
M  V30 17 2 16 18
M  V30 18 1 16 19
M  V30 19 2 17 20
M  V30 20 1 17 21
M  V30 21 2 21 22
M  V30 22 1 21 23
M  V30 23 1 22 24
M  V30 24 2 23 25
M  V30 25 2 24 26
M  V30 26 1 6 8
M  V30 27 2 11 12
M  V30 28 1 25 26
M  V30 END BOND
M  V30 END CTAB
M  END
>  <Molecule ChEMBL ID>
CHEMBL364072

>  <Smiles>
O=C(O)/C(=C/c1ccc(-c2cccc(Cl)c2)o1)NC(=O)c1ccccc1

>  <IC50>
6000

$$$$
CHEMBL193049
Actelion Java MolfileCreator 2.0

  0  0  0  0  0  0              0 V3000
M  V30 BEGIN CTAB
M  V30 COUNTS 25 27 0 0 0
M  V30 BEGIN ATOM
M  V30 1 O 3.4641 -1.5 0.0 0
M  V30 2 C 3.4641 -0.5 0.0 0
M  V30 3 N 2.598 0.0 0.0 0
M  V30 4 C 4.3301 0.0 0.0 0
M  V30 5 C 1.732 -0.5 0.0 0
M  V30 6 C 4.3301 0.9999 0.0 0
M  V30 7 C 5.1961 -0.5 0.0 0
M  V30 8 C 1.732 -1.5 0.0 0
M  V30 9 C 0.866 0.0 0.0 0
M  V30 10 C 5.1961 1.4999 0.0 0
M  V30 11 C 6.0621 0.0 0.0 0
M  V30 12 O 0.866 -2.0 0.0 0
M  V30 13 O 2.598 -1.9999 0.0 0
M  V30 14 C 0.866 0.9999 0.0 0
M  V30 15 C 6.0621 0.9999 0.0 0
M  V30 16 O 0.057 1.5877 0.0 0
M  V30 17 C 1.675 1.5877 0.0 0
M  V30 18 C 0.366 2.5388 0.0 0
M  V30 19 C 1.366 2.5388 0.0 0
M  V30 20 C -0.2217 3.3478 0.0 0
M  V30 21 C -1.2162 3.2433 0.0 0
M  V30 22 C 0.1849 4.2614 0.0 0
M  V30 23 C -1.804 4.0523 0.0 0
M  V30 24 C -0.4028 5.0704 0.0 0
M  V30 25 C -1.3973 4.9658 0.0 0
M  V30 END ATOM
M  V30 BEGIN BOND
M  V30 1 2 1 2
M  V30 2 1 2 3
M  V30 3 1 2 4
M  V30 4 1 3 5
M  V30 5 2 4 6
M  V30 6 1 4 7
M  V30 7 1 5 8
M  V30 8 2 5 9
M  V30 9 1 6 10
M  V30 10 2 7 11
M  V30 11 2 8 12
M  V30 12 1 8 13
M  V30 13 1 9 14
M  V30 14 2 10 15
M  V30 15 1 14 16
M  V30 16 2 14 17
M  V30 17 1 16 18
M  V30 18 1 17 19
M  V30 19 1 18 20
M  V30 20 2 20 21
M  V30 21 1 20 22
M  V30 22 1 21 23
M  V30 23 2 22 24
M  V30 24 2 23 25
M  V30 25 1 11 15
M  V30 26 2 18 19
M  V30 27 1 24 25
M  V30 END BOND
M  V30 END CTAB
M  END
>  <Molecule ChEMBL ID>
CHEMBL193049

>  <Smiles>
O=C(O)/C(=C/c1ccc(-c2ccccc2)o1)NC(=O)c1ccccc1

>  <IC50>
6700

$$$$
CHEMBL193981
Actelion Java MolfileCreator 2.0

  0  0  0  0  0  0              0 V3000
M  V30 BEGIN CTAB
M  V30 COUNTS 28 30 0 0 0
M  V30 BEGIN ATOM
M  V30 1 F 12.9903 3.75 0.0 0
M  V30 2 C 12.9903 2.2499 0.0 0
M  V30 3 C 11.6913 1.4999 0.0 0
M  V30 4 C 14.2894 1.5 0.0 0
M  V30 5 O 10.3923 2.2499 0.0 0
M  V30 6 C 11.6913 0.0 0.0 0
M  V30 7 C 14.2894 0.0 0.0 0
M  V30 8 C 9.0932 1.4999 0.0 0
M  V30 9 C 12.9903 -0.75 0.0 0
M  V30 10 C 7.7942 2.2499 0.0 0
M  V30 11 C 9.0932 0.0 0.0 0
M  V30 12 C 6.4951 1.5 0.0 0
M  V30 13 C 7.7942 -0.75 0.0 0
M  V30 14 C 6.4951 0.0 0.0 0
M  V30 15 C 5.1961 -0.75 0.0 0
M  V30 16 C 3.8971 0.0 0.0 0
M  V30 17 N 3.8971 1.4999 0.0 0
M  V30 18 C 2.598 -0.75 0.0 0
M  V30 19 C 2.598 2.2499 0.0 0
M  V30 20 O 2.598 -2.25 0.0 0
M  V30 21 O 1.299 0.0 0.0 0
M  V30 22 O 1.299 1.4999 0.0 0
M  V30 23 C 2.598 3.75 0.0 0
M  V30 24 C 1.299 4.4999 0.0 0
M  V30 25 C 3.8971 4.5 0.0 0
M  V30 26 C 1.299 5.9999 0.0 0
M  V30 27 C 3.8971 6.0 0.0 0
M  V30 28 C 2.598 6.7499 0.0 0
M  V30 END ATOM
M  V30 BEGIN BOND
M  V30 1 1 1 2
M  V30 2 2 2 3
M  V30 3 1 2 4
M  V30 4 1 3 5
M  V30 5 1 3 6
M  V30 6 2 4 7
M  V30 7 1 5 8
M  V30 8 2 6 9
M  V30 9 2 8 10
M  V30 10 1 8 11
M  V30 11 1 10 12
M  V30 12 2 11 13
M  V30 13 2 12 14
M  V30 14 1 14 15
M  V30 15 2 15 16
M  V30 16 1 16 17
M  V30 17 1 16 18
M  V30 18 1 17 19
M  V30 19 2 18 20
M  V30 20 1 18 21
M  V30 21 2 19 22
M  V30 22 1 19 23
M  V30 23 2 23 24
M  V30 24 1 23 25
M  V30 25 1 24 26
M  V30 26 2 25 27
M  V30 27 2 26 28
M  V30 28 1 7 9
M  V30 29 1 13 14
M  V30 30 1 27 28
M  V30 END BOND
M  V30 END CTAB
M  END
>  <Molecule ChEMBL ID>
CHEMBL193981

>  <Smiles>
O=C(O)/C(=C/c1ccc(Oc2ccccc2F)cc1)NC(=O)c1ccccc1

>  <IC50>
6900

$$$$
CHEMBL192054
Actelion Java MolfileCreator 2.0

  0  0  0  0  0  0              0 V3000
M  V30 BEGIN CTAB
M  V30 COUNTS 28 30 0 0 0
M  V30 BEGIN ATOM
M  V30 1 O 5.4741 5.4442 0.0 0
M  V30 2 N 6.3558 4.2307 0.0 0 CHG=1
M  V30 3 O 5.7457 2.8603 0.0 0 CHG=-1
M  V30 4 C 7.8476 4.3874 0.0 0
M  V30 5 C 8.7293 3.1739 0.0 0
M  V30 6 C 8.4577 5.7578 0.0 0
M  V30 7 C 8.1192 1.8036 0.0 0
M  V30 8 C 10.221 3.3307 0.0 0
M  V30 9 C 9.9495 5.9146 0.0 0
M  V30 10 O 6.6519 1.4917 0.0 0
M  V30 11 C 8.8692 0.5046 0.0 0
M  V30 12 C 10.8311 4.701 0.0 0
M  V30 13 C 6.4951 0.0 0.0 0
M  V30 14 C 7.8655 -0.6101 0.0 0
M  V30 15 C 5.1961 -0.75 0.0 0
M  V30 16 C 3.8971 0.0 0.0 0
M  V30 17 N 3.8971 1.4999 0.0 0
M  V30 18 C 2.598 -0.75 0.0 0
M  V30 19 C 2.598 2.2499 0.0 0
M  V30 20 O 2.598 -2.25 0.0 0
M  V30 21 O 1.299 0.0 0.0 0
M  V30 22 O 1.299 1.4999 0.0 0
M  V30 23 C 2.598 3.75 0.0 0
M  V30 24 C 1.299 4.4999 0.0 0
M  V30 25 C 3.8971 4.5 0.0 0
M  V30 26 C 1.299 5.9999 0.0 0
M  V30 27 C 3.8971 6.0 0.0 0
M  V30 28 C 2.598 6.7499 0.0 0
M  V30 END ATOM
M  V30 BEGIN BOND
M  V30 1 2 1 2
M  V30 2 1 2 3
M  V30 3 1 2 4
M  V30 4 2 4 5
M  V30 5 1 4 6
M  V30 6 1 5 7
M  V30 7 1 5 8
M  V30 8 2 6 9
M  V30 9 1 7 10
M  V30 10 2 7 11
M  V30 11 2 8 12
M  V30 12 1 10 13
M  V30 13 1 11 14
M  V30 14 1 13 15
M  V30 15 2 15 16
M  V30 16 1 16 17
M  V30 17 1 16 18
M  V30 18 1 17 19
M  V30 19 2 18 20
M  V30 20 1 18 21
M  V30 21 2 19 22
M  V30 22 1 19 23
M  V30 23 2 23 24
M  V30 24 1 23 25
M  V30 25 1 24 26
M  V30 26 2 25 27
M  V30 27 2 26 28
M  V30 28 1 9 12
M  V30 29 2 13 14
M  V30 30 1 27 28
M  V30 END BOND
M  V30 END CTAB
M  END
>  <Molecule ChEMBL ID>
CHEMBL192054

>  <Smiles>
O=C(O)/C(=C/c1ccc(-c2ccccc2[N+](=O)[O-])o1)NC(=O)c1ccccc1

>  <IC50>
6900

$$$$
CHEMBL370326
Actelion Java MolfileCreator 2.0

  0  0  0  0  0  0              0 V3000
M  V30 BEGIN CTAB
M  V30 COUNTS 29 31 0 0 0
M  V30 BEGIN ATOM
M  V30 1 F 6.3625 6.0896 0.0 0
M  V30 2 C 7.576 6.9713 0.0 0
M  V30 3 F 6.6943 8.1848 0.0 0
M  V30 4 F 8.7895 7.853 0.0 0
M  V30 5 C 8.4577 5.7578 0.0 0
M  V30 6 C 7.8476 4.3874 0.0 0
M  V30 7 C 9.9495 5.9146 0.0 0
M  V30 8 C 8.7293 3.1739 0.0 0
M  V30 9 C 10.8311 4.701 0.0 0
M  V30 10 C 8.1192 1.8036 0.0 0
M  V30 11 C 10.221 3.3307 0.0 0
M  V30 12 O 6.6519 1.4917 0.0 0
M  V30 13 C 8.8692 0.5046 0.0 0
M  V30 14 C 6.4951 0.0 0.0 0
M  V30 15 C 7.8655 -0.6101 0.0 0
M  V30 16 C 5.1961 -0.75 0.0 0
M  V30 17 C 3.8971 0.0 0.0 0
M  V30 18 N 3.8971 1.5 0.0 0
M  V30 19 C 2.598 -0.75 0.0 0
M  V30 20 C 2.598 2.25 0.0 0
M  V30 21 O 2.598 -2.25 0.0 0
M  V30 22 O 1.299 0.0 0.0 0
M  V30 23 O 1.299 1.4999 0.0 0
M  V30 24 C 2.598 3.75 0.0 0
M  V30 25 C 1.299 4.4999 0.0 0
M  V30 26 C 3.8971 4.5 0.0 0
M  V30 27 C 1.299 6.0 0.0 0
M  V30 28 C 3.8971 6.0 0.0 0
M  V30 29 C 2.598 6.7499 0.0 0
M  V30 END ATOM
M  V30 BEGIN BOND
M  V30 1 1 1 2
M  V30 2 1 2 3
M  V30 3 1 2 4
M  V30 4 1 2 5
M  V30 5 2 5 6
M  V30 6 1 5 7
M  V30 7 1 6 8
M  V30 8 2 7 9
M  V30 9 1 8 10
M  V30 10 2 8 11
M  V30 11 1 10 12
M  V30 12 2 10 13
M  V30 13 1 12 14
M  V30 14 1 13 15
M  V30 15 1 14 16
M  V30 16 2 16 17
M  V30 17 1 17 18
M  V30 18 1 17 19
M  V30 19 1 18 20
M  V30 20 2 19 21
M  V30 21 1 19 22
M  V30 22 2 20 23
M  V30 23 1 20 24
M  V30 24 2 24 25
M  V30 25 1 24 26
M  V30 26 1 25 27
M  V30 27 2 26 28
M  V30 28 2 27 29
M  V30 29 1 9 11
M  V30 30 2 14 15
M  V30 31 1 28 29
M  V30 END BOND
M  V30 END CTAB
M  END
>  <Molecule ChEMBL ID>
CHEMBL370326

>  <Smiles>
O=C(O)/C(=C/c1ccc(-c2cccc(C(F)(F)F)c2)o1)NC(=O)c1ccccc1

>  <IC50>
8700

$$$$
CHEMBL370081
Actelion Java MolfileCreator 2.0

  0  0  0  0  0  0              0 V3000
M  V30 BEGIN CTAB
M  V30 COUNTS 29 31 0 0 0
M  V30 BEGIN ATOM
M  V30 1 O 5.1961 -2.2499 0.0 0
M  V30 2 C 3.8971 -2.9999 0.0 0
M  V30 3 N 2.598 -2.2499 0.0 0
M  V30 4 C 3.8971 -4.5 0.0 0
M  V30 5 C 2.598 -0.75 0.0 0
M  V30 6 C 2.598 -5.2499 0.0 0
M  V30 7 C 5.1961 -5.25 0.0 0
M  V30 8 C 3.8971 0.0 0.0 0
M  V30 9 C 1.299 0.0 0.0 0
M  V30 10 C 2.598 -6.7499 0.0 0
M  V30 11 C 5.1961 -6.75 0.0 0
M  V30 12 O 3.8971 1.4999 0.0 0
M  V30 13 O 5.1961 -0.7499 0.0 0
M  V30 14 C 0.0 -0.75 0.0 0
M  V30 15 C 3.8971 -7.4999 0.0 0
M  V30 16 C -1.299 0.0 0.0 0
M  V30 17 C 0.0 -2.2499 0.0 0
M  V30 18 C -2.598 -0.7499 0.0 0
M  V30 19 C -1.299 -2.9999 0.0 0
M  V30 20 C -2.598 -2.2499 0.0 0
M  V30 21 O -3.8971 -2.9999 0.0 0
M  V30 22 C -3.8971 -4.4999 0.0 0
M  V30 23 C -5.1961 -5.2499 0.0 0
M  V30 24 C -2.598 -5.2499 0.0 0
M  V30 25 C -5.1961 -6.7499 0.0 0
M  V30 26 C -6.4951 -4.4999 0.0 0
M  V30 27 C -2.598 -6.7499 0.0 0
M  V30 28 C -3.8971 -7.4999 0.0 0
M  V30 29 C -7.7942 -5.2499 0.0 0
M  V30 END ATOM
M  V30 BEGIN BOND
M  V30 1 2 1 2
M  V30 2 1 2 3
M  V30 3 1 2 4
M  V30 4 1 3 5
M  V30 5 2 4 6
M  V30 6 1 4 7
M  V30 7 1 5 8
M  V30 8 2 5 9
M  V30 9 1 6 10
M  V30 10 2 7 11
M  V30 11 2 8 12
M  V30 12 1 8 13
M  V30 13 1 9 14
M  V30 14 2 10 15
M  V30 15 2 14 16
M  V30 16 1 14 17
M  V30 17 1 16 18
M  V30 18 2 17 19
M  V30 19 2 18 20
M  V30 20 1 20 21
M  V30 21 1 21 22
M  V30 22 2 22 23
M  V30 23 1 22 24
M  V30 24 1 23 25
M  V30 25 1 23 26
M  V30 26 2 24 27
M  V30 27 2 25 28
M  V30 28 1 26 29
M  V30 29 1 11 15
M  V30 30 1 19 20
M  V30 31 1 27 28
M  V30 END BOND
M  V30 END CTAB
M  END
>  <Molecule ChEMBL ID>
CHEMBL370081

>  <Smiles>
CCc1ccccc1Oc1ccc(/C=C(\NC(=O)c2ccccc2)C(=O)O)cc1

>  <IC50>
9400

$$$$
CHEMBL425915
Actelion Java MolfileCreator 2.0

  0  0  0  0  0  0              0 V3000
M  V30 BEGIN CTAB
M  V30 COUNTS 27 29 0 0 0
M  V30 BEGIN ATOM
M  V30 1 Cl 5.1961 3.7499 0.0 0
M  V30 2 C 6.4951 4.5 0.0 0
M  V30 3 C 7.7942 3.75 0.0 0
M  V30 4 C 6.4951 5.9999 0.0 0
M  V30 5 C 7.7942 2.25 0.0 0
M  V30 6 C 9.0932 4.5 0.0 0
M  V30 7 C 7.7942 6.75 0.0 0
M  V30 8 N 6.4951 1.5 0.0 0
M  V30 9 C 9.0932 1.4999 0.0 0
M  V30 10 C 9.0932 6.0 0.0 0
M  V30 11 C 6.4951 0.0 0.0 0
M  V30 12 C 9.0932 0.0 0.0 0
M  V30 13 C 7.7942 -0.75 0.0 0
M  V30 14 C 5.1961 -0.75 0.0 0
M  V30 15 C 3.8971 0.0 0.0 0
M  V30 16 N 3.8971 1.4999 0.0 0
M  V30 17 C 2.598 -0.75 0.0 0
M  V30 18 C 2.598 2.2499 0.0 0
M  V30 19 O 2.598 -2.25 0.0 0
M  V30 20 O 1.299 0.0 0.0 0
M  V30 21 O 1.299 1.4999 0.0 0
M  V30 22 C 2.598 3.75 0.0 0
M  V30 23 C 1.299 4.4999 0.0 0
M  V30 24 C 3.8971 4.5 0.0 0
M  V30 25 C 1.299 5.9999 0.0 0
M  V30 26 C 3.8971 6.0 0.0 0
M  V30 27 C 2.598 6.7499 0.0 0
M  V30 END ATOM
M  V30 BEGIN BOND
M  V30 1 1 1 2
M  V30 2 2 2 3
M  V30 3 1 2 4
M  V30 4 1 3 5
M  V30 5 1 3 6
M  V30 6 2 4 7
M  V30 7 2 5 8
M  V30 8 1 5 9
M  V30 9 2 6 10
M  V30 10 1 8 11
M  V30 11 2 9 12
M  V30 12 2 11 13
M  V30 13 1 11 14
M  V30 14 2 14 15
M  V30 15 1 15 16
M  V30 16 1 15 17
M  V30 17 1 16 18
M  V30 18 2 17 19
M  V30 19 1 17 20
M  V30 20 2 18 21
M  V30 21 1 18 22
M  V30 22 2 22 23
M  V30 23 1 22 24
M  V30 24 1 23 25
M  V30 25 2 24 26
M  V30 26 2 25 27
M  V30 27 1 7 10
M  V30 28 1 12 13
M  V30 29 1 26 27
M  V30 END BOND
M  V30 END CTAB
M  END
>  <Molecule ChEMBL ID>
CHEMBL425915

>  <Smiles>
O=C(O)/C(=C/c1cccc(-c2ccccc2Cl)n1)NC(=O)c1ccccc1

>  <IC50>
11000

$$$$
CHEMBL371388
Actelion Java MolfileCreator 2.0

  0  0  0  0  0  0              0 V3000
M  V30 BEGIN CTAB
M  V30 COUNTS 26 28 0 0 0
M  V30 BEGIN ATOM
M  V30 1 F 0.6129 -6.2749 0.0 0
M  V30 2 C 1.2007 -5.4658 0.0 0
M  V30 3 C 0.794 -4.5523 0.0 0
M  V30 4 C 2.1952 -5.5704 0.0 0
M  V30 5 C 1.3817 -3.7433 0.0 0
M  V30 6 C 2.783 -4.7614 0.0 0
M  V30 7 C 2.3763 -3.8478 0.0 0
M  V30 8 C 2.9641 -3.0388 0.0 0
M  V30 9 O 2.655 -2.0877 0.0 0
M  V30 10 C 3.9641 -3.0388 0.0 0
M  V30 11 C 3.4641 -1.5 0.0 0
M  V30 12 C 4.2731 -2.0877 0.0 0
M  V30 13 C 3.4641 -0.5 0.0 0
M  V30 14 C 2.598 0.0 0.0 0
M  V30 15 N 1.732 -0.5 0.0 0
M  V30 16 C 2.598 1.0 0.0 0
M  V30 17 C 0.866 0.0 0.0 0
M  V30 18 O 3.4641 1.4999 0.0 0
M  V30 19 O 1.732 1.5 0.0 0
M  V30 20 O 0.866 1.0 0.0 0
M  V30 21 C 0.0 -0.5 0.0 0
M  V30 22 C -0.866 0.0 0.0 0
M  V30 23 C 0.0 -1.4999 0.0 0
M  V30 24 C -1.732 -0.4999 0.0 0
M  V30 25 C -0.866 -1.9999 0.0 0
M  V30 26 C -1.732 -1.4999 0.0 0
M  V30 END ATOM
M  V30 BEGIN BOND
M  V30 1 1 1 2
M  V30 2 2 2 3
M  V30 3 1 2 4
M  V30 4 1 3 5
M  V30 5 2 4 6
M  V30 6 2 5 7
M  V30 7 1 7 8
M  V30 8 1 8 9
M  V30 9 2 8 10
M  V30 10 1 9 11
M  V30 11 1 10 12
M  V30 12 1 11 13
M  V30 13 2 13 14
M  V30 14 1 14 15
M  V30 15 1 14 16
M  V30 16 1 15 17
M  V30 17 2 16 18
M  V30 18 1 16 19
M  V30 19 2 17 20
M  V30 20 1 17 21
M  V30 21 2 21 22
M  V30 22 1 21 23
M  V30 23 1 22 24
M  V30 24 2 23 25
M  V30 25 2 24 26
M  V30 26 1 6 7
M  V30 27 2 11 12
M  V30 28 1 25 26
M  V30 END BOND
M  V30 END CTAB
M  END
>  <Molecule ChEMBL ID>
CHEMBL371388

>  <Smiles>
O=C(O)/C(=C/c1ccc(-c2ccc(F)cc2)o1)NC(=O)c1ccccc1

>  <IC50>
12000

$$$$
CHEMBL425017
Actelion Java MolfileCreator 2.0

  0  0  0  0  0  0              0 V3000
M  V30 BEGIN CTAB
M  V30 COUNTS 29 31 0 0 0
M  V30 BEGIN ATOM
M  V30 1 F 9.1893 7.895 0.0 0
M  V30 2 C 10.5596 7.2849 0.0 0
M  V30 3 F 11.1697 8.6552 0.0 0
M  V30 4 F 11.9299 6.6748 0.0 0
M  V30 5 C 9.9495 5.9146 0.0 0
M  V30 6 C 8.4577 5.7578 0.0 0
M  V30 7 C 10.8311 4.701 0.0 0
M  V30 8 C 7.8476 4.3874 0.0 0
M  V30 9 C 10.221 3.3307 0.0 0
M  V30 10 C 8.7293 3.1739 0.0 0
M  V30 11 C 8.1192 1.8036 0.0 0
M  V30 12 O 6.6519 1.4917 0.0 0
M  V30 13 C 8.8692 0.5046 0.0 0
M  V30 14 C 6.4951 0.0 0.0 0
M  V30 15 C 7.8655 -0.6101 0.0 0
M  V30 16 C 5.1961 -0.75 0.0 0
M  V30 17 C 3.8971 0.0 0.0 0
M  V30 18 N 3.8971 1.5 0.0 0
M  V30 19 C 2.598 -0.75 0.0 0
M  V30 20 C 2.598 2.25 0.0 0
M  V30 21 O 2.598 -2.25 0.0 0
M  V30 22 O 1.299 0.0 0.0 0
M  V30 23 O 1.299 1.4999 0.0 0
M  V30 24 C 2.598 3.75 0.0 0
M  V30 25 C 1.299 4.4999 0.0 0
M  V30 26 C 3.8971 4.5 0.0 0
M  V30 27 C 1.299 6.0 0.0 0
M  V30 28 C 3.8971 6.0 0.0 0
M  V30 29 C 2.598 6.7499 0.0 0
M  V30 END ATOM
M  V30 BEGIN BOND
M  V30 1 1 1 2
M  V30 2 1 2 3
M  V30 3 1 2 4
M  V30 4 1 2 5
M  V30 5 2 5 6
M  V30 6 1 5 7
M  V30 7 1 6 8
M  V30 8 2 7 9
M  V30 9 2 8 10
M  V30 10 1 10 11
M  V30 11 1 11 12
M  V30 12 2 11 13
M  V30 13 1 12 14
M  V30 14 1 13 15
M  V30 15 1 14 16
M  V30 16 2 16 17
M  V30 17 1 17 18
M  V30 18 1 17 19
M  V30 19 1 18 20
M  V30 20 2 19 21
M  V30 21 1 19 22
M  V30 22 2 20 23
M  V30 23 1 20 24
M  V30 24 2 24 25
M  V30 25 1 24 26
M  V30 26 1 25 27
M  V30 27 2 26 28
M  V30 28 2 27 29
M  V30 29 1 9 10
M  V30 30 2 14 15
M  V30 31 1 28 29
M  V30 END BOND
M  V30 END CTAB
M  END
>  <Molecule ChEMBL ID>
CHEMBL425017

>  <Smiles>
O=C(O)/C(=C/c1ccc(-c2ccc(C(F)(F)F)cc2)o1)NC(=O)c1ccccc1

>  <IC50>
13000

$$$$
CHEMBL191813
Actelion Java MolfileCreator 2.0

  0  0  0  0  0  0              0 V3000
M  V30 BEGIN CTAB
M  V30 COUNTS 29 31 0 0 0
M  V30 BEGIN ATOM
M  V30 1 O 5.1961 -2.2499 0.0 0
M  V30 2 C 3.8971 -2.9999 0.0 0
M  V30 3 N 2.598 -2.2499 0.0 0
M  V30 4 C 3.8971 -4.5 0.0 0
M  V30 5 C 2.598 -0.75 0.0 0
M  V30 6 C 2.598 -5.2499 0.0 0
M  V30 7 C 5.1961 -5.25 0.0 0
M  V30 8 C 3.8971 0.0 0.0 0
M  V30 9 C 1.299 0.0 0.0 0
M  V30 10 C 2.598 -6.7499 0.0 0
M  V30 11 C 5.1961 -6.75 0.0 0
M  V30 12 O 3.8971 1.4999 0.0 0
M  V30 13 O 5.1961 -0.7499 0.0 0
M  V30 14 C 0.0 -0.75 0.0 0
M  V30 15 C 3.8971 -7.4999 0.0 0
M  V30 16 C -1.299 0.0 0.0 0
M  V30 17 C 0.0 -2.2499 0.0 0
M  V30 18 C -2.598 -0.7499 0.0 0
M  V30 19 C -1.299 -2.9999 0.0 0
M  V30 20 C -2.598 -2.2499 0.0 0
M  V30 21 O -3.8971 -2.9999 0.0 0
M  V30 22 C -3.8971 -4.4999 0.0 0
M  V30 23 C -5.1961 -5.2499 0.0 0
M  V30 24 C -2.598 -5.2499 0.0 0
M  V30 25 O -6.4951 -4.4999 0.0 0
M  V30 26 C -5.1961 -6.7499 0.0 0
M  V30 27 C -2.598 -6.7499 0.0 0
M  V30 28 C -7.7942 -5.2499 0.0 0
M  V30 29 C -3.8971 -7.4999 0.0 0
M  V30 END ATOM
M  V30 BEGIN BOND
M  V30 1 2 1 2
M  V30 2 1 2 3
M  V30 3 1 2 4
M  V30 4 1 3 5
M  V30 5 2 4 6
M  V30 6 1 4 7
M  V30 7 1 5 8
M  V30 8 2 5 9
M  V30 9 1 6 10
M  V30 10 2 7 11
M  V30 11 2 8 12
M  V30 12 1 8 13
M  V30 13 1 9 14
M  V30 14 2 10 15
M  V30 15 2 14 16
M  V30 16 1 14 17
M  V30 17 1 16 18
M  V30 18 2 17 19
M  V30 19 2 18 20
M  V30 20 1 20 21
M  V30 21 1 21 22
M  V30 22 2 22 23
M  V30 23 1 22 24
M  V30 24 1 23 25
M  V30 25 1 23 26
M  V30 26 2 24 27
M  V30 27 1 25 28
M  V30 28 2 26 29
M  V30 29 1 11 15
M  V30 30 1 19 20
M  V30 31 1 27 29
M  V30 END BOND
M  V30 END CTAB
M  END
>  <Molecule ChEMBL ID>
CHEMBL191813

>  <Smiles>
COc1ccccc1Oc1ccc(/C=C(\NC(=O)c2ccccc2)C(=O)O)cc1

>  <IC50>
15000

$$$$
CHEMBL195772
Actelion Java MolfileCreator 2.0

  0  0  0  0  0  0              0 V3000
M  V30 BEGIN CTAB
M  V30 COUNTS 27 29 0 0 0
M  V30 BEGIN ATOM
M  V30 1 O 5.1961 -2.2499 0.0 0
M  V30 2 C 3.8971 -2.9999 0.0 0
M  V30 3 N 2.598 -2.2499 0.0 0
M  V30 4 C 3.8971 -4.5 0.0 0
M  V30 5 C 2.598 -0.75 0.0 0
M  V30 6 C 2.598 -5.2499 0.0 0
M  V30 7 C 5.1961 -5.25 0.0 0
M  V30 8 C 3.8971 0.0 0.0 0
M  V30 9 C 1.299 0.0 0.0 0
M  V30 10 C 2.598 -6.7499 0.0 0
M  V30 11 C 5.1961 -6.75 0.0 0
M  V30 12 O 3.8971 1.4999 0.0 0
M  V30 13 O 5.1961 -0.7499 0.0 0
M  V30 14 C 0.0 -0.75 0.0 0
M  V30 15 C 3.8971 -7.4999 0.0 0
M  V30 16 C -1.299 0.0 0.0 0
M  V30 17 C 0.0 -2.2499 0.0 0
M  V30 18 C -2.598 -0.7499 0.0 0
M  V30 19 C -1.299 -2.9999 0.0 0
M  V30 20 C -2.598 -2.2499 0.0 0
M  V30 21 O -3.8971 -2.9999 0.0 0
M  V30 22 C -3.8971 -4.4999 0.0 0
M  V30 23 C -5.1961 -5.2499 0.0 0
M  V30 24 C -2.598 -5.2499 0.0 0
M  V30 25 C -5.1961 -6.7499 0.0 0
M  V30 26 C -2.598 -6.7499 0.0 0
M  V30 27 C -3.8971 -7.4999 0.0 0
M  V30 END ATOM
M  V30 BEGIN BOND
M  V30 1 2 1 2
M  V30 2 1 2 3
M  V30 3 1 2 4
M  V30 4 1 3 5
M  V30 5 2 4 6
M  V30 6 1 4 7
M  V30 7 1 5 8
M  V30 8 2 5 9
M  V30 9 1 6 10
M  V30 10 2 7 11
M  V30 11 2 8 12
M  V30 12 1 8 13
M  V30 13 1 9 14
M  V30 14 2 10 15
M  V30 15 2 14 16
M  V30 16 1 14 17
M  V30 17 1 16 18
M  V30 18 2 17 19
M  V30 19 2 18 20
M  V30 20 1 20 21
M  V30 21 1 21 22
M  V30 22 2 22 23
M  V30 23 1 22 24
M  V30 24 1 23 25
M  V30 25 2 24 26
M  V30 26 2 25 27
M  V30 27 1 11 15
M  V30 28 1 19 20
M  V30 29 1 26 27
M  V30 END BOND
M  V30 END CTAB
M  END
>  <Molecule ChEMBL ID>
CHEMBL195772

>  <Smiles>
O=C(O)/C(=C/c1ccc(Oc2ccccc2)cc1)NC(=O)c1ccccc1

>  <IC50>
17000

$$$$
CHEMBL195243
Actelion Java MolfileCreator 2.0

  0  0  0  0  0  0              0 V3000
M  V30 BEGIN CTAB
M  V30 COUNTS 27 29 0 0 0
M  V30 BEGIN ATOM
M  V30 1 O 5.1961 -2.2499 0.0 0
M  V30 2 C 3.8971 -2.9999 0.0 0
M  V30 3 N 2.598 -2.2499 0.0 0
M  V30 4 C 3.8971 -4.5 0.0 0
M  V30 5 C 2.598 -0.75 0.0 0
M  V30 6 C 2.598 -5.2499 0.0 0
M  V30 7 C 5.1961 -5.25 0.0 0
M  V30 8 C 3.8971 0.0 0.0 0
M  V30 9 C 1.299 0.0 0.0 0
M  V30 10 C 2.598 -6.7499 0.0 0
M  V30 11 C 5.1961 -6.75 0.0 0
M  V30 12 O 3.8971 1.4999 0.0 0
M  V30 13 O 5.1961 -0.7499 0.0 0
M  V30 14 C 0.0 -0.75 0.0 0
M  V30 15 C 3.8971 -7.4999 0.0 0
M  V30 16 O -1.3703 -0.1398 0.0 0
M  V30 17 C -0.1567 -2.2417 0.0 0
M  V30 18 C -2.374 -1.2546 0.0 0
M  V30 19 C -1.624 -2.5536 0.0 0
M  V30 20 C -3.8657 -1.0978 0.0 0
M  V30 21 C -4.4759 0.2724 0.0 0
M  V30 22 C -4.7474 -2.3113 0.0 0
M  V30 23 O -3.5942 1.486 0.0 0
M  V30 24 C -5.9676 0.4292 0.0 0
M  V30 25 C -6.2392 -2.1545 0.0 0
M  V30 26 C -4.2043 2.8563 0.0 0
M  V30 27 C -6.8493 -0.7842 0.0 0
M  V30 END ATOM
M  V30 BEGIN BOND
M  V30 1 2 1 2
M  V30 2 1 2 3
M  V30 3 1 2 4
M  V30 4 1 3 5
M  V30 5 2 4 6
M  V30 6 1 4 7
M  V30 7 1 5 8
M  V30 8 2 5 9
M  V30 9 1 6 10
M  V30 10 2 7 11
M  V30 11 2 8 12
M  V30 12 1 8 13
M  V30 13 1 9 14
M  V30 14 2 10 15
M  V30 15 1 14 16
M  V30 16 2 14 17
M  V30 17 1 16 18
M  V30 18 1 17 19
M  V30 19 1 18 20
M  V30 20 2 20 21
M  V30 21 1 20 22
M  V30 22 1 21 23
M  V30 23 1 21 24
M  V30 24 2 22 25
M  V30 25 1 23 26
M  V30 26 2 24 27
M  V30 27 1 11 15
M  V30 28 2 18 19
M  V30 29 1 25 27
M  V30 END BOND
M  V30 END CTAB
M  END
>  <Molecule ChEMBL ID>
CHEMBL195243

>  <Smiles>
COc1ccccc1-c1ccc(/C=C(\NC(=O)c2ccccc2)C(=O)O)o1

>  <IC50>
20000

$$$$
CHEMBL364668
Actelion Java MolfileCreator 2.0

  0  0  0  0  0  0              0 V3000
M  V30 BEGIN CTAB
M  V30 COUNTS 27 29 0 0 0
M  V30 BEGIN ATOM
M  V30 1 S 7.8655 -0.6101 0.0 0
M  V30 2 C 8.8692 0.5046 0.0 0
M  V30 3 C 6.4951 0.0 0.0 0
M  V30 4 C 10.3609 0.3478 0.0 0
M  V30 5 C 8.1192 1.8036 0.0 0
M  V30 6 C 6.6519 1.4917 0.0 0
M  V30 7 C 5.1961 -0.75 0.0 0
M  V30 8 C 10.971 -1.0224 0.0 0
M  V30 9 C 11.2426 1.5613 0.0 0
M  V30 10 C 3.8971 0.0 0.0 0
M  V30 11 C 12.4628 -1.1792 0.0 0
M  V30 12 C 10.0894 -2.236 0.0 0
M  V30 13 C 12.7344 1.4045 0.0 0
M  V30 14 N 3.8971 1.4999 0.0 0
M  V30 15 C 2.598 -0.75 0.0 0
M  V30 16 C 13.3445 0.0342 0.0 0
M  V30 17 O 10.6995 -3.6063 0.0 0
M  V30 18 C 2.598 2.2499 0.0 0
M  V30 19 O 2.598 -2.25 0.0 0
M  V30 20 O 1.299 0.0 0.0 0
M  V30 21 O 1.299 1.4999 0.0 0
M  V30 22 C 2.598 3.75 0.0 0
M  V30 23 C 1.299 4.4999 0.0 0
M  V30 24 C 3.8971 4.5 0.0 0
M  V30 25 C 1.299 5.9999 0.0 0
M  V30 26 C 3.8971 6.0 0.0 0
M  V30 27 C 2.598 6.7499 0.0 0
M  V30 END ATOM
M  V30 BEGIN BOND
M  V30 1 1 1 2
M  V30 2 1 1 3
M  V30 3 1 2 4
M  V30 4 2 2 5
M  V30 5 2 3 6
M  V30 6 1 3 7
M  V30 7 2 4 8
M  V30 8 1 4 9
M  V30 9 2 7 10
M  V30 10 1 8 11
M  V30 11 1 8 12
M  V30 12 2 9 13
M  V30 13 1 10 14
M  V30 14 1 10 15
M  V30 15 2 11 16
M  V30 16 1 12 17
M  V30 17 1 14 18
M  V30 18 2 15 19
M  V30 19 1 15 20
M  V30 20 2 18 21
M  V30 21 1 18 22
M  V30 22 2 22 23
M  V30 23 1 22 24
M  V30 24 1 23 25
M  V30 25 2 24 26
M  V30 26 2 25 27
M  V30 27 1 5 6
M  V30 28 1 13 16
M  V30 29 1 26 27
M  V30 END BOND
M  V30 END CTAB
M  END
>  <Molecule ChEMBL ID>
CHEMBL364668

>  <Smiles>
O=C(O)/C(=C/c1ccc(-c2ccccc2CO)s1)NC(=O)c1ccccc1

>  <IC50>
20000

$$$$
CHEMBL193525
Actelion Java MolfileCreator 2.0

  0  0  0  0  0  0              0 V3000
M  V30 BEGIN CTAB
M  V30 COUNTS 30 32 0 0 0
M  V30 BEGIN ATOM
M  V30 1 F 7.9297 5.9556 0.0 0
M  V30 2 C 8.0342 4.9611 0.0 0
M  V30 3 F 9.0287 5.0656 0.0 0
M  V30 4 F 8.1388 3.9666 0.0 0
M  V30 5 O 7.0397 4.8566 0.0 0
M  V30 6 C 6.633 3.943 0.0 0
M  V30 7 C 5.6384 3.8385 0.0 0
M  V30 8 C 7.2207 3.134 0.0 0
M  V30 9 C 5.2317 2.9249 0.0 0
M  V30 10 C 6.814 2.2205 0.0 0
M  V30 11 C 5.8195 2.1159 0.0 0
M  V30 12 C 5.4128 1.2024 0.0 0
M  V30 13 O 4.4346 0.9945 0.0 0
M  V30 14 C 5.9128 0.3364 0.0 0
M  V30 15 C 4.3301 0.0 0.0 0
M  V30 16 C 5.2436 -0.4067 0.0 0
M  V30 17 C 3.4641 -0.5 0.0 0
M  V30 18 C 2.598 0.0 0.0 0
M  V30 19 N 2.598 0.9999 0.0 0
M  V30 20 C 1.732 -0.5 0.0 0
M  V30 21 C 1.732 1.4999 0.0 0
M  V30 22 O 1.732 -1.5 0.0 0
M  V30 23 O 0.866 0.0 0.0 0
M  V30 24 O 0.866 0.9999 0.0 0
M  V30 25 C 1.732 2.4999 0.0 0
M  V30 26 C 0.866 2.9999 0.0 0
M  V30 27 C 2.598 3.0 0.0 0
M  V30 28 C 0.866 3.9999 0.0 0
M  V30 29 C 2.598 4.0 0.0 0
M  V30 30 C 1.732 4.4999 0.0 0
M  V30 END ATOM
M  V30 BEGIN BOND
M  V30 1 1 1 2
M  V30 2 1 2 3
M  V30 3 1 2 4
M  V30 4 1 2 5
M  V30 5 1 5 6
M  V30 6 2 6 7
M  V30 7 1 6 8
M  V30 8 1 7 9
M  V30 9 2 8 10
M  V30 10 2 9 11
M  V30 11 1 11 12
M  V30 12 1 12 13
M  V30 13 2 12 14
M  V30 14 1 13 15
M  V30 15 1 14 16
M  V30 16 1 15 17
M  V30 17 2 17 18
M  V30 18 1 18 19
M  V30 19 1 18 20
M  V30 20 1 19 21
M  V30 21 2 20 22
M  V30 22 1 20 23
M  V30 23 2 21 24
M  V30 24 1 21 25
M  V30 25 2 25 26
M  V30 26 1 25 27
M  V30 27 1 26 28
M  V30 28 2 27 29
M  V30 29 2 28 30
M  V30 30 1 10 11
M  V30 31 2 15 16
M  V30 32 1 29 30
M  V30 END BOND
M  V30 END CTAB
M  END
>  <Molecule ChEMBL ID>
CHEMBL193525

>  <Smiles>
O=C(O)/C(=C/c1ccc(-c2ccc(OC(F)(F)F)cc2)o1)NC(=O)c1ccccc1

>  <IC50>
22000

$$$$
CHEMBL364460
Actelion Java MolfileCreator 2.0

  0  0  0  0  0  0              0 V3000
M  V30 BEGIN CTAB
M  V30 COUNTS 28 30 0 0 0
M  V30 BEGIN ATOM
M  V30 1 O 8.1861 8.3416 0.0 0
M  V30 2 N 7.576 6.9713 0.0 0 CHG=1
M  V30 3 O 6.0842 6.8145 0.0 0 CHG=-1
M  V30 4 C 8.4577 5.7578 0.0 0
M  V30 5 C 7.8476 4.3874 0.0 0
M  V30 6 C 9.9495 5.9146 0.0 0
M  V30 7 C 8.7293 3.1739 0.0 0
M  V30 8 C 10.8311 4.701 0.0 0
M  V30 9 C 8.1192 1.8036 0.0 0
M  V30 10 C 10.221 3.3307 0.0 0
M  V30 11 O 6.6519 1.4917 0.0 0
M  V30 12 C 8.8692 0.5046 0.0 0
M  V30 13 C 6.4951 0.0 0.0 0
M  V30 14 C 7.8655 -0.6101 0.0 0
M  V30 15 C 5.1961 -0.75 0.0 0
M  V30 16 C 3.8971 0.0 0.0 0
M  V30 17 N 3.8971 1.5 0.0 0
M  V30 18 C 2.598 -0.75 0.0 0
M  V30 19 C 2.598 2.25 0.0 0
M  V30 20 O 2.598 -2.25 0.0 0
M  V30 21 O 1.299 0.0 0.0 0
M  V30 22 O 1.299 1.4999 0.0 0
M  V30 23 C 2.598 3.75 0.0 0
M  V30 24 C 1.299 4.4999 0.0 0
M  V30 25 C 3.8971 4.5 0.0 0
M  V30 26 C 1.299 6.0 0.0 0
M  V30 27 C 3.8971 6.0 0.0 0
M  V30 28 C 2.598 6.7499 0.0 0
M  V30 END ATOM
M  V30 BEGIN BOND
M  V30 1 2 1 2
M  V30 2 1 2 3
M  V30 3 1 2 4
M  V30 4 2 4 5
M  V30 5 1 4 6
M  V30 6 1 5 7
M  V30 7 2 6 8
M  V30 8 1 7 9
M  V30 9 2 7 10
M  V30 10 1 9 11
M  V30 11 2 9 12
M  V30 12 1 11 13
M  V30 13 1 12 14
M  V30 14 1 13 15
M  V30 15 2 15 16
M  V30 16 1 16 17
M  V30 17 1 16 18
M  V30 18 1 17 19
M  V30 19 2 18 20
M  V30 20 1 18 21
M  V30 21 2 19 22
M  V30 22 1 19 23
M  V30 23 2 23 24
M  V30 24 1 23 25
M  V30 25 1 24 26
M  V30 26 2 25 27
M  V30 27 2 26 28
M  V30 28 1 8 10
M  V30 29 2 13 14
M  V30 30 1 27 28
M  V30 END BOND
M  V30 END CTAB
M  END
>  <Molecule ChEMBL ID>
CHEMBL364460

>  <Smiles>
O=C(O)/C(=C/c1ccc(-c2cccc([N+](=O)[O-])c2)o1)NC(=O)c1ccccc1

>  <IC50>
25000

$$$$
CHEMBL194131
Actelion Java MolfileCreator 2.0

  0  0  0  0  0  0              0 V3000
M  V30 BEGIN CTAB
M  V30 COUNTS 27 29 0 0 0
M  V30 BEGIN ATOM
M  V30 1 S 10.5596 7.2849 0.0 0
M  V30 2 C 9.9495 5.9146 0.0 0
M  V30 3 C 9.6779 8.4984 0.0 0
M  V30 4 C 8.4577 5.7578 0.0 0
M  V30 5 C 10.8311 4.701 0.0 0
M  V30 6 C 7.8476 4.3874 0.0 0
M  V30 7 C 10.221 3.3307 0.0 0
M  V30 8 C 8.7293 3.1739 0.0 0
M  V30 9 C 8.1192 1.8036 0.0 0
M  V30 10 O 6.6519 1.4917 0.0 0
M  V30 11 C 8.8692 0.5046 0.0 0
M  V30 12 C 6.4951 0.0 0.0 0
M  V30 13 C 7.8655 -0.6101 0.0 0
M  V30 14 C 5.1961 -0.75 0.0 0
M  V30 15 C 3.8971 0.0 0.0 0
M  V30 16 N 3.8971 1.4999 0.0 0
M  V30 17 C 2.598 -0.75 0.0 0
M  V30 18 C 2.598 2.2499 0.0 0
M  V30 19 O 2.598 -2.25 0.0 0
M  V30 20 O 1.299 0.0 0.0 0
M  V30 21 O 1.299 1.4999 0.0 0
M  V30 22 C 2.598 3.75 0.0 0
M  V30 23 C 1.299 4.4999 0.0 0
M  V30 24 C 3.8971 4.5 0.0 0
M  V30 25 C 1.299 5.9999 0.0 0
M  V30 26 C 3.8971 6.0 0.0 0
M  V30 27 C 2.598 6.7499 0.0 0
M  V30 END ATOM
M  V30 BEGIN BOND
M  V30 1 1 1 2
M  V30 2 1 1 3
M  V30 3 2 2 4
M  V30 4 1 2 5
M  V30 5 1 4 6
M  V30 6 2 5 7
M  V30 7 2 6 8
M  V30 8 1 8 9
M  V30 9 1 9 10
M  V30 10 2 9 11
M  V30 11 1 10 12
M  V30 12 1 11 13
M  V30 13 1 12 14
M  V30 14 2 14 15
M  V30 15 1 15 16
M  V30 16 1 15 17
M  V30 17 1 16 18
M  V30 18 2 17 19
M  V30 19 1 17 20
M  V30 20 2 18 21
M  V30 21 1 18 22
M  V30 22 2 22 23
M  V30 23 1 22 24
M  V30 24 1 23 25
M  V30 25 2 24 26
M  V30 26 2 25 27
M  V30 27 1 7 8
M  V30 28 2 12 13
M  V30 29 1 26 27
M  V30 END BOND
M  V30 END CTAB
M  END
>  <Molecule ChEMBL ID>
CHEMBL194131

>  <Smiles>
CSc1ccc(-c2ccc(/C=C(\NC(=O)c3ccccc3)C(=O)O)o2)cc1

>  <IC50>
27000

$$$$
CHEMBL193480
Actelion Java MolfileCreator 2.0

  0  0  0  0  0  0              0 V3000
M  V30 BEGIN CTAB
M  V30 COUNTS 30 32 0 0 0
M  V30 BEGIN ATOM
M  V30 1 O 5.1961 -2.2499 0.0 0
M  V30 2 C 3.8971 -2.9999 0.0 0
M  V30 3 N 2.598 -2.2499 0.0 0
M  V30 4 C 3.8971 -4.5 0.0 0
M  V30 5 C 2.598 -0.75 0.0 0
M  V30 6 C 2.598 -5.2499 0.0 0
M  V30 7 C 5.1961 -5.25 0.0 0
M  V30 8 C 3.8971 0.0 0.0 0
M  V30 9 C 1.299 0.0 0.0 0
M  V30 10 C 2.598 -6.7499 0.0 0
M  V30 11 C 5.1961 -6.75 0.0 0
M  V30 12 O 3.8971 1.4999 0.0 0
M  V30 13 O 5.1961 -0.7499 0.0 0
M  V30 14 C 0.0 -0.75 0.0 0
M  V30 15 C 3.8971 -7.4999 0.0 0
M  V30 16 C -1.299 0.0 0.0 0
M  V30 17 C 0.0 -2.2499 0.0 0
M  V30 18 C -2.598 -0.7499 0.0 0
M  V30 19 C -1.299 -2.9999 0.0 0
M  V30 20 C -2.598 -2.2499 0.0 0
M  V30 21 O -3.8971 -2.9999 0.0 0
M  V30 22 C -3.8971 -4.4999 0.0 0
M  V30 23 C -5.1961 -5.2499 0.0 0
M  V30 24 C -2.598 -5.2499 0.0 0
M  V30 25 C -5.1961 -6.7499 0.0 0
M  V30 26 C -6.4951 -4.4999 0.0 0
M  V30 27 C -2.598 -6.7499 0.0 0
M  V30 28 C -3.8971 -7.4999 0.0 0
M  V30 29 C -6.4951 -2.9999 0.0 0
M  V30 30 C -7.7942 -5.2499 0.0 0
M  V30 END ATOM
M  V30 BEGIN BOND
M  V30 1 2 1 2
M  V30 2 1 2 3
M  V30 3 1 2 4
M  V30 4 1 3 5
M  V30 5 2 4 6
M  V30 6 1 4 7
M  V30 7 1 5 8
M  V30 8 2 5 9
M  V30 9 1 6 10
M  V30 10 2 7 11
M  V30 11 2 8 12
M  V30 12 1 8 13
M  V30 13 1 9 14
M  V30 14 2 10 15
M  V30 15 2 14 16
M  V30 16 1 14 17
M  V30 17 1 16 18
M  V30 18 2 17 19
M  V30 19 2 18 20
M  V30 20 1 20 21
M  V30 21 1 21 22
M  V30 22 2 22 23
M  V30 23 1 22 24
M  V30 24 1 23 25
M  V30 25 1 23 26
M  V30 26 2 24 27
M  V30 27 2 25 28
M  V30 28 1 26 29
M  V30 29 1 26 30
M  V30 30 1 11 15
M  V30 31 1 19 20
M  V30 32 1 27 28
M  V30 END BOND
M  V30 END CTAB
M  END
>  <Molecule ChEMBL ID>
CHEMBL193480

>  <Smiles>
CC(C)c1ccccc1Oc1ccc(/C=C(\NC(=O)c2ccccc2)C(=O)O)cc1

>  <IC50>
28000

$$$$
CHEMBL195087
Actelion Java MolfileCreator 2.0

  0  0  0  0  0  0              0 V3000
M  V30 BEGIN CTAB
M  V30 COUNTS 31 33 0 0 0
M  V30 BEGIN ATOM
M  V30 1 O 3.4641 -1.4999 0.0 0
M  V30 2 C 2.598 -1.9999 0.0 0
M  V30 3 N 1.732 -1.4999 0.0 0
M  V30 4 C 2.598 -3.0 0.0 0
M  V30 5 C 1.732 -0.5 0.0 0
M  V30 6 C 1.732 -3.4999 0.0 0
M  V30 7 C 3.4641 -3.4999 0.0 0
M  V30 8 C 2.598 0.0 0.0 0
M  V30 9 C 0.866 0.0 0.0 0
M  V30 10 C 1.732 -4.4999 0.0 0
M  V30 11 C 3.4641 -4.5 0.0 0
M  V30 12 O 2.598 0.9999 0.0 0
M  V30 13 O 3.4641 -0.4999 0.0 0
M  V30 14 C 0.0 -0.5 0.0 0
M  V30 15 C 2.598 -4.9999 0.0 0
M  V30 16 C -0.866 0.0 0.0 0
M  V30 17 C 0.0 -1.4999 0.0 0
M  V30 18 C -1.732 -0.4999 0.0 0
M  V30 19 C -0.866 -1.9999 0.0 0
M  V30 20 C -1.732 -1.4999 0.0 0
M  V30 21 O -2.598 -1.9999 0.0 0
M  V30 22 C -2.598 -2.9999 0.0 0
M  V30 23 C -3.4641 -3.4999 0.0 0
M  V30 24 C -1.732 -3.4999 0.0 0
M  V30 25 O -4.3301 -2.9999 0.0 0
M  V30 26 C -3.4641 -4.4999 0.0 0
M  V30 27 C -1.732 -4.4999 0.0 0
M  V30 28 C -4.3301 -1.9999 0.0 0
M  V30 29 C -2.598 -4.9999 0.0 0
M  V30 30 C -3.4641 -1.4999 0.0 0
M  V30 31 C -5.1961 -1.4999 0.0 0
M  V30 END ATOM
M  V30 BEGIN BOND
M  V30 1 2 1 2
M  V30 2 1 2 3
M  V30 3 1 2 4
M  V30 4 1 3 5
M  V30 5 2 4 6
M  V30 6 1 4 7
M  V30 7 1 5 8
M  V30 8 2 5 9
M  V30 9 1 6 10
M  V30 10 2 7 11
M  V30 11 2 8 12
M  V30 12 1 8 13
M  V30 13 1 9 14
M  V30 14 2 10 15
M  V30 15 2 14 16
M  V30 16 1 14 17
M  V30 17 1 16 18
M  V30 18 2 17 19
M  V30 19 2 18 20
M  V30 20 1 20 21
M  V30 21 1 21 22
M  V30 22 2 22 23
M  V30 23 1 22 24
M  V30 24 1 23 25
M  V30 25 1 23 26
M  V30 26 2 24 27
M  V30 27 1 25 28
M  V30 28 2 26 29
M  V30 29 1 28 30
M  V30 30 1 28 31
M  V30 31 1 11 15
M  V30 32 1 19 20
M  V30 33 1 27 29
M  V30 END BOND
M  V30 END CTAB
M  END
>  <Molecule ChEMBL ID>
CHEMBL195087

>  <Smiles>
CC(C)Oc1ccccc1Oc1ccc(/C=C(\NC(=O)c2ccccc2)C(=O)O)cc1

>  <IC50>
44000

$$$$
CHEMBL195492
Actelion Java MolfileCreator 2.0

  0  0  0  0  0  0              0 V3000
M  V30 BEGIN CTAB
M  V30 COUNTS 29 31 0 0 0
M  V30 BEGIN ATOM
M  V30 1 O 5.1961 -2.2499 0.0 0
M  V30 2 C 3.8971 -2.9999 0.0 0
M  V30 3 N 2.598 -2.2499 0.0 0
M  V30 4 C 3.8971 -4.5 0.0 0
M  V30 5 C 2.598 -0.75 0.0 0
M  V30 6 C 2.598 -5.2499 0.0 0
M  V30 7 C 5.1961 -5.25 0.0 0
M  V30 8 C 3.8971 0.0 0.0 0
M  V30 9 C 1.299 0.0 0.0 0
M  V30 10 C 2.598 -6.7499 0.0 0
M  V30 11 C 5.1961 -6.75 0.0 0
M  V30 12 O 3.8971 1.4999 0.0 0
M  V30 13 O 5.1961 -0.7499 0.0 0
M  V30 14 C 0.0 -0.75 0.0 0
M  V30 15 C 3.8971 -7.4999 0.0 0
M  V30 16 C -1.299 0.0 0.0 0
M  V30 17 C 0.0 -2.2499 0.0 0
M  V30 18 C -2.598 -0.7499 0.0 0
M  V30 19 C -1.299 -2.9999 0.0 0
M  V30 20 C -2.598 -2.2499 0.0 0
M  V30 21 O -3.8971 -2.9999 0.0 0
M  V30 22 C -3.8971 -4.4999 0.0 0
M  V30 23 C -5.1961 -5.2499 0.0 0
M  V30 24 C -2.598 -5.2499 0.0 0
M  V30 25 C -6.4951 -4.4999 0.0 0
M  V30 26 C -5.1961 -6.7499 0.0 0
M  V30 27 C -2.598 -6.7499 0.0 0
M  V30 28 N -7.7942 -3.7499 0.0 0
M  V30 29 C -3.8971 -7.4999 0.0 0
M  V30 END ATOM
M  V30 BEGIN BOND
M  V30 1 2 1 2
M  V30 2 1 2 3
M  V30 3 1 2 4
M  V30 4 1 3 5
M  V30 5 2 4 6
M  V30 6 1 4 7
M  V30 7 1 5 8
M  V30 8 2 5 9
M  V30 9 1 6 10
M  V30 10 2 7 11
M  V30 11 2 8 12
M  V30 12 1 8 13
M  V30 13 1 9 14
M  V30 14 2 10 15
M  V30 15 2 14 16
M  V30 16 1 14 17
M  V30 17 1 16 18
M  V30 18 2 17 19
M  V30 19 2 18 20
M  V30 20 1 20 21
M  V30 21 1 21 22
M  V30 22 2 22 23
M  V30 23 1 22 24
M  V30 24 1 23 25
M  V30 25 1 23 26
M  V30 26 2 24 27
M  V30 27 3 25 28
M  V30 28 2 26 29
M  V30 29 1 11 15
M  V30 30 1 19 20
M  V30 31 1 27 29
M  V30 END BOND
M  V30 END CTAB
M  END
>  <Molecule ChEMBL ID>
CHEMBL195492

>  <Smiles>
N#Cc1ccccc1Oc1ccc(/C=C(\NC(=O)c2ccccc2)C(=O)O)cc1

>  <IC50>
47000

$$$$
CHEMBL193508
Actelion Java MolfileCreator 2.0

  0  0  0  0  0  0              0 V3000
M  V30 BEGIN CTAB
M  V30 COUNTS 33 36 0 0 0
M  V30 BEGIN ATOM
M  V30 1 O 3.4641 -1.4999 0.0 0
M  V30 2 C 2.598 -1.9999 0.0 0
M  V30 3 N 1.732 -1.4999 0.0 0
M  V30 4 C 2.598 -3.0 0.0 0
M  V30 5 C 1.732 -0.5 0.0 0
M  V30 6 C 1.732 -3.4999 0.0 0
M  V30 7 C 3.4641 -3.4999 0.0 0
M  V30 8 C 2.598 0.0 0.0 0
M  V30 9 C 0.866 0.0 0.0 0
M  V30 10 C 1.732 -4.4999 0.0 0
M  V30 11 C 3.4641 -4.5 0.0 0
M  V30 12 O 2.598 0.9999 0.0 0
M  V30 13 O 3.4641 -0.4999 0.0 0
M  V30 14 C 0.0 -0.5 0.0 0
M  V30 15 C 2.598 -4.9999 0.0 0
M  V30 16 C -0.866 0.0 0.0 0
M  V30 17 C 0.0 -1.4999 0.0 0
M  V30 18 C -1.732 -0.4999 0.0 0
M  V30 19 C -0.866 -1.9999 0.0 0
M  V30 20 C -1.732 -1.4999 0.0 0
M  V30 21 O -2.598 -1.9999 0.0 0
M  V30 22 C -2.598 -2.9999 0.0 0
M  V30 23 C -3.4641 -3.4999 0.0 0
M  V30 24 C -1.732 -3.4999 0.0 0
M  V30 25 C -4.3301 -2.9999 0.0 0
M  V30 26 C -3.4641 -4.4999 0.0 0
M  V30 27 C -1.732 -4.4999 0.0 0
M  V30 28 C -4.3301 -1.9999 0.0 0
M  V30 29 C -5.1961 -3.4999 0.0 0
M  V30 30 C -2.598 -4.9999 0.0 0
M  V30 31 C -5.1961 -1.4999 0.0 0
M  V30 32 C -6.0621 -2.9999 0.0 0
M  V30 33 C -6.0621 -1.9999 0.0 0
M  V30 END ATOM
M  V30 BEGIN BOND
M  V30 1 2 1 2
M  V30 2 1 2 3
M  V30 3 1 2 4
M  V30 4 1 3 5
M  V30 5 2 4 6
M  V30 6 1 4 7
M  V30 7 1 5 8
M  V30 8 2 5 9
M  V30 9 1 6 10
M  V30 10 2 7 11
M  V30 11 2 8 12
M  V30 12 1 8 13
M  V30 13 1 9 14
M  V30 14 2 10 15
M  V30 15 2 14 16
M  V30 16 1 14 17
M  V30 17 1 16 18
M  V30 18 2 17 19
M  V30 19 2 18 20
M  V30 20 1 20 21
M  V30 21 1 21 22
M  V30 22 2 22 23
M  V30 23 1 22 24
M  V30 24 1 23 25
M  V30 25 1 23 26
M  V30 26 2 24 27
M  V30 27 2 25 28
M  V30 28 1 25 29
M  V30 29 2 26 30
M  V30 30 1 28 31
M  V30 31 2 29 32
M  V30 32 2 31 33
M  V30 33 1 11 15
M  V30 34 1 19 20
M  V30 35 1 27 30
M  V30 36 1 32 33
M  V30 END BOND
M  V30 END CTAB
M  END
>  <Molecule ChEMBL ID>
CHEMBL193508

>  <Smiles>
O=C(O)/C(=C/c1ccc(Oc2ccccc2-c2ccccc2)cc1)NC(=O)c1ccccc1

>  <IC50>
48000

$$$$
CHEMBL363178
Actelion Java MolfileCreator 2.0

  0  0  0  0  0  0              0 V3000
M  V30 BEGIN CTAB
M  V30 COUNTS 30 32 0 0 0
M  V30 BEGIN ATOM
M  V30 1 F 6.8158 8.9517 0.0 0
M  V30 2 C 8.1861 8.3416 0.0 0
M  V30 3 F 8.7962 9.7119 0.0 0
M  V30 4 F 9.5564 7.7315 0.0 0
M  V30 5 O 7.576 6.9713 0.0 0
M  V30 6 C 8.4577 5.7578 0.0 0
M  V30 7 C 7.8476 4.3874 0.0 0
M  V30 8 C 9.9495 5.9146 0.0 0
M  V30 9 C 8.7293 3.1739 0.0 0
M  V30 10 C 10.8311 4.701 0.0 0
M  V30 11 C 8.1192 1.8036 0.0 0
M  V30 12 C 10.221 3.3307 0.0 0
M  V30 13 O 6.6519 1.4917 0.0 0
M  V30 14 C 8.8692 0.5046 0.0 0
M  V30 15 C 6.4951 0.0 0.0 0
M  V30 16 C 7.8655 -0.6101 0.0 0
M  V30 17 C 5.1961 -0.75 0.0 0
M  V30 18 C 3.8971 0.0 0.0 0
M  V30 19 N 3.8971 1.5 0.0 0
M  V30 20 C 2.598 -0.75 0.0 0
M  V30 21 C 2.598 2.25 0.0 0
M  V30 22 O 2.598 -2.25 0.0 0
M  V30 23 O 1.299 0.0 0.0 0
M  V30 24 O 1.299 1.4999 0.0 0
M  V30 25 C 2.598 3.75 0.0 0
M  V30 26 C 1.299 4.4999 0.0 0
M  V30 27 C 3.8971 4.5 0.0 0
M  V30 28 C 1.299 6.0 0.0 0
M  V30 29 C 3.8971 6.0 0.0 0
M  V30 30 C 2.598 6.7499 0.0 0
M  V30 END ATOM
M  V30 BEGIN BOND
M  V30 1 1 1 2
M  V30 2 1 2 3
M  V30 3 1 2 4
M  V30 4 1 2 5
M  V30 5 1 5 6
M  V30 6 2 6 7
M  V30 7 1 6 8
M  V30 8 1 7 9
M  V30 9 2 8 10
M  V30 10 1 9 11
M  V30 11 2 9 12
M  V30 12 1 11 13
M  V30 13 2 11 14
M  V30 14 1 13 15
M  V30 15 1 14 16
M  V30 16 1 15 17
M  V30 17 2 17 18
M  V30 18 1 18 19
M  V30 19 1 18 20
M  V30 20 1 19 21
M  V30 21 2 20 22
M  V30 22 1 20 23
M  V30 23 2 21 24
M  V30 24 1 21 25
M  V30 25 2 25 26
M  V30 26 1 25 27
M  V30 27 1 26 28
M  V30 28 2 27 29
M  V30 29 2 28 30
M  V30 30 1 10 12
M  V30 31 2 15 16
M  V30 32 1 29 30
M  V30 END BOND
M  V30 END CTAB
M  END
>  <Molecule ChEMBL ID>
CHEMBL363178

>  <Smiles>
O=C(O)/C(=C/c1ccc(-c2cccc(OC(F)(F)F)c2)o1)NC(=O)c1ccccc1

>  <IC50>
66000

$$$$
CHEMBL372498
Actelion Java MolfileCreator 2.0

  0  0  0  0  0  0              0 V3000
M  V30 BEGIN CTAB
M  V30 COUNTS 30 32 0 0 0
M  V30 BEGIN ATOM
M  V30 1 O 9.5262 2.9999 0.0 0
M  V30 2 N 8.6602 2.5 0.0 0 CHG=1
M  V30 3 O 7.7942 2.9999 0.0 0 CHG=-1
M  V30 4 C 8.6602 1.4999 0.0 0
M  V30 5 C 7.7942 0.9999 0.0 0
M  V30 6 C 9.5262 0.9999 0.0 0
M  V30 7 O 6.9282 1.4999 0.0 0
M  V30 8 C 7.7942 0.0 0.0 0
M  V30 9 C 9.5262 0.0 0.0 0
M  V30 10 C 6.0621 0.9999 0.0 0
M  V30 11 C 8.6602 -0.5 0.0 0
M  V30 12 C 5.1961 1.4999 0.0 0
M  V30 13 C 6.0621 0.0 0.0 0
M  V30 14 C 4.3301 0.9999 0.0 0
M  V30 15 C 5.1961 -0.5 0.0 0
M  V30 16 C 4.3301 0.0 0.0 0
M  V30 17 C 3.4641 -0.5 0.0 0
M  V30 18 C 2.598 0.0 0.0 0
M  V30 19 N 2.598 0.9999 0.0 0
M  V30 20 C 1.732 -0.5 0.0 0
M  V30 21 C 1.732 1.4999 0.0 0
M  V30 22 O 1.732 -1.5 0.0 0
M  V30 23 O 0.866 0.0 0.0 0
M  V30 24 O 0.866 0.9999 0.0 0
M  V30 25 C 1.732 2.4999 0.0 0
M  V30 26 C 0.866 2.9999 0.0 0
M  V30 27 C 2.598 3.0 0.0 0
M  V30 28 C 0.866 3.9999 0.0 0
M  V30 29 C 2.598 4.0 0.0 0
M  V30 30 C 1.732 4.4999 0.0 0
M  V30 END ATOM
M  V30 BEGIN BOND
M  V30 1 2 1 2
M  V30 2 1 2 3
M  V30 3 1 2 4
M  V30 4 2 4 5
M  V30 5 1 4 6
M  V30 6 1 5 7
M  V30 7 1 5 8
M  V30 8 2 6 9
M  V30 9 1 7 10
M  V30 10 2 8 11
M  V30 11 2 10 12
M  V30 12 1 10 13
M  V30 13 1 12 14
M  V30 14 2 13 15
M  V30 15 2 14 16
M  V30 16 1 16 17
M  V30 17 2 17 18
M  V30 18 1 18 19
M  V30 19 1 18 20
M  V30 20 1 19 21
M  V30 21 2 20 22
M  V30 22 1 20 23
M  V30 23 2 21 24
M  V30 24 1 21 25
M  V30 25 2 25 26
M  V30 26 1 25 27
M  V30 27 1 26 28
M  V30 28 2 27 29
M  V30 29 2 28 30
M  V30 30 1 9 11
M  V30 31 1 15 16
M  V30 32 1 29 30
M  V30 END BOND
M  V30 END CTAB
M  END
>  <Molecule ChEMBL ID>
CHEMBL372498

>  <Smiles>
O=C(O)/C(=C/c1ccc(Oc2ccccc2[N+](=O)[O-])cc1)NC(=O)c1ccccc1

>  <IC50>
73000

$$$$
CHEMBL193520
Actelion Java MolfileCreator 2.0

  0  0  0  0  0  0              0 V3000
M  V30 BEGIN CTAB
M  V30 COUNTS 27 29 0 0 0
M  V30 BEGIN ATOM
M  V30 1 O 5.1961 -2.25 0.0 0
M  V30 2 C 3.8971 -2.9999 0.0 0
M  V30 3 N 2.598 -2.25 0.0 0
M  V30 4 C 3.8971 -4.5 0.0 0
M  V30 5 C 2.598 -0.75 0.0 0
M  V30 6 C 2.598 -5.2499 0.0 0
M  V30 7 C 5.1961 -5.25 0.0 0
M  V30 8 C 3.8971 0.0 0.0 0
M  V30 9 C 1.299 0.0 0.0 0
M  V30 10 C 2.598 -6.7499 0.0 0
M  V30 11 C 5.1961 -6.75 0.0 0
M  V30 12 O 3.8971 1.5 0.0 0
M  V30 13 O 5.1961 -0.75 0.0 0
M  V30 14 C 0.0 -0.75 0.0 0
M  V30 15 C 3.8971 -7.4999 0.0 0
M  V30 16 O -1.3703 -0.1398 0.0 0
M  V30 17 C -0.1567 -2.2417 0.0 0
M  V30 18 C -2.374 -1.2546 0.0 0
M  V30 19 C -1.624 -2.5536 0.0 0
M  V30 20 C -3.8657 -1.0978 0.0 0
M  V30 21 C -4.4759 0.2724 0.0 0
M  V30 22 C -4.7474 -2.3113 0.0 0
M  V30 23 C -5.9676 0.4292 0.0 0
M  V30 24 C -6.2392 -2.1545 0.0 0
M  V30 25 C -6.8493 -0.7842 0.0 0
M  V30 26 C -8.3411 -0.6274 0.0 0
M  V30 27 O -9.2228 -1.8409 0.0 0
M  V30 END ATOM
M  V30 BEGIN BOND
M  V30 1 2 1 2
M  V30 2 1 2 3
M  V30 3 1 2 4
M  V30 4 1 3 5
M  V30 5 2 4 6
M  V30 6 1 4 7
M  V30 7 1 5 8
M  V30 8 2 5 9
M  V30 9 1 6 10
M  V30 10 2 7 11
M  V30 11 2 8 12
M  V30 12 1 8 13
M  V30 13 1 9 14
M  V30 14 2 10 15
M  V30 15 1 14 16
M  V30 16 2 14 17
M  V30 17 1 16 18
M  V30 18 1 17 19
M  V30 19 1 18 20
M  V30 20 2 20 21
M  V30 21 1 20 22
M  V30 22 1 21 23
M  V30 23 2 22 24
M  V30 24 2 23 25
M  V30 25 1 25 26
M  V30 26 1 26 27
M  V30 27 1 11 15
M  V30 28 2 18 19
M  V30 29 1 24 25
M  V30 END BOND
M  V30 END CTAB
M  END
>  <Molecule ChEMBL ID>
CHEMBL193520

>  <Smiles>
O=C(O)/C(=C/c1ccc(-c2ccc(CO)cc2)o1)NC(=O)c1ccccc1

>  <IC50>
100000

$$$$
CHEMBL195565
Actelion Java MolfileCreator 2.0

  0  0  0  0  0  0              0 V3000
M  V30 BEGIN CTAB
M  V30 COUNTS 28 30 0 0 0
M  V30 BEGIN ATOM
M  V30 1 O 12.0514 7.4417 0.0 0
M  V30 2 N 10.5596 7.2849 0.0 0 CHG=1
M  V30 3 O 9.6779 8.4984 0.0 0 CHG=-1
M  V30 4 C 9.9495 5.9146 0.0 0
M  V30 5 C 8.4577 5.7578 0.0 0
M  V30 6 C 10.8311 4.701 0.0 0
M  V30 7 C 7.8476 4.3874 0.0 0
M  V30 8 C 10.221 3.3307 0.0 0
M  V30 9 C 8.7293 3.1739 0.0 0
M  V30 10 C 8.1192 1.8036 0.0 0
M  V30 11 O 6.6519 1.4917 0.0 0
M  V30 12 C 8.8692 0.5046 0.0 0
M  V30 13 C 6.4951 0.0 0.0 0
M  V30 14 C 7.8655 -0.6101 0.0 0
M  V30 15 C 5.1961 -0.75 0.0 0
M  V30 16 C 3.8971 0.0 0.0 0
M  V30 17 N 3.8971 1.4999 0.0 0
M  V30 18 C 2.598 -0.75 0.0 0
M  V30 19 C 2.598 2.2499 0.0 0
M  V30 20 O 2.598 -2.25 0.0 0
M  V30 21 O 1.299 0.0 0.0 0
M  V30 22 O 1.299 1.4999 0.0 0
M  V30 23 C 2.598 3.75 0.0 0
M  V30 24 C 1.299 4.4999 0.0 0
M  V30 25 C 3.8971 4.5 0.0 0
M  V30 26 C 1.299 5.9999 0.0 0
M  V30 27 C 3.8971 6.0 0.0 0
M  V30 28 C 2.598 6.7499 0.0 0
M  V30 END ATOM
M  V30 BEGIN BOND
M  V30 1 2 1 2
M  V30 2 1 2 3
M  V30 3 1 2 4
M  V30 4 2 4 5
M  V30 5 1 4 6
M  V30 6 1 5 7
M  V30 7 2 6 8
M  V30 8 2 7 9
M  V30 9 1 9 10
M  V30 10 1 10 11
M  V30 11 2 10 12
M  V30 12 1 11 13
M  V30 13 1 12 14
M  V30 14 1 13 15
M  V30 15 2 15 16
M  V30 16 1 16 17
M  V30 17 1 16 18
M  V30 18 1 17 19
M  V30 19 2 18 20
M  V30 20 1 18 21
M  V30 21 2 19 22
M  V30 22 1 19 23
M  V30 23 2 23 24
M  V30 24 1 23 25
M  V30 25 1 24 26
M  V30 26 2 25 27
M  V30 27 2 26 28
M  V30 28 1 8 9
M  V30 29 2 13 14
M  V30 30 1 27 28
M  V30 END BOND
M  V30 END CTAB
M  END
>  <Molecule ChEMBL ID>
CHEMBL195565

>  <Smiles>
O=C(O)/C(=C/c1ccc(-c2ccc([N+](=O)[O-])cc2)o1)NC(=O)c1ccccc1

>  <IC50>
100000

$$$$
CHEMBL195310
Actelion Java MolfileCreator 2.0

  0  0  0  0  0  0              0 V3000
M  V30 BEGIN CTAB
M  V30 COUNTS 27 29 0 0 0
M  V30 BEGIN ATOM
M  V30 1 Cl 11.6913 1.4999 0.0 0
M  V30 2 C 11.6913 0.0 0.0 0
M  V30 3 C 10.3923 -0.75 0.0 0
M  V30 4 C 12.9903 -0.75 0.0 0
M  V30 5 C 9.0932 0.0 0.0 0
M  V30 6 C 10.3923 -2.25 0.0 0
M  V30 7 C 12.9903 -2.25 0.0 0
M  V30 8 C 9.0932 1.4999 0.0 0
M  V30 9 C 7.7942 -0.75 0.0 0
M  V30 10 C 11.6913 -3.0 0.0 0
M  V30 11 N 7.7942 2.25 0.0 0
M  V30 12 C 6.4951 0.0 0.0 0
M  V30 13 C 6.4951 1.5 0.0 0
M  V30 14 C 5.1961 -0.75 0.0 0
M  V30 15 C 3.8971 0.0 0.0 0
M  V30 16 N 3.8971 1.5 0.0 0
M  V30 17 C 2.598 -0.75 0.0 0
M  V30 18 C 2.598 2.25 0.0 0
M  V30 19 O 2.598 -2.25 0.0 0
M  V30 20 O 1.299 0.0 0.0 0
M  V30 21 O 1.299 1.4999 0.0 0
M  V30 22 C 2.598 3.75 0.0 0
M  V30 23 C 1.299 4.4999 0.0 0
M  V30 24 C 3.8971 4.5 0.0 0
M  V30 25 C 1.299 6.0 0.0 0
M  V30 26 C 3.8971 6.0 0.0 0
M  V30 27 C 2.598 6.7499 0.0 0
M  V30 END ATOM
M  V30 BEGIN BOND
M  V30 1 1 1 2
M  V30 2 2 2 3
M  V30 3 1 2 4
M  V30 4 1 3 5
M  V30 5 1 3 6
M  V30 6 2 4 7
M  V30 7 2 5 8
M  V30 8 1 5 9
M  V30 9 2 6 10
M  V30 10 1 8 11
M  V30 11 2 9 12
M  V30 12 2 11 13
M  V30 13 1 12 14
M  V30 14 2 14 15
M  V30 15 1 15 16
M  V30 16 1 15 17
M  V30 17 1 16 18
M  V30 18 2 17 19
M  V30 19 1 17 20
M  V30 20 2 18 21
M  V30 21 1 18 22
M  V30 22 2 22 23
M  V30 23 1 22 24
M  V30 24 1 23 25
M  V30 25 2 24 26
M  V30 26 2 25 27
M  V30 27 1 7 10
M  V30 28 1 12 13
M  V30 29 1 26 27
M  V30 END BOND
M  V30 END CTAB
M  END
>  <Molecule ChEMBL ID>
CHEMBL195310

>  <Smiles>
O=C(O)/C(=C/c1cncc(-c2ccccc2Cl)c1)NC(=O)c1ccccc1

>  <IC50>
100000

$$$$
CHEMBL363165
Actelion Java MolfileCreator 2.0

  0  0  0  0  0  0              0 V3000
M  V30 BEGIN CTAB
M  V30 COUNTS 31 33 0 0 0
M  V30 BEGIN ATOM
M  V30 1 O 3.4641 -1.4999 0.0 0
M  V30 2 C 2.598 -1.9999 0.0 0
M  V30 3 N 1.732 -1.4999 0.0 0
M  V30 4 C 2.598 -3.0 0.0 0
M  V30 5 C 1.732 -0.5 0.0 0
M  V30 6 C 1.732 -3.4999 0.0 0
M  V30 7 C 3.4641 -3.4999 0.0 0
M  V30 8 C 2.598 0.0 0.0 0
M  V30 9 C 0.866 0.0 0.0 0
M  V30 10 C 1.732 -4.4999 0.0 0
M  V30 11 C 3.4641 -4.5 0.0 0
M  V30 12 O 2.598 0.9999 0.0 0
M  V30 13 O 3.4641 -0.4999 0.0 0
M  V30 14 C 0.0 -0.5 0.0 0
M  V30 15 C 2.598 -4.9999 0.0 0
M  V30 16 C -0.866 0.0 0.0 0
M  V30 17 C 0.0 -1.4999 0.0 0
M  V30 18 C -1.732 -0.4999 0.0 0
M  V30 19 C -0.866 -1.9999 0.0 0
M  V30 20 C -1.732 -1.4999 0.0 0
M  V30 21 O -2.598 -1.9999 0.0 0
M  V30 22 C -2.598 -2.9999 0.0 0
M  V30 23 C -3.4641 -3.4999 0.0 0
M  V30 24 C -1.732 -3.4999 0.0 0
M  V30 25 C -3.4641 -4.4999 0.0 0
M  V30 26 C -4.3301 -2.9999 0.0 0
M  V30 27 C -1.732 -4.4999 0.0 0
M  V30 28 C -2.598 -4.9999 0.0 0
M  V30 29 C -4.8301 -3.866 0.0 0
M  V30 30 C -5.1961 -2.4999 0.0 0
M  V30 31 C -3.8301 -2.1339 0.0 0
M  V30 END ATOM
M  V30 BEGIN BOND
M  V30 1 2 1 2
M  V30 2 1 2 3
M  V30 3 1 2 4
M  V30 4 1 3 5
M  V30 5 2 4 6
M  V30 6 1 4 7
M  V30 7 1 5 8
M  V30 8 2 5 9
M  V30 9 1 6 10
M  V30 10 2 7 11
M  V30 11 2 8 12
M  V30 12 1 8 13
M  V30 13 1 9 14
M  V30 14 2 10 15
M  V30 15 2 14 16
M  V30 16 1 14 17
M  V30 17 1 16 18
M  V30 18 2 17 19
M  V30 19 2 18 20
M  V30 20 1 20 21
M  V30 21 1 21 22
M  V30 22 2 22 23
M  V30 23 1 22 24
M  V30 24 1 23 25
M  V30 25 1 23 26
M  V30 26 2 24 27
M  V30 27 2 25 28
M  V30 28 1 26 29
M  V30 29 1 26 30
M  V30 30 1 26 31
M  V30 31 1 11 15
M  V30 32 1 19 20
M  V30 33 1 27 28
M  V30 END BOND
M  V30 END CTAB
M  END
>  <Molecule ChEMBL ID>
CHEMBL363165

>  <Smiles>
CC(C)(C)c1ccccc1Oc1ccc(/C=C(\NC(=O)c2ccccc2)C(=O)O)cc1

>  <IC50>
100000

$$$$
CHEMBL364976
Actelion Java MolfileCreator 2.0

  0  0  0  0  0  0              0 V3000
M  V30 BEGIN CTAB
M  V30 COUNTS 27 29 0 0 0
M  V30 BEGIN ATOM
M  V30 1 O 5.1961 -2.2499 0.0 0
M  V30 2 C 3.8971 -2.9999 0.0 0
M  V30 3 N 2.598 -2.2499 0.0 0
M  V30 4 C 3.8971 -4.5 0.0 0
M  V30 5 C 2.598 -0.75 0.0 0
M  V30 6 C 2.598 -5.2499 0.0 0
M  V30 7 C 5.1961 -5.25 0.0 0
M  V30 8 C 3.8971 0.0 0.0 0
M  V30 9 C 1.299 0.0 0.0 0
M  V30 10 C 2.598 -6.7499 0.0 0
M  V30 11 C 5.1961 -6.75 0.0 0
M  V30 12 O 3.8971 1.4999 0.0 0
M  V30 13 O 5.1961 -0.7499 0.0 0
M  V30 14 C 0.0 -0.75 0.0 0
M  V30 15 C 3.8971 -7.4999 0.0 0
M  V30 16 O -1.3703 -0.1398 0.0 0
M  V30 17 C -0.1567 -2.2417 0.0 0
M  V30 18 C -2.374 -1.2546 0.0 0
M  V30 19 C -1.624 -2.5536 0.0 0
M  V30 20 C -3.8657 -1.0978 0.0 0
M  V30 21 C -4.4759 0.2724 0.0 0
M  V30 22 C -4.7474 -2.3113 0.0 0
M  V30 23 C -5.9676 0.4292 0.0 0
M  V30 24 C -6.2392 -2.1545 0.0 0
M  V30 25 C -6.8493 -0.7842 0.0 0
M  V30 26 C -6.5777 1.7996 0.0 0
M  V30 27 O -8.0695 1.9564 0.0 0
M  V30 END ATOM
M  V30 BEGIN BOND
M  V30 1 2 1 2
M  V30 2 1 2 3
M  V30 3 1 2 4
M  V30 4 1 3 5
M  V30 5 2 4 6
M  V30 6 1 4 7
M  V30 7 1 5 8
M  V30 8 2 5 9
M  V30 9 1 6 10
M  V30 10 2 7 11
M  V30 11 2 8 12
M  V30 12 1 8 13
M  V30 13 1 9 14
M  V30 14 2 10 15
M  V30 15 1 14 16
M  V30 16 2 14 17
M  V30 17 1 16 18
M  V30 18 1 17 19
M  V30 19 1 18 20
M  V30 20 2 20 21
M  V30 21 1 20 22
M  V30 22 1 21 23
M  V30 23 2 22 24
M  V30 24 2 23 25
M  V30 25 1 23 26
M  V30 26 1 26 27
M  V30 27 1 11 15
M  V30 28 2 18 19
M  V30 29 1 24 25
M  V30 END BOND
M  V30 END CTAB
M  END
>  <Molecule ChEMBL ID>
CHEMBL364976

>  <Smiles>
O=C(O)/C(=C/c1ccc(-c2cccc(CO)c2)o1)NC(=O)c1ccccc1

>  <IC50>
100000

$$$$
CHEMBL195576
Actelion Java MolfileCreator 2.0

  0  0  0  0  0  0              0 V3000
M  V30 BEGIN CTAB
M  V30 COUNTS 29 31 0 0 0
M  V30 BEGIN ATOM
M  V30 1 S 7.576 6.9713 0.0 0
M  V30 2 O 8.7895 7.853 0.0 0
M  V30 3 O 6.3625 6.0896 0.0 0
M  V30 4 N 6.6943 8.1848 0.0 0
M  V30 5 C 8.4577 5.7578 0.0 0
M  V30 6 C 7.8476 4.3874 0.0 0
M  V30 7 C 9.9495 5.9146 0.0 0
M  V30 8 C 8.7293 3.1739 0.0 0
M  V30 9 C 10.8311 4.701 0.0 0
M  V30 10 C 8.1192 1.8036 0.0 0
M  V30 11 C 10.221 3.3307 0.0 0
M  V30 12 O 6.6519 1.4917 0.0 0
M  V30 13 C 8.8692 0.5046 0.0 0
M  V30 14 C 6.4951 0.0 0.0 0
M  V30 15 C 7.8655 -0.6101 0.0 0
M  V30 16 C 5.1961 -0.75 0.0 0
M  V30 17 C 3.8971 0.0 0.0 0
M  V30 18 N 3.8971 1.5 0.0 0
M  V30 19 C 2.598 -0.75 0.0 0
M  V30 20 C 2.598 2.25 0.0 0
M  V30 21 O 2.598 -2.25 0.0 0
M  V30 22 O 1.299 0.0 0.0 0
M  V30 23 O 1.299 1.4999 0.0 0
M  V30 24 C 2.598 3.75 0.0 0
M  V30 25 C 1.299 4.4999 0.0 0
M  V30 26 C 3.8971 4.5 0.0 0
M  V30 27 C 1.299 6.0 0.0 0
M  V30 28 C 3.8971 6.0 0.0 0
M  V30 29 C 2.598 6.7499 0.0 0
M  V30 END ATOM
M  V30 BEGIN BOND
M  V30 1 2 1 2
M  V30 2 2 1 3
M  V30 3 1 1 4
M  V30 4 1 1 5
M  V30 5 2 5 6
M  V30 6 1 5 7
M  V30 7 1 6 8
M  V30 8 2 7 9
M  V30 9 1 8 10
M  V30 10 2 8 11
M  V30 11 1 10 12
M  V30 12 2 10 13
M  V30 13 1 12 14
M  V30 14 1 13 15
M  V30 15 1 14 16
M  V30 16 2 16 17
M  V30 17 1 17 18
M  V30 18 1 17 19
M  V30 19 1 18 20
M  V30 20 2 19 21
M  V30 21 1 19 22
M  V30 22 2 20 23
M  V30 23 1 20 24
M  V30 24 2 24 25
M  V30 25 1 24 26
M  V30 26 1 25 27
M  V30 27 2 26 28
M  V30 28 2 27 29
M  V30 29 1 9 11
M  V30 30 2 14 15
M  V30 31 1 28 29
M  V30 END BOND
M  V30 END CTAB
M  END
>  <Molecule ChEMBL ID>
CHEMBL195576

>  <Smiles>
NS(=O)(=O)c1cccc(-c2ccc(/C=C(\NC(=O)c3ccccc3)C(=O)O)o2)c1

>  <IC50>
100000

$$$$
CHEMBL192108
Actelion Java MolfileCreator 2.0

  0  0  0  0  0  0              0 V3000
M  V30 BEGIN CTAB
M  V30 COUNTS 29 31 0 0 0
M  V30 BEGIN ATOM
M  V30 1 S 10.5596 7.2849 0.0 0
M  V30 2 O 11.9299 6.6748 0.0 0
M  V30 3 O 9.1893 7.895 0.0 0
M  V30 4 N 11.1697 8.6552 0.0 0
M  V30 5 C 9.9495 5.9146 0.0 0
M  V30 6 C 8.4577 5.7578 0.0 0
M  V30 7 C 10.8311 4.701 0.0 0
M  V30 8 C 7.8476 4.3874 0.0 0
M  V30 9 C 10.221 3.3307 0.0 0
M  V30 10 C 8.7293 3.1739 0.0 0
M  V30 11 C 8.1192 1.8036 0.0 0
M  V30 12 O 6.6519 1.4917 0.0 0
M  V30 13 C 8.8692 0.5046 0.0 0
M  V30 14 C 6.4951 0.0 0.0 0
M  V30 15 C 7.8655 -0.6101 0.0 0
M  V30 16 C 5.1961 -0.75 0.0 0
M  V30 17 C 3.8971 0.0 0.0 0
M  V30 18 N 3.8971 1.5 0.0 0
M  V30 19 C 2.598 -0.75 0.0 0
M  V30 20 C 2.598 2.25 0.0 0
M  V30 21 O 2.598 -2.25 0.0 0
M  V30 22 O 1.299 0.0 0.0 0
M  V30 23 O 1.299 1.4999 0.0 0
M  V30 24 C 2.598 3.75 0.0 0
M  V30 25 C 1.299 4.4999 0.0 0
M  V30 26 C 3.8971 4.5 0.0 0
M  V30 27 C 1.299 6.0 0.0 0
M  V30 28 C 3.8971 6.0 0.0 0
M  V30 29 C 2.598 6.7499 0.0 0
M  V30 END ATOM
M  V30 BEGIN BOND
M  V30 1 2 1 2
M  V30 2 2 1 3
M  V30 3 1 1 4
M  V30 4 1 1 5
M  V30 5 2 5 6
M  V30 6 1 5 7
M  V30 7 1 6 8
M  V30 8 2 7 9
M  V30 9 2 8 10
M  V30 10 1 10 11
M  V30 11 1 11 12
M  V30 12 2 11 13
M  V30 13 1 12 14
M  V30 14 1 13 15
M  V30 15 1 14 16
M  V30 16 2 16 17
M  V30 17 1 17 18
M  V30 18 1 17 19
M  V30 19 1 18 20
M  V30 20 2 19 21
M  V30 21 1 19 22
M  V30 22 2 20 23
M  V30 23 1 20 24
M  V30 24 2 24 25
M  V30 25 1 24 26
M  V30 26 1 25 27
M  V30 27 2 26 28
M  V30 28 2 27 29
M  V30 29 1 9 10
M  V30 30 2 14 15
M  V30 31 1 28 29
M  V30 END BOND
M  V30 END CTAB
M  END
>  <Molecule ChEMBL ID>
CHEMBL192108

>  <Smiles>
NS(=O)(=O)c1ccc(-c2ccc(/C=C(\NC(=O)c3ccccc3)C(=O)O)o2)cc1

>  <IC50>
100000

$$$$
