CHEMBL372357
Actelion Java MolfileCreator 2.0

  0  0  0  0  0  0              0 V3000
M  V30 BEGIN CTAB
M  V30 COUNTS 30 34 0 0 0
M  V30 BEGIN ATOM
M  V30 1 S 3.8971 6.0 0.0 0
M  V30 2 O 3.1471 7.299 0.0 0
M  V30 3 O 2.3971 5.9999 0.0 0
M  V30 4 N 3.8971 4.5 0.0 0
M  V30 5 C 5.1961 6.75 0.0 0
M  V30 6 C 5.1961 3.75 0.0 0
M  V30 7 C 6.4951 6.0 0.0 0
M  V30 8 C 5.1961 8.25 0.0 0
M  V30 9 N 6.4951 4.5 0.0 0
M  V30 10 C 5.1961 2.25 0.0 0
M  V30 11 C 7.7942 6.75 0.0 0
M  V30 12 C 6.4951 9.0 0.0 0
M  V30 13 C 3.8971 1.5 0.0 0
M  V30 14 C 6.4951 1.5 0.0 0
M  V30 15 C 7.7942 8.25 0.0 0
M  V30 16 O 2.598 2.25 0.0 0
M  V30 17 N 3.8971 0.0 0.0 0
M  V30 18 O 7.7942 2.25 0.0 0
M  V30 19 C 6.4951 0.0 0.0 0
M  V30 20 C 5.1961 -0.75 0.0 0
M  V30 21 C 2.598 -0.75 0.0 0
M  V30 22 C 7.7942 -0.75 0.0 0
M  V30 23 C 5.1961 -2.25 0.0 0
M  V30 24 C 1.299 0.0 0.0 0
M  V30 25 C 7.7942 -2.25 0.0 0
M  V30 26 C 6.4951 -3.0 0.0 0
M  V30 27 C 0.0 -0.75 0.0 0
M  V30 28 F 9.0932 -3.0 0.0 0
M  V30 29 C -1.5 -0.75 0.0 0
M  V30 30 C -0.75 -2.049 0.0 0
M  V30 END ATOM
M  V30 BEGIN BOND
M  V30 1 2 1 2
M  V30 2 2 1 3
M  V30 3 1 1 4
M  V30 4 1 1 5
M  V30 5 1 4 6
M  V30 6 2 5 7
M  V30 7 1 5 8
M  V30 8 2 6 9
M  V30 9 1 6 10
M  V30 10 1 7 11
M  V30 11 2 8 12
M  V30 12 1 10 13
M  V30 13 2 10 14
M  V30 14 2 11 15
M  V30 15 2 13 16
M  V30 16 1 13 17
M  V30 17 1 14 18
M  V30 18 1 14 19
M  V30 19 1 17 20
M  V30 20 1 17 21
M  V30 21 1 19 22
M  V30 22 1 20 23
M  V30 23 1 21 24
M  V30 24 2 22 25
M  V30 25 2 23 26
M  V30 26 1 24 27
M  V30 27 1 25 28
M  V30 28 1 27 29
M  V30 29 1 27 30
M  V30 30 1 7 9
M  V30 31 1 12 15
M  V30 32 2 19 20
M  V30 33 1 25 26
M  V30 34 1 29 30
M  V30 END BOND
M  V30 END CTAB
M  END
>  <Molecule ChEMBL ID>
CHEMBL372357

>  <Smiles>
O=c1c(C2=Nc3ccccc3S(=O)(=O)N2)c(O)c2cc(F)ccc2n1CCC1CC1

>  <Standard Value>
10

$$$$
CHEMBL372357
Actelion Java MolfileCreator 2.0

  0  0  0  0  0  0              0 V3000
M  V30 BEGIN CTAB
M  V30 COUNTS 30 34 0 0 0
M  V30 BEGIN ATOM
M  V30 1 S 3.8971 6.0 0.0 0
M  V30 2 O 3.1471 7.299 0.0 0
M  V30 3 O 2.3971 5.9999 0.0 0
M  V30 4 N 3.8971 4.5 0.0 0
M  V30 5 C 5.1961 6.75 0.0 0
M  V30 6 C 5.1961 3.75 0.0 0
M  V30 7 C 6.4951 6.0 0.0 0
M  V30 8 C 5.1961 8.25 0.0 0
M  V30 9 N 6.4951 4.5 0.0 0
M  V30 10 C 5.1961 2.25 0.0 0
M  V30 11 C 7.7942 6.75 0.0 0
M  V30 12 C 6.4951 9.0 0.0 0
M  V30 13 C 3.8971 1.5 0.0 0
M  V30 14 C 6.4951 1.5 0.0 0
M  V30 15 C 7.7942 8.25 0.0 0
M  V30 16 O 2.598 2.25 0.0 0
M  V30 17 N 3.8971 0.0 0.0 0
M  V30 18 O 7.7942 2.25 0.0 0
M  V30 19 C 6.4951 0.0 0.0 0
M  V30 20 C 5.1961 -0.75 0.0 0
M  V30 21 C 2.598 -0.75 0.0 0
M  V30 22 C 7.7942 -0.75 0.0 0
M  V30 23 C 5.1961 -2.25 0.0 0
M  V30 24 C 1.299 0.0 0.0 0
M  V30 25 C 7.7942 -2.25 0.0 0
M  V30 26 C 6.4951 -3.0 0.0 0
M  V30 27 C 0.0 -0.75 0.0 0
M  V30 28 F 9.0932 -3.0 0.0 0
M  V30 29 C -1.5 -0.75 0.0 0
M  V30 30 C -0.75 -2.049 0.0 0
M  V30 END ATOM
M  V30 BEGIN BOND
M  V30 1 2 1 2
M  V30 2 2 1 3
M  V30 3 1 1 4
M  V30 4 1 1 5
M  V30 5 1 4 6
M  V30 6 2 5 7
M  V30 7 1 5 8
M  V30 8 2 6 9
M  V30 9 1 6 10
M  V30 10 1 7 11
M  V30 11 2 8 12
M  V30 12 1 10 13
M  V30 13 2 10 14
M  V30 14 2 11 15
M  V30 15 2 13 16
M  V30 16 1 13 17
M  V30 17 1 14 18
M  V30 18 1 14 19
M  V30 19 1 17 20
M  V30 20 1 17 21
M  V30 21 1 19 22
M  V30 22 1 20 23
M  V30 23 1 21 24
M  V30 24 2 22 25
M  V30 25 2 23 26
M  V30 26 1 24 27
M  V30 27 1 25 28
M  V30 28 1 27 29
M  V30 29 1 27 30
M  V30 30 1 7 9
M  V30 31 1 12 15
M  V30 32 2 19 20
M  V30 33 1 25 26
M  V30 34 1 29 30
M  V30 END BOND
M  V30 END CTAB
M  END
>  <Molecule ChEMBL ID>
CHEMBL372357

>  <Smiles>
O=c1c(C2=Nc3ccccc3S(=O)(=O)N2)c(O)c2cc(F)ccc2n1CCC1CC1

>  <Standard Value>
10

$$$$
CHEMBL202319
Actelion Java MolfileCreator 2.0

  0  0  0  0  0  0              0 V3000
M  V30 BEGIN CTAB
M  V30 COUNTS 29 33 0 0 0
M  V30 BEGIN ATOM
M  V30 1 S 3.8971 6.0 0.0 0
M  V30 2 O 3.1471 7.299 0.0 0
M  V30 3 O 2.3971 5.9999 0.0 0
M  V30 4 N 3.8971 4.5 0.0 0
M  V30 5 C 5.1961 6.75 0.0 0
M  V30 6 C 5.1961 3.75 0.0 0
M  V30 7 C 6.4951 6.0 0.0 0
M  V30 8 C 5.1961 8.25 0.0 0
M  V30 9 N 6.4951 4.5 0.0 0
M  V30 10 C 5.1961 2.25 0.0 0
M  V30 11 C 7.7942 6.75 0.0 0
M  V30 12 C 6.4951 9.0 0.0 0
M  V30 13 C 3.8971 1.5 0.0 0
M  V30 14 C 6.4951 1.5 0.0 0
M  V30 15 C 7.7942 8.25 0.0 0
M  V30 16 O 2.598 2.25 0.0 0
M  V30 17 N 3.8971 0.0 0.0 0
M  V30 18 O 7.7942 2.25 0.0 0
M  V30 19 C 6.4951 0.0 0.0 0
M  V30 20 C 5.1961 -0.75 0.0 0
M  V30 21 C 2.598 -0.75 0.0 0
M  V30 22 C 7.7942 -0.75 0.0 0
M  V30 23 C 5.1961 -2.25 0.0 0
M  V30 24 C 1.299 0.0 0.0 0
M  V30 25 C 7.7942 -2.25 0.0 0
M  V30 26 C 6.4951 -3.0 0.0 0
M  V30 27 C 0.0 -0.75 0.0 0
M  V30 28 C -1.5 -0.75 0.0 0
M  V30 29 C -0.75 -2.049 0.0 0
M  V30 END ATOM
M  V30 BEGIN BOND
M  V30 1 2 1 2
M  V30 2 2 1 3
M  V30 3 1 1 4
M  V30 4 1 1 5
M  V30 5 2 4 6
M  V30 6 2 5 7
M  V30 7 1 5 8
M  V30 8 1 6 9
M  V30 9 1 6 10
M  V30 10 1 7 11
M  V30 11 2 8 12
M  V30 12 1 10 13
M  V30 13 2 10 14
M  V30 14 2 11 15
M  V30 15 2 13 16
M  V30 16 1 13 17
M  V30 17 1 14 18
M  V30 18 1 14 19
M  V30 19 1 17 20
M  V30 20 1 17 21
M  V30 21 1 19 22
M  V30 22 1 20 23
M  V30 23 1 21 24
M  V30 24 2 22 25
M  V30 25 2 23 26
M  V30 26 1 24 27
M  V30 27 1 27 28
M  V30 28 1 27 29
M  V30 29 1 7 9
M  V30 30 1 12 15
M  V30 31 2 19 20
M  V30 32 1 25 26
M  V30 33 1 28 29
M  V30 END BOND
M  V30 END CTAB
M  END
>  <Molecule ChEMBL ID>
CHEMBL202319

>  <Smiles>
O=c1c(C2=NS(=O)(=O)c3ccccc3N2)c(O)c2ccccc2n1CCC1CC1

>  <Standard Value>
13

$$$$
CHEMBL372357
Actelion Java MolfileCreator 2.0

  0  0  0  0  0  0              0 V3000
M  V30 BEGIN CTAB
M  V30 COUNTS 30 34 0 0 0
M  V30 BEGIN ATOM
M  V30 1 S 3.8971 6.0 0.0 0
M  V30 2 O 3.1471 7.299 0.0 0
M  V30 3 O 2.3971 5.9999 0.0 0
M  V30 4 N 3.8971 4.5 0.0 0
M  V30 5 C 5.1961 6.75 0.0 0
M  V30 6 C 5.1961 3.75 0.0 0
M  V30 7 C 6.4951 6.0 0.0 0
M  V30 8 C 5.1961 8.25 0.0 0
M  V30 9 N 6.4951 4.5 0.0 0
M  V30 10 C 5.1961 2.25 0.0 0
M  V30 11 C 7.7942 6.75 0.0 0
M  V30 12 C 6.4951 9.0 0.0 0
M  V30 13 C 3.8971 1.5 0.0 0
M  V30 14 C 6.4951 1.5 0.0 0
M  V30 15 C 7.7942 8.25 0.0 0
M  V30 16 O 2.598 2.25 0.0 0
M  V30 17 N 3.8971 0.0 0.0 0
M  V30 18 O 7.7942 2.25 0.0 0
M  V30 19 C 6.4951 0.0 0.0 0
M  V30 20 C 5.1961 -0.75 0.0 0
M  V30 21 C 2.598 -0.75 0.0 0
M  V30 22 C 7.7942 -0.75 0.0 0
M  V30 23 C 5.1961 -2.25 0.0 0
M  V30 24 C 1.299 0.0 0.0 0
M  V30 25 C 7.7942 -2.25 0.0 0
M  V30 26 C 6.4951 -3.0 0.0 0
M  V30 27 C 0.0 -0.75 0.0 0
M  V30 28 F 9.0932 -3.0 0.0 0
M  V30 29 C -1.5 -0.75 0.0 0
M  V30 30 C -0.75 -2.049 0.0 0
M  V30 END ATOM
M  V30 BEGIN BOND
M  V30 1 2 1 2
M  V30 2 2 1 3
M  V30 3 1 1 4
M  V30 4 1 1 5
M  V30 5 1 4 6
M  V30 6 2 5 7
M  V30 7 1 5 8
M  V30 8 2 6 9
M  V30 9 1 6 10
M  V30 10 1 7 11
M  V30 11 2 8 12
M  V30 12 1 10 13
M  V30 13 2 10 14
M  V30 14 2 11 15
M  V30 15 2 13 16
M  V30 16 1 13 17
M  V30 17 1 14 18
M  V30 18 1 14 19
M  V30 19 1 17 20
M  V30 20 1 17 21
M  V30 21 1 19 22
M  V30 22 1 20 23
M  V30 23 1 21 24
M  V30 24 2 22 25
M  V30 25 2 23 26
M  V30 26 1 24 27
M  V30 27 1 25 28
M  V30 28 1 27 29
M  V30 29 1 27 30
M  V30 30 1 7 9
M  V30 31 1 12 15
M  V30 32 2 19 20
M  V30 33 1 25 26
M  V30 34 1 29 30
M  V30 END BOND
M  V30 END CTAB
M  END
>  <Molecule ChEMBL ID>
CHEMBL372357

>  <Smiles>
O=c1c(C2=Nc3ccccc3S(=O)(=O)N2)c(O)c2cc(F)ccc2n1CCC1CC1

>  <Standard Value>
13

$$$$
CHEMBL202317
Actelion Java MolfileCreator 2.0

  0  0  0  0  0  0              0 V3000
M  V30 BEGIN CTAB
M  V30 COUNTS 30 33 0 0 0
M  V30 BEGIN ATOM
M  V30 1 S 10.3923 2.25 0.0 0
M  V30 2 O 11.1423 3.549 0.0 0
M  V30 3 O 9.6423 3.549 0.0 0
M  V30 4 N 9.0932 1.5 0.0 0
M  V30 5 C 11.6913 1.5 0.0 0
M  V30 6 C 9.0932 0.0 0.0 0
M  V30 7 C 11.6913 0.0 0.0 0
M  V30 8 C 12.9903 2.25 0.0 0
M  V30 9 N 10.3923 -0.75 0.0 0
M  V30 10 C 7.7942 -0.75 0.0 0
M  V30 11 C 12.9903 -0.75 0.0 0
M  V30 12 C 14.2894 1.5 0.0 0
M  V30 13 C 6.4951 0.0 0.0 0
M  V30 14 C 7.7942 -2.25 0.0 0
M  V30 15 C 14.2894 0.0 0.0 0
M  V30 16 O 6.4951 1.5 0.0 0
M  V30 17 N 5.1961 -0.75 0.0 0
M  V30 18 O 9.0932 -3.0 0.0 0
M  V30 19 C 6.4951 -3.0 0.0 0
M  V30 20 C 5.1961 -2.25 0.0 0
M  V30 21 C 3.8971 0.0 0.0 0
M  V30 22 C 6.4951 -4.5 0.0 0
M  V30 23 C 3.8971 -3.0 0.0 0
M  V30 24 C 2.598 -0.75 0.0 0
M  V30 25 C 5.1961 -5.25 0.0 0
M  V30 26 C 3.8971 -4.5 0.0 0
M  V30 27 C 1.299 0.0 0.0 0
M  V30 28 F 5.1961 -6.75 0.0 0
M  V30 29 C 1.299 1.5 0.0 0
M  V30 30 C 0.0 -0.75 0.0 0
M  V30 END ATOM
M  V30 BEGIN BOND
M  V30 1 2 1 2
M  V30 2 2 1 3
M  V30 3 1 1 4
M  V30 4 1 1 5
M  V30 5 2 4 6
M  V30 6 2 5 7
M  V30 7 1 5 8
M  V30 8 1 6 9
M  V30 9 1 6 10
M  V30 10 1 7 11
M  V30 11 2 8 12
M  V30 12 1 10 13
M  V30 13 2 10 14
M  V30 14 2 11 15
M  V30 15 2 13 16
M  V30 16 1 13 17
M  V30 17 1 14 18
M  V30 18 1 14 19
M  V30 19 1 17 20
M  V30 20 1 17 21
M  V30 21 1 19 22
M  V30 22 1 20 23
M  V30 23 1 21 24
M  V30 24 2 22 25
M  V30 25 2 23 26
M  V30 26 1 24 27
M  V30 27 1 25 28
M  V30 28 1 27 29
M  V30 29 1 27 30
M  V30 30 1 7 9
M  V30 31 1 12 15
M  V30 32 2 19 20
M  V30 33 1 25 26
M  V30 END BOND
M  V30 END CTAB
M  END
>  <Molecule ChEMBL ID>
CHEMBL202317

>  <Smiles>
CC(C)CCn1c(=O)c(C2=NS(=O)(=O)c3ccccc3N2)c(O)c2cc(F)ccc21

>  <Standard Value>
20

$$$$
CHEMBL425221
Actelion Java MolfileCreator 2.0

  0  0  0  0  0  0              0 V3000
M  V30 BEGIN CTAB
M  V30 COUNTS 34 37 0 0 0
M  V30 BEGIN ATOM
M  V30 1 S 10.3923 2.25 0.0 0
M  V30 2 O 11.1423 3.549 0.0 0
M  V30 3 O 9.6423 3.549 0.0 0
M  V30 4 N 9.0932 1.5 0.0 0
M  V30 5 C 11.6913 1.5 0.0 0
M  V30 6 C 9.0932 0.0 0.0 0
M  V30 7 C 11.6913 0.0 0.0 0
M  V30 8 C 12.9903 2.25 0.0 0
M  V30 9 N 10.3923 -0.75 0.0 0
M  V30 10 C 7.7942 -0.75 0.0 0
M  V30 11 C 12.9903 -0.75 0.0 0
M  V30 12 C 14.2894 1.5 0.0 0
M  V30 13 C 6.4951 0.0 0.0 0
M  V30 14 C 7.7942 -2.25 0.0 0
M  V30 15 C 14.2894 0.0 0.0 0
M  V30 16 O 6.4951 1.5 0.0 0
M  V30 17 N 5.1961 -0.75 0.0 0
M  V30 18 O 9.0932 -3.0 0.0 0
M  V30 19 C 6.4951 -3.0 0.0 0
M  V30 20 C 5.1961 -2.25 0.0 0
M  V30 21 C 3.8971 0.0 0.0 0
M  V30 22 C 6.4951 -4.5 0.0 0
M  V30 23 C 3.8971 -3.0 0.0 0
M  V30 24 C 2.598 -0.75 0.0 0
M  V30 25 C 5.1961 -5.25 0.0 0
M  V30 26 C 3.8971 -4.5 0.0 0
M  V30 27 C 1.299 0.0 0.0 0
M  V30 28 N 5.1961 -6.75 0.0 0
M  V30 29 C 1.299 1.5 0.0 0
M  V30 30 C 0.0 -0.75 0.0 0
M  V30 31 C 6.4951 -7.5 0.0 0
M  V30 32 C 6.4951 -9.0 0.0 0
M  V30 33 O 5.1961 -9.75 0.0 0
M  V30 34 O 7.7942 -9.75 0.0 0
M  V30 END ATOM
M  V30 BEGIN BOND
M  V30 1 2 1 2
M  V30 2 2 1 3
M  V30 3 1 1 4
M  V30 4 1 1 5
M  V30 5 2 4 6
M  V30 6 2 5 7
M  V30 7 1 5 8
M  V30 8 1 6 9
M  V30 9 1 6 10
M  V30 10 1 7 11
M  V30 11 2 8 12
M  V30 12 1 10 13
M  V30 13 2 10 14
M  V30 14 2 11 15
M  V30 15 2 13 16
M  V30 16 1 13 17
M  V30 17 1 14 18
M  V30 18 1 14 19
M  V30 19 1 17 20
M  V30 20 1 17 21
M  V30 21 1 19 22
M  V30 22 1 20 23
M  V30 23 1 21 24
M  V30 24 2 22 25
M  V30 25 2 23 26
M  V30 26 1 24 27
M  V30 27 1 25 28
M  V30 28 1 27 29
M  V30 29 1 27 30
M  V30 30 1 28 31
M  V30 31 1 31 32
M  V30 32 2 32 33
M  V30 33 1 32 34
M  V30 34 1 7 9
M  V30 35 1 12 15
M  V30 36 2 19 20
M  V30 37 1 25 26
M  V30 END BOND
M  V30 END CTAB
M  END
>  <Molecule ChEMBL ID>
CHEMBL425221

>  <Smiles>
CC(C)CCn1c(=O)c(C2=NS(=O)(=O)c3ccccc3N2)c(O)c2cc(NCC(=O)O)ccc21

>  <Standard Value>
21

$$$$
CHEMBL202405
Actelion Java MolfileCreator 2.0

  0  0  0  0  0  0              0 V3000
M  V30 BEGIN CTAB
M  V30 COUNTS 30 33 0 0 0
M  V30 BEGIN ATOM
M  V30 1 S 3.8971 6.0 0.0 0
M  V30 2 O 3.1471 7.299 0.0 0
M  V30 3 O 2.3971 5.9999 0.0 0
M  V30 4 N 3.8971 4.5 0.0 0
M  V30 5 C 5.1961 6.75 0.0 0
M  V30 6 C 5.1961 3.75 0.0 0
M  V30 7 C 6.4951 6.0 0.0 0
M  V30 8 C 5.1961 8.25 0.0 0
M  V30 9 N 6.4951 4.5 0.0 0
M  V30 10 C 5.1961 2.25 0.0 0
M  V30 11 C 7.7942 6.75 0.0 0
M  V30 12 C 6.4951 9.0 0.0 0
M  V30 13 C 3.8971 1.5 0.0 0
M  V30 14 C 6.4951 1.5 0.0 0
M  V30 15 C 7.7942 8.25 0.0 0
M  V30 16 O 2.598 2.25 0.0 0
M  V30 17 N 3.8971 0.0 0.0 0
M  V30 18 O 7.7942 2.25 0.0 0
M  V30 19 C 6.4951 0.0 0.0 0
M  V30 20 C 5.1961 -0.75 0.0 0
M  V30 21 C 2.598 -0.75 0.0 0
M  V30 22 C 7.7942 -0.75 0.0 0
M  V30 23 C 5.1961 -2.25 0.0 0
M  V30 24 C 1.299 0.0 0.0 0
M  V30 25 C 7.7942 -2.25 0.0 0
M  V30 26 C 6.4951 -3.0 0.0 0
M  V30 27 C 0.0 -0.75 0.0 0
M  V30 28 C 0.75 -2.049 0.0 0
M  V30 29 C -1.299 -1.5 0.0 0
M  V30 30 C -0.75 0.549 0.0 0
M  V30 END ATOM
M  V30 BEGIN BOND
M  V30 1 2 1 2
M  V30 2 2 1 3
M  V30 3 1 1 4
M  V30 4 1 1 5
M  V30 5 2 4 6
M  V30 6 2 5 7
M  V30 7 1 5 8
M  V30 8 1 6 9
M  V30 9 1 6 10
M  V30 10 1 7 11
M  V30 11 2 8 12
M  V30 12 1 10 13
M  V30 13 2 10 14
M  V30 14 2 11 15
M  V30 15 2 13 16
M  V30 16 1 13 17
M  V30 17 1 14 18
M  V30 18 1 14 19
M  V30 19 1 17 20
M  V30 20 1 17 21
M  V30 21 1 19 22
M  V30 22 1 20 23
M  V30 23 1 21 24
M  V30 24 2 22 25
M  V30 25 2 23 26
M  V30 26 1 24 27
M  V30 27 1 27 28
M  V30 28 1 27 29
M  V30 29 1 27 30
M  V30 30 1 7 9
M  V30 31 1 12 15
M  V30 32 2 19 20
M  V30 33 1 25 26
M  V30 END BOND
M  V30 END CTAB
M  END
>  <Molecule ChEMBL ID>
CHEMBL202405

>  <Smiles>
CC(C)(C)CCn1c(=O)c(C2=NS(=O)(=O)c3ccccc3N2)c(O)c2ccccc21

>  <Standard Value>
21

$$$$
CHEMBL379033
Actelion Java MolfileCreator 2.0

  0  0  0  0  0  0              0 V3000
M  V30 BEGIN CTAB
M  V30 COUNTS 31 34 0 0 0
M  V30 BEGIN ATOM
M  V30 1 S 10.3923 2.25 0.0 0
M  V30 2 O 11.1423 3.549 0.0 0
M  V30 3 O 9.6423 3.549 0.0 0
M  V30 4 N 9.0932 1.5 0.0 0
M  V30 5 C 11.6913 1.5 0.0 0
M  V30 6 C 9.0932 0.0 0.0 0
M  V30 7 C 11.6913 0.0 0.0 0
M  V30 8 C 12.9903 2.25 0.0 0
M  V30 9 N 10.3923 -0.75 0.0 0
M  V30 10 C 7.7942 -0.75 0.0 0
M  V30 11 C 12.9903 -0.75 0.0 0
M  V30 12 C 14.2894 1.5 0.0 0
M  V30 13 C 6.4951 0.0 0.0 0
M  V30 14 C 7.7942 -2.25 0.0 0
M  V30 15 C 14.2894 0.0 0.0 0
M  V30 16 O 6.4951 1.5 0.0 0
M  V30 17 N 5.1961 -0.75 0.0 0
M  V30 18 O 9.0932 -3.0 0.0 0
M  V30 19 C 6.4951 -3.0 0.0 0
M  V30 20 C 5.1961 -2.25 0.0 0
M  V30 21 C 3.8971 0.0 0.0 0
M  V30 22 C 6.4951 -4.5 0.0 0
M  V30 23 C 3.8971 -3.0 0.0 0
M  V30 24 C 2.598 -0.75 0.0 0
M  V30 25 C 5.1961 -5.25 0.0 0
M  V30 26 C 3.8971 -4.5 0.0 0
M  V30 27 C 1.299 0.0 0.0 0
M  V30 28 O 5.1961 -6.75 0.0 0
M  V30 29 C 1.299 1.5 0.0 0
M  V30 30 C 0.0 -0.75 0.0 0
M  V30 31 C 6.4951 -7.5 0.0 0
M  V30 END ATOM
M  V30 BEGIN BOND
M  V30 1 2 1 2
M  V30 2 2 1 3
M  V30 3 1 1 4
M  V30 4 1 1 5
M  V30 5 2 4 6
M  V30 6 2 5 7
M  V30 7 1 5 8
M  V30 8 1 6 9
M  V30 9 1 6 10
M  V30 10 1 7 11
M  V30 11 2 8 12
M  V30 12 1 10 13
M  V30 13 2 10 14
M  V30 14 2 11 15
M  V30 15 2 13 16
M  V30 16 1 13 17
M  V30 17 1 14 18
M  V30 18 1 14 19
M  V30 19 1 17 20
M  V30 20 1 17 21
M  V30 21 1 19 22
M  V30 22 1 20 23
M  V30 23 1 21 24
M  V30 24 2 22 25
M  V30 25 2 23 26
M  V30 26 1 24 27
M  V30 27 1 25 28
M  V30 28 1 27 29
M  V30 29 1 27 30
M  V30 30 1 28 31
M  V30 31 1 7 9
M  V30 32 1 12 15
M  V30 33 2 19 20
M  V30 34 1 25 26
M  V30 END BOND
M  V30 END CTAB
M  END
>  <Molecule ChEMBL ID>
CHEMBL379033

>  <Smiles>
COc1ccc2c(c1)c(O)c(C1=NS(=O)(=O)c3ccccc3N1)c(=O)n2CCC(C)C

>  <Standard Value>
23

$$$$
CHEMBL380686
Actelion Java MolfileCreator 2.0

  0  0  0  0  0  0              0 V3000
M  V30 BEGIN CTAB
M  V30 COUNTS 34 37 0 0 0
M  V30 BEGIN ATOM
M  V30 1 S 10.3923 2.25 0.0 0
M  V30 2 O 11.1423 3.549 0.0 0
M  V30 3 O 9.6423 3.549 0.0 0
M  V30 4 N 9.0932 1.5 0.0 0
M  V30 5 C 11.6913 1.5 0.0 0
M  V30 6 C 9.0932 0.0 0.0 0
M  V30 7 C 11.6913 0.0 0.0 0
M  V30 8 C 12.9903 2.25 0.0 0
M  V30 9 N 10.3923 -0.75 0.0 0
M  V30 10 C 7.7942 -0.75 0.0 0
M  V30 11 C 12.9903 -0.75 0.0 0
M  V30 12 C 14.2894 1.5 0.0 0
M  V30 13 C 6.4951 0.0 0.0 0
M  V30 14 C 7.7942 -2.25 0.0 0
M  V30 15 C 14.2894 0.0 0.0 0
M  V30 16 O 6.4951 1.5 0.0 0
M  V30 17 N 5.1961 -0.75 0.0 0
M  V30 18 O 9.0932 -3.0 0.0 0
M  V30 19 C 6.4951 -3.0 0.0 0
M  V30 20 C 5.1961 -2.25 0.0 0
M  V30 21 C 3.8971 0.0 0.0 0
M  V30 22 C 6.4951 -4.5 0.0 0
M  V30 23 C 3.8971 -3.0 0.0 0
M  V30 24 C 2.598 -0.75 0.0 0
M  V30 25 C 5.1961 -5.25 0.0 0
M  V30 26 C 3.8971 -4.5 0.0 0
M  V30 27 C 1.299 0.0 0.0 0
M  V30 28 O 5.1961 -6.75 0.0 0
M  V30 29 C 1.299 1.5 0.0 0
M  V30 30 C 0.0 -0.75 0.0 0
M  V30 31 C 6.4951 -7.5 0.0 0
M  V30 32 C 6.4951 -9.0 0.0 0
M  V30 33 O 5.1961 -9.75 0.0 0
M  V30 34 N 7.7942 -9.75 0.0 0
M  V30 END ATOM
M  V30 BEGIN BOND
M  V30 1 2 1 2
M  V30 2 2 1 3
M  V30 3 1 1 4
M  V30 4 1 1 5
M  V30 5 2 4 6
M  V30 6 2 5 7
M  V30 7 1 5 8
M  V30 8 1 6 9
M  V30 9 1 6 10
M  V30 10 1 7 11
M  V30 11 2 8 12
M  V30 12 1 10 13
M  V30 13 2 10 14
M  V30 14 2 11 15
M  V30 15 2 13 16
M  V30 16 1 13 17
M  V30 17 1 14 18
M  V30 18 1 14 19
M  V30 19 1 17 20
M  V30 20 1 17 21
M  V30 21 1 19 22
M  V30 22 1 20 23
M  V30 23 1 21 24
M  V30 24 2 22 25
M  V30 25 2 23 26
M  V30 26 1 24 27
M  V30 27 1 25 28
M  V30 28 1 27 29
M  V30 29 1 27 30
M  V30 30 1 28 31
M  V30 31 1 31 32
M  V30 32 2 32 33
M  V30 33 1 32 34
M  V30 34 1 7 9
M  V30 35 1 12 15
M  V30 36 2 19 20
M  V30 37 1 25 26
M  V30 END BOND
M  V30 END CTAB
M  END
>  <Molecule ChEMBL ID>
CHEMBL380686

>  <Smiles>
CC(C)CCn1c(=O)c(C2=NS(=O)(=O)c3ccccc3N2)c(O)c2cc(OCC(N)=O)ccc21

>  <Standard Value>
24

$$$$
CHEMBL370203
Actelion Java MolfileCreator 2.0

  0  0  0  0  0  0              0 V3000
M  V30 BEGIN CTAB
M  V30 COUNTS 30 34 0 0 0
M  V30 BEGIN ATOM
M  V30 1 S 7.7942 2.25 0.0 0
M  V30 2 O 8.5442 3.549 0.0 0
M  V30 3 O 7.0442 3.549 0.0 0
M  V30 4 N 6.4951 1.5 0.0 0
M  V30 5 C 9.0932 1.5 0.0 0
M  V30 6 C 6.4951 0.0 0.0 0
M  V30 7 C 9.0932 0.0 0.0 0
M  V30 8 C 10.3923 2.25 0.0 0
M  V30 9 N 7.7942 -0.75 0.0 0
M  V30 10 C 5.1961 -0.75 0.0 0
M  V30 11 C 10.3923 -0.75 0.0 0
M  V30 12 C 11.6913 1.5 0.0 0
M  V30 13 C 3.8971 0.0 0.0 0
M  V30 14 C 5.1961 -2.25 0.0 0
M  V30 15 C 11.6913 0.0 0.0 0
M  V30 16 O 3.8971 1.5 0.0 0
M  V30 17 N 2.598 -0.75 0.0 0
M  V30 18 O 6.4951 -3.0 0.0 0
M  V30 19 C 3.8971 -3.0 0.0 0
M  V30 20 C 2.598 -2.25 0.0 0
M  V30 21 C 1.299 0.0 0.0 0
M  V30 22 C 3.8971 -4.5 0.0 0
M  V30 23 C 1.299 -3.0 0.0 0
M  V30 24 C 0.0 -0.75 0.0 0
M  V30 25 C 2.598 -5.25 0.0 0
M  V30 26 C 1.299 -4.5 0.0 0
M  V30 27 C -1.3703 -0.1398 0.0 0
M  V30 28 C -0.1567 -2.2417 0.0 0
M  V30 29 O -2.374 -1.2546 0.0 0
M  V30 30 C -1.624 -2.5536 0.0 0
M  V30 END ATOM
M  V30 BEGIN BOND
M  V30 1 2 1 2
M  V30 2 2 1 3
M  V30 3 1 1 4
M  V30 4 1 1 5
M  V30 5 2 4 6
M  V30 6 2 5 7
M  V30 7 1 5 8
M  V30 8 1 6 9
M  V30 9 1 6 10
M  V30 10 1 7 11
M  V30 11 2 8 12
M  V30 12 1 10 13
M  V30 13 2 10 14
M  V30 14 2 11 15
M  V30 15 2 13 16
M  V30 16 1 13 17
M  V30 17 1 14 18
M  V30 18 1 14 19
M  V30 19 1 17 20
M  V30 20 1 17 21
M  V30 21 1 19 22
M  V30 22 1 20 23
M  V30 23 1 21 24
M  V30 24 2 22 25
M  V30 25 2 23 26
M  V30 26 2 24 27
M  V30 27 1 24 28
M  V30 28 1 27 29
M  V30 29 2 28 30
M  V30 30 1 7 9
M  V30 31 1 12 15
M  V30 32 2 19 20
M  V30 33 1 25 26
M  V30 34 1 29 30
M  V30 END BOND
M  V30 END CTAB
M  END
>  <Molecule ChEMBL ID>
CHEMBL370203

>  <Smiles>
O=c1c(C2=NS(=O)(=O)c3ccccc3N2)c(O)c2ccccc2n1Cc1ccoc1

>  <Standard Value>
27

$$$$
CHEMBL176058
Actelion Java MolfileCreator 2.0

  0  0  0  0  0  0              0 V3000
M  V30 BEGIN CTAB
M  V30 COUNTS 29 32 0 0 0
M  V30 BEGIN ATOM
M  V30 1 S 10.3923 2.25 0.0 0
M  V30 2 O 11.1423 3.549 0.0 0
M  V30 3 O 9.6423 3.549 0.0 0
M  V30 4 N 9.0932 1.5 0.0 0
M  V30 5 C 11.6913 1.5 0.0 0
M  V30 6 C 9.0932 0.0 0.0 0
M  V30 7 C 11.6913 0.0 0.0 0
M  V30 8 C 12.9903 2.25 0.0 0
M  V30 9 N 10.3923 -0.75 0.0 0
M  V30 10 C 7.7942 -0.75 0.0 0
M  V30 11 C 12.9903 -0.75 0.0 0
M  V30 12 C 14.2894 1.5 0.0 0
M  V30 13 C 6.4951 0.0 0.0 0
M  V30 14 C 7.7942 -2.25 0.0 0
M  V30 15 C 14.2894 0.0 0.0 0
M  V30 16 O 6.4951 1.5 0.0 0
M  V30 17 N 5.1961 -0.75 0.0 0
M  V30 18 O 9.0932 -3.0 0.0 0
M  V30 19 C 6.4951 -3.0 0.0 0
M  V30 20 C 5.1961 -2.25 0.0 0
M  V30 21 C 3.8971 0.0 0.0 0
M  V30 22 C 6.4951 -4.5 0.0 0
M  V30 23 C 3.8971 -3.0 0.0 0
M  V30 24 C 2.598 -0.75 0.0 0
M  V30 25 C 5.1961 -5.25 0.0 0
M  V30 26 C 3.8971 -4.5 0.0 0
M  V30 27 C 1.299 0.0 0.0 0
M  V30 28 C 1.299 1.5 0.0 0
M  V30 29 C 0.0 -0.75 0.0 0
M  V30 END ATOM
M  V30 BEGIN BOND
M  V30 1 2 1 2
M  V30 2 2 1 3
M  V30 3 1 1 4
M  V30 4 1 1 5
M  V30 5 2 4 6
M  V30 6 2 5 7
M  V30 7 1 5 8
M  V30 8 1 6 9
M  V30 9 1 6 10
M  V30 10 1 7 11
M  V30 11 2 8 12
M  V30 12 1 10 13
M  V30 13 2 10 14
M  V30 14 2 11 15
M  V30 15 2 13 16
M  V30 16 1 13 17
M  V30 17 1 14 18
M  V30 18 1 14 19
M  V30 19 1 17 20
M  V30 20 1 17 21
M  V30 21 1 19 22
M  V30 22 1 20 23
M  V30 23 1 21 24
M  V30 24 2 22 25
M  V30 25 2 23 26
M  V30 26 1 24 27
M  V30 27 1 27 28
M  V30 28 1 27 29
M  V30 29 1 7 9
M  V30 30 1 12 15
M  V30 31 2 19 20
M  V30 32 1 25 26
M  V30 END BOND
M  V30 END CTAB
M  END
>  <Molecule ChEMBL ID>
CHEMBL176058

>  <Smiles>
CC(C)CCn1c(=O)c(C2=NS(=O)(=O)c3ccccc3N2)c(O)c2ccccc21

>  <Standard Value>
32

$$$$
CHEMBL203426
Actelion Java MolfileCreator 2.0

  0  0  0  0  0  0              0 V3000
M  V30 BEGIN CTAB
M  V30 COUNTS 30 34 0 0 0
M  V30 BEGIN ATOM
M  V30 1 S 3.8971 6.0 0.0 0
M  V30 2 O 3.1471 7.299 0.0 0
M  V30 3 O 2.3971 5.9999 0.0 0
M  V30 4 N 3.8971 4.5 0.0 0
M  V30 5 C 5.1961 6.75 0.0 0
M  V30 6 C 5.1961 3.75 0.0 0
M  V30 7 C 6.4951 6.0 0.0 0
M  V30 8 C 5.1961 8.25 0.0 0
M  V30 9 N 6.4951 4.5 0.0 0
M  V30 10 C 5.1961 2.25 0.0 0
M  V30 11 C 7.7942 6.75 0.0 0
M  V30 12 C 6.4951 9.0 0.0 0
M  V30 13 C 3.8971 1.5 0.0 0
M  V30 14 C 6.4951 1.5 0.0 0
M  V30 15 C 7.7942 8.25 0.0 0
M  V30 16 O 2.598 2.25 0.0 0
M  V30 17 N 3.8971 0.0 0.0 0
M  V30 18 O 7.7942 2.25 0.0 0
M  V30 19 C 6.4951 0.0 0.0 0
M  V30 20 C 5.1961 -0.75 0.0 0
M  V30 21 C 2.598 -0.75 0.0 0
M  V30 22 C 7.7942 -0.75 0.0 0
M  V30 23 C 5.1961 -2.25 0.0 0
M  V30 24 C 1.299 0.0 0.0 0
M  V30 25 C 7.7942 -2.25 0.0 0
M  V30 26 C 6.4951 -3.0 0.0 0
M  V30 27 C 0.0 -0.75 0.0 0
M  V30 28 N 9.0932 -3.0 0.0 0
M  V30 29 C -1.5 -0.75 0.0 0
M  V30 30 C -0.75 -2.049 0.0 0
M  V30 END ATOM
M  V30 BEGIN BOND
M  V30 1 2 1 2
M  V30 2 2 1 3
M  V30 3 1 1 4
M  V30 4 1 1 5
M  V30 5 2 4 6
M  V30 6 2 5 7
M  V30 7 1 5 8
M  V30 8 1 6 9
M  V30 9 1 6 10
M  V30 10 1 7 11
M  V30 11 2 8 12
M  V30 12 1 10 13
M  V30 13 2 10 14
M  V30 14 2 11 15
M  V30 15 2 13 16
M  V30 16 1 13 17
M  V30 17 1 14 18
M  V30 18 1 14 19
M  V30 19 1 17 20
M  V30 20 1 17 21
M  V30 21 1 19 22
M  V30 22 1 20 23
M  V30 23 1 21 24
M  V30 24 2 22 25
M  V30 25 2 23 26
M  V30 26 1 24 27
M  V30 27 1 25 28
M  V30 28 1 27 29
M  V30 29 1 27 30
M  V30 30 1 7 9
M  V30 31 1 12 15
M  V30 32 2 19 20
M  V30 33 1 25 26
M  V30 34 1 29 30
M  V30 END BOND
M  V30 END CTAB
M  END
>  <Molecule ChEMBL ID>
CHEMBL203426

>  <Smiles>
Nc1ccc2c(c1)c(O)c(C1=NS(=O)(=O)c3ccccc3N1)c(=O)n2CCC1CC1

>  <Standard Value>
32

$$$$
CHEMBL201558
Actelion Java MolfileCreator 2.0

  0  0  0  0  0  0              0 V3000
M  V30 BEGIN CTAB
M  V30 COUNTS 30 33 0 0 0
M  V30 BEGIN ATOM
M  V30 1 Cl 7.7942 -5.25 0.0 0
M  V30 2 C 6.4951 -4.5 0.0 0
M  V30 3 C 6.4951 -3.0 0.0 0
M  V30 4 C 5.1961 -5.25 0.0 0
M  V30 5 C 7.7942 -2.25 0.0 0
M  V30 6 C 5.1961 -2.25 0.0 0
M  V30 7 C 3.8971 -4.5 0.0 0
M  V30 8 O 9.0932 -3.0 0.0 0
M  V30 9 C 7.7942 -0.75 0.0 0
M  V30 10 N 5.1961 -0.75 0.0 0
M  V30 11 C 3.8971 -3.0 0.0 0
M  V30 12 C 6.4951 0.0 0.0 0
M  V30 13 C 9.0932 0.0 0.0 0
M  V30 14 C 3.8971 0.0 0.0 0
M  V30 15 O 6.4951 1.5 0.0 0
M  V30 16 N 10.3923 -0.75 0.0 0
M  V30 17 N 9.0932 1.5 0.0 0
M  V30 18 C 2.598 -0.75 0.0 0
M  V30 19 S 11.6913 0.0 0.0 0
M  V30 20 C 10.3923 2.25 0.0 0
M  V30 21 C 1.299 0.0 0.0 0
M  V30 22 O 12.4413 -1.299 0.0 0
M  V30 23 O 13.1913 0.0 0.0 0
M  V30 24 C 11.6913 1.5 0.0 0
M  V30 25 C 10.3923 3.75 0.0 0
M  V30 26 C 1.299 1.5 0.0 0
M  V30 27 C 0.0 -0.75 0.0 0
M  V30 28 C 12.9903 2.25 0.0 0
M  V30 29 C 11.6913 4.5 0.0 0
M  V30 30 C 12.9903 3.75 0.0 0
M  V30 END ATOM
M  V30 BEGIN BOND
M  V30 1 1 1 2
M  V30 2 2 2 3
M  V30 3 1 2 4
M  V30 4 1 3 5
M  V30 5 1 3 6
M  V30 6 2 4 7
M  V30 7 1 5 8
M  V30 8 2 5 9
M  V30 9 1 6 10
M  V30 10 2 6 11
M  V30 11 1 9 12
M  V30 12 1 9 13
M  V30 13 1 10 14
M  V30 14 2 12 15
M  V30 15 2 13 16
M  V30 16 1 13 17
M  V30 17 1 14 18
M  V30 18 1 16 19
M  V30 19 1 17 20
M  V30 20 1 18 21
M  V30 21 2 19 22
M  V30 22 2 19 23
M  V30 23 1 19 24
M  V30 24 1 20 25
M  V30 25 1 21 26
M  V30 26 1 21 27
M  V30 27 1 24 28
M  V30 28 2 25 29
M  V30 29 2 28 30
M  V30 30 1 7 11
M  V30 31 1 10 12
M  V30 32 2 20 24
M  V30 33 1 29 30
M  V30 END BOND
M  V30 END CTAB
M  END
>  <Molecule ChEMBL ID>
CHEMBL201558

>  <Smiles>
CC(C)CCn1c(=O)c(C2=NS(=O)(=O)c3ccccc3N2)c(O)c2c(Cl)cccc21

>  <Standard Value>
33

$$$$
CHEMBL201690
Actelion Java MolfileCreator 2.0

  0  0  0  0  0  0              0 V3000
M  V30 BEGIN CTAB
M  V30 COUNTS 33 36 0 0 0
M  V30 BEGIN ATOM
M  V30 1 S 10.3923 2.25 0.0 0
M  V30 2 O 11.1423 3.549 0.0 0
M  V30 3 O 9.6423 3.549 0.0 0
M  V30 4 N 9.0932 1.5 0.0 0
M  V30 5 C 11.6913 1.5 0.0 0
M  V30 6 C 9.0932 0.0 0.0 0
M  V30 7 C 11.6913 0.0 0.0 0
M  V30 8 C 12.9903 2.25 0.0 0
M  V30 9 N 10.3923 -0.75 0.0 0
M  V30 10 C 7.7942 -0.75 0.0 0
M  V30 11 C 12.9903 -0.75 0.0 0
M  V30 12 C 14.2894 1.5 0.0 0
M  V30 13 C 6.4951 0.0 0.0 0
M  V30 14 C 7.7942 -2.25 0.0 0
M  V30 15 C 14.2894 0.0 0.0 0
M  V30 16 O 6.4951 1.5 0.0 0
M  V30 17 N 5.1961 -0.75 0.0 0
M  V30 18 O 9.0932 -3.0 0.0 0
M  V30 19 C 6.4951 -3.0 0.0 0
M  V30 20 C 5.1961 -2.25 0.0 0
M  V30 21 C 3.8971 0.0 0.0 0
M  V30 22 C 6.4951 -4.5 0.0 0
M  V30 23 C 3.8971 -3.0 0.0 0
M  V30 24 C 2.598 -0.75 0.0 0
M  V30 25 C 5.1961 -5.25 0.0 0
M  V30 26 C 3.8971 -4.5 0.0 0
M  V30 27 C 1.299 0.0 0.0 0
M  V30 28 O 5.1961 -6.75 0.0 0
M  V30 29 C 1.299 1.5 0.0 0
M  V30 30 C 0.0 -0.75 0.0 0
M  V30 31 C 6.4951 -7.5 0.0 0
M  V30 32 C 7.7942 -6.75 0.0 0
M  V30 33 N 9.0932 -6.0 0.0 0
M  V30 END ATOM
M  V30 BEGIN BOND
M  V30 1 2 1 2
M  V30 2 2 1 3
M  V30 3 1 1 4
M  V30 4 1 1 5
M  V30 5 2 4 6
M  V30 6 2 5 7
M  V30 7 1 5 8
M  V30 8 1 6 9
M  V30 9 1 6 10
M  V30 10 1 7 11
M  V30 11 2 8 12
M  V30 12 1 10 13
M  V30 13 2 10 14
M  V30 14 2 11 15
M  V30 15 2 13 16
M  V30 16 1 13 17
M  V30 17 1 14 18
M  V30 18 1 14 19
M  V30 19 1 17 20
M  V30 20 1 17 21
M  V30 21 1 19 22
M  V30 22 1 20 23
M  V30 23 1 21 24
M  V30 24 2 22 25
M  V30 25 2 23 26
M  V30 26 1 24 27
M  V30 27 1 25 28
M  V30 28 1 27 29
M  V30 29 1 27 30
M  V30 30 1 28 31
M  V30 31 1 31 32
M  V30 32 3 32 33
M  V30 33 1 7 9
M  V30 34 1 12 15
M  V30 35 2 19 20
M  V30 36 1 25 26
M  V30 END BOND
M  V30 END CTAB
M  END
>  <Molecule ChEMBL ID>
CHEMBL201690

>  <Smiles>
CC(C)CCn1c(=O)c(C2=NS(=O)(=O)c3ccccc3N2)c(O)c2cc(OCC#N)ccc21

>  <Standard Value>
34

$$$$
CHEMBL201332
Actelion Java MolfileCreator 2.0

  0  0  0  0  0  0              0 V3000
M  V30 BEGIN CTAB
M  V30 COUNTS 32 36 0 0 0
M  V30 BEGIN ATOM
M  V30 1 Br 6.4951 0.0 0.0 0
M  V30 2 C 5.1961 -0.75 0.0 0
M  V30 3 C 3.8971 0.0 0.0 0
M  V30 4 C 5.1961 -2.25 0.0 0
M  V30 5 C 2.598 -0.75 0.0 0
M  V30 6 C 3.8971 -3.0 0.0 0
M  V30 7 C 2.598 -2.25 0.0 0
M  V30 8 C 1.299 0.0 0.0 0
M  V30 9 N 0.0 -0.75 0.0 0
M  V30 10 C -1.299 0.0 0.0 0
M  V30 11 C 0.0 -2.25 0.0 0
M  V30 12 O -1.299 1.5 0.0 0
M  V30 13 C -2.598 -0.75 0.0 0
M  V30 14 C -1.299 -3.0 0.0 0
M  V30 15 C 1.299 -3.0 0.0 0
M  V30 16 C -3.8971 0.0 0.0 0
M  V30 17 C -2.598 -2.25 0.0 0
M  V30 18 C -1.299 -4.5 0.0 0
M  V30 19 C 1.299 -4.5 0.0 0
M  V30 20 N -3.8971 1.5 0.0 0
M  V30 21 N -5.1961 -0.75 0.0 0
M  V30 22 O -3.8971 -3.0 0.0 0
M  V30 23 C 0.0 -5.25 0.0 0
M  V30 24 S -5.1961 2.25 0.0 0
M  V30 25 C -6.4951 0.0 0.0 0
M  V30 26 O -4.4461 3.549 0.0 0
M  V30 27 O -5.9461 3.549 0.0 0
M  V30 28 C -6.4951 1.5 0.0 0
M  V30 29 C -7.7942 -0.75 0.0 0
M  V30 30 C -7.7942 2.25 0.0 0
M  V30 31 C -9.0932 0.0 0.0 0
M  V30 32 C -9.0932 1.5 0.0 0
M  V30 END ATOM
M  V30 BEGIN BOND
M  V30 1 1 1 2
M  V30 2 2 2 3
M  V30 3 1 2 4
M  V30 4 1 3 5
M  V30 5 2 4 6
M  V30 6 2 5 7
M  V30 7 1 5 8
M  V30 8 1 8 9
M  V30 9 1 9 10
M  V30 10 1 9 11
M  V30 11 2 10 12
M  V30 12 1 10 13
M  V30 13 2 11 14
M  V30 14 1 11 15
M  V30 15 1 13 16
M  V30 16 2 13 17
M  V30 17 1 14 18
M  V30 18 2 15 19
M  V30 19 2 16 20
M  V30 20 1 16 21
M  V30 21 1 17 22
M  V30 22 2 18 23
M  V30 23 1 20 24
M  V30 24 1 21 25
M  V30 25 2 24 26
M  V30 26 2 24 27
M  V30 27 1 24 28
M  V30 28 1 25 29
M  V30 29 1 28 30
M  V30 30 2 29 31
M  V30 31 2 30 32
M  V30 32 1 6 7
M  V30 33 1 14 17
M  V30 34 1 19 23
M  V30 35 2 25 28
M  V30 36 1 31 32
M  V30 END BOND
M  V30 END CTAB
M  END
>  <Molecule ChEMBL ID>
CHEMBL201332

>  <Smiles>
O=c1c(C2=NS(=O)(=O)c3ccccc3N2)c(O)c2ccccc2n1Cc1cccc(Br)c1

>  <Standard Value>
36

$$$$
CHEMBL372357
Actelion Java MolfileCreator 2.0

  0  0  0  0  0  0              0 V3000
M  V30 BEGIN CTAB
M  V30 COUNTS 30 34 0 0 0
M  V30 BEGIN ATOM
M  V30 1 S 3.8971 6.0 0.0 0
M  V30 2 O 3.1471 7.299 0.0 0
M  V30 3 O 2.3971 5.9999 0.0 0
M  V30 4 N 3.8971 4.5 0.0 0
M  V30 5 C 5.1961 6.75 0.0 0
M  V30 6 C 5.1961 3.75 0.0 0
M  V30 7 C 6.4951 6.0 0.0 0
M  V30 8 C 5.1961 8.25 0.0 0
M  V30 9 N 6.4951 4.5 0.0 0
M  V30 10 C 5.1961 2.25 0.0 0
M  V30 11 C 7.7942 6.75 0.0 0
M  V30 12 C 6.4951 9.0 0.0 0
M  V30 13 C 3.8971 1.5 0.0 0
M  V30 14 C 6.4951 1.5 0.0 0
M  V30 15 C 7.7942 8.25 0.0 0
M  V30 16 O 2.598 2.25 0.0 0
M  V30 17 N 3.8971 0.0 0.0 0
M  V30 18 O 7.7942 2.25 0.0 0
M  V30 19 C 6.4951 0.0 0.0 0
M  V30 20 C 5.1961 -0.75 0.0 0
M  V30 21 C 2.598 -0.75 0.0 0
M  V30 22 C 7.7942 -0.75 0.0 0
M  V30 23 C 5.1961 -2.25 0.0 0
M  V30 24 C 1.299 0.0 0.0 0
M  V30 25 C 7.7942 -2.25 0.0 0
M  V30 26 C 6.4951 -3.0 0.0 0
M  V30 27 C 0.0 -0.75 0.0 0
M  V30 28 F 9.0932 -3.0 0.0 0
M  V30 29 C -1.5 -0.75 0.0 0
M  V30 30 C -0.75 -2.049 0.0 0
M  V30 END ATOM
M  V30 BEGIN BOND
M  V30 1 2 1 2
M  V30 2 2 1 3
M  V30 3 1 1 4
M  V30 4 1 1 5
M  V30 5 1 4 6
M  V30 6 2 5 7
M  V30 7 1 5 8
M  V30 8 2 6 9
M  V30 9 1 6 10
M  V30 10 1 7 11
M  V30 11 2 8 12
M  V30 12 1 10 13
M  V30 13 2 10 14
M  V30 14 2 11 15
M  V30 15 2 13 16
M  V30 16 1 13 17
M  V30 17 1 14 18
M  V30 18 1 14 19
M  V30 19 1 17 20
M  V30 20 1 17 21
M  V30 21 1 19 22
M  V30 22 1 20 23
M  V30 23 1 21 24
M  V30 24 2 22 25
M  V30 25 2 23 26
M  V30 26 1 24 27
M  V30 27 1 25 28
M  V30 28 1 27 29
M  V30 29 1 27 30
M  V30 30 1 7 9
M  V30 31 1 12 15
M  V30 32 2 19 20
M  V30 33 1 25 26
M  V30 34 1 29 30
M  V30 END BOND
M  V30 END CTAB
M  END
>  <Molecule ChEMBL ID>
CHEMBL372357

>  <Smiles>
O=c1c(C2=Nc3ccccc3S(=O)(=O)N2)c(O)c2cc(F)ccc2n1CCC1CC1

>  <Standard Value>
38

$$$$
CHEMBL372357
Actelion Java MolfileCreator 2.0

  0  0  0  0  0  0              0 V3000
M  V30 BEGIN CTAB
M  V30 COUNTS 30 34 0 0 0
M  V30 BEGIN ATOM
M  V30 1 S 3.8971 6.0 0.0 0
M  V30 2 O 3.1471 7.299 0.0 0
M  V30 3 O 2.3971 5.9999 0.0 0
M  V30 4 N 3.8971 4.5 0.0 0
M  V30 5 C 5.1961 6.75 0.0 0
M  V30 6 C 5.1961 3.75 0.0 0
M  V30 7 C 6.4951 6.0 0.0 0
M  V30 8 C 5.1961 8.25 0.0 0
M  V30 9 N 6.4951 4.5 0.0 0
M  V30 10 C 5.1961 2.25 0.0 0
M  V30 11 C 7.7942 6.75 0.0 0
M  V30 12 C 6.4951 9.0 0.0 0
M  V30 13 C 3.8971 1.5 0.0 0
M  V30 14 C 6.4951 1.5 0.0 0
M  V30 15 C 7.7942 8.25 0.0 0
M  V30 16 O 2.598 2.25 0.0 0
M  V30 17 N 3.8971 0.0 0.0 0
M  V30 18 O 7.7942 2.25 0.0 0
M  V30 19 C 6.4951 0.0 0.0 0
M  V30 20 C 5.1961 -0.75 0.0 0
M  V30 21 C 2.598 -0.75 0.0 0
M  V30 22 C 7.7942 -0.75 0.0 0
M  V30 23 C 5.1961 -2.25 0.0 0
M  V30 24 C 1.299 0.0 0.0 0
M  V30 25 C 7.7942 -2.25 0.0 0
M  V30 26 C 6.4951 -3.0 0.0 0
M  V30 27 C 0.0 -0.75 0.0 0
M  V30 28 F 9.0932 -3.0 0.0 0
M  V30 29 C -1.5 -0.75 0.0 0
M  V30 30 C -0.75 -2.049 0.0 0
M  V30 END ATOM
M  V30 BEGIN BOND
M  V30 1 2 1 2
M  V30 2 2 1 3
M  V30 3 1 1 4
M  V30 4 1 1 5
M  V30 5 1 4 6
M  V30 6 2 5 7
M  V30 7 1 5 8
M  V30 8 2 6 9
M  V30 9 1 6 10
M  V30 10 1 7 11
M  V30 11 2 8 12
M  V30 12 1 10 13
M  V30 13 2 10 14
M  V30 14 2 11 15
M  V30 15 2 13 16
M  V30 16 1 13 17
M  V30 17 1 14 18
M  V30 18 1 14 19
M  V30 19 1 17 20
M  V30 20 1 17 21
M  V30 21 1 19 22
M  V30 22 1 20 23
M  V30 23 1 21 24
M  V30 24 2 22 25
M  V30 25 2 23 26
M  V30 26 1 24 27
M  V30 27 1 25 28
M  V30 28 1 27 29
M  V30 29 1 27 30
M  V30 30 1 7 9
M  V30 31 1 12 15
M  V30 32 2 19 20
M  V30 33 1 25 26
M  V30 34 1 29 30
M  V30 END BOND
M  V30 END CTAB
M  END
>  <Molecule ChEMBL ID>
CHEMBL372357

>  <Smiles>
O=c1c(C2=Nc3ccccc3S(=O)(=O)N2)c(O)c2cc(F)ccc2n1CCC1CC1

>  <Standard Value>
38

$$$$
CHEMBL203254
Actelion Java MolfileCreator 2.0

  0  0  0  0  0  0              0 V3000
M  V30 BEGIN CTAB
M  V30 COUNTS 29 33 0 0 0
M  V30 BEGIN ATOM
M  V30 1 S 7.7942 2.25 0.0 0
M  V30 2 O 8.5442 3.549 0.0 0
M  V30 3 O 7.0442 3.549 0.0 0
M  V30 4 N 6.4951 1.5 0.0 0
M  V30 5 C 9.0932 1.5 0.0 0
M  V30 6 C 6.4951 0.0 0.0 0
M  V30 7 C 9.0932 0.0 0.0 0
M  V30 8 C 10.3923 2.25 0.0 0
M  V30 9 N 7.7942 -0.75 0.0 0
M  V30 10 C 5.1961 -0.75 0.0 0
M  V30 11 C 10.3923 -0.75 0.0 0
M  V30 12 C 11.6913 1.5 0.0 0
M  V30 13 C 3.8971 0.0 0.0 0
M  V30 14 C 5.1961 -2.25 0.0 0
M  V30 15 C 11.6913 0.0 0.0 0
M  V30 16 O 3.8971 1.5 0.0 0
M  V30 17 N 2.598 -0.75 0.0 0
M  V30 18 O 6.4951 -3.0 0.0 0
M  V30 19 C 3.8971 -3.0 0.0 0
M  V30 20 C 2.598 -2.25 0.0 0
M  V30 21 C 1.299 0.0 0.0 0
M  V30 22 C 3.8971 -4.5 0.0 0
M  V30 23 C 1.299 -3.0 0.0 0
M  V30 24 C 0.0 -0.75 0.0 0
M  V30 25 C 2.598 -5.25 0.0 0
M  V30 26 C 1.299 -4.5 0.0 0
M  V30 27 C -1.5 -0.75 0.0 0
M  V30 28 C -0.75 -2.049 0.0 0
M  V30 29 C -2.799 0.0 0.0 0
M  V30 END ATOM
M  V30 BEGIN BOND
M  V30 1 2 1 2
M  V30 2 2 1 3
M  V30 3 1 1 4
M  V30 4 1 1 5
M  V30 5 2 4 6
M  V30 6 2 5 7
M  V30 7 1 5 8
M  V30 8 1 6 9
M  V30 9 1 6 10
M  V30 10 1 7 11
M  V30 11 2 8 12
M  V30 12 1 10 13
M  V30 13 2 10 14
M  V30 14 2 11 15
M  V30 15 2 13 16
M  V30 16 1 13 17
M  V30 17 1 14 18
M  V30 18 1 14 19
M  V30 19 1 17 20
M  V30 20 1 17 21
M  V30 21 1 19 22
M  V30 22 1 20 23
M  V30 23 1 21 24
M  V30 24 2 22 25
M  V30 25 2 23 26
M  V30 26 1 24 27
M  V30 27 1 24 28
M  V30 28 1 27 29
M  V30 29 1 7 9
M  V30 30 1 12 15
M  V30 31 2 19 20
M  V30 32 1 25 26
M  V30 33 1 27 28
M  V30 END BOND
M  V30 END CTAB
M  END
>  <Molecule ChEMBL ID>
CHEMBL203254

>  <Smiles>
CC1CC1Cn1c(=O)c(C2=NS(=O)(=O)c3ccccc3N2)c(O)c2ccccc21

>  <Standard Value>
41

$$$$
CHEMBL201406
Actelion Java MolfileCreator 2.0

  0  0  0  0  0  0              0 V3000
M  V30 BEGIN CTAB
M  V30 COUNTS 30 33 0 0 0
M  V30 BEGIN ATOM
M  V30 1 Cl 5.1961 -6.75 0.0 0
M  V30 2 C 5.1961 -5.25 0.0 0
M  V30 3 C 6.4951 -4.5 0.0 0
M  V30 4 C 3.8971 -4.5 0.0 0
M  V30 5 C 6.4951 -3.0 0.0 0
M  V30 6 C 3.8971 -3.0 0.0 0
M  V30 7 C 7.7942 -2.25 0.0 0
M  V30 8 C 5.1961 -2.25 0.0 0
M  V30 9 O 9.0932 -3.0 0.0 0
M  V30 10 C 7.7942 -0.75 0.0 0
M  V30 11 N 5.1961 -0.75 0.0 0
M  V30 12 C 6.4951 0.0 0.0 0
M  V30 13 C 9.0932 0.0 0.0 0
M  V30 14 C 3.8971 0.0 0.0 0
M  V30 15 O 6.4951 1.5 0.0 0
M  V30 16 N 10.3923 -0.75 0.0 0
M  V30 17 N 9.0932 1.5 0.0 0
M  V30 18 C 2.598 -0.75 0.0 0
M  V30 19 S 11.6913 0.0 0.0 0
M  V30 20 C 10.3923 2.25 0.0 0
M  V30 21 C 1.299 0.0 0.0 0
M  V30 22 O 12.4413 -1.299 0.0 0
M  V30 23 O 13.1913 0.0 0.0 0
M  V30 24 C 11.6913 1.5 0.0 0
M  V30 25 C 10.3923 3.75 0.0 0
M  V30 26 C 1.299 1.5 0.0 0
M  V30 27 C 0.0 -0.75 0.0 0
M  V30 28 C 12.9903 2.25 0.0 0
M  V30 29 C 11.6913 4.5 0.0 0
M  V30 30 C 12.9903 3.75 0.0 0
M  V30 END ATOM
M  V30 BEGIN BOND
M  V30 1 1 1 2
M  V30 2 2 2 3
M  V30 3 1 2 4
M  V30 4 1 3 5
M  V30 5 2 4 6
M  V30 6 1 5 7
M  V30 7 2 5 8
M  V30 8 1 7 9
M  V30 9 2 7 10
M  V30 10 1 8 11
M  V30 11 1 10 12
M  V30 12 1 10 13
M  V30 13 1 11 14
M  V30 14 2 12 15
M  V30 15 2 13 16
M  V30 16 1 13 17
M  V30 17 1 14 18
M  V30 18 1 16 19
M  V30 19 1 17 20
M  V30 20 1 18 21
M  V30 21 2 19 22
M  V30 22 2 19 23
M  V30 23 1 19 24
M  V30 24 1 20 25
M  V30 25 1 21 26
M  V30 26 1 21 27
M  V30 27 1 24 28
M  V30 28 2 25 29
M  V30 29 2 28 30
M  V30 30 1 6 8
M  V30 31 1 11 12
M  V30 32 2 20 24
M  V30 33 1 29 30
M  V30 END BOND
M  V30 END CTAB
M  END
>  <Molecule ChEMBL ID>
CHEMBL201406

>  <Smiles>
CC(C)CCn1c(=O)c(C2=NS(=O)(=O)c3ccccc3N2)c(O)c2cc(Cl)ccc21

>  <Standard Value>
43

$$$$
CHEMBL202165
Actelion Java MolfileCreator 2.0

  0  0  0  0  0  0              0 V3000
M  V30 BEGIN CTAB
M  V30 COUNTS 32 35 0 0 0
M  V30 BEGIN ATOM
M  V30 1 S 10.3923 2.25 0.0 0
M  V30 2 O 11.1423 3.549 0.0 0
M  V30 3 O 9.6423 3.549 0.0 0
M  V30 4 N 9.0932 1.5 0.0 0
M  V30 5 C 11.6913 1.5 0.0 0
M  V30 6 C 9.0932 0.0 0.0 0
M  V30 7 C 11.6913 0.0 0.0 0
M  V30 8 C 12.9903 2.25 0.0 0
M  V30 9 N 10.3923 -0.75 0.0 0
M  V30 10 C 7.7942 -0.75 0.0 0
M  V30 11 C 12.9903 -0.75 0.0 0
M  V30 12 C 14.2894 1.5 0.0 0
M  V30 13 C 6.4951 0.0 0.0 0
M  V30 14 C 7.7942 -2.25 0.0 0
M  V30 15 C 14.2894 0.0 0.0 0
M  V30 16 O 6.4951 1.5 0.0 0
M  V30 17 N 5.1961 -0.75 0.0 0
M  V30 18 O 9.0932 -3.0 0.0 0
M  V30 19 C 6.4951 -3.0 0.0 0
M  V30 20 C 5.1961 -2.25 0.0 0
M  V30 21 C 3.8971 0.0 0.0 0
M  V30 22 C 6.4951 -4.5 0.0 0
M  V30 23 C 3.8971 -3.0 0.0 0
M  V30 24 C 2.598 -0.75 0.0 0
M  V30 25 C 5.1961 -5.25 0.0 0
M  V30 26 C 3.8971 -4.5 0.0 0
M  V30 27 C 1.299 0.0 0.0 0 CFG=1
M  V30 28 C 1.299 1.5 0.0 0
M  V30 29 C 0.0 -0.75 0.0 0
M  V30 30 F -0.2009 1.5 0.0 0
M  V30 31 F 1.299 3.0 0.0 0
M  V30 32 F 2.799 1.5 0.0 0
M  V30 END ATOM
M  V30 BEGIN BOND
M  V30 1 2 1 2
M  V30 2 2 1 3
M  V30 3 1 1 4
M  V30 4 1 1 5
M  V30 5 2 4 6
M  V30 6 2 5 7
M  V30 7 1 5 8
M  V30 8 1 6 9
M  V30 9 1 6 10
M  V30 10 1 7 11
M  V30 11 2 8 12
M  V30 12 1 10 13
M  V30 13 2 10 14
M  V30 14 2 11 15
M  V30 15 2 13 16
M  V30 16 1 13 17
M  V30 17 1 14 18
M  V30 18 1 14 19
M  V30 19 1 17 20
M  V30 20 1 17 21
M  V30 21 1 19 22
M  V30 22 1 20 23
M  V30 23 1 21 24
M  V30 24 2 22 25
M  V30 25 2 23 26
M  V30 26 1 27 24
M  V30 27 1 27 28
M  V30 28 1 27 29 CFG=3
M  V30 29 1 28 30
M  V30 30 1 28 31
M  V30 31 1 28 32
M  V30 32 1 7 9
M  V30 33 1 12 15
M  V30 34 2 19 20
M  V30 35 1 25 26
M  V30 END BOND
M  V30 BEGIN COLLECTION
M  V30 MDLV30/STERAC1 ATOMS=(1 27)
M  V30 END COLLECTION
M  V30 END CTAB
M  END
>  <Molecule ChEMBL ID>
CHEMBL202165

>  <Smiles>
CC(CCn1c(=O)c(C2=NS(=O)(=O)c3ccccc3N2)c(O)c2ccccc21)C(F)(F)F

>  <Standard Value>
44

$$$$
CHEMBL201769
Actelion Java MolfileCreator 2.0

  0  0  0  0  0  0              0 V3000
M  V30 BEGIN CTAB
M  V30 COUNTS 30 33 0 0 0
M  V30 BEGIN ATOM
M  V30 1 S 10.3923 2.25 0.0 0
M  V30 2 O 11.1423 3.549 0.0 0
M  V30 3 O 9.6423 3.549 0.0 0
M  V30 4 N 9.0932 1.5 0.0 0
M  V30 5 C 11.6913 1.5 0.0 0
M  V30 6 C 9.0932 0.0 0.0 0
M  V30 7 C 11.6913 0.0 0.0 0
M  V30 8 C 12.9903 2.25 0.0 0
M  V30 9 N 10.3923 -0.75 0.0 0
M  V30 10 C 7.7942 -0.75 0.0 0
M  V30 11 C 12.9903 -0.75 0.0 0
M  V30 12 C 14.2894 1.5 0.0 0
M  V30 13 C 6.4951 0.0 0.0 0
M  V30 14 C 7.7942 -2.25 0.0 0
M  V30 15 C 14.2894 0.0 0.0 0
M  V30 16 O 6.4951 1.5 0.0 0
M  V30 17 N 5.1961 -0.75 0.0 0
M  V30 18 O 9.0932 -3.0 0.0 0
M  V30 19 C 6.4951 -3.0 0.0 0
M  V30 20 C 5.1961 -2.25 0.0 0
M  V30 21 C 3.8971 0.0 0.0 0
M  V30 22 C 6.4951 -4.5 0.0 0
M  V30 23 C 3.8971 -3.0 0.0 0
M  V30 24 C 2.598 -0.75 0.0 0
M  V30 25 C 5.1961 -5.25 0.0 0
M  V30 26 C 3.8971 -4.5 0.0 0
M  V30 27 C 1.299 0.0 0.0 0
M  V30 28 C 5.1961 -6.75 0.0 0
M  V30 29 C 1.299 1.5 0.0 0
M  V30 30 C 0.0 -0.75 0.0 0
M  V30 END ATOM
M  V30 BEGIN BOND
M  V30 1 2 1 2
M  V30 2 2 1 3
M  V30 3 1 1 4
M  V30 4 1 1 5
M  V30 5 2 4 6
M  V30 6 2 5 7
M  V30 7 1 5 8
M  V30 8 1 6 9
M  V30 9 1 6 10
M  V30 10 1 7 11
M  V30 11 2 8 12
M  V30 12 1 10 13
M  V30 13 2 10 14
M  V30 14 2 11 15
M  V30 15 2 13 16
M  V30 16 1 13 17
M  V30 17 1 14 18
M  V30 18 1 14 19
M  V30 19 1 17 20
M  V30 20 1 17 21
M  V30 21 1 19 22
M  V30 22 1 20 23
M  V30 23 1 21 24
M  V30 24 2 22 25
M  V30 25 2 23 26
M  V30 26 1 24 27
M  V30 27 1 25 28
M  V30 28 1 27 29
M  V30 29 1 27 30
M  V30 30 1 7 9
M  V30 31 1 12 15
M  V30 32 2 19 20
M  V30 33 1 25 26
M  V30 END BOND
M  V30 END CTAB
M  END
>  <Molecule ChEMBL ID>
CHEMBL201769

>  <Smiles>
Cc1ccc2c(c1)c(O)c(C1=NS(=O)(=O)c3ccccc3N1)c(=O)n2CCC(C)C

>  <Standard Value>
47

$$$$
CHEMBL201600
Actelion Java MolfileCreator 2.0

  0  0  0  0  0  0              0 V3000
M  V30 BEGIN CTAB
M  V30 COUNTS 30 33 0 0 0
M  V30 BEGIN ATOM
M  V30 1 S 10.3923 2.25 0.0 0
M  V30 2 O 11.1423 3.549 0.0 0
M  V30 3 O 9.6423 3.549 0.0 0
M  V30 4 N 9.0932 1.5 0.0 0
M  V30 5 C 11.6913 1.5 0.0 0
M  V30 6 C 9.0932 0.0 0.0 0
M  V30 7 C 11.6913 0.0 0.0 0
M  V30 8 C 12.9903 2.25 0.0 0
M  V30 9 N 10.3923 -0.75 0.0 0
M  V30 10 C 7.7942 -0.75 0.0 0
M  V30 11 C 12.9903 -0.75 0.0 0
M  V30 12 C 14.2894 1.5 0.0 0
M  V30 13 C 6.4951 0.0 0.0 0
M  V30 14 C 7.7942 -2.25 0.0 0
M  V30 15 C 14.2894 0.0 0.0 0
M  V30 16 O 6.4951 1.5 0.0 0
M  V30 17 N 5.1961 -0.75 0.0 0
M  V30 18 O 9.0932 -3.0 0.0 0
M  V30 19 C 6.4951 -3.0 0.0 0
M  V30 20 C 5.1961 -2.25 0.0 0
M  V30 21 C 3.8971 0.0 0.0 0
M  V30 22 C 6.4951 -4.5 0.0 0
M  V30 23 C 3.8971 -3.0 0.0 0
M  V30 24 C 2.598 -0.75 0.0 0
M  V30 25 O 7.7942 -5.25 0.0 0
M  V30 26 C 5.1961 -5.25 0.0 0
M  V30 27 C 3.8971 -4.5 0.0 0
M  V30 28 C 1.299 0.0 0.0 0
M  V30 29 C 1.299 1.5 0.0 0
M  V30 30 C 0.0 -0.75 0.0 0
M  V30 END ATOM
M  V30 BEGIN BOND
M  V30 1 2 1 2
M  V30 2 2 1 3
M  V30 3 1 1 4
M  V30 4 1 1 5
M  V30 5 2 4 6
M  V30 6 2 5 7
M  V30 7 1 5 8
M  V30 8 1 6 9
M  V30 9 1 6 10
M  V30 10 1 7 11
M  V30 11 2 8 12
M  V30 12 1 10 13
M  V30 13 2 10 14
M  V30 14 2 11 15
M  V30 15 2 13 16
M  V30 16 1 13 17
M  V30 17 1 14 18
M  V30 18 1 14 19
M  V30 19 1 17 20
M  V30 20 1 17 21
M  V30 21 1 19 22
M  V30 22 1 20 23
M  V30 23 1 21 24
M  V30 24 1 22 25
M  V30 25 2 22 26
M  V30 26 2 23 27
M  V30 27 1 24 28
M  V30 28 1 28 29
M  V30 29 1 28 30
M  V30 30 1 7 9
M  V30 31 1 12 15
M  V30 32 2 19 20
M  V30 33 1 26 27
M  V30 END BOND
M  V30 END CTAB
M  END
>  <Molecule ChEMBL ID>
CHEMBL201600

>  <Smiles>
CC(C)CCn1c(=O)c(C2=NS(=O)(=O)c3ccccc3N2)c(O)c2c(O)cccc21

>  <Standard Value>
47

$$$$
CHEMBL202595
Actelion Java MolfileCreator 2.0

  0  0  0  0  0  0              0 V3000
M  V30 BEGIN CTAB
M  V30 COUNTS 34 37 0 0 0
M  V30 BEGIN ATOM
M  V30 1 S 9.0932 -9.0 0.0 0
M  V30 2 O 9.8432 -10.299 0.0 0
M  V30 3 O 10.5932 -8.9999 0.0 0
M  V30 4 N 9.0932 -7.5 0.0 0
M  V30 5 C 7.7942 -9.75 0.0 0
M  V30 6 C 7.7942 -6.75 0.0 0
M  V30 7 C 6.4951 -9.0 0.0 0
M  V30 8 C 7.7942 -11.25 0.0 0
M  V30 9 N 6.4951 -7.5 0.0 0
M  V30 10 C 7.7942 -5.25 0.0 0
M  V30 11 C 5.1961 -9.75 0.0 0
M  V30 12 C 6.4951 -12.0 0.0 0
M  V30 13 C 9.0932 -4.5 0.0 0
M  V30 14 C 6.4951 -4.5 0.0 0
M  V30 15 C 5.1961 -11.25 0.0 0
M  V30 16 O 10.3923 -5.25 0.0 0
M  V30 17 N 9.0932 -3.0 0.0 0
M  V30 18 O 5.1961 -5.25 0.0 0
M  V30 19 C 6.4951 -3.0 0.0 0
M  V30 20 C 7.7942 -2.25 0.0 0
M  V30 21 C 10.3923 -2.25 0.0 0
M  V30 22 C 5.1961 -2.25 0.0 0
M  V30 23 C 7.7942 -0.75 0.0 0
M  V30 24 C 11.6913 -3.0 0.0 0
M  V30 25 C 5.1961 -0.75 0.0 0
M  V30 26 C 6.4951 0.0 0.0 0
M  V30 27 C 12.9903 -2.25 0.0 0
M  V30 28 N 3.8971 0.0 0.0 0
M  V30 29 C 12.2403 -0.9509 0.0 0
M  V30 30 C 14.2894 -1.5 0.0 0
M  V30 31 C 13.7403 -3.549 0.0 0
M  V30 32 C 2.598 -0.75 0.0 0
M  V30 33 C 1.299 0.0 0.0 0
M  V30 34 O 0.0 -0.75 0.0 0
M  V30 END ATOM
M  V30 BEGIN BOND
M  V30 1 2 1 2
M  V30 2 2 1 3
M  V30 3 1 1 4
M  V30 4 1 1 5
M  V30 5 2 4 6
M  V30 6 2 5 7
M  V30 7 1 5 8
M  V30 8 1 6 9
M  V30 9 1 6 10
M  V30 10 1 7 11
M  V30 11 2 8 12
M  V30 12 1 10 13
M  V30 13 2 10 14
M  V30 14 2 11 15
M  V30 15 2 13 16
M  V30 16 1 13 17
M  V30 17 1 14 18
M  V30 18 1 14 19
M  V30 19 1 17 20
M  V30 20 1 17 21
M  V30 21 1 19 22
M  V30 22 1 20 23
M  V30 23 1 21 24
M  V30 24 2 22 25
M  V30 25 2 23 26
M  V30 26 1 24 27
M  V30 27 1 25 28
M  V30 28 1 27 29
M  V30 29 1 27 30
M  V30 30 1 27 31
M  V30 31 1 28 32
M  V30 32 1 32 33
M  V30 33 1 33 34
M  V30 34 1 7 9
M  V30 35 1 12 15
M  V30 36 2 19 20
M  V30 37 1 25 26
M  V30 END BOND
M  V30 END CTAB
M  END
>  <Molecule ChEMBL ID>
CHEMBL202595

>  <Smiles>
CC(C)(C)CCn1c(=O)c(C2=NS(=O)(=O)c3ccccc3N2)c(O)c2cc(NCCO)ccc21

>  <Standard Value>
48

$$$$
CHEMBL201385
Actelion Java MolfileCreator 2.0

  0  0  0  0  0  0              0 V3000
M  V30 BEGIN CTAB
M  V30 COUNTS 29 33 0 0 0
M  V30 BEGIN ATOM
M  V30 1 S 7.7942 2.25 0.0 0
M  V30 2 O 8.5442 3.549 0.0 0
M  V30 3 O 7.0442 3.549 0.0 0
M  V30 4 N 6.4951 1.5 0.0 0
M  V30 5 C 9.0932 1.5 0.0 0
M  V30 6 C 6.4951 0.0 0.0 0
M  V30 7 C 9.0932 0.0 0.0 0
M  V30 8 C 10.3923 2.25 0.0 0
M  V30 9 N 7.7942 -0.75 0.0 0
M  V30 10 C 5.1961 -0.75 0.0 0
M  V30 11 C 10.3923 -0.75 0.0 0
M  V30 12 C 11.6913 1.5 0.0 0
M  V30 13 C 3.8971 0.0 0.0 0
M  V30 14 C 5.1961 -2.25 0.0 0
M  V30 15 C 11.6913 0.0 0.0 0
M  V30 16 O 3.8971 1.5 0.0 0
M  V30 17 N 2.598 -0.75 0.0 0
M  V30 18 O 6.4951 -3.0 0.0 0
M  V30 19 C 3.8971 -3.0 0.0 0
M  V30 20 C 2.598 -2.25 0.0 0
M  V30 21 C 1.299 0.0 0.0 0
M  V30 22 C 3.8971 -4.5 0.0 0
M  V30 23 C 1.299 -3.0 0.0 0
M  V30 24 C 0.0 -0.75 0.0 0
M  V30 25 C 2.598 -5.25 0.0 0
M  V30 26 C 1.299 -4.5 0.0 0
M  V30 27 C -1.4488 -0.3617 0.0 0
M  V30 28 C -0.3882 -2.1988 0.0 0
M  V30 29 C -1.8371 -1.8106 0.0 0
M  V30 END ATOM
M  V30 BEGIN BOND
M  V30 1 2 1 2
M  V30 2 2 1 3
M  V30 3 1 1 4
M  V30 4 1 1 5
M  V30 5 2 4 6
M  V30 6 2 5 7
M  V30 7 1 5 8
M  V30 8 1 6 9
M  V30 9 1 6 10
M  V30 10 1 7 11
M  V30 11 2 8 12
M  V30 12 1 10 13
M  V30 13 2 10 14
M  V30 14 2 11 15
M  V30 15 2 13 16
M  V30 16 1 13 17
M  V30 17 1 14 18
M  V30 18 1 14 19
M  V30 19 1 17 20
M  V30 20 1 17 21
M  V30 21 1 19 22
M  V30 22 1 20 23
M  V30 23 1 21 24
M  V30 24 2 22 25
M  V30 25 2 23 26
M  V30 26 1 24 27
M  V30 27 1 24 28
M  V30 28 1 27 29
M  V30 29 1 7 9
M  V30 30 1 12 15
M  V30 31 2 19 20
M  V30 32 1 25 26
M  V30 33 1 28 29
M  V30 END BOND
M  V30 END CTAB
M  END
>  <Molecule ChEMBL ID>
CHEMBL201385

>  <Smiles>
O=c1c(C2=NS(=O)(=O)c3ccccc3N2)c(O)c2ccccc2n1CC1CCC1

>  <Standard Value>
49

$$$$
CHEMBL372357
Actelion Java MolfileCreator 2.0

  0  0  0  0  0  0              0 V3000
M  V30 BEGIN CTAB
M  V30 COUNTS 30 34 0 0 0
M  V30 BEGIN ATOM
M  V30 1 S 3.8971 6.0 0.0 0
M  V30 2 O 3.1471 7.299 0.0 0
M  V30 3 O 2.3971 5.9999 0.0 0
M  V30 4 N 3.8971 4.5 0.0 0
M  V30 5 C 5.1961 6.75 0.0 0
M  V30 6 C 5.1961 3.75 0.0 0
M  V30 7 C 6.4951 6.0 0.0 0
M  V30 8 C 5.1961 8.25 0.0 0
M  V30 9 N 6.4951 4.5 0.0 0
M  V30 10 C 5.1961 2.25 0.0 0
M  V30 11 C 7.7942 6.75 0.0 0
M  V30 12 C 6.4951 9.0 0.0 0
M  V30 13 C 3.8971 1.5 0.0 0
M  V30 14 C 6.4951 1.5 0.0 0
M  V30 15 C 7.7942 8.25 0.0 0
M  V30 16 O 2.598 2.25 0.0 0
M  V30 17 N 3.8971 0.0 0.0 0
M  V30 18 O 7.7942 2.25 0.0 0
M  V30 19 C 6.4951 0.0 0.0 0
M  V30 20 C 5.1961 -0.75 0.0 0
M  V30 21 C 2.598 -0.75 0.0 0
M  V30 22 C 7.7942 -0.75 0.0 0
M  V30 23 C 5.1961 -2.25 0.0 0
M  V30 24 C 1.299 0.0 0.0 0
M  V30 25 C 7.7942 -2.25 0.0 0
M  V30 26 C 6.4951 -3.0 0.0 0
M  V30 27 C 0.0 -0.75 0.0 0
M  V30 28 F 9.0932 -3.0 0.0 0
M  V30 29 C -1.5 -0.75 0.0 0
M  V30 30 C -0.75 -2.049 0.0 0
M  V30 END ATOM
M  V30 BEGIN BOND
M  V30 1 2 1 2
M  V30 2 2 1 3
M  V30 3 1 1 4
M  V30 4 1 1 5
M  V30 5 1 4 6
M  V30 6 2 5 7
M  V30 7 1 5 8
M  V30 8 2 6 9
M  V30 9 1 6 10
M  V30 10 1 7 11
M  V30 11 2 8 12
M  V30 12 1 10 13
M  V30 13 2 10 14
M  V30 14 2 11 15
M  V30 15 2 13 16
M  V30 16 1 13 17
M  V30 17 1 14 18
M  V30 18 1 14 19
M  V30 19 1 17 20
M  V30 20 1 17 21
M  V30 21 1 19 22
M  V30 22 1 20 23
M  V30 23 1 21 24
M  V30 24 2 22 25
M  V30 25 2 23 26
M  V30 26 1 24 27
M  V30 27 1 25 28
M  V30 28 1 27 29
M  V30 29 1 27 30
M  V30 30 1 7 9
M  V30 31 1 12 15
M  V30 32 2 19 20
M  V30 33 1 25 26
M  V30 34 1 29 30
M  V30 END BOND
M  V30 END CTAB
M  END
>  <Molecule ChEMBL ID>
CHEMBL372357

>  <Smiles>
O=c1c(C2=Nc3ccccc3S(=O)(=O)N2)c(O)c2cc(F)ccc2n1CCC1CC1

>  <Standard Value>
49

$$$$
CHEMBL201456
Actelion Java MolfileCreator 2.0

  0  0  0  0  0  0              0 V3000
M  V30 BEGIN CTAB
M  V30 COUNTS 28 31 0 0 0
M  V30 BEGIN ATOM
M  V30 1 S 10.3923 2.25 0.0 0
M  V30 2 O 11.1423 3.549 0.0 0
M  V30 3 O 9.6423 3.549 0.0 0
M  V30 4 N 9.0932 1.5 0.0 0
M  V30 5 C 11.6913 1.5 0.0 0
M  V30 6 C 9.0932 0.0 0.0 0
M  V30 7 C 11.6913 0.0 0.0 0
M  V30 8 C 12.9903 2.25 0.0 0
M  V30 9 N 10.3923 -0.75 0.0 0
M  V30 10 C 7.7942 -0.75 0.0 0
M  V30 11 C 12.9903 -0.75 0.0 0
M  V30 12 C 14.2894 1.5 0.0 0
M  V30 13 C 6.4951 0.0 0.0 0
M  V30 14 C 7.7942 -2.25 0.0 0
M  V30 15 C 14.2894 0.0 0.0 0
M  V30 16 O 6.4951 1.5 0.0 0
M  V30 17 N 5.1961 -0.75 0.0 0
M  V30 18 O 9.0932 -3.0 0.0 0
M  V30 19 C 6.4951 -3.0 0.0 0
M  V30 20 C 5.1961 -2.25 0.0 0
M  V30 21 C 3.8971 0.0 0.0 0
M  V30 22 C 6.4951 -4.5 0.0 0
M  V30 23 C 3.8971 -3.0 0.0 0
M  V30 24 C 2.598 -0.75 0.0 0
M  V30 25 C 5.1961 -5.25 0.0 0
M  V30 26 C 3.8971 -4.5 0.0 0
M  V30 27 S 1.299 0.0 0.0 0
M  V30 28 C 0.0 -0.75 0.0 0
M  V30 END ATOM
M  V30 BEGIN BOND
M  V30 1 2 1 2
M  V30 2 2 1 3
M  V30 3 1 1 4
M  V30 4 1 1 5
M  V30 5 2 4 6
M  V30 6 2 5 7
M  V30 7 1 5 8
M  V30 8 1 6 9
M  V30 9 1 6 10
M  V30 10 1 7 11
M  V30 11 2 8 12
M  V30 12 1 10 13
M  V30 13 2 10 14
M  V30 14 2 11 15
M  V30 15 2 13 16
M  V30 16 1 13 17
M  V30 17 1 14 18
M  V30 18 1 14 19
M  V30 19 1 17 20
M  V30 20 1 17 21
M  V30 21 1 19 22
M  V30 22 1 20 23
M  V30 23 1 21 24
M  V30 24 2 22 25
M  V30 25 2 23 26
M  V30 26 1 24 27
M  V30 27 1 27 28
M  V30 28 1 7 9
M  V30 29 1 12 15
M  V30 30 2 19 20
M  V30 31 1 25 26
M  V30 END BOND
M  V30 END CTAB
M  END
>  <Molecule ChEMBL ID>
CHEMBL201456

>  <Smiles>
CSCCn1c(=O)c(C2=NS(=O)(=O)c3ccccc3N2)c(O)c2ccccc21

>  <Standard Value>
53

$$$$
CHEMBL201337
Actelion Java MolfileCreator 2.0

  0  0  0  0  0  0              0 V3000
M  V30 BEGIN CTAB
M  V30 COUNTS 31 35 0 0 0
M  V30 BEGIN ATOM
M  V30 1 S 7.7942 2.25 0.0 0
M  V30 2 O 8.5442 3.549 0.0 0
M  V30 3 O 7.0442 3.549 0.0 0
M  V30 4 N 6.4951 1.5 0.0 0
M  V30 5 C 9.0932 1.5 0.0 0
M  V30 6 C 6.4951 0.0 0.0 0
M  V30 7 C 9.0932 0.0 0.0 0
M  V30 8 C 10.3923 2.25 0.0 0
M  V30 9 N 7.7942 -0.75 0.0 0
M  V30 10 C 5.1961 -0.75 0.0 0
M  V30 11 C 10.3923 -0.75 0.0 0
M  V30 12 C 11.6913 1.5 0.0 0
M  V30 13 C 3.8971 0.0 0.0 0
M  V30 14 C 5.1961 -2.25 0.0 0
M  V30 15 C 11.6913 0.0 0.0 0
M  V30 16 O 3.8971 1.5 0.0 0
M  V30 17 N 2.598 -0.75 0.0 0
M  V30 18 O 6.4951 -3.0 0.0 0
M  V30 19 C 3.8971 -3.0 0.0 0
M  V30 20 C 2.598 -2.25 0.0 0
M  V30 21 C 1.299 0.0 0.0 0
M  V30 22 C 3.8971 -4.5 0.0 0
M  V30 23 C 1.299 -3.0 0.0 0
M  V30 24 C 0.0 -0.75 0.0 0
M  V30 25 C 2.598 -5.25 0.0 0
M  V30 26 C 1.299 -4.5 0.0 0
M  V30 27 C -1.299 0.0 0.0 0
M  V30 28 C 0.0 -2.25 0.0 0
M  V30 29 C -2.598 -0.75 0.0 0
M  V30 30 C -1.299 -3.0 0.0 0
M  V30 31 N -2.598 -2.25 0.0 0
M  V30 END ATOM
M  V30 BEGIN BOND
M  V30 1 2 1 2
M  V30 2 2 1 3
M  V30 3 1 1 4
M  V30 4 1 1 5
M  V30 5 2 4 6
M  V30 6 2 5 7
M  V30 7 1 5 8
M  V30 8 1 6 9
M  V30 9 1 6 10
M  V30 10 1 7 11
M  V30 11 2 8 12
M  V30 12 1 10 13
M  V30 13 2 10 14
M  V30 14 2 11 15
M  V30 15 2 13 16
M  V30 16 1 13 17
M  V30 17 1 14 18
M  V30 18 1 14 19
M  V30 19 1 17 20
M  V30 20 1 17 21
M  V30 21 1 19 22
M  V30 22 1 20 23
M  V30 23 1 21 24
M  V30 24 2 22 25
M  V30 25 2 23 26
M  V30 26 2 24 27
M  V30 27 1 24 28
M  V30 28 1 27 29
M  V30 29 2 28 30
M  V30 30 2 29 31
M  V30 31 1 7 9
M  V30 32 1 12 15
M  V30 33 2 19 20
M  V30 34 1 25 26
M  V30 35 1 30 31
M  V30 END BOND
M  V30 END CTAB
M  END
>  <Molecule ChEMBL ID>
CHEMBL201337

>  <Smiles>
O=c1c(C2=NS(=O)(=O)c3ccccc3N2)c(O)c2ccccc2n1Cc1ccncc1

>  <Standard Value>
61

$$$$
CHEMBL426302
Actelion Java MolfileCreator 2.0

  0  0  0  0  0  0              0 V3000
M  V30 BEGIN CTAB
M  V30 COUNTS 30 33 0 0 0
M  V30 BEGIN ATOM
M  V30 1 S 10.3923 2.25 0.0 0
M  V30 2 O 11.1423 3.549 0.0 0
M  V30 3 O 9.6423 3.549 0.0 0
M  V30 4 N 9.0932 1.5 0.0 0
M  V30 5 C 11.6913 1.5 0.0 0
M  V30 6 C 9.0932 0.0 0.0 0
M  V30 7 C 11.6913 0.0 0.0 0
M  V30 8 C 12.9903 2.25 0.0 0
M  V30 9 N 10.3923 -0.75 0.0 0
M  V30 10 C 7.7942 -0.75 0.0 0
M  V30 11 C 12.9903 -0.75 0.0 0
M  V30 12 C 14.2894 1.5 0.0 0
M  V30 13 C 6.4951 0.0 0.0 0
M  V30 14 C 7.7942 -2.25 0.0 0
M  V30 15 C 14.2894 0.0 0.0 0
M  V30 16 O 6.4951 1.5 0.0 0
M  V30 17 N 5.1961 -0.75 0.0 0
M  V30 18 O 9.0932 -3.0 0.0 0
M  V30 19 C 6.4951 -3.0 0.0 0
M  V30 20 C 5.1961 -2.25 0.0 0
M  V30 21 C 3.8971 0.0 0.0 0
M  V30 22 C 6.4951 -4.5 0.0 0
M  V30 23 C 3.8971 -3.0 0.0 0
M  V30 24 C 2.598 -0.75 0.0 0
M  V30 25 C 5.1961 -5.25 0.0 0
M  V30 26 C 3.8971 -4.5 0.0 0
M  V30 27 C 1.299 0.0 0.0 0
M  V30 28 N 5.1961 -6.75 0.0 0
M  V30 29 C 1.299 1.5 0.0 0
M  V30 30 C 0.0 -0.75 0.0 0
M  V30 END ATOM
M  V30 BEGIN BOND
M  V30 1 2 1 2
M  V30 2 2 1 3
M  V30 3 1 1 4
M  V30 4 1 1 5
M  V30 5 2 4 6
M  V30 6 2 5 7
M  V30 7 1 5 8
M  V30 8 1 6 9
M  V30 9 1 6 10
M  V30 10 1 7 11
M  V30 11 2 8 12
M  V30 12 1 10 13
M  V30 13 2 10 14
M  V30 14 2 11 15
M  V30 15 2 13 16
M  V30 16 1 13 17
M  V30 17 1 14 18
M  V30 18 1 14 19
M  V30 19 1 17 20
M  V30 20 1 17 21
M  V30 21 1 19 22
M  V30 22 1 20 23
M  V30 23 1 21 24
M  V30 24 2 22 25
M  V30 25 2 23 26
M  V30 26 1 24 27
M  V30 27 1 25 28
M  V30 28 1 27 29
M  V30 29 1 27 30
M  V30 30 1 7 9
M  V30 31 1 12 15
M  V30 32 2 19 20
M  V30 33 1 25 26
M  V30 END BOND
M  V30 END CTAB
M  END
>  <Molecule ChEMBL ID>
CHEMBL426302

>  <Smiles>
CC(C)CCn1c(=O)c(C2=NS(=O)(=O)c3ccccc3N2)c(O)c2cc(N)ccc21

>  <Standard Value>
62

$$$$
CHEMBL377275
Actelion Java MolfileCreator 2.0

  0  0  0  0  0  0              0 V3000
M  V30 BEGIN CTAB
M  V30 COUNTS 30 33 0 0 0
M  V30 BEGIN ATOM
M  V30 1 S 6.4951 6.0 0.0 0
M  V30 2 O 5.7452 7.299 0.0 0
M  V30 3 O 4.9952 5.9999 0.0 0
M  V30 4 N 6.4951 4.5 0.0 0
M  V30 5 C 7.7942 6.75 0.0 0
M  V30 6 C 7.7942 3.75 0.0 0
M  V30 7 C 9.0932 6.0 0.0 0
M  V30 8 C 7.7942 8.25 0.0 0
M  V30 9 N 9.0932 4.5 0.0 0
M  V30 10 C 7.7942 2.25 0.0 0
M  V30 11 C 10.3923 6.75 0.0 0
M  V30 12 C 9.0932 9.0 0.0 0
M  V30 13 C 6.4951 1.5 0.0 0
M  V30 14 C 9.0932 1.5 0.0 0
M  V30 15 C 10.3923 8.25 0.0 0
M  V30 16 O 5.1961 2.25 0.0 0
M  V30 17 N 6.4951 0.0 0.0 0
M  V30 18 O 10.3923 2.25 0.0 0
M  V30 19 C 9.0932 0.0 0.0 0
M  V30 20 C 7.7942 -0.75 0.0 0
M  V30 21 C 5.1961 -0.75 0.0 0
M  V30 22 C 10.3923 -0.75 0.0 0
M  V30 23 C 7.7942 -2.25 0.0 0
M  V30 24 C 3.8971 0.0 0.0 0
M  V30 25 C 10.3923 -2.25 0.0 0
M  V30 26 C 9.0932 -3.0 0.0 0
M  V30 27 C 2.598 -0.75 0.0 0 CFG=2
M  V30 28 C 1.299 0.0 0.0 0
M  V30 29 C 2.598 -2.25 0.0 0
M  V30 30 C 0.0 -0.75 0.0 0
M  V30 END ATOM
M  V30 BEGIN BOND
M  V30 1 2 1 2
M  V30 2 2 1 3
M  V30 3 1 1 4
M  V30 4 1 1 5
M  V30 5 2 4 6
M  V30 6 2 5 7
M  V30 7 1 5 8
M  V30 8 1 6 9
M  V30 9 1 6 10
M  V30 10 1 7 11
M  V30 11 2 8 12
M  V30 12 1 10 13
M  V30 13 2 10 14
M  V30 14 2 11 15
M  V30 15 2 13 16
M  V30 16 1 13 17
M  V30 17 1 14 18
M  V30 18 1 14 19
M  V30 19 1 17 20
M  V30 20 1 17 21
M  V30 21 1 19 22
M  V30 22 1 20 23
M  V30 23 1 21 24
M  V30 24 2 22 25
M  V30 25 2 23 26
M  V30 26 1 27 24
M  V30 27 1 27 28
M  V30 28 1 27 29 CFG=1
M  V30 29 1 28 30
M  V30 30 1 7 9
M  V30 31 1 12 15
M  V30 32 2 19 20
M  V30 33 1 25 26
M  V30 END BOND
M  V30 BEGIN COLLECTION
M  V30 MDLV30/STERAC1 ATOMS=(1 27)
M  V30 END COLLECTION
M  V30 END CTAB
M  END
>  <Molecule ChEMBL ID>
CHEMBL377275

>  <Smiles>
CCC(C)CCn1c(=O)c(C2=NS(=O)(=O)c3ccccc3N2)c(O)c2ccccc21

>  <Standard Value>
65

$$$$
CHEMBL371635
Actelion Java MolfileCreator 2.0

  0  0  0  0  0  0              0 V3000
M  V30 BEGIN CTAB
M  V30 COUNTS 28 32 0 0 0
M  V30 BEGIN ATOM
M  V30 1 S 7.7942 2.25 0.0 0
M  V30 2 O 8.5442 3.549 0.0 0
M  V30 3 O 7.0442 3.549 0.0 0
M  V30 4 N 6.4951 1.5 0.0 0
M  V30 5 C 9.0932 1.5 0.0 0
M  V30 6 C 6.4951 0.0 0.0 0
M  V30 7 C 9.0932 0.0 0.0 0
M  V30 8 C 10.3923 2.25 0.0 0
M  V30 9 N 7.7942 -0.75 0.0 0
M  V30 10 C 5.1961 -0.75 0.0 0
M  V30 11 C 10.3923 -0.75 0.0 0
M  V30 12 C 11.6913 1.5 0.0 0
M  V30 13 C 3.8971 0.0 0.0 0
M  V30 14 C 5.1961 -2.25 0.0 0
M  V30 15 C 11.6913 0.0 0.0 0
M  V30 16 O 3.8971 1.5 0.0 0
M  V30 17 N 2.598 -0.75 0.0 0
M  V30 18 O 6.4951 -3.0 0.0 0
M  V30 19 C 3.8971 -3.0 0.0 0
M  V30 20 C 2.598 -2.25 0.0 0
M  V30 21 C 1.299 0.0 0.0 0
M  V30 22 C 3.8971 -4.5 0.0 0
M  V30 23 C 1.299 -3.0 0.0 0
M  V30 24 C 0.0 -0.75 0.0 0
M  V30 25 C 2.598 -5.25 0.0 0
M  V30 26 C 1.299 -4.5 0.0 0
M  V30 27 C -1.5 -0.75 0.0 0
M  V30 28 C -0.75 -2.049 0.0 0
M  V30 END ATOM
M  V30 BEGIN BOND
M  V30 1 2 1 2
M  V30 2 2 1 3
M  V30 3 1 1 4
M  V30 4 1 1 5
M  V30 5 2 4 6
M  V30 6 2 5 7
M  V30 7 1 5 8
M  V30 8 1 6 9
M  V30 9 1 6 10
M  V30 10 1 7 11
M  V30 11 2 8 12
M  V30 12 1 10 13
M  V30 13 2 10 14
M  V30 14 2 11 15
M  V30 15 2 13 16
M  V30 16 1 13 17
M  V30 17 1 14 18
M  V30 18 1 14 19
M  V30 19 1 17 20
M  V30 20 1 17 21
M  V30 21 1 19 22
M  V30 22 1 20 23
M  V30 23 1 21 24
M  V30 24 2 22 25
M  V30 25 2 23 26
M  V30 26 1 24 27
M  V30 27 1 24 28
M  V30 28 1 7 9
M  V30 29 1 12 15
M  V30 30 2 19 20
M  V30 31 1 25 26
M  V30 32 1 27 28
M  V30 END BOND
M  V30 END CTAB
M  END
>  <Molecule ChEMBL ID>
CHEMBL371635

>  <Smiles>
O=c1c(C2=NS(=O)(=O)c3ccccc3N2)c(O)c2ccccc2n1CC1CC1

>  <Standard Value>
78

$$$$
CHEMBL381010
Actelion Java MolfileCreator 2.0

  0  0  0  0  0  0              0 V3000
M  V30 BEGIN CTAB
M  V30 COUNTS 29 32 0 0 0
M  V30 BEGIN ATOM
M  V30 1 S 6.4951 6.0 0.0 0
M  V30 2 O 5.7452 7.299 0.0 0
M  V30 3 O 4.9952 5.9999 0.0 0
M  V30 4 N 6.4951 4.5 0.0 0
M  V30 5 C 7.7942 6.75 0.0 0
M  V30 6 C 7.7942 3.75 0.0 0
M  V30 7 C 9.0932 6.0 0.0 0
M  V30 8 C 7.7942 8.25 0.0 0
M  V30 9 N 9.0932 4.5 0.0 0
M  V30 10 C 7.7942 2.25 0.0 0
M  V30 11 C 10.3923 6.75 0.0 0
M  V30 12 C 9.0932 9.0 0.0 0
M  V30 13 C 6.4951 1.5 0.0 0
M  V30 14 C 9.0932 1.5 0.0 0
M  V30 15 C 10.3923 8.25 0.0 0
M  V30 16 O 5.1961 2.25 0.0 0
M  V30 17 N 6.4951 0.0 0.0 0
M  V30 18 O 10.3923 2.25 0.0 0
M  V30 19 C 9.0932 0.0 0.0 0
M  V30 20 C 7.7942 -0.75 0.0 0
M  V30 21 C 5.1961 -0.75 0.0 0
M  V30 22 C 10.3923 -0.75 0.0 0
M  V30 23 C 7.7942 -2.25 0.0 0
M  V30 24 C 3.8971 0.0 0.0 0
M  V30 25 C 10.3923 -2.25 0.0 0
M  V30 26 C 9.0932 -3.0 0.0 0
M  V30 27 C 2.598 -0.75 0.0 0
M  V30 28 C 1.299 0.0 0.0 0
M  V30 29 C 0.0 -0.75 0.0 0
M  V30 END ATOM
M  V30 BEGIN BOND
M  V30 1 2 1 2
M  V30 2 2 1 3
M  V30 3 1 1 4
M  V30 4 1 1 5
M  V30 5 2 4 6
M  V30 6 2 5 7
M  V30 7 1 5 8
M  V30 8 1 6 9
M  V30 9 1 6 10
M  V30 10 1 7 11
M  V30 11 2 8 12
M  V30 12 1 10 13
M  V30 13 2 10 14
M  V30 14 2 11 15
M  V30 15 2 13 16
M  V30 16 1 13 17
M  V30 17 1 14 18
M  V30 18 1 14 19
M  V30 19 1 17 20
M  V30 20 1 17 21
M  V30 21 1 19 22
M  V30 22 1 20 23
M  V30 23 1 21 24
M  V30 24 2 22 25
M  V30 25 2 23 26
M  V30 26 1 24 27
M  V30 27 1 27 28
M  V30 28 1 28 29
M  V30 29 1 7 9
M  V30 30 1 12 15
M  V30 31 2 19 20
M  V30 32 1 25 26
M  V30 END BOND
M  V30 END CTAB
M  END
>  <Molecule ChEMBL ID>
CHEMBL381010

>  <Smiles>
CCCCCn1c(=O)c(C2=NS(=O)(=O)c3ccccc3N2)c(O)c2ccccc21

>  <Standard Value>
80

$$$$
CHEMBL201063
Actelion Java MolfileCreator 2.0

  0  0  0  0  0  0              0 V3000
M  V30 BEGIN CTAB
M  V30 COUNTS 34 38 0 0 0
M  V30 BEGIN ATOM
M  V30 1 S 7.7942 2.25 0.0 0
M  V30 2 O 8.5442 3.549 0.0 0
M  V30 3 O 7.0442 3.549 0.0 0
M  V30 4 N 6.4951 1.5 0.0 0
M  V30 5 C 9.0932 1.5 0.0 0
M  V30 6 C 6.4951 0.0 0.0 0
M  V30 7 C 9.0932 0.0 0.0 0
M  V30 8 C 10.3923 2.25 0.0 0
M  V30 9 N 7.7942 -0.75 0.0 0
M  V30 10 C 5.1961 -0.75 0.0 0
M  V30 11 C 10.3923 -0.75 0.0 0
M  V30 12 C 11.6913 1.5 0.0 0
M  V30 13 C 3.8971 0.0 0.0 0
M  V30 14 C 5.1961 -2.25 0.0 0
M  V30 15 C 11.6913 0.0 0.0 0
M  V30 16 O 3.8971 1.5 0.0 0
M  V30 17 N 2.598 -0.75 0.0 0
M  V30 18 O 6.4951 -3.0 0.0 0
M  V30 19 C 3.8971 -3.0 0.0 0
M  V30 20 C 2.598 -2.25 0.0 0
M  V30 21 C 1.299 0.0 0.0 0
M  V30 22 C 3.8971 -4.5 0.0 0
M  V30 23 C 1.299 -3.0 0.0 0
M  V30 24 C 0.0 -0.75 0.0 0
M  V30 25 C 2.598 -5.25 0.0 0
M  V30 26 C 1.299 -4.5 0.0 0
M  V30 27 C -1.299 0.0 0.0 0
M  V30 28 C 0.0 -2.25 0.0 0
M  V30 29 C -2.598 -0.75 0.0 0
M  V30 30 C -1.299 -3.0 0.0 0
M  V30 31 N -3.8971 0.0 0.0 0 CHG=1
M  V30 32 C -2.598 -2.25 0.0 0
M  V30 33 O -3.8971 1.5 0.0 0
M  V30 34 O -5.1961 -0.75 0.0 0 CHG=-1
M  V30 END ATOM
M  V30 BEGIN BOND
M  V30 1 2 1 2
M  V30 2 2 1 3
M  V30 3 1 1 4
M  V30 4 1 1 5
M  V30 5 2 4 6
M  V30 6 2 5 7
M  V30 7 1 5 8
M  V30 8 1 6 9
M  V30 9 1 6 10
M  V30 10 1 7 11
M  V30 11 2 8 12
M  V30 12 1 10 13
M  V30 13 2 10 14
M  V30 14 2 11 15
M  V30 15 2 13 16
M  V30 16 1 13 17
M  V30 17 1 14 18
M  V30 18 1 14 19
M  V30 19 1 17 20
M  V30 20 1 17 21
M  V30 21 1 19 22
M  V30 22 1 20 23
M  V30 23 1 21 24
M  V30 24 2 22 25
M  V30 25 2 23 26
M  V30 26 2 24 27
M  V30 27 1 24 28
M  V30 28 1 27 29
M  V30 29 2 28 30
M  V30 30 1 29 31
M  V30 31 2 29 32
M  V30 32 2 31 33
M  V30 33 1 31 34
M  V30 34 1 7 9
M  V30 35 1 12 15
M  V30 36 2 19 20
M  V30 37 1 25 26
M  V30 38 1 30 32
M  V30 END BOND
M  V30 END CTAB
M  END
>  <Molecule ChEMBL ID>
CHEMBL201063

>  <Smiles>
O=c1c(C2=NS(=O)(=O)c3ccccc3N2)c(O)c2ccccc2n1Cc1cccc([N+](=O)[O-])c1

>  <Standard Value>
81

$$$$
CHEMBL201436
Actelion Java MolfileCreator 2.0

  0  0  0  0  0  0              0 V3000
M  V30 BEGIN CTAB
M  V30 COUNTS 30 33 0 0 0
M  V30 BEGIN ATOM
M  V30 1 S 6.4951 6.0 0.0 0
M  V30 2 O 5.7452 7.299 0.0 0
M  V30 3 O 4.9952 5.9999 0.0 0
M  V30 4 N 6.4951 4.5 0.0 0
M  V30 5 C 7.7942 6.75 0.0 0
M  V30 6 C 7.7942 3.75 0.0 0
M  V30 7 C 9.0932 6.0 0.0 0
M  V30 8 C 7.7942 8.25 0.0 0
M  V30 9 N 9.0932 4.5 0.0 0
M  V30 10 C 7.7942 2.25 0.0 0
M  V30 11 C 10.3923 6.75 0.0 0
M  V30 12 C 9.0932 9.0 0.0 0
M  V30 13 C 6.4951 1.5 0.0 0
M  V30 14 C 9.0932 1.5 0.0 0
M  V30 15 C 10.3923 8.25 0.0 0
M  V30 16 O 5.1961 2.25 0.0 0
M  V30 17 N 6.4951 0.0 0.0 0
M  V30 18 O 10.3923 2.25 0.0 0
M  V30 19 C 9.0932 0.0 0.0 0
M  V30 20 C 7.7942 -0.75 0.0 0
M  V30 21 C 5.1961 -0.75 0.0 0
M  V30 22 C 10.3923 -0.75 0.0 0
M  V30 23 C 7.7942 -2.25 0.0 0
M  V30 24 C 3.8971 0.0 0.0 0
M  V30 25 C 10.3923 -2.25 0.0 0
M  V30 26 C 9.0932 -3.0 0.0 0
M  V30 27 C 2.598 -0.75 0.0 0 CFG=1
M  V30 28 O 1.299 0.0 0.0 0
M  V30 29 C 2.598 -2.25 0.0 0
M  V30 30 C 0.0 -0.75 0.0 0
M  V30 END ATOM
M  V30 BEGIN BOND
M  V30 1 2 1 2
M  V30 2 2 1 3
M  V30 3 1 1 4
M  V30 4 1 1 5
M  V30 5 2 4 6
M  V30 6 2 5 7
M  V30 7 1 5 8
M  V30 8 1 6 9
M  V30 9 1 6 10
M  V30 10 1 7 11
M  V30 11 2 8 12
M  V30 12 1 10 13
M  V30 13 2 10 14
M  V30 14 2 11 15
M  V30 15 2 13 16
M  V30 16 1 13 17
M  V30 17 1 14 18
M  V30 18 1 14 19
M  V30 19 1 17 20
M  V30 20 1 17 21
M  V30 21 1 19 22
M  V30 22 1 20 23
M  V30 23 1 21 24
M  V30 24 2 22 25
M  V30 25 2 23 26
M  V30 26 1 27 24
M  V30 27 1 27 28 CFG=3
M  V30 28 1 27 29
M  V30 29 1 28 30
M  V30 30 1 7 9
M  V30 31 1 12 15
M  V30 32 2 19 20
M  V30 33 1 25 26
M  V30 END BOND
M  V30 BEGIN COLLECTION
M  V30 MDLV30/STERAC1 ATOMS=(1 27)
M  V30 END COLLECTION
M  V30 END CTAB
M  END
>  <Molecule ChEMBL ID>
CHEMBL201436

>  <Smiles>
COC(C)CCn1c(=O)c(C2=NS(=O)(=O)c3ccccc3N2)c(O)c2ccccc21

>  <Standard Value>
82

$$$$
CHEMBL201088
Actelion Java MolfileCreator 2.0

  0  0  0  0  0  0              0 V3000
M  V30 BEGIN CTAB
M  V30 COUNTS 31 35 0 0 0
M  V30 BEGIN ATOM
M  V30 1 S 7.7942 2.25 0.0 0
M  V30 2 O 8.5442 3.549 0.0 0
M  V30 3 O 7.0442 3.549 0.0 0
M  V30 4 N 6.4951 1.5 0.0 0
M  V30 5 C 9.0932 1.5 0.0 0
M  V30 6 C 6.4951 0.0 0.0 0
M  V30 7 C 9.0932 0.0 0.0 0
M  V30 8 C 10.3923 2.25 0.0 0
M  V30 9 N 7.7942 -0.75 0.0 0
M  V30 10 C 5.1961 -0.75 0.0 0
M  V30 11 C 10.3923 -0.75 0.0 0
M  V30 12 C 11.6913 1.5 0.0 0
M  V30 13 C 3.8971 0.0 0.0 0
M  V30 14 C 5.1961 -2.25 0.0 0
M  V30 15 C 11.6913 0.0 0.0 0
M  V30 16 O 3.8971 1.5 0.0 0
M  V30 17 N 2.598 -0.75 0.0 0
M  V30 18 O 6.4951 -3.0 0.0 0
M  V30 19 C 3.8971 -3.0 0.0 0
M  V30 20 C 2.598 -2.25 0.0 0
M  V30 21 C 1.299 0.0 0.0 0
M  V30 22 C 3.8971 -4.5 0.0 0
M  V30 23 C 1.299 -3.0 0.0 0
M  V30 24 C 0.0 -0.75 0.0 0
M  V30 25 C 2.598 -5.25 0.0 0
M  V30 26 C 1.299 -4.5 0.0 0
M  V30 27 C -1.299 0.0 0.0 0
M  V30 28 C 0.0 -2.25 0.0 0
M  V30 29 C -2.598 -0.75 0.0 0
M  V30 30 C -1.299 -3.0 0.0 0
M  V30 31 C -2.598 -2.25 0.0 0
M  V30 END ATOM
M  V30 BEGIN BOND
M  V30 1 2 1 2
M  V30 2 2 1 3
M  V30 3 1 1 4
M  V30 4 1 1 5
M  V30 5 2 4 6
M  V30 6 2 5 7
M  V30 7 1 5 8
M  V30 8 1 6 9
M  V30 9 1 6 10
M  V30 10 1 7 11
M  V30 11 2 8 12
M  V30 12 1 10 13
M  V30 13 2 10 14
M  V30 14 2 11 15
M  V30 15 2 13 16
M  V30 16 1 13 17
M  V30 17 1 14 18
M  V30 18 1 14 19
M  V30 19 1 17 20
M  V30 20 1 17 21
M  V30 21 1 19 22
M  V30 22 1 20 23
M  V30 23 1 21 24
M  V30 24 2 22 25
M  V30 25 2 23 26
M  V30 26 2 24 27
M  V30 27 1 24 28
M  V30 28 1 27 29
M  V30 29 2 28 30
M  V30 30 2 29 31
M  V30 31 1 7 9
M  V30 32 1 12 15
M  V30 33 2 19 20
M  V30 34 1 25 26
M  V30 35 1 30 31
M  V30 END BOND
M  V30 END CTAB
M  END
>  <Molecule ChEMBL ID>
CHEMBL201088

>  <Smiles>
O=c1c(C2=NS(=O)(=O)c3ccccc3N2)c(O)c2ccccc2n1Cc1ccccc1

>  <Standard Value>
82

$$$$
CHEMBL383170
Actelion Java MolfileCreator 2.0

  0  0  0  0  0  0              0 V3000
M  V30 BEGIN CTAB
M  V30 COUNTS 30 34 0 0 0
M  V30 BEGIN ATOM
M  V30 1 S 3.8971 6.0 0.0 0
M  V30 2 O 3.1471 7.299 0.0 0
M  V30 3 O 2.3971 5.9999 0.0 0
M  V30 4 N 3.8971 4.5 0.0 0
M  V30 5 C 5.1961 6.75 0.0 0
M  V30 6 C 5.1961 3.75 0.0 0
M  V30 7 C 6.4951 6.0 0.0 0
M  V30 8 C 5.1961 8.25 0.0 0
M  V30 9 N 6.4951 4.5 0.0 0
M  V30 10 C 5.1961 2.25 0.0 0
M  V30 11 C 7.7942 6.75 0.0 0
M  V30 12 C 6.4951 9.0 0.0 0
M  V30 13 C 3.8971 1.5 0.0 0
M  V30 14 C 6.4951 1.5 0.0 0
M  V30 15 C 7.7942 8.25 0.0 0
M  V30 16 O 2.598 2.25 0.0 0
M  V30 17 N 3.8971 0.0 0.0 0
M  V30 18 O 7.7942 2.25 0.0 0
M  V30 19 C 6.4951 0.0 0.0 0
M  V30 20 C 5.1961 -0.75 0.0 0
M  V30 21 C 2.598 -0.75 0.0 0
M  V30 22 C 7.7942 -0.75 0.0 0
M  V30 23 C 5.1961 -2.25 0.0 0
M  V30 24 C 1.299 0.0 0.0 0
M  V30 25 C 7.7942 -2.25 0.0 0
M  V30 26 F 3.8971 -3.0 0.0 0
M  V30 27 C 6.4951 -3.0 0.0 0
M  V30 28 C 0.0 -0.75 0.0 0
M  V30 29 C -1.5 -0.75 0.0 0
M  V30 30 C -0.75 -2.049 0.0 0
M  V30 END ATOM
M  V30 BEGIN BOND
M  V30 1 2 1 2
M  V30 2 2 1 3
M  V30 3 1 1 4
M  V30 4 1 1 5
M  V30 5 2 4 6
M  V30 6 2 5 7
M  V30 7 1 5 8
M  V30 8 1 6 9
M  V30 9 1 6 10
M  V30 10 1 7 11
M  V30 11 2 8 12
M  V30 12 1 10 13
M  V30 13 2 10 14
M  V30 14 2 11 15
M  V30 15 2 13 16
M  V30 16 1 13 17
M  V30 17 1 14 18
M  V30 18 1 14 19
M  V30 19 1 17 20
M  V30 20 1 17 21
M  V30 21 1 19 22
M  V30 22 1 20 23
M  V30 23 1 21 24
M  V30 24 2 22 25
M  V30 25 1 23 26
M  V30 26 2 23 27
M  V30 27 1 24 28
M  V30 28 1 28 29
M  V30 29 1 28 30
M  V30 30 1 7 9
M  V30 31 1 12 15
M  V30 32 2 19 20
M  V30 33 1 25 27
M  V30 34 1 29 30
M  V30 END BOND
M  V30 END CTAB
M  END
>  <Molecule ChEMBL ID>
CHEMBL383170

>  <Smiles>
O=c1c(C2=NS(=O)(=O)c3ccccc3N2)c(O)c2cccc(F)c2n1CCC1CC1

>  <Standard Value>
90

$$$$
CHEMBL201814
Actelion Java MolfileCreator 2.0

  0  0  0  0  0  0              0 V3000
M  V30 BEGIN CTAB
M  V30 COUNTS 28 31 0 0 0
M  V30 BEGIN ATOM
M  V30 1 S 10.3923 2.25 0.0 0
M  V30 2 O 11.1423 3.549 0.0 0
M  V30 3 O 9.6423 3.549 0.0 0
M  V30 4 N 9.0932 1.5 0.0 0
M  V30 5 C 11.6913 1.5 0.0 0
M  V30 6 C 9.0932 0.0 0.0 0
M  V30 7 C 11.6913 0.0 0.0 0
M  V30 8 C 12.9903 2.25 0.0 0
M  V30 9 N 10.3923 -0.75 0.0 0
M  V30 10 C 7.7942 -0.75 0.0 0
M  V30 11 C 12.9903 -0.75 0.0 0
M  V30 12 C 14.2894 1.5 0.0 0
M  V30 13 C 6.4951 0.0 0.0 0
M  V30 14 C 7.7942 -2.25 0.0 0
M  V30 15 C 14.2894 0.0 0.0 0
M  V30 16 O 6.4951 1.5 0.0 0
M  V30 17 N 5.1961 -0.75 0.0 0
M  V30 18 O 9.0932 -3.0 0.0 0
M  V30 19 C 6.4951 -3.0 0.0 0
M  V30 20 C 5.1961 -2.25 0.0 0
M  V30 21 C 3.8971 0.0 0.0 0
M  V30 22 C 6.4951 -4.5 0.0 0
M  V30 23 C 3.8971 -3.0 0.0 0
M  V30 24 C 2.598 -0.75 0.0 0
M  V30 25 C 5.1961 -5.25 0.0 0
M  V30 26 C 3.8971 -4.5 0.0 0
M  V30 27 C 1.299 0.0 0.0 0
M  V30 28 C 0.0 -0.75 0.0 0
M  V30 END ATOM
M  V30 BEGIN BOND
M  V30 1 2 1 2
M  V30 2 2 1 3
M  V30 3 1 1 4
M  V30 4 1 1 5
M  V30 5 2 4 6
M  V30 6 2 5 7
M  V30 7 1 5 8
M  V30 8 1 6 9
M  V30 9 1 6 10
M  V30 10 1 7 11
M  V30 11 2 8 12
M  V30 12 1 10 13
M  V30 13 2 10 14
M  V30 14 2 11 15
M  V30 15 2 13 16
M  V30 16 1 13 17
M  V30 17 1 14 18
M  V30 18 1 14 19
M  V30 19 1 17 20
M  V30 20 1 17 21
M  V30 21 1 19 22
M  V30 22 1 20 23
M  V30 23 1 21 24
M  V30 24 2 22 25
M  V30 25 2 23 26
M  V30 26 1 24 27
M  V30 27 2 27 28
M  V30 28 1 7 9
M  V30 29 1 12 15
M  V30 30 2 19 20
M  V30 31 1 25 26
M  V30 END BOND
M  V30 END CTAB
M  END
>  <Molecule ChEMBL ID>
CHEMBL201814

>  <Smiles>
C=CCCn1c(=O)c(C2=NS(=O)(=O)c3ccccc3N2)c(O)c2ccccc21

>  <Standard Value>
90

$$$$
CHEMBL201660
Actelion Java MolfileCreator 2.0

  0  0  0  0  0  0              0 V3000
M  V30 BEGIN CTAB
M  V30 COUNTS 32 36 0 0 0
M  V30 BEGIN ATOM
M  V30 1 Br 6.4951 -3.0 0.0 0
M  V30 2 C 5.1961 -2.25 0.0 0
M  V30 3 C 5.1961 -0.75 0.0 0
M  V30 4 C 3.8971 -3.0 0.0 0
M  V30 5 C 3.8971 0.0 0.0 0
M  V30 6 C 2.598 -2.25 0.0 0
M  V30 7 C 2.598 -0.75 0.0 0
M  V30 8 C 1.299 0.0 0.0 0
M  V30 9 N 0.0 -0.75 0.0 0
M  V30 10 C -1.299 0.0 0.0 0
M  V30 11 C 0.0 -2.25 0.0 0
M  V30 12 O -1.299 1.5 0.0 0
M  V30 13 C -2.598 -0.75 0.0 0
M  V30 14 C -1.299 -3.0 0.0 0
M  V30 15 C 1.299 -3.0 0.0 0
M  V30 16 C -3.8971 0.0 0.0 0
M  V30 17 C -2.598 -2.25 0.0 0
M  V30 18 C -1.299 -4.5 0.0 0
M  V30 19 C 1.299 -4.5 0.0 0
M  V30 20 N -3.8971 1.5 0.0 0
M  V30 21 N -5.1961 -0.75 0.0 0
M  V30 22 O -3.8971 -3.0 0.0 0
M  V30 23 C 0.0 -5.25 0.0 0
M  V30 24 S -5.1961 2.25 0.0 0
M  V30 25 C -6.4951 0.0 0.0 0
M  V30 26 O -4.4461 3.549 0.0 0
M  V30 27 O -5.9461 3.549 0.0 0
M  V30 28 C -6.4951 1.5 0.0 0
M  V30 29 C -7.7942 -0.75 0.0 0
M  V30 30 C -7.7942 2.25 0.0 0
M  V30 31 C -9.0932 0.0 0.0 0
M  V30 32 C -9.0932 1.5 0.0 0
M  V30 END ATOM
M  V30 BEGIN BOND
M  V30 1 1 1 2
M  V30 2 2 2 3
M  V30 3 1 2 4
M  V30 4 1 3 5
M  V30 5 2 4 6
M  V30 6 2 5 7
M  V30 7 1 7 8
M  V30 8 1 8 9
M  V30 9 1 9 10
M  V30 10 1 9 11
M  V30 11 2 10 12
M  V30 12 1 10 13
M  V30 13 2 11 14
M  V30 14 1 11 15
M  V30 15 1 13 16
M  V30 16 2 13 17
M  V30 17 1 14 18
M  V30 18 2 15 19
M  V30 19 2 16 20
M  V30 20 1 16 21
M  V30 21 1 17 22
M  V30 22 2 18 23
M  V30 23 1 20 24
M  V30 24 1 21 25
M  V30 25 2 24 26
M  V30 26 2 24 27
M  V30 27 1 24 28
M  V30 28 1 25 29
M  V30 29 1 28 30
M  V30 30 2 29 31
M  V30 31 2 30 32
M  V30 32 1 6 7
M  V30 33 1 14 17
M  V30 34 1 19 23
M  V30 35 2 25 28
M  V30 36 1 31 32
M  V30 END BOND
M  V30 END CTAB
M  END
>  <Molecule ChEMBL ID>
CHEMBL201660

>  <Smiles>
O=c1c(C2=NS(=O)(=O)c3ccccc3N2)c(O)c2ccccc2n1Cc1ccc(Br)cc1

>  <Standard Value>
95

$$$$
CHEMBL381529
Actelion Java MolfileCreator 2.0

  0  0  0  0  0  0              0 V3000
M  V30 BEGIN CTAB
M  V30 COUNTS 30 33 0 0 0
M  V30 BEGIN ATOM
M  V30 1 Br 7.7942 -5.25 0.0 0
M  V30 2 C 6.4951 -4.5 0.0 0
M  V30 3 C 6.4951 -3.0 0.0 0
M  V30 4 C 5.1961 -5.25 0.0 0
M  V30 5 C 7.7942 -2.25 0.0 0
M  V30 6 C 5.1961 -2.25 0.0 0
M  V30 7 C 3.8971 -4.5 0.0 0
M  V30 8 O 9.0932 -3.0 0.0 0
M  V30 9 C 7.7942 -0.75 0.0 0
M  V30 10 N 5.1961 -0.75 0.0 0
M  V30 11 C 3.8971 -3.0 0.0 0
M  V30 12 C 6.4951 0.0 0.0 0
M  V30 13 C 9.0932 0.0 0.0 0
M  V30 14 C 3.8971 0.0 0.0 0
M  V30 15 O 6.4951 1.5 0.0 0
M  V30 16 N 10.3923 -0.75 0.0 0
M  V30 17 N 9.0932 1.5 0.0 0
M  V30 18 C 2.598 -0.75 0.0 0
M  V30 19 S 11.6913 0.0 0.0 0
M  V30 20 C 10.3923 2.25 0.0 0
M  V30 21 C 1.299 0.0 0.0 0
M  V30 22 O 12.4413 -1.299 0.0 0
M  V30 23 O 13.1913 0.0 0.0 0
M  V30 24 C 11.6913 1.5 0.0 0
M  V30 25 C 10.3923 3.75 0.0 0
M  V30 26 C 1.299 1.5 0.0 0
M  V30 27 C 0.0 -0.75 0.0 0
M  V30 28 C 12.9903 2.25 0.0 0
M  V30 29 C 11.6913 4.5 0.0 0
M  V30 30 C 12.9903 3.75 0.0 0
M  V30 END ATOM
M  V30 BEGIN BOND
M  V30 1 1 1 2
M  V30 2 2 2 3
M  V30 3 1 2 4
M  V30 4 1 3 5
M  V30 5 1 3 6
M  V30 6 2 4 7
M  V30 7 1 5 8
M  V30 8 2 5 9
M  V30 9 1 6 10
M  V30 10 2 6 11
M  V30 11 1 9 12
M  V30 12 1 9 13
M  V30 13 1 10 14
M  V30 14 2 12 15
M  V30 15 2 13 16
M  V30 16 1 13 17
M  V30 17 1 14 18
M  V30 18 1 16 19
M  V30 19 1 17 20
M  V30 20 1 18 21
M  V30 21 2 19 22
M  V30 22 2 19 23
M  V30 23 1 19 24
M  V30 24 1 20 25
M  V30 25 1 21 26
M  V30 26 1 21 27
M  V30 27 1 24 28
M  V30 28 2 25 29
M  V30 29 2 28 30
M  V30 30 1 7 11
M  V30 31 1 10 12
M  V30 32 2 20 24
M  V30 33 1 29 30
M  V30 END BOND
M  V30 END CTAB
M  END
>  <Molecule ChEMBL ID>
CHEMBL381529

>  <Smiles>
CC(C)CCn1c(=O)c(C2=NS(=O)(=O)c3ccccc3N2)c(O)c2c(Br)cccc21

>  <Standard Value>
105

$$$$
CHEMBL202164
Actelion Java MolfileCreator 2.0

  0  0  0  0  0  0              0 V3000
M  V30 BEGIN CTAB
M  V30 COUNTS 31 34 0 0 0
M  V30 BEGIN ATOM
M  V30 1 S 10.3923 2.25 0.0 0
M  V30 2 O 11.1423 3.549 0.0 0
M  V30 3 O 9.6423 3.549 0.0 0
M  V30 4 N 9.0932 1.5 0.0 0
M  V30 5 C 11.6913 1.5 0.0 0
M  V30 6 C 9.0932 0.0 0.0 0
M  V30 7 C 11.6913 0.0 0.0 0
M  V30 8 C 12.9903 2.25 0.0 0
M  V30 9 N 10.3923 -0.75 0.0 0
M  V30 10 C 7.7942 -0.75 0.0 0
M  V30 11 C 12.9903 -0.75 0.0 0
M  V30 12 C 14.2894 1.5 0.0 0
M  V30 13 C 6.4951 0.0 0.0 0
M  V30 14 C 7.7942 -2.25 0.0 0
M  V30 15 C 14.2894 0.0 0.0 0
M  V30 16 O 6.4951 1.5 0.0 0
M  V30 17 N 5.1961 -0.75 0.0 0
M  V30 18 O 9.0932 -3.0 0.0 0
M  V30 19 C 6.4951 -3.0 0.0 0
M  V30 20 C 5.1961 -2.25 0.0 0
M  V30 21 C 3.8971 0.0 0.0 0
M  V30 22 C 6.4951 -4.5 0.0 0
M  V30 23 C 3.8971 -3.0 0.0 0
M  V30 24 C 2.598 -0.75 0.0 0
M  V30 25 C 5.1961 -5.25 0.0 0
M  V30 26 C 3.8971 -4.5 0.0 0
M  V30 27 C 1.299 0.0 0.0 0
M  V30 28 C 0.0 -0.75 0.0 0
M  V30 29 F 0.75 -2.049 0.0 0
M  V30 30 F -1.299 -1.5 0.0 0
M  V30 31 F -0.75 0.549 0.0 0
M  V30 END ATOM
M  V30 BEGIN BOND
M  V30 1 2 1 2
M  V30 2 2 1 3
M  V30 3 1 1 4
M  V30 4 1 1 5
M  V30 5 2 4 6
M  V30 6 2 5 7
M  V30 7 1 5 8
M  V30 8 1 6 9
M  V30 9 1 6 10
M  V30 10 1 7 11
M  V30 11 2 8 12
M  V30 12 1 10 13
M  V30 13 2 10 14
M  V30 14 2 11 15
M  V30 15 2 13 16
M  V30 16 1 13 17
M  V30 17 1 14 18
M  V30 18 1 14 19
M  V30 19 1 17 20
M  V30 20 1 17 21
M  V30 21 1 19 22
M  V30 22 1 20 23
M  V30 23 1 21 24
M  V30 24 2 22 25
M  V30 25 2 23 26
M  V30 26 1 24 27
M  V30 27 1 27 28
M  V30 28 1 28 29
M  V30 29 1 28 30
M  V30 30 1 28 31
M  V30 31 1 7 9
M  V30 32 1 12 15
M  V30 33 2 19 20
M  V30 34 1 25 26
M  V30 END BOND
M  V30 END CTAB
M  END
>  <Molecule ChEMBL ID>
CHEMBL202164

>  <Smiles>
O=c1c(C2=NS(=O)(=O)c3ccccc3N2)c(O)c2ccccc2n1CCCC(F)(F)F

>  <Standard Value>
106

$$$$
CHEMBL382628
Actelion Java MolfileCreator 2.0

  0  0  0  0  0  0              0 V3000
M  V30 BEGIN CTAB
M  V30 COUNTS 28 31 0 0 0
M  V30 BEGIN ATOM
M  V30 1 S 3.8971 6.0 0.0 0
M  V30 2 O 3.1471 7.299 0.0 0
M  V30 3 O 2.3971 5.9999 0.0 0
M  V30 4 N 3.8971 4.5 0.0 0
M  V30 5 C 5.1961 6.75 0.0 0
M  V30 6 C 5.1961 3.75 0.0 0
M  V30 7 C 6.4951 6.0 0.0 0
M  V30 8 C 5.1961 8.25 0.0 0
M  V30 9 N 6.4951 4.5 0.0 0
M  V30 10 C 5.1961 2.25 0.0 0
M  V30 11 C 7.7942 6.75 0.0 0
M  V30 12 C 6.4951 9.0 0.0 0
M  V30 13 C 3.8971 1.5 0.0 0
M  V30 14 C 6.4951 1.5 0.0 0
M  V30 15 C 7.7942 8.25 0.0 0
M  V30 16 O 2.598 2.25 0.0 0
M  V30 17 N 3.8971 0.0 0.0 0
M  V30 18 O 7.7942 2.25 0.0 0
M  V30 19 C 6.4951 0.0 0.0 0
M  V30 20 C 5.1961 -0.75 0.0 0
M  V30 21 C 2.598 -0.75 0.0 0
M  V30 22 C 7.7942 -0.75 0.0 0
M  V30 23 C 5.1961 -2.25 0.0 0
M  V30 24 C 1.299 0.0 0.0 0
M  V30 25 C 7.7942 -2.25 0.0 0
M  V30 26 C 6.4951 -3.0 0.0 0
M  V30 27 C 1.299 1.5 0.0 0
M  V30 28 C 0.0 -0.75 0.0 0
M  V30 END ATOM
M  V30 BEGIN BOND
M  V30 1 2 1 2
M  V30 2 2 1 3
M  V30 3 1 1 4
M  V30 4 1 1 5
M  V30 5 2 4 6
M  V30 6 2 5 7
M  V30 7 1 5 8
M  V30 8 1 6 9
M  V30 9 1 6 10
M  V30 10 1 7 11
M  V30 11 2 8 12
M  V30 12 1 10 13
M  V30 13 2 10 14
M  V30 14 2 11 15
M  V30 15 2 13 16
M  V30 16 1 13 17
M  V30 17 1 14 18
M  V30 18 1 14 19
M  V30 19 1 17 20
M  V30 20 1 17 21
M  V30 21 1 19 22
M  V30 22 1 20 23
M  V30 23 1 21 24
M  V30 24 2 22 25
M  V30 25 2 23 26
M  V30 26 1 24 27
M  V30 27 1 24 28
M  V30 28 1 7 9
M  V30 29 1 12 15
M  V30 30 2 19 20
M  V30 31 1 25 26
M  V30 END BOND
M  V30 END CTAB
M  END
>  <Molecule ChEMBL ID>
CHEMBL382628

>  <Smiles>
CC(C)Cn1c(=O)c(C2=NS(=O)(=O)c3ccccc3N2)c(O)c2ccccc21

>  <Standard Value>
108

$$$$
CHEMBL202310
Actelion Java MolfileCreator 2.0

  0  0  0  0  0  0              0 V3000
M  V30 BEGIN CTAB
M  V30 COUNTS 36 39 0 0 0
M  V30 BEGIN ATOM
M  V30 1 S 11.6913 -9.0 0.0 0
M  V30 2 O 12.4413 -10.299 0.0 0
M  V30 3 O 13.1913 -8.9999 0.0 0
M  V30 4 N 11.6913 -7.5 0.0 0
M  V30 5 C 10.3923 -9.75 0.0 0
M  V30 6 C 10.3923 -6.75 0.0 0
M  V30 7 C 9.0932 -9.0 0.0 0
M  V30 8 C 10.3923 -11.25 0.0 0
M  V30 9 N 9.0932 -7.5 0.0 0
M  V30 10 C 10.3923 -5.25 0.0 0
M  V30 11 C 7.7942 -9.75 0.0 0
M  V30 12 C 9.0932 -12.0 0.0 0
M  V30 13 C 11.6913 -4.5 0.0 0
M  V30 14 C 9.0932 -4.5 0.0 0
M  V30 15 C 7.7942 -11.25 0.0 0
M  V30 16 O 12.9903 -5.25 0.0 0
M  V30 17 N 11.6913 -3.0 0.0 0
M  V30 18 O 7.7942 -5.25 0.0 0
M  V30 19 C 9.0932 -3.0 0.0 0
M  V30 20 C 10.3923 -2.25 0.0 0
M  V30 21 C 12.9903 -2.25 0.0 0
M  V30 22 C 7.7942 -2.25 0.0 0
M  V30 23 C 10.3923 -0.75 0.0 0
M  V30 24 C 12.9903 -0.75 0.0 0
M  V30 25 C 7.7942 -0.75 0.0 0
M  V30 26 C 9.0932 0.0 0.0 0
M  V30 27 C 14.2894 0.0 0.0 0
M  V30 28 N 6.4951 0.0 0.0 0
M  V30 29 C 15.5884 -0.75 0.0 0
M  V30 30 C 14.2894 1.5 0.0 0
M  V30 31 C 5.1961 -0.75 0.0 0
M  V30 32 C 3.8971 0.0 0.0 0
M  V30 33 O 3.8971 1.5 0.0 0
M  V30 34 O 2.598 -0.75 0.0 0
M  V30 35 C 1.299 0.0 0.0 0
M  V30 36 C 0.0 -0.75 0.0 0
M  V30 END ATOM
M  V30 BEGIN BOND
M  V30 1 2 1 2
M  V30 2 2 1 3
M  V30 3 1 1 4
M  V30 4 1 1 5
M  V30 5 2 4 6
M  V30 6 2 5 7
M  V30 7 1 5 8
M  V30 8 1 6 9
M  V30 9 1 6 10
M  V30 10 1 7 11
M  V30 11 2 8 12
M  V30 12 1 10 13
M  V30 13 2 10 14
M  V30 14 2 11 15
M  V30 15 2 13 16
M  V30 16 1 13 17
M  V30 17 1 14 18
M  V30 18 1 14 19
M  V30 19 1 17 20
M  V30 20 1 17 21
M  V30 21 1 19 22
M  V30 22 1 20 23
M  V30 23 1 21 24
M  V30 24 2 22 25
M  V30 25 2 23 26
M  V30 26 1 24 27
M  V30 27 1 25 28
M  V30 28 1 27 29
M  V30 29 1 27 30
M  V30 30 1 28 31
M  V30 31 1 31 32
M  V30 32 2 32 33
M  V30 33 1 32 34
M  V30 34 1 34 35
M  V30 35 1 35 36
M  V30 36 1 7 9
M  V30 37 1 12 15
M  V30 38 2 19 20
M  V30 39 1 25 26
M  V30 END BOND
M  V30 END CTAB
M  END
>  <Molecule ChEMBL ID>
CHEMBL202310

>  <Smiles>
CCOC(=O)CNc1ccc2c(c1)c(O)c(C1=NS(=O)(=O)c3ccccc3N1)c(=O)n2CCC(C)C

>  <Standard Value>
115

$$$$
CHEMBL202271
Actelion Java MolfileCreator 2.0

  0  0  0  0  0  0              0 V3000
M  V30 BEGIN CTAB
M  V30 COUNTS 28 31 0 0 0
M  V30 BEGIN ATOM
M  V30 1 S 7.7942 2.25 0.0 0
M  V30 2 O 8.5442 3.549 0.0 0
M  V30 3 O 7.0442 3.549 0.0 0
M  V30 4 N 6.4951 1.5 0.0 0
M  V30 5 C 9.0932 1.5 0.0 0
M  V30 6 C 6.4951 0.0 0.0 0
M  V30 7 C 9.0932 0.0 0.0 0
M  V30 8 C 10.3923 2.25 0.0 0
M  V30 9 N 7.7942 -0.75 0.0 0
M  V30 10 C 5.1961 -0.75 0.0 0
M  V30 11 C 10.3923 -0.75 0.0 0
M  V30 12 C 11.6913 1.5 0.0 0
M  V30 13 C 3.8971 0.0 0.0 0
M  V30 14 C 5.1961 -2.25 0.0 0
M  V30 15 C 11.6913 0.0 0.0 0
M  V30 16 O 3.8971 1.5 0.0 0
M  V30 17 N 2.598 -0.75 0.0 0
M  V30 18 O 6.4951 -3.0 0.0 0
M  V30 19 C 3.8971 -3.0 0.0 0
M  V30 20 C 2.598 -2.25 0.0 0
M  V30 21 C 1.299 0.0 0.0 0
M  V30 22 C 3.8971 -4.5 0.0 0
M  V30 23 C 1.299 -3.0 0.0 0
M  V30 24 C 0.0 -0.75 0.0 0
M  V30 25 C 2.598 -5.25 0.0 0
M  V30 26 C 1.299 -4.5 0.0 0
M  V30 27 C 0.0 -2.25 0.0 0
M  V30 28 C 0.0 -3.75 0.0 0
M  V30 END ATOM
M  V30 BEGIN BOND
M  V30 1 2 1 2
M  V30 2 2 1 3
M  V30 3 1 1 4
M  V30 4 1 1 5
M  V30 5 2 4 6
M  V30 6 2 5 7
M  V30 7 1 5 8
M  V30 8 1 6 9
M  V30 9 1 6 10
M  V30 10 1 7 11
M  V30 11 2 8 12
M  V30 12 1 10 13
M  V30 13 2 10 14
M  V30 14 2 11 15
M  V30 15 2 13 16
M  V30 16 1 13 17
M  V30 17 1 14 18
M  V30 18 1 14 19
M  V30 19 1 17 20
M  V30 20 1 17 21
M  V30 21 1 19 22
M  V30 22 1 20 23
M  V30 23 1 21 24
M  V30 24 2 22 25
M  V30 25 2 23 26
M  V30 26 1 24 27
M  V30 27 3 27 28
M  V30 28 1 7 9
M  V30 29 1 12 15
M  V30 30 2 19 20
M  V30 31 1 25 26
M  V30 END BOND
M  V30 END CTAB
M  END
>  <Molecule ChEMBL ID>
CHEMBL202271

>  <Smiles>
C#CCCn1c(=O)c(C2=NS(=O)(=O)c3ccccc3N2)c(O)c2ccccc21

>  <Standard Value>
118

$$$$
CHEMBL380442
Actelion Java MolfileCreator 2.0

  0  0  0  0  0  0              0 V3000
M  V30 BEGIN CTAB
M  V30 COUNTS 30 34 0 0 0
M  V30 BEGIN ATOM
M  V30 1 S 7.7942 2.25 0.0 0
M  V30 2 O 8.5442 3.549 0.0 0
M  V30 3 O 7.0442 3.549 0.0 0
M  V30 4 N 6.4951 1.5 0.0 0
M  V30 5 C 9.0932 1.5 0.0 0
M  V30 6 C 6.4951 0.0 0.0 0
M  V30 7 C 9.0932 0.0 0.0 0
M  V30 8 C 10.3923 2.25 0.0 0
M  V30 9 N 7.7942 -0.75 0.0 0
M  V30 10 C 5.1961 -0.75 0.0 0
M  V30 11 C 10.3923 -0.75 0.0 0
M  V30 12 C 11.6913 1.5 0.0 0
M  V30 13 C 3.8971 0.0 0.0 0
M  V30 14 C 5.1961 -2.25 0.0 0
M  V30 15 C 11.6913 0.0 0.0 0
M  V30 16 O 3.8971 1.5 0.0 0
M  V30 17 N 2.598 -0.75 0.0 0
M  V30 18 O 6.4951 -3.0 0.0 0
M  V30 19 C 3.8971 -3.0 0.0 0
M  V30 20 C 2.598 -2.25 0.0 0
M  V30 21 C 1.299 0.0 0.0 0
M  V30 22 C 3.8971 -4.5 0.0 0
M  V30 23 C 1.299 -3.0 0.0 0
M  V30 24 C 0.0 -0.75 0.0 0
M  V30 25 C 2.598 -5.25 0.0 0
M  V30 26 C 1.299 -4.5 0.0 0
M  V30 27 C -1.3703 -0.1398 0.0 0
M  V30 28 C -0.1567 -2.2417 0.0 0
M  V30 29 C -2.374 -1.2546 0.0 0
M  V30 30 C -1.624 -2.5536 0.0 0
M  V30 END ATOM
M  V30 BEGIN BOND
M  V30 1 2 1 2
M  V30 2 2 1 3
M  V30 3 1 1 4
M  V30 4 1 1 5
M  V30 5 2 4 6
M  V30 6 2 5 7
M  V30 7 1 5 8
M  V30 8 1 6 9
M  V30 9 1 6 10
M  V30 10 1 7 11
M  V30 11 2 8 12
M  V30 12 1 10 13
M  V30 13 2 10 14
M  V30 14 2 11 15
M  V30 15 2 13 16
M  V30 16 1 13 17
M  V30 17 1 14 18
M  V30 18 1 14 19
M  V30 19 1 17 20
M  V30 20 1 17 21
M  V30 21 1 19 22
M  V30 22 1 20 23
M  V30 23 1 21 24
M  V30 24 2 22 25
M  V30 25 2 23 26
M  V30 26 1 24 27
M  V30 27 1 24 28
M  V30 28 1 27 29
M  V30 29 1 28 30
M  V30 30 1 7 9
M  V30 31 1 12 15
M  V30 32 2 19 20
M  V30 33 1 25 26
M  V30 34 1 29 30
M  V30 END BOND
M  V30 END CTAB
M  END
>  <Molecule ChEMBL ID>
CHEMBL380442

>  <Smiles>
O=c1c(C2=NS(=O)(=O)c3ccccc3N2)c(O)c2ccccc2n1CC1CCCC1

>  <Standard Value>
132

$$$$
CHEMBL201604
Actelion Java MolfileCreator 2.0

  0  0  0  0  0  0              0 V3000
M  V30 BEGIN CTAB
M  V30 COUNTS 35 39 0 0 0
M  V30 BEGIN ATOM
M  V30 1 S 10.3923 2.25 0.0 0
M  V30 2 O 11.1423 3.549 0.0 0
M  V30 3 O 9.6423 3.549 0.0 0
M  V30 4 N 9.0932 1.5 0.0 0
M  V30 5 C 11.6913 1.5 0.0 0
M  V30 6 C 9.0932 0.0 0.0 0
M  V30 7 C 11.6913 0.0 0.0 0
M  V30 8 C 12.9903 2.25 0.0 0
M  V30 9 N 10.3923 -0.75 0.0 0
M  V30 10 C 7.7942 -0.75 0.0 0
M  V30 11 C 12.9903 -0.75 0.0 0
M  V30 12 C 14.2894 1.5 0.0 0
M  V30 13 C 6.4951 0.0 0.0 0
M  V30 14 C 7.7942 -2.25 0.0 0
M  V30 15 C 14.2894 0.0 0.0 0
M  V30 16 O 6.4951 1.5 0.0 0
M  V30 17 N 5.1961 -0.75 0.0 0
M  V30 18 O 9.0932 -3.0 0.0 0
M  V30 19 C 6.4951 -3.0 0.0 0
M  V30 20 C 5.1961 -2.25 0.0 0
M  V30 21 C 3.8971 0.0 0.0 0
M  V30 22 C 6.4951 -4.5 0.0 0
M  V30 23 C 3.8971 -3.0 0.0 0
M  V30 24 C 2.598 -0.75 0.0 0
M  V30 25 C 7.7942 -5.25 0.0 0
M  V30 26 C 5.1961 -5.25 0.0 0
M  V30 27 C 3.8971 -4.5 0.0 0
M  V30 28 C 1.299 0.0 0.0 0
M  V30 29 C 7.7942 -6.75 0.0 0
M  V30 30 C 9.0932 -4.5 0.0 0
M  V30 31 C 1.299 1.5 0.0 0
M  V30 32 C 0.0 -0.75 0.0 0
M  V30 33 C 9.0932 -7.5 0.0 0
M  V30 34 C 10.3923 -5.25 0.0 0
M  V30 35 C 10.3923 -6.75 0.0 0
M  V30 END ATOM
M  V30 BEGIN BOND
M  V30 1 2 1 2
M  V30 2 2 1 3
M  V30 3 1 1 4
M  V30 4 1 1 5
M  V30 5 2 4 6
M  V30 6 2 5 7
M  V30 7 1 5 8
M  V30 8 1 6 9
M  V30 9 1 6 10
M  V30 10 1 7 11
M  V30 11 2 8 12
M  V30 12 1 10 13
M  V30 13 2 10 14
M  V30 14 2 11 15
M  V30 15 2 13 16
M  V30 16 1 13 17
M  V30 17 1 14 18
M  V30 18 1 14 19
M  V30 19 1 17 20
M  V30 20 1 17 21
M  V30 21 1 19 22
M  V30 22 1 20 23
M  V30 23 1 21 24
M  V30 24 1 22 25
M  V30 25 2 22 26
M  V30 26 2 23 27
M  V30 27 1 24 28
M  V30 28 2 25 29
M  V30 29 1 25 30
M  V30 30 1 28 31
M  V30 31 1 28 32
M  V30 32 1 29 33
M  V30 33 2 30 34
M  V30 34 2 33 35
M  V30 35 1 7 9
M  V30 36 1 12 15
M  V30 37 2 19 20
M  V30 38 1 26 27
M  V30 39 1 34 35
M  V30 END BOND
M  V30 END CTAB
M  END
>  <Molecule ChEMBL ID>
CHEMBL201604

>  <Smiles>
CC(C)CCn1c(=O)c(C2=NS(=O)(=O)c3ccccc3N2)c(O)c2c(-c3ccccc3)cccc21

>  <Standard Value>
144

$$$$
CHEMBL201341
Actelion Java MolfileCreator 2.0

  0  0  0  0  0  0              0 V3000
M  V30 BEGIN CTAB
M  V30 COUNTS 28 31 0 0 0
M  V30 BEGIN ATOM
M  V30 1 S 10.3923 2.25 0.0 0
M  V30 2 O 11.1423 3.549 0.0 0
M  V30 3 O 9.6423 3.549 0.0 0
M  V30 4 N 9.0932 1.5 0.0 0
M  V30 5 C 11.6913 1.5 0.0 0
M  V30 6 C 9.0932 0.0 0.0 0
M  V30 7 C 11.6913 0.0 0.0 0
M  V30 8 C 12.9903 2.25 0.0 0
M  V30 9 N 10.3923 -0.75 0.0 0
M  V30 10 C 7.7942 -0.75 0.0 0
M  V30 11 C 12.9903 -0.75 0.0 0
M  V30 12 C 14.2894 1.5 0.0 0
M  V30 13 C 6.4951 0.0 0.0 0
M  V30 14 C 7.7942 -2.25 0.0 0
M  V30 15 C 14.2894 0.0 0.0 0
M  V30 16 O 6.4951 1.5 0.0 0
M  V30 17 N 5.1961 -0.75 0.0 0
M  V30 18 O 9.0932 -3.0 0.0 0
M  V30 19 C 6.4951 -3.0 0.0 0
M  V30 20 C 5.1961 -2.25 0.0 0
M  V30 21 C 3.8971 0.0 0.0 0
M  V30 22 C 6.4951 -4.5 0.0 0
M  V30 23 C 3.8971 -3.0 0.0 0
M  V30 24 C 2.598 -0.75 0.0 0
M  V30 25 C 5.1961 -5.25 0.0 0
M  V30 26 C 3.8971 -4.5 0.0 0
M  V30 27 C 1.299 0.0 0.0 0
M  V30 28 C 0.0 -0.75 0.0 0
M  V30 END ATOM
M  V30 BEGIN BOND
M  V30 1 2 1 2
M  V30 2 2 1 3
M  V30 3 1 1 4
M  V30 4 1 1 5
M  V30 5 2 4 6
M  V30 6 2 5 7
M  V30 7 1 5 8
M  V30 8 1 6 9
M  V30 9 1 6 10
M  V30 10 1 7 11
M  V30 11 2 8 12
M  V30 12 1 10 13
M  V30 13 2 10 14
M  V30 14 2 11 15
M  V30 15 2 13 16
M  V30 16 1 13 17
M  V30 17 1 14 18
M  V30 18 1 14 19
M  V30 19 1 17 20
M  V30 20 1 17 21
M  V30 21 1 19 22
M  V30 22 1 20 23
M  V30 23 1 21 24
M  V30 24 2 22 25
M  V30 25 2 23 26
M  V30 26 2 24 27
M  V30 27 1 27 28
M  V30 28 1 7 9
M  V30 29 1 12 15
M  V30 30 2 19 20
M  V30 31 1 25 26
M  V30 END BOND
M  V30 END CTAB
M  END
>  <Molecule ChEMBL ID>
CHEMBL201341

>  <Smiles>
C/C=C/Cn1c(=O)c(C2=NS(=O)(=O)c3ccccc3N2)c(O)c2ccccc21

>  <Standard Value>
150

$$$$
CHEMBL202319
Actelion Java MolfileCreator 2.0

  0  0  0  0  0  0              0 V3000
M  V30 BEGIN CTAB
M  V30 COUNTS 29 33 0 0 0
M  V30 BEGIN ATOM
M  V30 1 S 3.8971 6.0 0.0 0
M  V30 2 O 3.1471 7.299 0.0 0
M  V30 3 O 2.3971 5.9999 0.0 0
M  V30 4 N 3.8971 4.5 0.0 0
M  V30 5 C 5.1961 6.75 0.0 0
M  V30 6 C 5.1961 3.75 0.0 0
M  V30 7 C 6.4951 6.0 0.0 0
M  V30 8 C 5.1961 8.25 0.0 0
M  V30 9 N 6.4951 4.5 0.0 0
M  V30 10 C 5.1961 2.25 0.0 0
M  V30 11 C 7.7942 6.75 0.0 0
M  V30 12 C 6.4951 9.0 0.0 0
M  V30 13 C 3.8971 1.5 0.0 0
M  V30 14 C 6.4951 1.5 0.0 0
M  V30 15 C 7.7942 8.25 0.0 0
M  V30 16 O 2.598 2.25 0.0 0
M  V30 17 N 3.8971 0.0 0.0 0
M  V30 18 O 7.7942 2.25 0.0 0
M  V30 19 C 6.4951 0.0 0.0 0
M  V30 20 C 5.1961 -0.75 0.0 0
M  V30 21 C 2.598 -0.75 0.0 0
M  V30 22 C 7.7942 -0.75 0.0 0
M  V30 23 C 5.1961 -2.25 0.0 0
M  V30 24 C 1.299 0.0 0.0 0
M  V30 25 C 7.7942 -2.25 0.0 0
M  V30 26 C 6.4951 -3.0 0.0 0
M  V30 27 C 0.0 -0.75 0.0 0
M  V30 28 C -1.5 -0.75 0.0 0
M  V30 29 C -0.75 -2.049 0.0 0
M  V30 END ATOM
M  V30 BEGIN BOND
M  V30 1 2 1 2
M  V30 2 2 1 3
M  V30 3 1 1 4
M  V30 4 1 1 5
M  V30 5 2 4 6
M  V30 6 2 5 7
M  V30 7 1 5 8
M  V30 8 1 6 9
M  V30 9 1 6 10
M  V30 10 1 7 11
M  V30 11 2 8 12
M  V30 12 1 10 13
M  V30 13 2 10 14
M  V30 14 2 11 15
M  V30 15 2 13 16
M  V30 16 1 13 17
M  V30 17 1 14 18
M  V30 18 1 14 19
M  V30 19 1 17 20
M  V30 20 1 17 21
M  V30 21 1 19 22
M  V30 22 1 20 23
M  V30 23 1 21 24
M  V30 24 2 22 25
M  V30 25 2 23 26
M  V30 26 1 24 27
M  V30 27 1 27 28
M  V30 28 1 27 29
M  V30 29 1 7 9
M  V30 30 1 12 15
M  V30 31 2 19 20
M  V30 32 1 25 26
M  V30 33 1 28 29
M  V30 END BOND
M  V30 END CTAB
M  END
>  <Molecule ChEMBL ID>
CHEMBL202319

>  <Smiles>
O=c1c(C2=NS(=O)(=O)c3ccccc3N2)c(O)c2ccccc2n1CCC1CC1

>  <Standard Value>
152

$$$$
CHEMBL203426
Actelion Java MolfileCreator 2.0

  0  0  0  0  0  0              0 V3000
M  V30 BEGIN CTAB
M  V30 COUNTS 30 34 0 0 0
M  V30 BEGIN ATOM
M  V30 1 S 3.8971 6.0 0.0 0
M  V30 2 O 3.1471 7.299 0.0 0
M  V30 3 O 2.3971 5.9999 0.0 0
M  V30 4 N 3.8971 4.5 0.0 0
M  V30 5 C 5.1961 6.75 0.0 0
M  V30 6 C 5.1961 3.75 0.0 0
M  V30 7 C 6.4951 6.0 0.0 0
M  V30 8 C 5.1961 8.25 0.0 0
M  V30 9 N 6.4951 4.5 0.0 0
M  V30 10 C 5.1961 2.25 0.0 0
M  V30 11 C 7.7942 6.75 0.0 0
M  V30 12 C 6.4951 9.0 0.0 0
M  V30 13 C 3.8971 1.5 0.0 0
M  V30 14 C 6.4951 1.5 0.0 0
M  V30 15 C 7.7942 8.25 0.0 0
M  V30 16 O 2.598 2.25 0.0 0
M  V30 17 N 3.8971 0.0 0.0 0
M  V30 18 O 7.7942 2.25 0.0 0
M  V30 19 C 6.4951 0.0 0.0 0
M  V30 20 C 5.1961 -0.75 0.0 0
M  V30 21 C 2.598 -0.75 0.0 0
M  V30 22 C 7.7942 -0.75 0.0 0
M  V30 23 C 5.1961 -2.25 0.0 0
M  V30 24 C 1.299 0.0 0.0 0
M  V30 25 C 7.7942 -2.25 0.0 0
M  V30 26 C 6.4951 -3.0 0.0 0
M  V30 27 C 0.0 -0.75 0.0 0
M  V30 28 N 9.0932 -3.0 0.0 0
M  V30 29 C -1.5 -0.75 0.0 0
M  V30 30 C -0.75 -2.049 0.0 0
M  V30 END ATOM
M  V30 BEGIN BOND
M  V30 1 2 1 2
M  V30 2 2 1 3
M  V30 3 1 1 4
M  V30 4 1 1 5
M  V30 5 2 4 6
M  V30 6 2 5 7
M  V30 7 1 5 8
M  V30 8 1 6 9
M  V30 9 1 6 10
M  V30 10 1 7 11
M  V30 11 2 8 12
M  V30 12 1 10 13
M  V30 13 2 10 14
M  V30 14 2 11 15
M  V30 15 2 13 16
M  V30 16 1 13 17
M  V30 17 1 14 18
M  V30 18 1 14 19
M  V30 19 1 17 20
M  V30 20 1 17 21
M  V30 21 1 19 22
M  V30 22 1 20 23
M  V30 23 1 21 24
M  V30 24 2 22 25
M  V30 25 2 23 26
M  V30 26 1 24 27
M  V30 27 1 25 28
M  V30 28 1 27 29
M  V30 29 1 27 30
M  V30 30 1 7 9
M  V30 31 1 12 15
M  V30 32 2 19 20
M  V30 33 1 25 26
M  V30 34 1 29 30
M  V30 END BOND
M  V30 END CTAB
M  END
>  <Molecule ChEMBL ID>
CHEMBL203426

>  <Smiles>
Nc1ccc2c(c1)c(O)c(C1=NS(=O)(=O)c3ccccc3N1)c(=O)n2CCC1CC1

>  <Standard Value>
157

$$$$
CHEMBL201567
Actelion Java MolfileCreator 2.0

  0  0  0  0  0  0              0 V3000
M  V30 BEGIN CTAB
M  V30 COUNTS 29 32 0 0 0
M  V30 BEGIN ATOM
M  V30 1 S 3.8971 6.0 0.0 0
M  V30 2 O 3.1471 7.299 0.0 0
M  V30 3 O 2.3971 5.9999 0.0 0
M  V30 4 N 3.8971 4.5 0.0 0
M  V30 5 C 5.1961 6.75 0.0 0
M  V30 6 C 5.1961 3.75 0.0 0
M  V30 7 C 6.4951 6.0 0.0 0
M  V30 8 C 5.1961 8.25 0.0 0
M  V30 9 N 6.4951 4.5 0.0 0
M  V30 10 C 5.1961 2.25 0.0 0
M  V30 11 C 7.7942 6.75 0.0 0
M  V30 12 C 6.4951 9.0 0.0 0
M  V30 13 C 3.8971 1.5 0.0 0
M  V30 14 C 6.4951 1.5 0.0 0
M  V30 15 C 7.7942 8.25 0.0 0
M  V30 16 O 2.598 2.25 0.0 0
M  V30 17 N 3.8971 0.0 0.0 0
M  V30 18 O 7.7942 2.25 0.0 0
M  V30 19 C 6.4951 0.0 0.0 0
M  V30 20 C 5.1961 -0.75 0.0 0
M  V30 21 C 2.598 -0.75 0.0 0
M  V30 22 C 7.7942 -0.75 0.0 0
M  V30 23 C 5.1961 -2.25 0.0 0
M  V30 24 C 1.299 0.0 0.0 0
M  V30 25 C 7.7942 -2.25 0.0 0
M  V30 26 C 6.4951 -3.0 0.0 0
M  V30 27 C 0.0 -0.75 0.0 0
M  V30 28 C 0.0 -2.25 0.0 0
M  V30 29 N 0.0 -3.75 0.0 0
M  V30 END ATOM
M  V30 BEGIN BOND
M  V30 1 2 1 2
M  V30 2 2 1 3
M  V30 3 1 1 4
M  V30 4 1 1 5
M  V30 5 2 4 6
M  V30 6 2 5 7
M  V30 7 1 5 8
M  V30 8 1 6 9
M  V30 9 1 6 10
M  V30 10 1 7 11
M  V30 11 2 8 12
M  V30 12 1 10 13
M  V30 13 2 10 14
M  V30 14 2 11 15
M  V30 15 2 13 16
M  V30 16 1 13 17
M  V30 17 1 14 18
M  V30 18 1 14 19
M  V30 19 1 17 20
M  V30 20 1 17 21
M  V30 21 1 19 22
M  V30 22 1 20 23
M  V30 23 1 21 24
M  V30 24 2 22 25
M  V30 25 2 23 26
M  V30 26 1 24 27
M  V30 27 1 27 28
M  V30 28 3 28 29
M  V30 29 1 7 9
M  V30 30 1 12 15
M  V30 31 2 19 20
M  V30 32 1 25 26
M  V30 END BOND
M  V30 END CTAB
M  END
>  <Molecule ChEMBL ID>
CHEMBL201567

>  <Smiles>
N#CCCCn1c(=O)c(C2=NS(=O)(=O)c3ccccc3N2)c(O)c2ccccc21

>  <Standard Value>
172

$$$$
CHEMBL203312
Actelion Java MolfileCreator 2.0

  0  0  0  0  0  0              0 V3000
M  V30 BEGIN CTAB
M  V30 COUNTS 29 32 0 0 0
M  V30 BEGIN ATOM
M  V30 1 S 3.8971 6.0 0.0 0
M  V30 2 O 3.1471 7.299 0.0 0
M  V30 3 O 2.3971 5.9999 0.0 0
M  V30 4 N 3.8971 4.5 0.0 0
M  V30 5 C 5.1961 6.75 0.0 0
M  V30 6 C 5.1961 3.75 0.0 0
M  V30 7 C 6.4951 6.0 0.0 0
M  V30 8 C 5.1961 8.25 0.0 0
M  V30 9 N 6.4951 4.5 0.0 0
M  V30 10 C 5.1961 2.25 0.0 0
M  V30 11 C 7.7942 6.75 0.0 0
M  V30 12 C 6.4951 9.0 0.0 0
M  V30 13 C 3.8971 1.5 0.0 0
M  V30 14 C 6.4951 1.5 0.0 0
M  V30 15 C 7.7942 8.25 0.0 0
M  V30 16 O 2.598 2.25 0.0 0
M  V30 17 N 3.8971 0.0 0.0 0
M  V30 18 O 7.7942 2.25 0.0 0
M  V30 19 C 6.4951 0.0 0.0 0
M  V30 20 C 5.1961 -0.75 0.0 0
M  V30 21 C 2.598 -0.75 0.0 0
M  V30 22 C 7.7942 -0.75 0.0 0
M  V30 23 C 5.1961 -2.25 0.0 0
M  V30 24 C 1.299 0.0 0.0 0
M  V30 25 C 7.7942 -2.25 0.0 0
M  V30 26 C 6.4951 -3.0 0.0 0
M  V30 27 C 0.0 -0.75 0.0 0
M  V30 28 C 0.0 -2.25 0.0 0
M  V30 29 C 0.0 -3.75 0.0 0
M  V30 END ATOM
M  V30 BEGIN BOND
M  V30 1 2 1 2
M  V30 2 2 1 3
M  V30 3 1 1 4
M  V30 4 1 1 5
M  V30 5 2 4 6
M  V30 6 2 5 7
M  V30 7 1 5 8
M  V30 8 1 6 9
M  V30 9 1 6 10
M  V30 10 1 7 11
M  V30 11 2 8 12
M  V30 12 1 10 13
M  V30 13 2 10 14
M  V30 14 2 11 15
M  V30 15 2 13 16
M  V30 16 1 13 17
M  V30 17 1 14 18
M  V30 18 1 14 19
M  V30 19 1 17 20
M  V30 20 1 17 21
M  V30 21 1 19 22
M  V30 22 1 20 23
M  V30 23 1 21 24
M  V30 24 2 22 25
M  V30 25 2 23 26
M  V30 26 1 24 27
M  V30 27 1 27 28
M  V30 28 3 28 29
M  V30 29 1 7 9
M  V30 30 1 12 15
M  V30 31 2 19 20
M  V30 32 1 25 26
M  V30 END BOND
M  V30 END CTAB
M  END
>  <Molecule ChEMBL ID>
CHEMBL203312

>  <Smiles>
C#CCCCn1c(=O)c(C2=NS(=O)(=O)c3ccccc3N2)c(O)c2ccccc21

>  <Standard Value>
179

$$$$
CHEMBL201769
Actelion Java MolfileCreator 2.0

  0  0  0  0  0  0              0 V3000
M  V30 BEGIN CTAB
M  V30 COUNTS 30 33 0 0 0
M  V30 BEGIN ATOM
M  V30 1 S 10.3923 2.25 0.0 0
M  V30 2 O 11.1423 3.549 0.0 0
M  V30 3 O 9.6423 3.549 0.0 0
M  V30 4 N 9.0932 1.5 0.0 0
M  V30 5 C 11.6913 1.5 0.0 0
M  V30 6 C 9.0932 0.0 0.0 0
M  V30 7 C 11.6913 0.0 0.0 0
M  V30 8 C 12.9903 2.25 0.0 0
M  V30 9 N 10.3923 -0.75 0.0 0
M  V30 10 C 7.7942 -0.75 0.0 0
M  V30 11 C 12.9903 -0.75 0.0 0
M  V30 12 C 14.2894 1.5 0.0 0
M  V30 13 C 6.4951 0.0 0.0 0
M  V30 14 C 7.7942 -2.25 0.0 0
M  V30 15 C 14.2894 0.0 0.0 0
M  V30 16 O 6.4951 1.5 0.0 0
M  V30 17 N 5.1961 -0.75 0.0 0
M  V30 18 O 9.0932 -3.0 0.0 0
M  V30 19 C 6.4951 -3.0 0.0 0
M  V30 20 C 5.1961 -2.25 0.0 0
M  V30 21 C 3.8971 0.0 0.0 0
M  V30 22 C 6.4951 -4.5 0.0 0
M  V30 23 C 3.8971 -3.0 0.0 0
M  V30 24 C 2.598 -0.75 0.0 0
M  V30 25 C 5.1961 -5.25 0.0 0
M  V30 26 C 3.8971 -4.5 0.0 0
M  V30 27 C 1.299 0.0 0.0 0
M  V30 28 C 5.1961 -6.75 0.0 0
M  V30 29 C 1.299 1.5 0.0 0
M  V30 30 C 0.0 -0.75 0.0 0
M  V30 END ATOM
M  V30 BEGIN BOND
M  V30 1 2 1 2
M  V30 2 2 1 3
M  V30 3 1 1 4
M  V30 4 1 1 5
M  V30 5 2 4 6
M  V30 6 2 5 7
M  V30 7 1 5 8
M  V30 8 1 6 9
M  V30 9 1 6 10
M  V30 10 1 7 11
M  V30 11 2 8 12
M  V30 12 1 10 13
M  V30 13 2 10 14
M  V30 14 2 11 15
M  V30 15 2 13 16
M  V30 16 1 13 17
M  V30 17 1 14 18
M  V30 18 1 14 19
M  V30 19 1 17 20
M  V30 20 1 17 21
M  V30 21 1 19 22
M  V30 22 1 20 23
M  V30 23 1 21 24
M  V30 24 2 22 25
M  V30 25 2 23 26
M  V30 26 1 24 27
M  V30 27 1 25 28
M  V30 28 1 27 29
M  V30 29 1 27 30
M  V30 30 1 7 9
M  V30 31 1 12 15
M  V30 32 2 19 20
M  V30 33 1 25 26
M  V30 END BOND
M  V30 END CTAB
M  END
>  <Molecule ChEMBL ID>
CHEMBL201769

>  <Smiles>
Cc1ccc2c(c1)c(O)c(C1=NS(=O)(=O)c3ccccc3N1)c(=O)n2CCC(C)C

>  <Standard Value>
180

$$$$
CHEMBL372357
Actelion Java MolfileCreator 2.0

  0  0  0  0  0  0              0 V3000
M  V30 BEGIN CTAB
M  V30 COUNTS 30 34 0 0 0
M  V30 BEGIN ATOM
M  V30 1 S 3.8971 6.0 0.0 0
M  V30 2 O 3.1471 7.299 0.0 0
M  V30 3 O 2.3971 5.9999 0.0 0
M  V30 4 N 3.8971 4.5 0.0 0
M  V30 5 C 5.1961 6.75 0.0 0
M  V30 6 C 5.1961 3.75 0.0 0
M  V30 7 C 6.4951 6.0 0.0 0
M  V30 8 C 5.1961 8.25 0.0 0
M  V30 9 N 6.4951 4.5 0.0 0
M  V30 10 C 5.1961 2.25 0.0 0
M  V30 11 C 7.7942 6.75 0.0 0
M  V30 12 C 6.4951 9.0 0.0 0
M  V30 13 C 3.8971 1.5 0.0 0
M  V30 14 C 6.4951 1.5 0.0 0
M  V30 15 C 7.7942 8.25 0.0 0
M  V30 16 O 2.598 2.25 0.0 0
M  V30 17 N 3.8971 0.0 0.0 0
M  V30 18 O 7.7942 2.25 0.0 0
M  V30 19 C 6.4951 0.0 0.0 0
M  V30 20 C 5.1961 -0.75 0.0 0
M  V30 21 C 2.598 -0.75 0.0 0
M  V30 22 C 7.7942 -0.75 0.0 0
M  V30 23 C 5.1961 -2.25 0.0 0
M  V30 24 C 1.299 0.0 0.0 0
M  V30 25 C 7.7942 -2.25 0.0 0
M  V30 26 C 6.4951 -3.0 0.0 0
M  V30 27 C 0.0 -0.75 0.0 0
M  V30 28 F 9.0932 -3.0 0.0 0
M  V30 29 C -1.5 -0.75 0.0 0
M  V30 30 C -0.75 -2.049 0.0 0
M  V30 END ATOM
M  V30 BEGIN BOND
M  V30 1 2 1 2
M  V30 2 2 1 3
M  V30 3 1 1 4
M  V30 4 1 1 5
M  V30 5 1 4 6
M  V30 6 2 5 7
M  V30 7 1 5 8
M  V30 8 2 6 9
M  V30 9 1 6 10
M  V30 10 1 7 11
M  V30 11 2 8 12
M  V30 12 1 10 13
M  V30 13 2 10 14
M  V30 14 2 11 15
M  V30 15 2 13 16
M  V30 16 1 13 17
M  V30 17 1 14 18
M  V30 18 1 14 19
M  V30 19 1 17 20
M  V30 20 1 17 21
M  V30 21 1 19 22
M  V30 22 1 20 23
M  V30 23 1 21 24
M  V30 24 2 22 25
M  V30 25 2 23 26
M  V30 26 1 24 27
M  V30 27 1 25 28
M  V30 28 1 27 29
M  V30 29 1 27 30
M  V30 30 1 7 9
M  V30 31 1 12 15
M  V30 32 2 19 20
M  V30 33 1 25 26
M  V30 34 1 29 30
M  V30 END BOND
M  V30 END CTAB
M  END
>  <Molecule ChEMBL ID>
CHEMBL372357

>  <Smiles>
O=c1c(C2=Nc3ccccc3S(=O)(=O)N2)c(O)c2cc(F)ccc2n1CCC1CC1

>  <Standard Value>
180

$$$$
CHEMBL202062
Actelion Java MolfileCreator 2.0

  0  0  0  0  0  0              0 V3000
M  V30 BEGIN CTAB
M  V30 COUNTS 30 33 0 0 0
M  V30 BEGIN ATOM
M  V30 1 S 10.3923 2.25 0.0 0
M  V30 2 O 11.1423 3.549 0.0 0
M  V30 3 O 9.6423 3.549 0.0 0
M  V30 4 N 9.0932 1.5 0.0 0
M  V30 5 C 11.6913 1.5 0.0 0
M  V30 6 C 9.0932 0.0 0.0 0
M  V30 7 C 11.6913 0.0 0.0 0
M  V30 8 C 12.9903 2.25 0.0 0
M  V30 9 N 10.3923 -0.75 0.0 0
M  V30 10 C 7.7942 -0.75 0.0 0
M  V30 11 C 12.9903 -0.75 0.0 0
M  V30 12 C 14.2894 1.5 0.0 0
M  V30 13 C 6.4951 0.0 0.0 0
M  V30 14 C 7.7942 -2.25 0.0 0
M  V30 15 C 14.2894 0.0 0.0 0
M  V30 16 O 6.4951 1.5 0.0 0
M  V30 17 N 5.1961 -0.75 0.0 0
M  V30 18 O 9.0932 -3.0 0.0 0
M  V30 19 C 6.4951 -3.0 0.0 0
M  V30 20 C 5.1961 -2.25 0.0 0
M  V30 21 C 3.8971 0.0 0.0 0
M  V30 22 C 6.4951 -4.5 0.0 0
M  V30 23 C 3.8971 -3.0 0.0 0
M  V30 24 C 2.598 -0.75 0.0 0
M  V30 25 C 5.1961 -5.25 0.0 0
M  V30 26 C 3.8971 -4.5 0.0 0
M  V30 27 C 1.299 0.0 0.0 0
M  V30 28 O 5.1961 -6.75 0.0 0
M  V30 29 C 1.299 1.5 0.0 0
M  V30 30 C 0.0 -0.75 0.0 0
M  V30 END ATOM
M  V30 BEGIN BOND
M  V30 1 2 1 2
M  V30 2 2 1 3
M  V30 3 1 1 4
M  V30 4 1 1 5
M  V30 5 2 4 6
M  V30 6 2 5 7
M  V30 7 1 5 8
M  V30 8 1 6 9
M  V30 9 1 6 10
M  V30 10 1 7 11
M  V30 11 2 8 12
M  V30 12 1 10 13
M  V30 13 2 10 14
M  V30 14 2 11 15
M  V30 15 2 13 16
M  V30 16 1 13 17
M  V30 17 1 14 18
M  V30 18 1 14 19
M  V30 19 1 17 20
M  V30 20 1 17 21
M  V30 21 1 19 22
M  V30 22 1 20 23
M  V30 23 1 21 24
M  V30 24 2 22 25
M  V30 25 2 23 26
M  V30 26 1 24 27
M  V30 27 1 25 28
M  V30 28 1 27 29
M  V30 29 1 27 30
M  V30 30 1 7 9
M  V30 31 1 12 15
M  V30 32 2 19 20
M  V30 33 1 25 26
M  V30 END BOND
M  V30 END CTAB
M  END
>  <Molecule ChEMBL ID>
CHEMBL202062

>  <Smiles>
CC(C)CCn1c(=O)c(C2=NS(=O)(=O)c3ccccc3N2)c(O)c2cc(O)ccc21

>  <Standard Value>
198

$$$$
CHEMBL180974
Actelion Java MolfileCreator 2.0

  0  0  0  0  0  0              0 V3000
M  V30 BEGIN CTAB
M  V30 COUNTS 28 31 0 0 0
M  V30 BEGIN ATOM
M  V30 1 S 10.3923 2.25 0.0 0
M  V30 2 O 11.1423 3.549 0.0 0
M  V30 3 O 9.6423 3.549 0.0 0
M  V30 4 N 9.0932 1.5 0.0 0
M  V30 5 C 11.6913 1.5 0.0 0
M  V30 6 C 9.0932 0.0 0.0 0
M  V30 7 C 11.6913 0.0 0.0 0
M  V30 8 C 12.9903 2.25 0.0 0
M  V30 9 N 10.3923 -0.75 0.0 0
M  V30 10 C 7.7942 -0.75 0.0 0
M  V30 11 C 12.9903 -0.75 0.0 0
M  V30 12 C 14.2894 1.5 0.0 0
M  V30 13 C 6.4951 0.0 0.0 0
M  V30 14 C 7.7942 -2.25 0.0 0
M  V30 15 C 14.2894 0.0 0.0 0
M  V30 16 O 6.4951 1.5 0.0 0
M  V30 17 N 5.1961 -0.75 0.0 0
M  V30 18 O 9.0932 -3.0 0.0 0
M  V30 19 C 6.4951 -3.0 0.0 0
M  V30 20 C 5.1961 -2.25 0.0 0
M  V30 21 C 3.8971 0.0 0.0 0
M  V30 22 C 6.4951 -4.5 0.0 0
M  V30 23 C 3.8971 -3.0 0.0 0
M  V30 24 C 2.598 -0.75 0.0 0
M  V30 25 C 5.1961 -5.25 0.0 0
M  V30 26 C 3.8971 -4.5 0.0 0
M  V30 27 C 1.299 0.0 0.0 0
M  V30 28 C 0.0 -0.75 0.0 0
M  V30 END ATOM
M  V30 BEGIN BOND
M  V30 1 2 1 2
M  V30 2 2 1 3
M  V30 3 1 1 4
M  V30 4 1 1 5
M  V30 5 2 4 6
M  V30 6 2 5 7
M  V30 7 1 5 8
M  V30 8 1 6 9
M  V30 9 1 6 10
M  V30 10 1 7 11
M  V30 11 2 8 12
M  V30 12 1 10 13
M  V30 13 2 10 14
M  V30 14 2 11 15
M  V30 15 2 13 16
M  V30 16 1 13 17
M  V30 17 1 14 18
M  V30 18 1 14 19
M  V30 19 1 17 20
M  V30 20 1 17 21
M  V30 21 1 19 22
M  V30 22 1 20 23
M  V30 23 1 21 24
M  V30 24 2 22 25
M  V30 25 2 23 26
M  V30 26 1 24 27
M  V30 27 1 27 28
M  V30 28 1 7 9
M  V30 29 1 12 15
M  V30 30 2 19 20
M  V30 31 1 25 26
M  V30 END BOND
M  V30 END CTAB
M  END
>  <Molecule ChEMBL ID>
CHEMBL180974

>  <Smiles>
CCCCn1c(=O)c(C2=NS(=O)(=O)c3ccccc3N2)c(O)c2ccccc21

>  <Standard Value>
200

$$$$
CHEMBL201119
Actelion Java MolfileCreator 2.0

  0  0  0  0  0  0              0 V3000
M  V30 BEGIN CTAB
M  V30 COUNTS 30 33 0 0 0
M  V30 BEGIN ATOM
M  V30 1 Br 5.1961 -6.75 0.0 0
M  V30 2 C 5.1961 -5.25 0.0 0
M  V30 3 C 6.4951 -4.5 0.0 0
M  V30 4 C 3.8971 -4.5 0.0 0
M  V30 5 C 6.4951 -3.0 0.0 0
M  V30 6 C 3.8971 -3.0 0.0 0
M  V30 7 C 7.7942 -2.25 0.0 0
M  V30 8 C 5.1961 -2.25 0.0 0
M  V30 9 O 9.0932 -3.0 0.0 0
M  V30 10 C 7.7942 -0.75 0.0 0
M  V30 11 N 5.1961 -0.75 0.0 0
M  V30 12 C 6.4951 0.0 0.0 0
M  V30 13 C 9.0932 0.0 0.0 0
M  V30 14 C 3.8971 0.0 0.0 0
M  V30 15 O 6.4951 1.5 0.0 0
M  V30 16 N 10.3923 -0.75 0.0 0
M  V30 17 N 9.0932 1.5 0.0 0
M  V30 18 C 2.598 -0.75 0.0 0
M  V30 19 S 11.6913 0.0 0.0 0
M  V30 20 C 10.3923 2.25 0.0 0
M  V30 21 C 1.299 0.0 0.0 0
M  V30 22 O 12.4413 -1.299 0.0 0
M  V30 23 O 13.1913 0.0 0.0 0
M  V30 24 C 11.6913 1.5 0.0 0
M  V30 25 C 10.3923 3.75 0.0 0
M  V30 26 C 1.299 1.5 0.0 0
M  V30 27 C 0.0 -0.75 0.0 0
M  V30 28 C 12.9903 2.25 0.0 0
M  V30 29 C 11.6913 4.5 0.0 0
M  V30 30 C 12.9903 3.75 0.0 0
M  V30 END ATOM
M  V30 BEGIN BOND
M  V30 1 1 1 2
M  V30 2 2 2 3
M  V30 3 1 2 4
M  V30 4 1 3 5
M  V30 5 2 4 6
M  V30 6 1 5 7
M  V30 7 2 5 8
M  V30 8 1 7 9
M  V30 9 2 7 10
M  V30 10 1 8 11
M  V30 11 1 10 12
M  V30 12 1 10 13
M  V30 13 1 11 14
M  V30 14 2 12 15
M  V30 15 2 13 16
M  V30 16 1 13 17
M  V30 17 1 14 18
M  V30 18 1 16 19
M  V30 19 1 17 20
M  V30 20 1 18 21
M  V30 21 2 19 22
M  V30 22 2 19 23
M  V30 23 1 19 24
M  V30 24 1 20 25
M  V30 25 1 21 26
M  V30 26 1 21 27
M  V30 27 1 24 28
M  V30 28 2 25 29
M  V30 29 2 28 30
M  V30 30 1 6 8
M  V30 31 1 11 12
M  V30 32 2 20 24
M  V30 33 1 29 30
M  V30 END BOND
M  V30 END CTAB
M  END
>  <Molecule ChEMBL ID>
CHEMBL201119

>  <Smiles>
CC(C)CCn1c(=O)c(C2=NS(=O)(=O)c3ccccc3N2)c(O)c2cc(Br)ccc21

>  <Standard Value>
205

$$$$
CHEMBL201603
Actelion Java MolfileCreator 2.0

  0  0  0  0  0  0              0 V3000
M  V30 BEGIN CTAB
M  V30 COUNTS 30 33 0 0 0
M  V30 BEGIN ATOM
M  V30 1 S 10.3923 2.25 0.0 0
M  V30 2 O 11.1423 3.549 0.0 0
M  V30 3 O 9.6423 3.549 0.0 0
M  V30 4 N 9.0932 1.5 0.0 0
M  V30 5 C 11.6913 1.5 0.0 0
M  V30 6 C 9.0932 0.0 0.0 0
M  V30 7 C 11.6913 0.0 0.0 0
M  V30 8 C 12.9903 2.25 0.0 0
M  V30 9 N 10.3923 -0.75 0.0 0
M  V30 10 C 7.7942 -0.75 0.0 0
M  V30 11 C 12.9903 -0.75 0.0 0
M  V30 12 C 14.2894 1.5 0.0 0
M  V30 13 C 6.4951 0.0 0.0 0
M  V30 14 C 7.7942 -2.25 0.0 0
M  V30 15 C 14.2894 0.0 0.0 0
M  V30 16 O 6.4951 1.5 0.0 0
M  V30 17 N 5.1961 -0.75 0.0 0
M  V30 18 O 9.0932 -3.0 0.0 0
M  V30 19 C 6.4951 -3.0 0.0 0
M  V30 20 C 5.1961 -2.25 0.0 0
M  V30 21 C 3.8971 0.0 0.0 0
M  V30 22 C 6.4951 -4.5 0.0 0
M  V30 23 C 3.8971 -3.0 0.0 0
M  V30 24 C 2.598 -0.75 0.0 0
M  V30 25 C 5.1961 -5.25 0.0 0
M  V30 26 C 7.7942 -5.25 0.0 0
M  V30 27 C 3.8971 -4.5 0.0 0
M  V30 28 C 1.299 0.0 0.0 0
M  V30 29 C 1.299 1.5 0.0 0
M  V30 30 C 0.0 -0.75 0.0 0
M  V30 END ATOM
M  V30 BEGIN BOND
M  V30 1 2 1 2
M  V30 2 2 1 3
M  V30 3 1 1 4
M  V30 4 1 1 5
M  V30 5 2 4 6
M  V30 6 2 5 7
M  V30 7 1 5 8
M  V30 8 1 6 9
M  V30 9 1 6 10
M  V30 10 1 7 11
M  V30 11 2 8 12
M  V30 12 1 10 13
M  V30 13 2 10 14
M  V30 14 2 11 15
M  V30 15 2 13 16
M  V30 16 1 13 17
M  V30 17 1 14 18
M  V30 18 1 14 19
M  V30 19 1 17 20
M  V30 20 1 17 21
M  V30 21 1 19 22
M  V30 22 1 20 23
M  V30 23 1 21 24
M  V30 24 2 22 25
M  V30 25 1 22 26
M  V30 26 2 23 27
M  V30 27 1 24 28
M  V30 28 1 28 29
M  V30 29 1 28 30
M  V30 30 1 7 9
M  V30 31 1 12 15
M  V30 32 2 19 20
M  V30 33 1 25 27
M  V30 END BOND
M  V30 END CTAB
M  END
>  <Molecule ChEMBL ID>
CHEMBL201603

>  <Smiles>
Cc1cccc2c1c(O)c(C1=NS(=O)(=O)c3ccccc3N1)c(=O)n2CCC(C)C

>  <Standard Value>
206

$$$$
CHEMBL201385
Actelion Java MolfileCreator 2.0

  0  0  0  0  0  0              0 V3000
M  V30 BEGIN CTAB
M  V30 COUNTS 29 33 0 0 0
M  V30 BEGIN ATOM
M  V30 1 S 7.7942 2.25 0.0 0
M  V30 2 O 8.5442 3.549 0.0 0
M  V30 3 O 7.0442 3.549 0.0 0
M  V30 4 N 6.4951 1.5 0.0 0
M  V30 5 C 9.0932 1.5 0.0 0
M  V30 6 C 6.4951 0.0 0.0 0
M  V30 7 C 9.0932 0.0 0.0 0
M  V30 8 C 10.3923 2.25 0.0 0
M  V30 9 N 7.7942 -0.75 0.0 0
M  V30 10 C 5.1961 -0.75 0.0 0
M  V30 11 C 10.3923 -0.75 0.0 0
M  V30 12 C 11.6913 1.5 0.0 0
M  V30 13 C 3.8971 0.0 0.0 0
M  V30 14 C 5.1961 -2.25 0.0 0
M  V30 15 C 11.6913 0.0 0.0 0
M  V30 16 O 3.8971 1.5 0.0 0
M  V30 17 N 2.598 -0.75 0.0 0
M  V30 18 O 6.4951 -3.0 0.0 0
M  V30 19 C 3.8971 -3.0 0.0 0
M  V30 20 C 2.598 -2.25 0.0 0
M  V30 21 C 1.299 0.0 0.0 0
M  V30 22 C 3.8971 -4.5 0.0 0
M  V30 23 C 1.299 -3.0 0.0 0
M  V30 24 C 0.0 -0.75 0.0 0
M  V30 25 C 2.598 -5.25 0.0 0
M  V30 26 C 1.299 -4.5 0.0 0
M  V30 27 C -1.4488 -0.3617 0.0 0
M  V30 28 C -0.3882 -2.1988 0.0 0
M  V30 29 C -1.8371 -1.8106 0.0 0
M  V30 END ATOM
M  V30 BEGIN BOND
M  V30 1 2 1 2
M  V30 2 2 1 3
M  V30 3 1 1 4
M  V30 4 1 1 5
M  V30 5 2 4 6
M  V30 6 2 5 7
M  V30 7 1 5 8
M  V30 8 1 6 9
M  V30 9 1 6 10
M  V30 10 1 7 11
M  V30 11 2 8 12
M  V30 12 1 10 13
M  V30 13 2 10 14
M  V30 14 2 11 15
M  V30 15 2 13 16
M  V30 16 1 13 17
M  V30 17 1 14 18
M  V30 18 1 14 19
M  V30 19 1 17 20
M  V30 20 1 17 21
M  V30 21 1 19 22
M  V30 22 1 20 23
M  V30 23 1 21 24
M  V30 24 2 22 25
M  V30 25 2 23 26
M  V30 26 1 24 27
M  V30 27 1 24 28
M  V30 28 1 27 29
M  V30 29 1 7 9
M  V30 30 1 12 15
M  V30 31 2 19 20
M  V30 32 1 25 26
M  V30 33 1 28 29
M  V30 END BOND
M  V30 END CTAB
M  END
>  <Molecule ChEMBL ID>
CHEMBL201385

>  <Smiles>
O=c1c(C2=NS(=O)(=O)c3ccccc3N2)c(O)c2ccccc2n1CC1CCC1

>  <Standard Value>
241

$$$$
CHEMBL202317
Actelion Java MolfileCreator 2.0

  0  0  0  0  0  0              0 V3000
M  V30 BEGIN CTAB
M  V30 COUNTS 30 33 0 0 0
M  V30 BEGIN ATOM
M  V30 1 S 10.3923 2.25 0.0 0
M  V30 2 O 11.1423 3.549 0.0 0
M  V30 3 O 9.6423 3.549 0.0 0
M  V30 4 N 9.0932 1.5 0.0 0
M  V30 5 C 11.6913 1.5 0.0 0
M  V30 6 C 9.0932 0.0 0.0 0
M  V30 7 C 11.6913 0.0 0.0 0
M  V30 8 C 12.9903 2.25 0.0 0
M  V30 9 N 10.3923 -0.75 0.0 0
M  V30 10 C 7.7942 -0.75 0.0 0
M  V30 11 C 12.9903 -0.75 0.0 0
M  V30 12 C 14.2894 1.5 0.0 0
M  V30 13 C 6.4951 0.0 0.0 0
M  V30 14 C 7.7942 -2.25 0.0 0
M  V30 15 C 14.2894 0.0 0.0 0
M  V30 16 O 6.4951 1.5 0.0 0
M  V30 17 N 5.1961 -0.75 0.0 0
M  V30 18 O 9.0932 -3.0 0.0 0
M  V30 19 C 6.4951 -3.0 0.0 0
M  V30 20 C 5.1961 -2.25 0.0 0
M  V30 21 C 3.8971 0.0 0.0 0
M  V30 22 C 6.4951 -4.5 0.0 0
M  V30 23 C 3.8971 -3.0 0.0 0
M  V30 24 C 2.598 -0.75 0.0 0
M  V30 25 C 5.1961 -5.25 0.0 0
M  V30 26 C 3.8971 -4.5 0.0 0
M  V30 27 C 1.299 0.0 0.0 0
M  V30 28 F 5.1961 -6.75 0.0 0
M  V30 29 C 1.299 1.5 0.0 0
M  V30 30 C 0.0 -0.75 0.0 0
M  V30 END ATOM
M  V30 BEGIN BOND
M  V30 1 2 1 2
M  V30 2 2 1 3
M  V30 3 1 1 4
M  V30 4 1 1 5
M  V30 5 2 4 6
M  V30 6 2 5 7
M  V30 7 1 5 8
M  V30 8 1 6 9
M  V30 9 1 6 10
M  V30 10 1 7 11
M  V30 11 2 8 12
M  V30 12 1 10 13
M  V30 13 2 10 14
M  V30 14 2 11 15
M  V30 15 2 13 16
M  V30 16 1 13 17
M  V30 17 1 14 18
M  V30 18 1 14 19
M  V30 19 1 17 20
M  V30 20 1 17 21
M  V30 21 1 19 22
M  V30 22 1 20 23
M  V30 23 1 21 24
M  V30 24 2 22 25
M  V30 25 2 23 26
M  V30 26 1 24 27
M  V30 27 1 25 28
M  V30 28 1 27 29
M  V30 29 1 27 30
M  V30 30 1 7 9
M  V30 31 1 12 15
M  V30 32 2 19 20
M  V30 33 1 25 26
M  V30 END BOND
M  V30 END CTAB
M  END
>  <Molecule ChEMBL ID>
CHEMBL202317

>  <Smiles>
CC(C)CCn1c(=O)c(C2=NS(=O)(=O)c3ccccc3N2)c(O)c2cc(F)ccc21

>  <Standard Value>
261

$$$$
CHEMBL202310
Actelion Java MolfileCreator 2.0

  0  0  0  0  0  0              0 V3000
M  V30 BEGIN CTAB
M  V30 COUNTS 36 39 0 0 0
M  V30 BEGIN ATOM
M  V30 1 S 11.6913 -9.0 0.0 0
M  V30 2 O 12.4413 -10.299 0.0 0
M  V30 3 O 13.1913 -8.9999 0.0 0
M  V30 4 N 11.6913 -7.5 0.0 0
M  V30 5 C 10.3923 -9.75 0.0 0
M  V30 6 C 10.3923 -6.75 0.0 0
M  V30 7 C 9.0932 -9.0 0.0 0
M  V30 8 C 10.3923 -11.25 0.0 0
M  V30 9 N 9.0932 -7.5 0.0 0
M  V30 10 C 10.3923 -5.25 0.0 0
M  V30 11 C 7.7942 -9.75 0.0 0
M  V30 12 C 9.0932 -12.0 0.0 0
M  V30 13 C 11.6913 -4.5 0.0 0
M  V30 14 C 9.0932 -4.5 0.0 0
M  V30 15 C 7.7942 -11.25 0.0 0
M  V30 16 O 12.9903 -5.25 0.0 0
M  V30 17 N 11.6913 -3.0 0.0 0
M  V30 18 O 7.7942 -5.25 0.0 0
M  V30 19 C 9.0932 -3.0 0.0 0
M  V30 20 C 10.3923 -2.25 0.0 0
M  V30 21 C 12.9903 -2.25 0.0 0
M  V30 22 C 7.7942 -2.25 0.0 0
M  V30 23 C 10.3923 -0.75 0.0 0
M  V30 24 C 12.9903 -0.75 0.0 0
M  V30 25 C 7.7942 -0.75 0.0 0
M  V30 26 C 9.0932 0.0 0.0 0
M  V30 27 C 14.2894 0.0 0.0 0
M  V30 28 N 6.4951 0.0 0.0 0
M  V30 29 C 15.5884 -0.75 0.0 0
M  V30 30 C 14.2894 1.5 0.0 0
M  V30 31 C 5.1961 -0.75 0.0 0
M  V30 32 C 3.8971 0.0 0.0 0
M  V30 33 O 3.8971 1.5 0.0 0
M  V30 34 O 2.598 -0.75 0.0 0
M  V30 35 C 1.299 0.0 0.0 0
M  V30 36 C 0.0 -0.75 0.0 0
M  V30 END ATOM
M  V30 BEGIN BOND
M  V30 1 2 1 2
M  V30 2 2 1 3
M  V30 3 1 1 4
M  V30 4 1 1 5
M  V30 5 2 4 6
M  V30 6 2 5 7
M  V30 7 1 5 8
M  V30 8 1 6 9
M  V30 9 1 6 10
M  V30 10 1 7 11
M  V30 11 2 8 12
M  V30 12 1 10 13
M  V30 13 2 10 14
M  V30 14 2 11 15
M  V30 15 2 13 16
M  V30 16 1 13 17
M  V30 17 1 14 18
M  V30 18 1 14 19
M  V30 19 1 17 20
M  V30 20 1 17 21
M  V30 21 1 19 22
M  V30 22 1 20 23
M  V30 23 1 21 24
M  V30 24 2 22 25
M  V30 25 2 23 26
M  V30 26 1 24 27
M  V30 27 1 25 28
M  V30 28 1 27 29
M  V30 29 1 27 30
M  V30 30 1 28 31
M  V30 31 1 31 32
M  V30 32 2 32 33
M  V30 33 1 32 34
M  V30 34 1 34 35
M  V30 35 1 35 36
M  V30 36 1 7 9
M  V30 37 1 12 15
M  V30 38 2 19 20
M  V30 39 1 25 26
M  V30 END BOND
M  V30 END CTAB
M  END
>  <Molecule ChEMBL ID>
CHEMBL202310

>  <Smiles>
CCOC(=O)CNc1ccc2c(c1)c(O)c(C1=NS(=O)(=O)c3ccccc3N1)c(=O)n2CCC(C)C

>  <Standard Value>
265

$$$$
CHEMBL426302
Actelion Java MolfileCreator 2.0

  0  0  0  0  0  0              0 V3000
M  V30 BEGIN CTAB
M  V30 COUNTS 30 33 0 0 0
M  V30 BEGIN ATOM
M  V30 1 S 10.3923 2.25 0.0 0
M  V30 2 O 11.1423 3.549 0.0 0
M  V30 3 O 9.6423 3.549 0.0 0
M  V30 4 N 9.0932 1.5 0.0 0
M  V30 5 C 11.6913 1.5 0.0 0
M  V30 6 C 9.0932 0.0 0.0 0
M  V30 7 C 11.6913 0.0 0.0 0
M  V30 8 C 12.9903 2.25 0.0 0
M  V30 9 N 10.3923 -0.75 0.0 0
M  V30 10 C 7.7942 -0.75 0.0 0
M  V30 11 C 12.9903 -0.75 0.0 0
M  V30 12 C 14.2894 1.5 0.0 0
M  V30 13 C 6.4951 0.0 0.0 0
M  V30 14 C 7.7942 -2.25 0.0 0
M  V30 15 C 14.2894 0.0 0.0 0
M  V30 16 O 6.4951 1.5 0.0 0
M  V30 17 N 5.1961 -0.75 0.0 0
M  V30 18 O 9.0932 -3.0 0.0 0
M  V30 19 C 6.4951 -3.0 0.0 0
M  V30 20 C 5.1961 -2.25 0.0 0
M  V30 21 C 3.8971 0.0 0.0 0
M  V30 22 C 6.4951 -4.5 0.0 0
M  V30 23 C 3.8971 -3.0 0.0 0
M  V30 24 C 2.598 -0.75 0.0 0
M  V30 25 C 5.1961 -5.25 0.0 0
M  V30 26 C 3.8971 -4.5 0.0 0
M  V30 27 C 1.299 0.0 0.0 0
M  V30 28 N 5.1961 -6.75 0.0 0
M  V30 29 C 1.299 1.5 0.0 0
M  V30 30 C 0.0 -0.75 0.0 0
M  V30 END ATOM
M  V30 BEGIN BOND
M  V30 1 2 1 2
M  V30 2 2 1 3
M  V30 3 1 1 4
M  V30 4 1 1 5
M  V30 5 2 4 6
M  V30 6 2 5 7
M  V30 7 1 5 8
M  V30 8 1 6 9
M  V30 9 1 6 10
M  V30 10 1 7 11
M  V30 11 2 8 12
M  V30 12 1 10 13
M  V30 13 2 10 14
M  V30 14 2 11 15
M  V30 15 2 13 16
M  V30 16 1 13 17
M  V30 17 1 14 18
M  V30 18 1 14 19
M  V30 19 1 17 20
M  V30 20 1 17 21
M  V30 21 1 19 22
M  V30 22 1 20 23
M  V30 23 1 21 24
M  V30 24 2 22 25
M  V30 25 2 23 26
M  V30 26 1 24 27
M  V30 27 1 25 28
M  V30 28 1 27 29
M  V30 29 1 27 30
M  V30 30 1 7 9
M  V30 31 1 12 15
M  V30 32 2 19 20
M  V30 33 1 25 26
M  V30 END BOND
M  V30 END CTAB
M  END
>  <Molecule ChEMBL ID>
CHEMBL426302

>  <Smiles>
CC(C)CCn1c(=O)c(C2=NS(=O)(=O)c3ccccc3N2)c(O)c2cc(N)ccc21

>  <Standard Value>
274

$$$$
CHEMBL381218
Actelion Java MolfileCreator 2.0

  0  0  0  0  0  0              0 V3000
M  V30 BEGIN CTAB
M  V30 COUNTS 29 32 0 0 0
M  V30 BEGIN ATOM
M  V30 1 S 10.3923 2.25 0.0 0
M  V30 2 O 11.1423 3.549 0.0 0
M  V30 3 O 9.6423 3.549 0.0 0
M  V30 4 N 9.0932 1.5 0.0 0
M  V30 5 C 11.6913 1.5 0.0 0
M  V30 6 C 9.0932 0.0 0.0 0
M  V30 7 C 11.6913 0.0 0.0 0
M  V30 8 C 12.9903 2.25 0.0 0
M  V30 9 N 10.3923 -0.75 0.0 0
M  V30 10 C 7.7942 -0.75 0.0 0
M  V30 11 C 12.9903 -0.75 0.0 0
M  V30 12 C 14.2894 1.5 0.0 0
M  V30 13 C 6.4951 0.0 0.0 0
M  V30 14 C 7.7942 -2.25 0.0 0
M  V30 15 C 14.2894 0.0 0.0 0
M  V30 16 O 6.4951 1.5 0.0 0
M  V30 17 N 5.1961 -0.75 0.0 0
M  V30 18 O 9.0932 -3.0 0.0 0
M  V30 19 C 6.4951 -3.0 0.0 0
M  V30 20 C 5.1961 -2.25 0.0 0
M  V30 21 C 3.8971 0.0 0.0 0
M  V30 22 C 6.4951 -4.5 0.0 0
M  V30 23 C 3.8971 -3.0 0.0 0
M  V30 24 C 2.598 -0.75 0.0 0
M  V30 25 C 5.1961 -5.25 0.0 0
M  V30 26 C 3.8971 -4.5 0.0 0
M  V30 27 C 1.299 0.0 0.0 0
M  V30 28 C 1.299 1.5 0.0 0
M  V30 29 C 0.0 -0.75 0.0 0
M  V30 END ATOM
M  V30 BEGIN BOND
M  V30 1 2 1 2
M  V30 2 2 1 3
M  V30 3 1 1 4
M  V30 4 1 1 5
M  V30 5 2 4 6
M  V30 6 2 5 7
M  V30 7 1 5 8
M  V30 8 1 6 9
M  V30 9 1 6 10
M  V30 10 1 7 11
M  V30 11 2 8 12
M  V30 12 1 10 13
M  V30 13 2 10 14
M  V30 14 2 11 15
M  V30 15 2 13 16
M  V30 16 1 13 17
M  V30 17 1 14 18
M  V30 18 1 14 19
M  V30 19 1 17 20
M  V30 20 1 17 21
M  V30 21 1 19 22
M  V30 22 1 20 23
M  V30 23 1 21 24
M  V30 24 2 22 25
M  V30 25 2 23 26
M  V30 26 2 24 27
M  V30 27 1 27 28
M  V30 28 1 27 29
M  V30 29 1 7 9
M  V30 30 1 12 15
M  V30 31 2 19 20
M  V30 32 1 25 26
M  V30 END BOND
M  V30 END CTAB
M  END
>  <Molecule ChEMBL ID>
CHEMBL381218

>  <Smiles>
CC(C)=CCn1c(=O)c(C2=NS(=O)(=O)c3ccccc3N2)c(O)c2ccccc21

>  <Standard Value>
289

$$$$
CHEMBL201815
Actelion Java MolfileCreator 2.0

  0  0  0  0  0  0              0 V3000
M  V30 BEGIN CTAB
M  V30 COUNTS 29 32 0 0 0
M  V30 BEGIN ATOM
M  V30 1 Br 5.1961 -0.75 0.0 0
M  V30 2 C 3.8971 0.0 0.0 0 CFG=2
M  V30 3 C 2.598 -0.75 0.0 0
M  V30 4 C 3.8971 1.5 0.0 0
M  V30 5 C 1.299 0.0 0.0 0
M  V30 6 N 0.0 -0.75 0.0 0
M  V30 7 C -1.299 0.0 0.0 0
M  V30 8 C 0.0 -2.25 0.0 0
M  V30 9 O -1.299 1.5 0.0 0
M  V30 10 C -2.598 -0.75 0.0 0
M  V30 11 C -1.299 -3.0 0.0 0
M  V30 12 C 1.299 -3.0 0.0 0
M  V30 13 C -3.8971 0.0 0.0 0
M  V30 14 C -2.598 -2.25 0.0 0
M  V30 15 C -1.299 -4.5 0.0 0
M  V30 16 C 1.299 -4.5 0.0 0
M  V30 17 N -3.8971 1.5 0.0 0
M  V30 18 N -5.1961 -0.75 0.0 0
M  V30 19 O -3.8971 -3.0 0.0 0
M  V30 20 C 0.0 -5.25 0.0 0
M  V30 21 S -5.1961 2.25 0.0 0
M  V30 22 C -6.4951 0.0 0.0 0
M  V30 23 O -4.4461 3.549 0.0 0
M  V30 24 O -5.9461 3.549 0.0 0
M  V30 25 C -6.4951 1.5 0.0 0
M  V30 26 C -7.7942 -0.75 0.0 0
M  V30 27 C -7.7942 2.25 0.0 0
M  V30 28 C -9.0932 0.0 0.0 0
M  V30 29 C -9.0932 1.5 0.0 0
M  V30 END ATOM
M  V30 BEGIN BOND
M  V30 1 1 2 1 CFG=3
M  V30 2 1 2 3
M  V30 3 1 2 4
M  V30 4 1 3 5
M  V30 5 1 5 6
M  V30 6 1 6 7
M  V30 7 1 6 8
M  V30 8 2 7 9
M  V30 9 1 7 10
M  V30 10 2 8 11
M  V30 11 1 8 12
M  V30 12 1 10 13
M  V30 13 2 10 14
M  V30 14 1 11 15
M  V30 15 2 12 16
M  V30 16 2 13 17
M  V30 17 1 13 18
M  V30 18 1 14 19
M  V30 19 2 15 20
M  V30 20 1 17 21
M  V30 21 1 18 22
M  V30 22 2 21 23
M  V30 23 2 21 24
M  V30 24 1 21 25
M  V30 25 1 22 26
M  V30 26 1 25 27
M  V30 27 2 26 28
M  V30 28 2 27 29
M  V30 29 1 11 14
M  V30 30 1 16 20
M  V30 31 2 22 25
M  V30 32 1 28 29
M  V30 END BOND
M  V30 BEGIN COLLECTION
M  V30 MDLV30/STERAC1 ATOMS=(1 2)
M  V30 END COLLECTION
M  V30 END CTAB
M  END
>  <Molecule ChEMBL ID>
CHEMBL201815

>  <Smiles>
CC(Br)CCn1c(=O)c(C2=NS(=O)(=O)c3ccccc3N2)c(O)c2ccccc21

>  <Standard Value>
290

$$$$
CHEMBL201690
Actelion Java MolfileCreator 2.0

  0  0  0  0  0  0              0 V3000
M  V30 BEGIN CTAB
M  V30 COUNTS 33 36 0 0 0
M  V30 BEGIN ATOM
M  V30 1 S 10.3923 2.25 0.0 0
M  V30 2 O 11.1423 3.549 0.0 0
M  V30 3 O 9.6423 3.549 0.0 0
M  V30 4 N 9.0932 1.5 0.0 0
M  V30 5 C 11.6913 1.5 0.0 0
M  V30 6 C 9.0932 0.0 0.0 0
M  V30 7 C 11.6913 0.0 0.0 0
M  V30 8 C 12.9903 2.25 0.0 0
M  V30 9 N 10.3923 -0.75 0.0 0
M  V30 10 C 7.7942 -0.75 0.0 0
M  V30 11 C 12.9903 -0.75 0.0 0
M  V30 12 C 14.2894 1.5 0.0 0
M  V30 13 C 6.4951 0.0 0.0 0
M  V30 14 C 7.7942 -2.25 0.0 0
M  V30 15 C 14.2894 0.0 0.0 0
M  V30 16 O 6.4951 1.5 0.0 0
M  V30 17 N 5.1961 -0.75 0.0 0
M  V30 18 O 9.0932 -3.0 0.0 0
M  V30 19 C 6.4951 -3.0 0.0 0
M  V30 20 C 5.1961 -2.25 0.0 0
M  V30 21 C 3.8971 0.0 0.0 0
M  V30 22 C 6.4951 -4.5 0.0 0
M  V30 23 C 3.8971 -3.0 0.0 0
M  V30 24 C 2.598 -0.75 0.0 0
M  V30 25 C 5.1961 -5.25 0.0 0
M  V30 26 C 3.8971 -4.5 0.0 0
M  V30 27 C 1.299 0.0 0.0 0
M  V30 28 O 5.1961 -6.75 0.0 0
M  V30 29 C 1.299 1.5 0.0 0
M  V30 30 C 0.0 -0.75 0.0 0
M  V30 31 C 6.4951 -7.5 0.0 0
M  V30 32 C 7.7942 -6.75 0.0 0
M  V30 33 N 9.0932 -6.0 0.0 0
M  V30 END ATOM
M  V30 BEGIN BOND
M  V30 1 2 1 2
M  V30 2 2 1 3
M  V30 3 1 1 4
M  V30 4 1 1 5
M  V30 5 2 4 6
M  V30 6 2 5 7
M  V30 7 1 5 8
M  V30 8 1 6 9
M  V30 9 1 6 10
M  V30 10 1 7 11
M  V30 11 2 8 12
M  V30 12 1 10 13
M  V30 13 2 10 14
M  V30 14 2 11 15
M  V30 15 2 13 16
M  V30 16 1 13 17
M  V30 17 1 14 18
M  V30 18 1 14 19
M  V30 19 1 17 20
M  V30 20 1 17 21
M  V30 21 1 19 22
M  V30 22 1 20 23
M  V30 23 1 21 24
M  V30 24 2 22 25
M  V30 25 2 23 26
M  V30 26 1 24 27
M  V30 27 1 25 28
M  V30 28 1 27 29
M  V30 29 1 27 30
M  V30 30 1 28 31
M  V30 31 1 31 32
M  V30 32 3 32 33
M  V30 33 1 7 9
M  V30 34 1 12 15
M  V30 35 2 19 20
M  V30 36 1 25 26
M  V30 END BOND
M  V30 END CTAB
M  END
>  <Molecule ChEMBL ID>
CHEMBL201690

>  <Smiles>
CC(C)CCn1c(=O)c(C2=NS(=O)(=O)c3ccccc3N2)c(O)c2cc(OCC#N)ccc21

>  <Standard Value>
298

$$$$
CHEMBL201873
Actelion Java MolfileCreator 2.0

  0  0  0  0  0  0              0 V3000
M  V30 BEGIN CTAB
M  V30 COUNTS 31 35 0 0 0
M  V30 BEGIN ATOM
M  V30 1 S 7.7942 2.25 0.0 0
M  V30 2 O 8.5442 3.549 0.0 0
M  V30 3 O 7.0442 3.549 0.0 0
M  V30 4 N 6.4951 1.5 0.0 0
M  V30 5 C 9.0932 1.5 0.0 0
M  V30 6 C 6.4951 0.0 0.0 0
M  V30 7 C 9.0932 0.0 0.0 0
M  V30 8 C 10.3923 2.25 0.0 0
M  V30 9 N 7.7942 -0.75 0.0 0
M  V30 10 C 5.1961 -0.75 0.0 0
M  V30 11 C 10.3923 -0.75 0.0 0
M  V30 12 C 11.6913 1.5 0.0 0
M  V30 13 C 3.8971 0.0 0.0 0
M  V30 14 C 5.1961 -2.25 0.0 0
M  V30 15 C 11.6913 0.0 0.0 0
M  V30 16 O 3.8971 1.5 0.0 0
M  V30 17 N 2.598 -0.75 0.0 0
M  V30 18 O 6.4951 -3.0 0.0 0
M  V30 19 C 3.8971 -3.0 0.0 0
M  V30 20 C 2.598 -2.25 0.0 0
M  V30 21 C 1.299 0.0 0.0 0
M  V30 22 C 3.8971 -4.5 0.0 0
M  V30 23 C 1.299 -3.0 0.0 0
M  V30 24 C 0.0 -0.75 0.0 0
M  V30 25 C 2.598 -5.25 0.0 0
M  V30 26 C 1.299 -4.5 0.0 0
M  V30 27 N -1.3703 -0.1398 0.0 0
M  V30 28 C -0.1567 -2.2417 0.0 0
M  V30 29 C -2.374 -1.2546 0.0 0
M  V30 30 S -1.624 -2.5536 0.0 0
M  V30 31 C -3.8658 -1.0978 0.0 0
M  V30 END ATOM
M  V30 BEGIN BOND
M  V30 1 2 1 2
M  V30 2 2 1 3
M  V30 3 1 1 4
M  V30 4 1 1 5
M  V30 5 2 4 6
M  V30 6 2 5 7
M  V30 7 1 5 8
M  V30 8 1 6 9
M  V30 9 1 6 10
M  V30 10 1 7 11
M  V30 11 2 8 12
M  V30 12 1 10 13
M  V30 13 2 10 14
M  V30 14 2 11 15
M  V30 15 2 13 16
M  V30 16 1 13 17
M  V30 17 1 14 18
M  V30 18 1 14 19
M  V30 19 1 17 20
M  V30 20 1 17 21
M  V30 21 1 19 22
M  V30 22 1 20 23
M  V30 23 1 21 24
M  V30 24 2 22 25
M  V30 25 2 23 26
M  V30 26 1 24 27
M  V30 27 2 24 28
M  V30 28 2 27 29
M  V30 29 1 28 30
M  V30 30 1 29 31
M  V30 31 1 7 9
M  V30 32 1 12 15
M  V30 33 2 19 20
M  V30 34 1 25 26
M  V30 35 1 29 30
M  V30 END BOND
M  V30 END CTAB
M  END
>  <Molecule ChEMBL ID>
CHEMBL201873

>  <Smiles>
Cc1nc(Cn2c(=O)c(C3=NS(=O)(=O)c4ccccc4N3)c(O)c3ccccc32)cs1

>  <Standard Value>
304

$$$$
CHEMBL202514
Actelion Java MolfileCreator 2.0

  0  0  0  0  0  0              0 V3000
M  V30 BEGIN CTAB
M  V30 COUNTS 31 35 0 0 0
M  V30 BEGIN ATOM
M  V30 1 S 7.7942 2.25 0.0 0
M  V30 2 O 8.5442 3.549 0.0 0
M  V30 3 O 7.0442 3.549 0.0 0
M  V30 4 N 6.4951 1.5 0.0 0
M  V30 5 C 9.0932 1.5 0.0 0
M  V30 6 C 6.4951 0.0 0.0 0
M  V30 7 C 9.0932 0.0 0.0 0
M  V30 8 C 10.3923 2.25 0.0 0
M  V30 9 N 7.7942 -0.75 0.0 0
M  V30 10 C 5.1961 -0.75 0.0 0
M  V30 11 C 10.3923 -0.75 0.0 0
M  V30 12 C 11.6913 1.5 0.0 0
M  V30 13 C 3.8971 0.0 0.0 0
M  V30 14 C 5.1961 -2.25 0.0 0
M  V30 15 C 11.6913 0.0 0.0 0
M  V30 16 O 3.8971 1.5 0.0 0
M  V30 17 N 2.598 -0.75 0.0 0
M  V30 18 O 6.4951 -3.0 0.0 0
M  V30 19 C 3.8971 -3.0 0.0 0
M  V30 20 C 2.598 -2.25 0.0 0
M  V30 21 C 1.299 0.0 0.0 0
M  V30 22 C 3.8971 -4.5 0.0 0
M  V30 23 C 1.299 -3.0 0.0 0
M  V30 24 C 0.0 -0.75 0.0 0
M  V30 25 C 2.598 -5.25 0.0 0
M  V30 26 C 1.299 -4.5 0.0 0
M  V30 27 C -1.299 0.0 0.0 0
M  V30 28 C 0.0 -2.25 0.0 0
M  V30 29 N -2.598 -0.75 0.0 0
M  V30 30 C -1.299 -3.0 0.0 0
M  V30 31 C -2.598 -2.25 0.0 0
M  V30 END ATOM
M  V30 BEGIN BOND
M  V30 1 2 1 2
M  V30 2 2 1 3
M  V30 3 1 1 4
M  V30 4 1 1 5
M  V30 5 2 4 6
M  V30 6 2 5 7
M  V30 7 1 5 8
M  V30 8 1 6 9
M  V30 9 1 6 10
M  V30 10 1 7 11
M  V30 11 2 8 12
M  V30 12 1 10 13
M  V30 13 2 10 14
M  V30 14 2 11 15
M  V30 15 2 13 16
M  V30 16 1 13 17
M  V30 17 1 14 18
M  V30 18 1 14 19
M  V30 19 1 17 20
M  V30 20 1 17 21
M  V30 21 1 19 22
M  V30 22 1 20 23
M  V30 23 1 21 24
M  V30 24 2 22 25
M  V30 25 2 23 26
M  V30 26 2 24 27
M  V30 27 1 24 28
M  V30 28 1 27 29
M  V30 29 2 28 30
M  V30 30 2 29 31
M  V30 31 1 7 9
M  V30 32 1 12 15
M  V30 33 2 19 20
M  V30 34 1 25 26
M  V30 35 1 30 31
M  V30 END BOND
M  V30 END CTAB
M  END
>  <Molecule ChEMBL ID>
CHEMBL202514

>  <Smiles>
O=c1c(C2=NS(=O)(=O)c3ccccc3N2)c(O)c2ccccc2n1Cc1cccnc1

>  <Standard Value>
316

$$$$
CHEMBL202315
Actelion Java MolfileCreator 2.0

  0  0  0  0  0  0              0 V3000
M  V30 BEGIN CTAB
M  V30 COUNTS 32 35 0 0 0
M  V30 BEGIN ATOM
M  V30 1 S 10.3923 2.25 0.0 0
M  V30 2 O 11.1423 3.549 0.0 0
M  V30 3 O 9.6423 3.549 0.0 0
M  V30 4 N 9.0932 1.5 0.0 0
M  V30 5 C 11.6913 1.5 0.0 0
M  V30 6 C 9.0932 0.0 0.0 0
M  V30 7 C 11.6913 0.0 0.0 0
M  V30 8 C 12.9903 2.25 0.0 0
M  V30 9 N 10.3923 -0.75 0.0 0
M  V30 10 C 7.7942 -0.75 0.0 0
M  V30 11 C 12.9903 -0.75 0.0 0
M  V30 12 C 14.2894 1.5 0.0 0
M  V30 13 C 6.4951 0.0 0.0 0
M  V30 14 C 7.7942 -2.25 0.0 0
M  V30 15 C 14.2894 0.0 0.0 0
M  V30 16 O 6.4951 1.5 0.0 0
M  V30 17 N 5.1961 -0.75 0.0 0
M  V30 18 O 9.0932 -3.0 0.0 0
M  V30 19 C 6.4951 -3.0 0.0 0
M  V30 20 C 5.1961 -2.25 0.0 0
M  V30 21 C 3.8971 0.0 0.0 0
M  V30 22 C 6.4951 -4.5 0.0 0
M  V30 23 C 3.8971 -3.0 0.0 0
M  V30 24 C 2.598 -0.75 0.0 0
M  V30 25 N 7.7942 -5.25 0.0 0 CHG=1
M  V30 26 C 5.1961 -5.25 0.0 0
M  V30 27 C 3.8971 -4.5 0.0 0
M  V30 28 C 1.299 0.0 0.0 0
M  V30 29 O 7.7942 -6.75 0.0 0
M  V30 30 O 9.0932 -4.5 0.0 0 CHG=-1
M  V30 31 C 1.299 1.5 0.0 0
M  V30 32 C 0.0 -0.75 0.0 0
M  V30 END ATOM
M  V30 BEGIN BOND
M  V30 1 2 1 2
M  V30 2 2 1 3
M  V30 3 1 1 4
M  V30 4 1 1 5
M  V30 5 2 4 6
M  V30 6 2 5 7
M  V30 7 1 5 8
M  V30 8 1 6 9
M  V30 9 1 6 10
M  V30 10 1 7 11
M  V30 11 2 8 12
M  V30 12 1 10 13
M  V30 13 2 10 14
M  V30 14 2 11 15
M  V30 15 2 13 16
M  V30 16 1 13 17
M  V30 17 1 14 18
M  V30 18 1 14 19
M  V30 19 1 17 20
M  V30 20 1 17 21
M  V30 21 1 19 22
M  V30 22 1 20 23
M  V30 23 1 21 24
M  V30 24 1 22 25
M  V30 25 2 22 26
M  V30 26 2 23 27
M  V30 27 1 24 28
M  V30 28 2 25 29
M  V30 29 1 25 30
M  V30 30 1 28 31
M  V30 31 1 28 32
M  V30 32 1 7 9
M  V30 33 1 12 15
M  V30 34 2 19 20
M  V30 35 1 26 27
M  V30 END BOND
M  V30 END CTAB
M  END
>  <Molecule ChEMBL ID>
CHEMBL202315

>  <Smiles>
CC(C)CCn1c(=O)c(C2=NS(=O)(=O)c3ccccc3N2)c(O)c2c([N+](=O)[O-])cccc21

>  <Standard Value>
338

$$$$
CHEMBL202513
Actelion Java MolfileCreator 2.0

  0  0  0  0  0  0              0 V3000
M  V30 BEGIN CTAB
M  V30 COUNTS 30 33 0 0 0
M  V30 BEGIN ATOM
M  V30 1 S 10.3923 2.25 0.0 0
M  V30 2 O 11.1423 3.549 0.0 0
M  V30 3 O 9.6423 3.549 0.0 0
M  V30 4 N 9.0932 1.5 0.0 0
M  V30 5 C 11.6913 1.5 0.0 0
M  V30 6 C 9.0932 0.0 0.0 0
M  V30 7 C 11.6913 0.0 0.0 0
M  V30 8 C 12.9903 2.25 0.0 0
M  V30 9 N 10.3923 -0.75 0.0 0
M  V30 10 C 7.7942 -0.75 0.0 0
M  V30 11 C 12.9903 -0.75 0.0 0
M  V30 12 C 14.2894 1.5 0.0 0
M  V30 13 C 6.4951 0.0 0.0 0
M  V30 14 C 7.7942 -2.25 0.0 0
M  V30 15 C 14.2894 0.0 0.0 0
M  V30 16 O 6.4951 1.5 0.0 0
M  V30 17 N 5.1961 -0.75 0.0 0
M  V30 18 O 9.0932 -3.0 0.0 0
M  V30 19 C 6.4951 -3.0 0.0 0
M  V30 20 C 5.1961 -2.25 0.0 0
M  V30 21 C 3.8971 0.0 0.0 0
M  V30 22 C 6.4951 -4.5 0.0 0
M  V30 23 C 3.8971 -3.0 0.0 0
M  V30 24 C 2.598 -0.75 0.0 0
M  V30 25 F 7.7942 -5.25 0.0 0
M  V30 26 C 5.1961 -5.25 0.0 0
M  V30 27 C 3.8971 -4.5 0.0 0
M  V30 28 C 1.299 0.0 0.0 0
M  V30 29 C 1.299 1.5 0.0 0
M  V30 30 C 0.0 -0.75 0.0 0
M  V30 END ATOM
M  V30 BEGIN BOND
M  V30 1 2 1 2
M  V30 2 2 1 3
M  V30 3 1 1 4
M  V30 4 1 1 5
M  V30 5 2 4 6
M  V30 6 2 5 7
M  V30 7 1 5 8
M  V30 8 1 6 9
M  V30 9 1 6 10
M  V30 10 1 7 11
M  V30 11 2 8 12
M  V30 12 1 10 13
M  V30 13 2 10 14
M  V30 14 2 11 15
M  V30 15 2 13 16
M  V30 16 1 13 17
M  V30 17 1 14 18
M  V30 18 1 14 19
M  V30 19 1 17 20
M  V30 20 1 17 21
M  V30 21 1 19 22
M  V30 22 1 20 23
M  V30 23 1 21 24
M  V30 24 1 22 25
M  V30 25 2 22 26
M  V30 26 2 23 27
M  V30 27 1 24 28
M  V30 28 1 28 29
M  V30 29 1 28 30
M  V30 30 1 7 9
M  V30 31 1 12 15
M  V30 32 2 19 20
M  V30 33 1 26 27
M  V30 END BOND
M  V30 END CTAB
M  END
>  <Molecule ChEMBL ID>
CHEMBL202513

>  <Smiles>
CC(C)CCn1c(=O)c(C2=NS(=O)(=O)c3ccccc3N2)c(O)c2c(F)cccc21

>  <Standard Value>
340

$$$$
CHEMBL202539
Actelion Java MolfileCreator 2.0

  0  0  0  0  0  0              0 V3000
M  V30 BEGIN CTAB
M  V30 COUNTS 31 35 0 0 0
M  V30 BEGIN ATOM
M  V30 1 S 7.7942 2.25 0.0 0
M  V30 2 O 8.5442 3.549 0.0 0
M  V30 3 O 7.0442 3.549 0.0 0
M  V30 4 N 6.4951 1.5 0.0 0
M  V30 5 C 9.0932 1.5 0.0 0
M  V30 6 C 6.4951 0.0 0.0 0
M  V30 7 C 9.0932 0.0 0.0 0
M  V30 8 C 10.3923 2.25 0.0 0
M  V30 9 N 7.7942 -0.75 0.0 0
M  V30 10 C 5.1961 -0.75 0.0 0
M  V30 11 C 10.3923 -0.75 0.0 0
M  V30 12 C 11.6913 1.5 0.0 0
M  V30 13 C 3.8971 0.0 0.0 0
M  V30 14 C 5.1961 -2.25 0.0 0
M  V30 15 C 11.6913 0.0 0.0 0
M  V30 16 O 3.8971 1.5 0.0 0
M  V30 17 N 2.598 -0.75 0.0 0
M  V30 18 O 6.4951 -3.0 0.0 0
M  V30 19 C 3.8971 -3.0 0.0 0
M  V30 20 C 2.598 -2.25 0.0 0
M  V30 21 C 1.299 0.0 0.0 0
M  V30 22 C 3.8971 -4.5 0.0 0
M  V30 23 C 1.299 -3.0 0.0 0
M  V30 24 C 0.0 -0.75 0.0 0
M  V30 25 C 2.598 -5.25 0.0 0
M  V30 26 C 1.299 -4.5 0.0 0
M  V30 27 C -1.299 0.0 0.0 0
M  V30 28 C 0.0 -2.25 0.0 0
M  V30 29 C -2.598 -0.75 0.0 0
M  V30 30 C -1.299 -3.0 0.0 0
M  V30 31 C -2.598 -2.25 0.0 0
M  V30 END ATOM
M  V30 BEGIN BOND
M  V30 1 2 1 2
M  V30 2 2 1 3
M  V30 3 1 1 4
M  V30 4 1 1 5
M  V30 5 2 4 6
M  V30 6 2 5 7
M  V30 7 1 5 8
M  V30 8 1 6 9
M  V30 9 1 6 10
M  V30 10 1 7 11
M  V30 11 2 8 12
M  V30 12 1 10 13
M  V30 13 2 10 14
M  V30 14 2 11 15
M  V30 15 2 13 16
M  V30 16 1 13 17
M  V30 17 1 14 18
M  V30 18 1 14 19
M  V30 19 1 17 20
M  V30 20 1 17 21
M  V30 21 1 19 22
M  V30 22 1 20 23
M  V30 23 1 21 24
M  V30 24 2 22 25
M  V30 25 2 23 26
M  V30 26 1 24 27
M  V30 27 1 24 28
M  V30 28 1 27 29
M  V30 29 1 28 30
M  V30 30 1 29 31
M  V30 31 1 7 9
M  V30 32 1 12 15
M  V30 33 2 19 20
M  V30 34 1 25 26
M  V30 35 1 30 31
M  V30 END BOND
M  V30 END CTAB
M  END
>  <Molecule ChEMBL ID>
CHEMBL202539

>  <Smiles>
O=c1c(C2=NS(=O)(=O)c3ccccc3N2)c(O)c2ccccc2n1CC1CCCCC1

>  <Standard Value>
367

$$$$
CHEMBL202595
Actelion Java MolfileCreator 2.0

  0  0  0  0  0  0              0 V3000
M  V30 BEGIN CTAB
M  V30 COUNTS 34 37 0 0 0
M  V30 BEGIN ATOM
M  V30 1 S 9.0932 -9.0 0.0 0
M  V30 2 O 9.8432 -10.299 0.0 0
M  V30 3 O 10.5932 -8.9999 0.0 0
M  V30 4 N 9.0932 -7.5 0.0 0
M  V30 5 C 7.7942 -9.75 0.0 0
M  V30 6 C 7.7942 -6.75 0.0 0
M  V30 7 C 6.4951 -9.0 0.0 0
M  V30 8 C 7.7942 -11.25 0.0 0
M  V30 9 N 6.4951 -7.5 0.0 0
M  V30 10 C 7.7942 -5.25 0.0 0
M  V30 11 C 5.1961 -9.75 0.0 0
M  V30 12 C 6.4951 -12.0 0.0 0
M  V30 13 C 9.0932 -4.5 0.0 0
M  V30 14 C 6.4951 -4.5 0.0 0
M  V30 15 C 5.1961 -11.25 0.0 0
M  V30 16 O 10.3923 -5.25 0.0 0
M  V30 17 N 9.0932 -3.0 0.0 0
M  V30 18 O 5.1961 -5.25 0.0 0
M  V30 19 C 6.4951 -3.0 0.0 0
M  V30 20 C 7.7942 -2.25 0.0 0
M  V30 21 C 10.3923 -2.25 0.0 0
M  V30 22 C 5.1961 -2.25 0.0 0
M  V30 23 C 7.7942 -0.75 0.0 0
M  V30 24 C 11.6913 -3.0 0.0 0
M  V30 25 C 5.1961 -0.75 0.0 0
M  V30 26 C 6.4951 0.0 0.0 0
M  V30 27 C 12.9903 -2.25 0.0 0
M  V30 28 N 3.8971 0.0 0.0 0
M  V30 29 C 12.2403 -0.9509 0.0 0
M  V30 30 C 14.2894 -1.5 0.0 0
M  V30 31 C 13.7403 -3.549 0.0 0
M  V30 32 C 2.598 -0.75 0.0 0
M  V30 33 C 1.299 0.0 0.0 0
M  V30 34 O 0.0 -0.75 0.0 0
M  V30 END ATOM
M  V30 BEGIN BOND
M  V30 1 2 1 2
M  V30 2 2 1 3
M  V30 3 1 1 4
M  V30 4 1 1 5
M  V30 5 2 4 6
M  V30 6 2 5 7
M  V30 7 1 5 8
M  V30 8 1 6 9
M  V30 9 1 6 10
M  V30 10 1 7 11
M  V30 11 2 8 12
M  V30 12 1 10 13
M  V30 13 2 10 14
M  V30 14 2 11 15
M  V30 15 2 13 16
M  V30 16 1 13 17
M  V30 17 1 14 18
M  V30 18 1 14 19
M  V30 19 1 17 20
M  V30 20 1 17 21
M  V30 21 1 19 22
M  V30 22 1 20 23
M  V30 23 1 21 24
M  V30 24 2 22 25
M  V30 25 2 23 26
M  V30 26 1 24 27
M  V30 27 1 25 28
M  V30 28 1 27 29
M  V30 29 1 27 30
M  V30 30 1 27 31
M  V30 31 1 28 32
M  V30 32 1 32 33
M  V30 33 1 33 34
M  V30 34 1 7 9
M  V30 35 1 12 15
M  V30 36 2 19 20
M  V30 37 1 25 26
M  V30 END BOND
M  V30 END CTAB
M  END
>  <Molecule ChEMBL ID>
CHEMBL202595

>  <Smiles>
CC(C)(C)CCn1c(=O)c(C2=NS(=O)(=O)c3ccccc3N2)c(O)c2cc(NCCO)ccc21

>  <Standard Value>
370

$$$$
CHEMBL202513
Actelion Java MolfileCreator 2.0

  0  0  0  0  0  0              0 V3000
M  V30 BEGIN CTAB
M  V30 COUNTS 30 33 0 0 0
M  V30 BEGIN ATOM
M  V30 1 S 10.3923 2.25 0.0 0
M  V30 2 O 11.1423 3.549 0.0 0
M  V30 3 O 9.6423 3.549 0.0 0
M  V30 4 N 9.0932 1.5 0.0 0
M  V30 5 C 11.6913 1.5 0.0 0
M  V30 6 C 9.0932 0.0 0.0 0
M  V30 7 C 11.6913 0.0 0.0 0
M  V30 8 C 12.9903 2.25 0.0 0
M  V30 9 N 10.3923 -0.75 0.0 0
M  V30 10 C 7.7942 -0.75 0.0 0
M  V30 11 C 12.9903 -0.75 0.0 0
M  V30 12 C 14.2894 1.5 0.0 0
M  V30 13 C 6.4951 0.0 0.0 0
M  V30 14 C 7.7942 -2.25 0.0 0
M  V30 15 C 14.2894 0.0 0.0 0
M  V30 16 O 6.4951 1.5 0.0 0
M  V30 17 N 5.1961 -0.75 0.0 0
M  V30 18 O 9.0932 -3.0 0.0 0
M  V30 19 C 6.4951 -3.0 0.0 0
M  V30 20 C 5.1961 -2.25 0.0 0
M  V30 21 C 3.8971 0.0 0.0 0
M  V30 22 C 6.4951 -4.5 0.0 0
M  V30 23 C 3.8971 -3.0 0.0 0
M  V30 24 C 2.598 -0.75 0.0 0
M  V30 25 F 7.7942 -5.25 0.0 0
M  V30 26 C 5.1961 -5.25 0.0 0
M  V30 27 C 3.8971 -4.5 0.0 0
M  V30 28 C 1.299 0.0 0.0 0
M  V30 29 C 1.299 1.5 0.0 0
M  V30 30 C 0.0 -0.75 0.0 0
M  V30 END ATOM
M  V30 BEGIN BOND
M  V30 1 2 1 2
M  V30 2 2 1 3
M  V30 3 1 1 4
M  V30 4 1 1 5
M  V30 5 2 4 6
M  V30 6 2 5 7
M  V30 7 1 5 8
M  V30 8 1 6 9
M  V30 9 1 6 10
M  V30 10 1 7 11
M  V30 11 2 8 12
M  V30 12 1 10 13
M  V30 13 2 10 14
M  V30 14 2 11 15
M  V30 15 2 13 16
M  V30 16 1 13 17
M  V30 17 1 14 18
M  V30 18 1 14 19
M  V30 19 1 17 20
M  V30 20 1 17 21
M  V30 21 1 19 22
M  V30 22 1 20 23
M  V30 23 1 21 24
M  V30 24 1 22 25
M  V30 25 2 22 26
M  V30 26 2 23 27
M  V30 27 1 24 28
M  V30 28 1 28 29
M  V30 29 1 28 30
M  V30 30 1 7 9
M  V30 31 1 12 15
M  V30 32 2 19 20
M  V30 33 1 26 27
M  V30 END BOND
M  V30 END CTAB
M  END
>  <Molecule ChEMBL ID>
CHEMBL202513

>  <Smiles>
CC(C)CCn1c(=O)c(C2=NS(=O)(=O)c3ccccc3N2)c(O)c2c(F)cccc21

>  <Standard Value>
381

$$$$
CHEMBL370203
Actelion Java MolfileCreator 2.0

  0  0  0  0  0  0              0 V3000
M  V30 BEGIN CTAB
M  V30 COUNTS 30 34 0 0 0
M  V30 BEGIN ATOM
M  V30 1 S 7.7942 2.25 0.0 0
M  V30 2 O 8.5442 3.549 0.0 0
M  V30 3 O 7.0442 3.549 0.0 0
M  V30 4 N 6.4951 1.5 0.0 0
M  V30 5 C 9.0932 1.5 0.0 0
M  V30 6 C 6.4951 0.0 0.0 0
M  V30 7 C 9.0932 0.0 0.0 0
M  V30 8 C 10.3923 2.25 0.0 0
M  V30 9 N 7.7942 -0.75 0.0 0
M  V30 10 C 5.1961 -0.75 0.0 0
M  V30 11 C 10.3923 -0.75 0.0 0
M  V30 12 C 11.6913 1.5 0.0 0
M  V30 13 C 3.8971 0.0 0.0 0
M  V30 14 C 5.1961 -2.25 0.0 0
M  V30 15 C 11.6913 0.0 0.0 0
M  V30 16 O 3.8971 1.5 0.0 0
M  V30 17 N 2.598 -0.75 0.0 0
M  V30 18 O 6.4951 -3.0 0.0 0
M  V30 19 C 3.8971 -3.0 0.0 0
M  V30 20 C 2.598 -2.25 0.0 0
M  V30 21 C 1.299 0.0 0.0 0
M  V30 22 C 3.8971 -4.5 0.0 0
M  V30 23 C 1.299 -3.0 0.0 0
M  V30 24 C 0.0 -0.75 0.0 0
M  V30 25 C 2.598 -5.25 0.0 0
M  V30 26 C 1.299 -4.5 0.0 0
M  V30 27 C -1.3703 -0.1398 0.0 0
M  V30 28 C -0.1567 -2.2417 0.0 0
M  V30 29 O -2.374 -1.2546 0.0 0
M  V30 30 C -1.624 -2.5536 0.0 0
M  V30 END ATOM
M  V30 BEGIN BOND
M  V30 1 2 1 2
M  V30 2 2 1 3
M  V30 3 1 1 4
M  V30 4 1 1 5
M  V30 5 2 4 6
M  V30 6 2 5 7
M  V30 7 1 5 8
M  V30 8 1 6 9
M  V30 9 1 6 10
M  V30 10 1 7 11
M  V30 11 2 8 12
M  V30 12 1 10 13
M  V30 13 2 10 14
M  V30 14 2 11 15
M  V30 15 2 13 16
M  V30 16 1 13 17
M  V30 17 1 14 18
M  V30 18 1 14 19
M  V30 19 1 17 20
M  V30 20 1 17 21
M  V30 21 1 19 22
M  V30 22 1 20 23
M  V30 23 1 21 24
M  V30 24 2 22 25
M  V30 25 2 23 26
M  V30 26 2 24 27
M  V30 27 1 24 28
M  V30 28 1 27 29
M  V30 29 2 28 30
M  V30 30 1 7 9
M  V30 31 1 12 15
M  V30 32 2 19 20
M  V30 33 1 25 26
M  V30 34 1 29 30
M  V30 END BOND
M  V30 END CTAB
M  END
>  <Molecule ChEMBL ID>
CHEMBL370203

>  <Smiles>
O=c1c(C2=NS(=O)(=O)c3ccccc3N2)c(O)c2ccccc2n1Cc1ccoc1

>  <Standard Value>
389

$$$$
CHEMBL176058
Actelion Java MolfileCreator 2.0

  0  0  0  0  0  0              0 V3000
M  V30 BEGIN CTAB
M  V30 COUNTS 29 32 0 0 0
M  V30 BEGIN ATOM
M  V30 1 S 10.3923 2.25 0.0 0
M  V30 2 O 11.1423 3.549 0.0 0
M  V30 3 O 9.6423 3.549 0.0 0
M  V30 4 N 9.0932 1.5 0.0 0
M  V30 5 C 11.6913 1.5 0.0 0
M  V30 6 C 9.0932 0.0 0.0 0
M  V30 7 C 11.6913 0.0 0.0 0
M  V30 8 C 12.9903 2.25 0.0 0
M  V30 9 N 10.3923 -0.75 0.0 0
M  V30 10 C 7.7942 -0.75 0.0 0
M  V30 11 C 12.9903 -0.75 0.0 0
M  V30 12 C 14.2894 1.5 0.0 0
M  V30 13 C 6.4951 0.0 0.0 0
M  V30 14 C 7.7942 -2.25 0.0 0
M  V30 15 C 14.2894 0.0 0.0 0
M  V30 16 O 6.4951 1.5 0.0 0
M  V30 17 N 5.1961 -0.75 0.0 0
M  V30 18 O 9.0932 -3.0 0.0 0
M  V30 19 C 6.4951 -3.0 0.0 0
M  V30 20 C 5.1961 -2.25 0.0 0
M  V30 21 C 3.8971 0.0 0.0 0
M  V30 22 C 6.4951 -4.5 0.0 0
M  V30 23 C 3.8971 -3.0 0.0 0
M  V30 24 C 2.598 -0.75 0.0 0
M  V30 25 C 5.1961 -5.25 0.0 0
M  V30 26 C 3.8971 -4.5 0.0 0
M  V30 27 C 1.299 0.0 0.0 0
M  V30 28 C 1.299 1.5 0.0 0
M  V30 29 C 0.0 -0.75 0.0 0
M  V30 END ATOM
M  V30 BEGIN BOND
M  V30 1 2 1 2
M  V30 2 2 1 3
M  V30 3 1 1 4
M  V30 4 1 1 5
M  V30 5 2 4 6
M  V30 6 2 5 7
M  V30 7 1 5 8
M  V30 8 1 6 9
M  V30 9 1 6 10
M  V30 10 1 7 11
M  V30 11 2 8 12
M  V30 12 1 10 13
M  V30 13 2 10 14
M  V30 14 2 11 15
M  V30 15 2 13 16
M  V30 16 1 13 17
M  V30 17 1 14 18
M  V30 18 1 14 19
M  V30 19 1 17 20
M  V30 20 1 17 21
M  V30 21 1 19 22
M  V30 22 1 20 23
M  V30 23 1 21 24
M  V30 24 2 22 25
M  V30 25 2 23 26
M  V30 26 1 24 27
M  V30 27 1 27 28
M  V30 28 1 27 29
M  V30 29 1 7 9
M  V30 30 1 12 15
M  V30 31 2 19 20
M  V30 32 1 25 26
M  V30 END BOND
M  V30 END CTAB
M  END
>  <Molecule ChEMBL ID>
CHEMBL176058

>  <Smiles>
CC(C)CCn1c(=O)c(C2=NS(=O)(=O)c3ccccc3N2)c(O)c2ccccc21

>  <Standard Value>
417

$$$$
CHEMBL180974
Actelion Java MolfileCreator 2.0

  0  0  0  0  0  0              0 V3000
M  V30 BEGIN CTAB
M  V30 COUNTS 28 31 0 0 0
M  V30 BEGIN ATOM
M  V30 1 S 10.3923 2.25 0.0 0
M  V30 2 O 11.1423 3.549 0.0 0
M  V30 3 O 9.6423 3.549 0.0 0
M  V30 4 N 9.0932 1.5 0.0 0
M  V30 5 C 11.6913 1.5 0.0 0
M  V30 6 C 9.0932 0.0 0.0 0
M  V30 7 C 11.6913 0.0 0.0 0
M  V30 8 C 12.9903 2.25 0.0 0
M  V30 9 N 10.3923 -0.75 0.0 0
M  V30 10 C 7.7942 -0.75 0.0 0
M  V30 11 C 12.9903 -0.75 0.0 0
M  V30 12 C 14.2894 1.5 0.0 0
M  V30 13 C 6.4951 0.0 0.0 0
M  V30 14 C 7.7942 -2.25 0.0 0
M  V30 15 C 14.2894 0.0 0.0 0
M  V30 16 O 6.4951 1.5 0.0 0
M  V30 17 N 5.1961 -0.75 0.0 0
M  V30 18 O 9.0932 -3.0 0.0 0
M  V30 19 C 6.4951 -3.0 0.0 0
M  V30 20 C 5.1961 -2.25 0.0 0
M  V30 21 C 3.8971 0.0 0.0 0
M  V30 22 C 6.4951 -4.5 0.0 0
M  V30 23 C 3.8971 -3.0 0.0 0
M  V30 24 C 2.598 -0.75 0.0 0
M  V30 25 C 5.1961 -5.25 0.0 0
M  V30 26 C 3.8971 -4.5 0.0 0
M  V30 27 C 1.299 0.0 0.0 0
M  V30 28 C 0.0 -0.75 0.0 0
M  V30 END ATOM
M  V30 BEGIN BOND
M  V30 1 2 1 2
M  V30 2 2 1 3
M  V30 3 1 1 4
M  V30 4 1 1 5
M  V30 5 2 4 6
M  V30 6 2 5 7
M  V30 7 1 5 8
M  V30 8 1 6 9
M  V30 9 1 6 10
M  V30 10 1 7 11
M  V30 11 2 8 12
M  V30 12 1 10 13
M  V30 13 2 10 14
M  V30 14 2 11 15
M  V30 15 2 13 16
M  V30 16 1 13 17
M  V30 17 1 14 18
M  V30 18 1 14 19
M  V30 19 1 17 20
M  V30 20 1 17 21
M  V30 21 1 19 22
M  V30 22 1 20 23
M  V30 23 1 21 24
M  V30 24 2 22 25
M  V30 25 2 23 26
M  V30 26 1 24 27
M  V30 27 1 27 28
M  V30 28 1 7 9
M  V30 29 1 12 15
M  V30 30 2 19 20
M  V30 31 1 25 26
M  V30 END BOND
M  V30 END CTAB
M  END
>  <Molecule ChEMBL ID>
CHEMBL180974

>  <Smiles>
CCCCn1c(=O)c(C2=NS(=O)(=O)c3ccccc3N2)c(O)c2ccccc21

>  <Standard Value>
444

$$$$
CHEMBL378164
Actelion Java MolfileCreator 2.0

  0  0  0  0  0  0              0 V3000
M  V30 BEGIN CTAB
M  V30 COUNTS 32 35 0 0 0
M  V30 BEGIN ATOM
M  V30 1 S 10.3923 2.25 0.0 0
M  V30 2 O 11.1423 3.549 0.0 0
M  V30 3 O 9.6423 3.549 0.0 0
M  V30 4 N 9.0932 1.5 0.0 0
M  V30 5 C 11.6913 1.5 0.0 0
M  V30 6 C 9.0932 0.0 0.0 0
M  V30 7 C 11.6913 0.0 0.0 0
M  V30 8 C 12.9903 2.25 0.0 0
M  V30 9 N 10.3923 -0.75 0.0 0
M  V30 10 C 7.7942 -0.75 0.0 0
M  V30 11 C 12.9903 -0.75 0.0 0
M  V30 12 C 14.2894 1.5 0.0 0
M  V30 13 C 6.4951 0.0 0.0 0
M  V30 14 C 7.7942 -2.25 0.0 0
M  V30 15 C 14.2894 0.0 0.0 0
M  V30 16 O 6.4951 1.5 0.0 0
M  V30 17 N 5.1961 -0.75 0.0 0
M  V30 18 O 9.0932 -3.0 0.0 0
M  V30 19 C 6.4951 -3.0 0.0 0
M  V30 20 C 5.1961 -2.25 0.0 0
M  V30 21 C 3.8971 0.0 0.0 0
M  V30 22 C 6.4951 -4.5 0.0 0
M  V30 23 C 3.8971 -3.0 0.0 0
M  V30 24 C 2.598 -0.75 0.0 0
M  V30 25 C 5.1961 -5.25 0.0 0
M  V30 26 C 3.8971 -4.5 0.0 0
M  V30 27 C 1.299 0.0 0.0 0
M  V30 28 N 5.1961 -6.75 0.0 0 CHG=1
M  V30 29 C 1.299 1.5 0.0 0
M  V30 30 C 0.0 -0.75 0.0 0
M  V30 31 O 3.8971 -7.5 0.0 0
M  V30 32 O 6.4951 -7.5 0.0 0 CHG=-1
M  V30 END ATOM
M  V30 BEGIN BOND
M  V30 1 2 1 2
M  V30 2 2 1 3
M  V30 3 1 1 4
M  V30 4 1 1 5
M  V30 5 2 4 6
M  V30 6 2 5 7
M  V30 7 1 5 8
M  V30 8 1 6 9
M  V30 9 1 6 10
M  V30 10 1 7 11
M  V30 11 2 8 12
M  V30 12 1 10 13
M  V30 13 2 10 14
M  V30 14 2 11 15
M  V30 15 2 13 16
M  V30 16 1 13 17
M  V30 17 1 14 18
M  V30 18 1 14 19
M  V30 19 1 17 20
M  V30 20 1 17 21
M  V30 21 1 19 22
M  V30 22 1 20 23
M  V30 23 1 21 24
M  V30 24 2 22 25
M  V30 25 2 23 26
M  V30 26 1 24 27
M  V30 27 1 25 28
M  V30 28 1 27 29
M  V30 29 1 27 30
M  V30 30 2 28 31
M  V30 31 1 28 32
M  V30 32 1 7 9
M  V30 33 1 12 15
M  V30 34 2 19 20
M  V30 35 1 25 26
M  V30 END BOND
M  V30 END CTAB
M  END
>  <Molecule ChEMBL ID>
CHEMBL378164

>  <Smiles>
CC(C)CCn1c(=O)c(C2=NS(=O)(=O)c3ccccc3N2)c(O)c2cc([N+](=O)[O-])ccc21

>  <Standard Value>
455

$$$$
CHEMBL381310
Actelion Java MolfileCreator 2.0

  0  0  0  0  0  0              0 V3000
M  V30 BEGIN CTAB
M  V30 COUNTS 30 34 0 0 0
M  V30 BEGIN ATOM
M  V30 1 S 7.7942 2.25 0.0 0
M  V30 2 O 8.5442 3.549 0.0 0
M  V30 3 O 7.0442 3.549 0.0 0
M  V30 4 N 6.4951 1.5 0.0 0
M  V30 5 C 9.0932 1.5 0.0 0
M  V30 6 C 6.4951 0.0 0.0 0
M  V30 7 C 9.0932 0.0 0.0 0
M  V30 8 C 10.3923 2.25 0.0 0
M  V30 9 N 7.7942 -0.75 0.0 0
M  V30 10 C 5.1961 -0.75 0.0 0
M  V30 11 C 10.3923 -0.75 0.0 0
M  V30 12 C 11.6913 1.5 0.0 0
M  V30 13 C 3.8971 0.0 0.0 0
M  V30 14 C 5.1961 -2.25 0.0 0
M  V30 15 C 11.6913 0.0 0.0 0
M  V30 16 O 3.8971 1.5 0.0 0
M  V30 17 N 2.598 -0.75 0.0 0
M  V30 18 O 6.4951 -3.0 0.0 0
M  V30 19 C 3.8971 -3.0 0.0 0
M  V30 20 C 2.598 -2.25 0.0 0
M  V30 21 C 1.299 0.0 0.0 0
M  V30 22 C 3.8971 -4.5 0.0 0
M  V30 23 C 1.299 -3.0 0.0 0
M  V30 24 C 0.0 -0.75 0.0 0 CFG=2
M  V30 25 C 2.598 -5.25 0.0 0
M  V30 26 C 1.299 -4.5 0.0 0
M  V30 27 C -1.3703 -0.1398 0.0 0
M  V30 28 C -0.1567 -2.2417 0.0 0
M  V30 29 O -2.374 -1.2546 0.0 0
M  V30 30 C -1.624 -2.5536 0.0 0
M  V30 END ATOM
M  V30 BEGIN BOND
M  V30 1 2 1 2
M  V30 2 2 1 3
M  V30 3 1 1 4
M  V30 4 1 1 5
M  V30 5 2 4 6
M  V30 6 2 5 7
M  V30 7 1 5 8
M  V30 8 1 6 9
M  V30 9 1 6 10
M  V30 10 1 7 11
M  V30 11 2 8 12
M  V30 12 1 10 13
M  V30 13 2 10 14
M  V30 14 2 11 15
M  V30 15 2 13 16
M  V30 16 1 13 17
M  V30 17 1 14 18
M  V30 18 1 14 19
M  V30 19 1 17 20
M  V30 20 1 17 21
M  V30 21 1 19 22
M  V30 22 1 20 23
M  V30 23 1 24 21 CFG=1
M  V30 24 2 22 25
M  V30 25 2 23 26
M  V30 26 1 24 27
M  V30 27 1 24 28
M  V30 28 1 27 29
M  V30 29 1 28 30
M  V30 30 1 7 9
M  V30 31 1 12 15
M  V30 32 2 19 20
M  V30 33 1 25 26
M  V30 34 1 29 30
M  V30 END BOND
M  V30 BEGIN COLLECTION
M  V30 MDLV30/STERAC1 ATOMS=(1 24)
M  V30 END COLLECTION
M  V30 END CTAB
M  END
>  <Molecule ChEMBL ID>
CHEMBL381310

>  <Smiles>
O=c1c(C2=NS(=O)(=O)c3ccccc3N2)c(O)c2ccccc2n1CC1CCOC1

>  <Standard Value>
484

$$$$
CHEMBL380686
Actelion Java MolfileCreator 2.0

  0  0  0  0  0  0              0 V3000
M  V30 BEGIN CTAB
M  V30 COUNTS 34 37 0 0 0
M  V30 BEGIN ATOM
M  V30 1 S 10.3923 2.25 0.0 0
M  V30 2 O 11.1423 3.549 0.0 0
M  V30 3 O 9.6423 3.549 0.0 0
M  V30 4 N 9.0932 1.5 0.0 0
M  V30 5 C 11.6913 1.5 0.0 0
M  V30 6 C 9.0932 0.0 0.0 0
M  V30 7 C 11.6913 0.0 0.0 0
M  V30 8 C 12.9903 2.25 0.0 0
M  V30 9 N 10.3923 -0.75 0.0 0
M  V30 10 C 7.7942 -0.75 0.0 0
M  V30 11 C 12.9903 -0.75 0.0 0
M  V30 12 C 14.2894 1.5 0.0 0
M  V30 13 C 6.4951 0.0 0.0 0
M  V30 14 C 7.7942 -2.25 0.0 0
M  V30 15 C 14.2894 0.0 0.0 0
M  V30 16 O 6.4951 1.5 0.0 0
M  V30 17 N 5.1961 -0.75 0.0 0
M  V30 18 O 9.0932 -3.0 0.0 0
M  V30 19 C 6.4951 -3.0 0.0 0
M  V30 20 C 5.1961 -2.25 0.0 0
M  V30 21 C 3.8971 0.0 0.0 0
M  V30 22 C 6.4951 -4.5 0.0 0
M  V30 23 C 3.8971 -3.0 0.0 0
M  V30 24 C 2.598 -0.75 0.0 0
M  V30 25 C 5.1961 -5.25 0.0 0
M  V30 26 C 3.8971 -4.5 0.0 0
M  V30 27 C 1.299 0.0 0.0 0
M  V30 28 O 5.1961 -6.75 0.0 0
M  V30 29 C 1.299 1.5 0.0 0
M  V30 30 C 0.0 -0.75 0.0 0
M  V30 31 C 6.4951 -7.5 0.0 0
M  V30 32 C 6.4951 -9.0 0.0 0
M  V30 33 O 5.1961 -9.75 0.0 0
M  V30 34 N 7.7942 -9.75 0.0 0
M  V30 END ATOM
M  V30 BEGIN BOND
M  V30 1 2 1 2
M  V30 2 2 1 3
M  V30 3 1 1 4
M  V30 4 1 1 5
M  V30 5 2 4 6
M  V30 6 2 5 7
M  V30 7 1 5 8
M  V30 8 1 6 9
M  V30 9 1 6 10
M  V30 10 1 7 11
M  V30 11 2 8 12
M  V30 12 1 10 13
M  V30 13 2 10 14
M  V30 14 2 11 15
M  V30 15 2 13 16
M  V30 16 1 13 17
M  V30 17 1 14 18
M  V30 18 1 14 19
M  V30 19 1 17 20
M  V30 20 1 17 21
M  V30 21 1 19 22
M  V30 22 1 20 23
M  V30 23 1 21 24
M  V30 24 2 22 25
M  V30 25 2 23 26
M  V30 26 1 24 27
M  V30 27 1 25 28
M  V30 28 1 27 29
M  V30 29 1 27 30
M  V30 30 1 28 31
M  V30 31 1 31 32
M  V30 32 2 32 33
M  V30 33 1 32 34
M  V30 34 1 7 9
M  V30 35 1 12 15
M  V30 36 2 19 20
M  V30 37 1 25 26
M  V30 END BOND
M  V30 END CTAB
M  END
>  <Molecule ChEMBL ID>
CHEMBL380686

>  <Smiles>
CC(C)CCn1c(=O)c(C2=NS(=O)(=O)c3ccccc3N2)c(O)c2cc(OCC(N)=O)ccc21

>  <Standard Value>
511

$$$$
CHEMBL201140
Actelion Java MolfileCreator 2.0

  0  0  0  0  0  0              0 V3000
M  V30 BEGIN CTAB
M  V30 COUNTS 30 34 0 0 0
M  V30 BEGIN ATOM
M  V30 1 S 7.7942 2.25 0.0 0
M  V30 2 O 8.5442 3.549 0.0 0
M  V30 3 O 7.0442 3.549 0.0 0
M  V30 4 N 6.4951 1.5 0.0 0
M  V30 5 C 9.0932 1.5 0.0 0
M  V30 6 C 6.4951 0.0 0.0 0
M  V30 7 C 9.0932 0.0 0.0 0
M  V30 8 C 10.3923 2.25 0.0 0
M  V30 9 N 7.7942 -0.75 0.0 0
M  V30 10 C 5.1961 -0.75 0.0 0
M  V30 11 C 10.3923 -0.75 0.0 0
M  V30 12 C 11.6913 1.5 0.0 0
M  V30 13 C 3.8971 0.0 0.0 0
M  V30 14 C 5.1961 -2.25 0.0 0
M  V30 15 C 11.6913 0.0 0.0 0
M  V30 16 O 3.8971 1.5 0.0 0
M  V30 17 N 2.598 -0.75 0.0 0
M  V30 18 O 6.4951 -3.0 0.0 0
M  V30 19 C 3.8971 -3.0 0.0 0
M  V30 20 C 2.598 -2.25 0.0 0
M  V30 21 C 1.299 0.0 0.0 0
M  V30 22 C 3.8971 -4.5 0.0 0
M  V30 23 C 1.299 -3.0 0.0 0
M  V30 24 C 0.0 -0.75 0.0 0 CFG=2
M  V30 25 C 2.598 -5.25 0.0 0
M  V30 26 C 1.299 -4.5 0.0 0
M  V30 27 O -1.3703 -0.1398 0.0 0
M  V30 28 C -0.1567 -2.2417 0.0 0
M  V30 29 C -2.374 -1.2546 0.0 0
M  V30 30 C -1.624 -2.5536 0.0 0
M  V30 END ATOM
M  V30 BEGIN BOND
M  V30 1 2 1 2
M  V30 2 2 1 3
M  V30 3 1 1 4
M  V30 4 1 1 5
M  V30 5 2 4 6
M  V30 6 2 5 7
M  V30 7 1 5 8
M  V30 8 1 6 9
M  V30 9 1 6 10
M  V30 10 1 7 11
M  V30 11 2 8 12
M  V30 12 1 10 13
M  V30 13 2 10 14
M  V30 14 2 11 15
M  V30 15 2 13 16
M  V30 16 1 13 17
M  V30 17 1 14 18
M  V30 18 1 14 19
M  V30 19 1 17 20
M  V30 20 1 17 21
M  V30 21 1 19 22
M  V30 22 1 20 23
M  V30 23 1 24 21 CFG=1
M  V30 24 2 22 25
M  V30 25 2 23 26
M  V30 26 1 24 27
M  V30 27 1 24 28
M  V30 28 1 27 29
M  V30 29 1 28 30
M  V30 30 1 7 9
M  V30 31 1 12 15
M  V30 32 2 19 20
M  V30 33 1 25 26
M  V30 34 1 29 30
M  V30 END BOND
M  V30 BEGIN COLLECTION
M  V30 MDLV30/STERAC1 ATOMS=(1 24)
M  V30 END COLLECTION
M  V30 END CTAB
M  END
>  <Molecule ChEMBL ID>
CHEMBL201140

>  <Smiles>
O=c1c(C2=NS(=O)(=O)c3ccccc3N2)c(O)c2ccccc2n1CC1CCCO1

>  <Standard Value>
528

$$$$
CHEMBL202581
Actelion Java MolfileCreator 2.0

  0  0  0  0  0  0              0 V3000
M  V30 BEGIN CTAB
M  V30 COUNTS 30 33 0 0 0
M  V30 BEGIN ATOM
M  V30 1 S 10.3923 2.25 0.0 0
M  V30 2 O 11.1423 3.549 0.0 0
M  V30 3 O 9.6423 3.549 0.0 0
M  V30 4 N 9.0932 1.5 0.0 0
M  V30 5 C 11.6913 1.5 0.0 0
M  V30 6 C 9.0932 0.0 0.0 0
M  V30 7 C 11.6913 0.0 0.0 0
M  V30 8 C 12.9903 2.25 0.0 0
M  V30 9 N 10.3923 -0.75 0.0 0
M  V30 10 C 7.7942 -0.75 0.0 0
M  V30 11 C 12.9903 -0.75 0.0 0
M  V30 12 C 14.2894 1.5 0.0 0
M  V30 13 C 6.4951 0.0 0.0 0
M  V30 14 C 7.7942 -2.25 0.0 0
M  V30 15 C 14.2894 0.0 0.0 0
M  V30 16 O 6.4951 1.5 0.0 0
M  V30 17 N 5.1961 -0.75 0.0 0
M  V30 18 O 9.0932 -3.0 0.0 0
M  V30 19 C 6.4951 -3.0 0.0 0
M  V30 20 C 5.1961 -2.25 0.0 0
M  V30 21 C 3.8971 0.0 0.0 0
M  V30 22 C 6.4951 -4.5 0.0 0
M  V30 23 C 3.8971 -3.0 0.0 0
M  V30 24 C 2.598 -0.75 0.0 0
M  V30 25 C 5.1961 -5.25 0.0 0
M  V30 26 C 3.8971 -4.5 0.0 0
M  V30 27 C 1.299 0.0 0.0 0
M  V30 28 F 2.598 -5.25 0.0 0
M  V30 29 C 1.299 1.5 0.0 0
M  V30 30 C 0.0 -0.75 0.0 0
M  V30 END ATOM
M  V30 BEGIN BOND
M  V30 1 2 1 2
M  V30 2 2 1 3
M  V30 3 1 1 4
M  V30 4 1 1 5
M  V30 5 2 4 6
M  V30 6 2 5 7
M  V30 7 1 5 8
M  V30 8 1 6 9
M  V30 9 1 6 10
M  V30 10 1 7 11
M  V30 11 2 8 12
M  V30 12 1 10 13
M  V30 13 2 10 14
M  V30 14 2 11 15
M  V30 15 2 13 16
M  V30 16 1 13 17
M  V30 17 1 14 18
M  V30 18 1 14 19
M  V30 19 1 17 20
M  V30 20 1 17 21
M  V30 21 1 19 22
M  V30 22 1 20 23
M  V30 23 1 21 24
M  V30 24 2 22 25
M  V30 25 2 23 26
M  V30 26 1 24 27
M  V30 27 1 26 28
M  V30 28 1 27 29
M  V30 29 1 27 30
M  V30 30 1 7 9
M  V30 31 1 12 15
M  V30 32 2 19 20
M  V30 33 1 25 26
M  V30 END BOND
M  V30 END CTAB
M  END
>  <Molecule ChEMBL ID>
CHEMBL202581

>  <Smiles>
CC(C)CCn1c(=O)c(C2=NS(=O)(=O)c3ccccc3N2)c(O)c2ccc(F)cc21

>  <Standard Value>
554

$$$$
CHEMBL439511
Actelion Java MolfileCreator 2.0

  0  0  0  0  0  0              0 V3000
M  V30 BEGIN CTAB
M  V30 COUNTS 32 35 0 0 0
M  V30 BEGIN ATOM
M  V30 1 S 3.8971 6.0 0.0 0
M  V30 2 O 3.1471 7.299 0.0 0
M  V30 3 O 2.3971 5.9999 0.0 0
M  V30 4 N 3.8971 4.5 0.0 0
M  V30 5 C 5.1961 6.75 0.0 0
M  V30 6 C 5.1961 3.75 0.0 0
M  V30 7 C 6.4951 6.0 0.0 0
M  V30 8 C 5.1961 8.25 0.0 0
M  V30 9 N 6.4951 4.5 0.0 0
M  V30 10 C 5.1961 2.25 0.0 0
M  V30 11 C 7.7942 6.75 0.0 0
M  V30 12 C 6.4951 9.0 0.0 0
M  V30 13 C 3.8971 1.5 0.0 0
M  V30 14 C 6.4951 1.5 0.0 0
M  V30 15 C 7.7942 8.25 0.0 0
M  V30 16 O 2.598 2.25 0.0 0
M  V30 17 N 3.8971 0.0 0.0 0
M  V30 18 O 7.7942 2.25 0.0 0
M  V30 19 C 6.4951 0.0 0.0 0
M  V30 20 C 5.1961 -0.75 0.0 0
M  V30 21 C 2.598 -0.75 0.0 0
M  V30 22 C 7.7942 -0.75 0.0 0
M  V30 23 C 5.1961 -2.25 0.0 0
M  V30 24 C 1.299 0.0 0.0 0
M  V30 25 C 7.7942 -2.25 0.0 0
M  V30 26 C 6.4951 -3.0 0.0 0
M  V30 27 O 1.299 1.5 0.0 0
M  V30 28 C 0.0 -0.75 0.0 0
M  V30 29 F 9.0932 -3.0 0.0 0
M  V30 30 C 0.75 -2.049 0.0 0
M  V30 31 C -1.299 -1.5 0.0 0
M  V30 32 C -0.75 0.549 0.0 0
M  V30 END ATOM
M  V30 BEGIN BOND
M  V30 1 2 1 2
M  V30 2 2 1 3
M  V30 3 1 1 4
M  V30 4 1 1 5
M  V30 5 2 4 6
M  V30 6 2 5 7
M  V30 7 1 5 8
M  V30 8 1 6 9
M  V30 9 1 6 10
M  V30 10 1 7 11
M  V30 11 2 8 12
M  V30 12 1 10 13
M  V30 13 2 10 14
M  V30 14 2 11 15
M  V30 15 2 13 16
M  V30 16 1 13 17
M  V30 17 1 14 18
M  V30 18 1 14 19
M  V30 19 1 17 20
M  V30 20 1 17 21
M  V30 21 1 19 22
M  V30 22 1 20 23
M  V30 23 1 21 24
M  V30 24 2 22 25
M  V30 25 2 23 26
M  V30 26 2 24 27
M  V30 27 1 24 28
M  V30 28 1 25 29
M  V30 29 1 28 30
M  V30 30 1 28 31
M  V30 31 1 28 32
M  V30 32 1 7 9
M  V30 33 1 12 15
M  V30 34 2 19 20
M  V30 35 1 25 26
M  V30 END BOND
M  V30 END CTAB
M  END
>  <Molecule ChEMBL ID>
CHEMBL439511

>  <Smiles>
CC(C)(C)C(=O)Cn1c(=O)c(C2=NS(=O)(=O)c3ccccc3N2)c(O)c2cc(F)ccc21

>  <Standard Value>
696

$$$$
CHEMBL427375
Actelion Java MolfileCreator 2.0

  0  0  0  0  0  0              0 V3000
M  V30 BEGIN CTAB
M  V30 COUNTS 30 33 0 0 0
M  V30 BEGIN ATOM
M  V30 1 S 10.3923 2.25 0.0 0
M  V30 2 O 11.1423 3.549 0.0 0
M  V30 3 O 9.6423 3.549 0.0 0
M  V30 4 N 9.0932 1.5 0.0 0
M  V30 5 C 11.6913 1.5 0.0 0
M  V30 6 C 9.0932 0.0 0.0 0
M  V30 7 C 11.6913 0.0 0.0 0
M  V30 8 C 12.9903 2.25 0.0 0
M  V30 9 N 10.3923 -0.75 0.0 0
M  V30 10 C 7.7942 -0.75 0.0 0
M  V30 11 C 12.9903 -0.75 0.0 0
M  V30 12 C 14.2894 1.5 0.0 0
M  V30 13 C 6.4951 0.0 0.0 0
M  V30 14 C 7.7942 -2.25 0.0 0
M  V30 15 C 14.2894 0.0 0.0 0
M  V30 16 O 6.4951 1.5 0.0 0
M  V30 17 N 5.1961 -0.75 0.0 0
M  V30 18 O 9.0932 -3.0 0.0 0
M  V30 19 C 6.4951 -3.0 0.0 0
M  V30 20 C 5.1961 -2.25 0.0 0
M  V30 21 C 3.8971 0.0 0.0 0
M  V30 22 C 6.4951 -4.5 0.0 0
M  V30 23 C 3.8971 -3.0 0.0 0
M  V30 24 C 2.598 -0.75 0.0 0
M  V30 25 C 5.1961 -5.25 0.0 0
M  V30 26 C 3.8971 -4.5 0.0 0
M  V30 27 C 1.299 0.0 0.0 0
M  V30 28 C 0.0 -0.75 0.0 0
M  V30 29 C 0.0 -2.25 0.0 0
M  V30 30 N 0.0 -3.75 0.0 0
M  V30 END ATOM
M  V30 BEGIN BOND
M  V30 1 2 1 2
M  V30 2 2 1 3
M  V30 3 1 1 4
M  V30 4 1 1 5
M  V30 5 2 4 6
M  V30 6 2 5 7
M  V30 7 1 5 8
M  V30 8 1 6 9
M  V30 9 1 6 10
M  V30 10 1 7 11
M  V30 11 2 8 12
M  V30 12 1 10 13
M  V30 13 2 10 14
M  V30 14 2 11 15
M  V30 15 2 13 16
M  V30 16 1 13 17
M  V30 17 1 14 18
M  V30 18 1 14 19
M  V30 19 1 17 20
M  V30 20 1 17 21
M  V30 21 1 19 22
M  V30 22 1 20 23
M  V30 23 1 21 24
M  V30 24 2 22 25
M  V30 25 2 23 26
M  V30 26 1 24 27
M  V30 27 1 27 28
M  V30 28 1 28 29
M  V30 29 3 29 30
M  V30 30 1 7 9
M  V30 31 1 12 15
M  V30 32 2 19 20
M  V30 33 1 25 26
M  V30 END BOND
M  V30 END CTAB
M  END
>  <Molecule ChEMBL ID>
CHEMBL427375

>  <Smiles>
N#CCCCCn1c(=O)c(C2=NS(=O)(=O)c3ccccc3N2)c(O)c2ccccc21

>  <Standard Value>
750

$$$$
CHEMBL377075
Actelion Java MolfileCreator 2.0

  0  0  0  0  0  0              0 V3000
M  V30 BEGIN CTAB
M  V30 COUNTS 30 34 0 0 0
M  V30 BEGIN ATOM
M  V30 1 S 2.598 2.25 0.0 0
M  V30 2 O 3.348 3.549 0.0 0
M  V30 3 O 1.848 3.549 0.0 0
M  V30 4 N 1.299 1.5 0.0 0
M  V30 5 C 3.8971 1.5 0.0 0
M  V30 6 C 1.299 0.0 0.0 0
M  V30 7 C 3.8971 0.0 0.0 0
M  V30 8 C 5.1961 2.25 0.0 0
M  V30 9 N 2.598 -0.75 0.0 0
M  V30 10 C 0.0 -0.75 0.0 0
M  V30 11 C 5.1961 -0.75 0.0 0
M  V30 12 C 6.4951 1.5 0.0 0
M  V30 13 C -1.299 0.0 0.0 0
M  V30 14 C 0.0 -2.25 0.0 0
M  V30 15 C 6.4951 0.0 0.0 0
M  V30 16 O -1.299 1.5 0.0 0
M  V30 17 N -2.598 -0.75 0.0 0
M  V30 18 O 1.299 -3.0 0.0 0
M  V30 19 C -1.299 -3.0 0.0 0
M  V30 20 C -2.598 -2.25 0.0 0
M  V30 21 C -3.8971 0.0 0.0 0
M  V30 22 C -1.299 -4.5 0.0 0
M  V30 23 C -3.8971 -3.0 0.0 0
M  V30 24 C -3.8971 1.5 0.0 0
M  V30 25 C -5.1961 -0.75 0.0 0
M  V30 26 C -2.598 -5.25 0.0 0
M  V30 27 C -3.8971 -4.5 0.0 0
M  V30 28 C -5.1961 2.25 0.0 0
M  V30 29 C -6.4951 0.0 0.0 0
M  V30 30 C -6.4951 1.5 0.0 0
M  V30 END ATOM
M  V30 BEGIN BOND
M  V30 1 2 1 2
M  V30 2 2 1 3
M  V30 3 1 1 4
M  V30 4 1 1 5
M  V30 5 2 4 6
M  V30 6 2 5 7
M  V30 7 1 5 8
M  V30 8 1 6 9
M  V30 9 1 6 10
M  V30 10 1 7 11
M  V30 11 2 8 12
M  V30 12 1 10 13
M  V30 13 2 10 14
M  V30 14 2 11 15
M  V30 15 2 13 16
M  V30 16 1 13 17
M  V30 17 1 14 18
M  V30 18 1 14 19
M  V30 19 1 17 20
M  V30 20 1 17 21
M  V30 21 1 19 22
M  V30 22 1 20 23
M  V30 23 2 21 24
M  V30 24 1 21 25
M  V30 25 2 22 26
M  V30 26 2 23 27
M  V30 27 1 24 28
M  V30 28 2 25 29
M  V30 29 2 28 30
M  V30 30 1 7 9
M  V30 31 1 12 15
M  V30 32 2 19 20
M  V30 33 1 26 27
M  V30 34 1 29 30
M  V30 END BOND
M  V30 END CTAB
M  END
>  <Molecule ChEMBL ID>
CHEMBL377075

>  <Smiles>
O=c1c(C2=NS(=O)(=O)c3ccccc3N2)c(O)c2ccccc2n1-c1ccccc1

>  <Standard Value>
774

$$$$
CHEMBL202191
Actelion Java MolfileCreator 2.0

  0  0  0  0  0  0              0 V3000
M  V30 BEGIN CTAB
M  V30 COUNTS 33 37 0 0 0
M  V30 BEGIN ATOM
M  V30 1 S 7.7942 2.25 0.0 0
M  V30 2 O 8.5442 3.549 0.0 0
M  V30 3 O 7.0442 3.549 0.0 0
M  V30 4 N 6.4951 1.5 0.0 0
M  V30 5 C 9.0932 1.5 0.0 0
M  V30 6 C 6.4951 0.0 0.0 0
M  V30 7 C 9.0932 0.0 0.0 0
M  V30 8 C 10.3923 2.25 0.0 0
M  V30 9 N 7.7942 -0.75 0.0 0
M  V30 10 C 5.1961 -0.75 0.0 0
M  V30 11 C 10.3923 -0.75 0.0 0
M  V30 12 C 11.6913 1.5 0.0 0
M  V30 13 C 3.8971 0.0 0.0 0
M  V30 14 C 5.1961 -2.25 0.0 0
M  V30 15 C 11.6913 0.0 0.0 0
M  V30 16 O 3.8971 1.5 0.0 0
M  V30 17 N 2.598 -0.75 0.0 0
M  V30 18 O 6.4951 -3.0 0.0 0
M  V30 19 C 3.8971 -3.0 0.0 0
M  V30 20 C 2.598 -2.25 0.0 0
M  V30 21 C 1.299 0.0 0.0 0
M  V30 22 C 3.8971 -4.5 0.0 0
M  V30 23 C 1.299 -3.0 0.0 0
M  V30 24 C 0.0 -0.75 0.0 0
M  V30 25 C 2.598 -5.25 0.0 0
M  V30 26 C 1.299 -4.5 0.0 0
M  V30 27 C -1.299 0.0 0.0 0
M  V30 28 C 0.0 -2.25 0.0 0
M  V30 29 C -1.299 1.5 0.0 0
M  V30 30 C -2.598 -0.75 0.0 0
M  V30 31 C -1.299 -3.0 0.0 0
M  V30 32 N -1.299 3.0 0.0 0
M  V30 33 C -2.598 -2.25 0.0 0
M  V30 END ATOM
M  V30 BEGIN BOND
M  V30 1 2 1 2
M  V30 2 2 1 3
M  V30 3 1 1 4
M  V30 4 1 1 5
M  V30 5 2 4 6
M  V30 6 2 5 7
M  V30 7 1 5 8
M  V30 8 1 6 9
M  V30 9 1 6 10
M  V30 10 1 7 11
M  V30 11 2 8 12
M  V30 12 1 10 13
M  V30 13 2 10 14
M  V30 14 2 11 15
M  V30 15 2 13 16
M  V30 16 1 13 17
M  V30 17 1 14 18
M  V30 18 1 14 19
M  V30 19 1 17 20
M  V30 20 1 17 21
M  V30 21 1 19 22
M  V30 22 1 20 23
M  V30 23 1 21 24
M  V30 24 2 22 25
M  V30 25 2 23 26
M  V30 26 2 24 27
M  V30 27 1 24 28
M  V30 28 1 27 29
M  V30 29 1 27 30
M  V30 30 2 28 31
M  V30 31 3 29 32
M  V30 32 2 30 33
M  V30 33 1 7 9
M  V30 34 1 12 15
M  V30 35 2 19 20
M  V30 36 1 25 26
M  V30 37 1 31 33
M  V30 END BOND
M  V30 END CTAB
M  END
>  <Molecule ChEMBL ID>
CHEMBL202191

>  <Smiles>
N#Cc1ccccc1Cn1c(=O)c(C2=NS(=O)(=O)c3ccccc3N2)c(O)c2ccccc21

>  <Standard Value>
780

$$$$
CHEMBL202079
Actelion Java MolfileCreator 2.0

  0  0  0  0  0  0              0 V3000
M  V30 BEGIN CTAB
M  V30 COUNTS 28 31 0 0 0
M  V30 BEGIN ATOM
M  V30 1 S 10.3923 2.25 0.0 0
M  V30 2 O 11.1423 3.549 0.0 0
M  V30 3 O 9.6423 3.549 0.0 0
M  V30 4 N 9.0932 1.5 0.0 0
M  V30 5 C 11.6913 1.5 0.0 0
M  V30 6 C 9.0932 0.0 0.0 0
M  V30 7 C 11.6913 0.0 0.0 0
M  V30 8 C 12.9903 2.25 0.0 0
M  V30 9 N 10.3923 -0.75 0.0 0
M  V30 10 C 7.7942 -0.75 0.0 0
M  V30 11 C 12.9903 -0.75 0.0 0
M  V30 12 C 14.2894 1.5 0.0 0
M  V30 13 C 6.4951 0.0 0.0 0
M  V30 14 C 7.7942 -2.25 0.0 0
M  V30 15 C 14.2894 0.0 0.0 0
M  V30 16 O 6.4951 1.5 0.0 0
M  V30 17 N 5.1961 -0.75 0.0 0
M  V30 18 O 9.0932 -3.0 0.0 0
M  V30 19 C 6.4951 -3.0 0.0 0
M  V30 20 C 5.1961 -2.25 0.0 0
M  V30 21 C 3.8971 0.0 0.0 0
M  V30 22 C 6.4951 -4.5 0.0 0
M  V30 23 C 3.8971 -3.0 0.0 0
M  V30 24 C 2.598 -0.75 0.0 0
M  V30 25 C 5.1961 -5.25 0.0 0
M  V30 26 C 3.8971 -4.5 0.0 0
M  V30 27 O 1.299 0.0 0.0 0
M  V30 28 C 0.0 -0.75 0.0 0
M  V30 END ATOM
M  V30 BEGIN BOND
M  V30 1 2 1 2
M  V30 2 2 1 3
M  V30 3 1 1 4
M  V30 4 1 1 5
M  V30 5 2 4 6
M  V30 6 2 5 7
M  V30 7 1 5 8
M  V30 8 1 6 9
M  V30 9 1 6 10
M  V30 10 1 7 11
M  V30 11 2 8 12
M  V30 12 1 10 13
M  V30 13 2 10 14
M  V30 14 2 11 15
M  V30 15 2 13 16
M  V30 16 1 13 17
M  V30 17 1 14 18
M  V30 18 1 14 19
M  V30 19 1 17 20
M  V30 20 1 17 21
M  V30 21 1 19 22
M  V30 22 1 20 23
M  V30 23 1 21 24
M  V30 24 2 22 25
M  V30 25 2 23 26
M  V30 26 1 24 27
M  V30 27 1 27 28
M  V30 28 1 7 9
M  V30 29 1 12 15
M  V30 30 2 19 20
M  V30 31 1 25 26
M  V30 END BOND
M  V30 END CTAB
M  END
>  <Molecule ChEMBL ID>
CHEMBL202079

>  <Smiles>
COCCn1c(=O)c(C2=NS(=O)(=O)c3ccccc3N2)c(O)c2ccccc21

>  <Standard Value>
819

$$$$
CHEMBL439333
Actelion Java MolfileCreator 2.0

  0  0  0  0  0  0              0 V3000
M  V30 BEGIN CTAB
M  V30 COUNTS 37 41 0 0 0
M  V30 BEGIN ATOM
M  V30 1 S 10.3923 2.25 0.0 0
M  V30 2 O 11.1423 3.549 0.0 0
M  V30 3 O 9.6423 3.549 0.0 0
M  V30 4 N 9.0932 1.5 0.0 0
M  V30 5 C 11.6913 1.5 0.0 0
M  V30 6 C 9.0932 0.0 0.0 0
M  V30 7 C 11.6913 0.0 0.0 0
M  V30 8 C 12.9903 2.25 0.0 0
M  V30 9 N 10.3923 -0.75 0.0 0
M  V30 10 C 7.7942 -0.75 0.0 0
M  V30 11 C 12.9903 -0.75 0.0 0
M  V30 12 C 14.2894 1.5 0.0 0
M  V30 13 C 6.4951 0.0 0.0 0
M  V30 14 C 7.7942 -2.25 0.0 0
M  V30 15 C 14.2894 0.0 0.0 0
M  V30 16 O 6.4951 1.5 0.0 0
M  V30 17 N 5.1961 -0.75 0.0 0
M  V30 18 O 9.0932 -3.0 0.0 0
M  V30 19 C 6.4951 -3.0 0.0 0
M  V30 20 C 5.1961 -2.25 0.0 0
M  V30 21 C 3.8971 0.0 0.0 0
M  V30 22 C 6.4951 -4.5 0.0 0
M  V30 23 C 3.8971 -3.0 0.0 0
M  V30 24 C 2.598 -0.75 0.0 0
M  V30 25 C 5.1961 -5.25 0.0 0
M  V30 26 C 3.8971 -4.5 0.0 0
M  V30 27 C 1.299 0.0 0.0 0
M  V30 28 N 5.1961 -6.75 0.0 0
M  V30 29 C 1.299 1.5 0.0 0
M  V30 30 C 0.0 -0.75 0.0 0
M  V30 31 C 3.8971 -7.5 0.0 0
M  V30 32 O 2.598 -6.75 0.0 0
M  V30 33 C 3.8971 -9.0 0.0 0
M  V30 34 C 2.6835 -9.8816 0.0 0
M  V30 35 C 5.1106 -9.8816 0.0 0
M  V30 36 C 3.1471 -11.3082 0.0 0
M  V30 37 C 4.6471 -11.3082 0.0 0
M  V30 END ATOM
M  V30 BEGIN BOND
M  V30 1 2 1 2
M  V30 2 2 1 3
M  V30 3 1 1 4
M  V30 4 1 1 5
M  V30 5 2 4 6
M  V30 6 2 5 7
M  V30 7 1 5 8
M  V30 8 1 6 9
M  V30 9 1 6 10
M  V30 10 1 7 11
M  V30 11 2 8 12
M  V30 12 1 10 13
M  V30 13 2 10 14
M  V30 14 2 11 15
M  V30 15 2 13 16
M  V30 16 1 13 17
M  V30 17 1 14 18
M  V30 18 1 14 19
M  V30 19 1 17 20
M  V30 20 1 17 21
M  V30 21 1 19 22
M  V30 22 1 20 23
M  V30 23 1 21 24
M  V30 24 2 22 25
M  V30 25 2 23 26
M  V30 26 1 24 27
M  V30 27 1 25 28
M  V30 28 1 27 29
M  V30 29 1 27 30
M  V30 30 1 28 31
M  V30 31 2 31 32
M  V30 32 1 31 33
M  V30 33 1 33 34
M  V30 34 1 33 35
M  V30 35 1 34 36
M  V30 36 1 35 37
M  V30 37 1 7 9
M  V30 38 1 12 15
M  V30 39 2 19 20
M  V30 40 1 25 26
M  V30 41 1 36 37
M  V30 END BOND
M  V30 END CTAB
M  END
>  <Molecule ChEMBL ID>
CHEMBL439333

>  <Smiles>
CC(C)CCn1c(=O)c(C2=NS(=O)(=O)c3ccccc3N2)c(O)c2cc(NC(=O)C3CCCC3)ccc21

>  <Standard Value>
973

$$$$
CHEMBL202407
Actelion Java MolfileCreator 2.0

  0  0  0  0  0  0              0 V3000
M  V30 BEGIN CTAB
M  V30 COUNTS 32 35 0 0 0
M  V30 BEGIN ATOM
M  V30 1 S 10.3923 2.25 0.0 0
M  V30 2 O 11.1423 3.549 0.0 0
M  V30 3 O 9.6423 3.549 0.0 0
M  V30 4 N 9.0932 1.5 0.0 0
M  V30 5 C 11.6913 1.5 0.0 0
M  V30 6 C 9.0932 0.0 0.0 0
M  V30 7 C 11.6913 0.0 0.0 0
M  V30 8 C 12.9903 2.25 0.0 0
M  V30 9 N 10.3923 -0.75 0.0 0
M  V30 10 C 7.7942 -0.75 0.0 0
M  V30 11 C 12.9903 -0.75 0.0 0
M  V30 12 C 14.2894 1.5 0.0 0
M  V30 13 C 6.4951 0.0 0.0 0
M  V30 14 C 7.7942 -2.25 0.0 0
M  V30 15 C 14.2894 0.0 0.0 0
M  V30 16 O 6.4951 1.5 0.0 0
M  V30 17 N 5.1961 -0.75 0.0 0
M  V30 18 O 9.0932 -3.0 0.0 0
M  V30 19 C 6.4951 -3.0 0.0 0
M  V30 20 C 5.1961 -2.25 0.0 0
M  V30 21 C 3.8971 0.0 0.0 0
M  V30 22 C 6.4951 -4.5 0.0 0
M  V30 23 C 3.8971 -3.0 0.0 0
M  V30 24 C 2.598 -0.75 0.0 0
M  V30 25 C 5.1961 -5.25 0.0 0
M  V30 26 C 3.8971 -4.5 0.0 0
M  V30 27 C 1.299 0.0 0.0 0
M  V30 28 C 5.1961 -6.75 0.0 0
M  V30 29 C 1.299 1.5 0.0 0
M  V30 30 C 0.0 -0.75 0.0 0
M  V30 31 O 3.8971 -7.5 0.0 0
M  V30 32 O 6.4951 -7.5 0.0 0
M  V30 END ATOM
M  V30 BEGIN BOND
M  V30 1 2 1 2
M  V30 2 2 1 3
M  V30 3 1 1 4
M  V30 4 1 1 5
M  V30 5 2 4 6
M  V30 6 2 5 7
M  V30 7 1 5 8
M  V30 8 1 6 9
M  V30 9 1 6 10
M  V30 10 1 7 11
M  V30 11 2 8 12
M  V30 12 1 10 13
M  V30 13 2 10 14
M  V30 14 2 11 15
M  V30 15 2 13 16
M  V30 16 1 13 17
M  V30 17 1 14 18
M  V30 18 1 14 19
M  V30 19 1 17 20
M  V30 20 1 17 21
M  V30 21 1 19 22
M  V30 22 1 20 23
M  V30 23 1 21 24
M  V30 24 2 22 25
M  V30 25 2 23 26
M  V30 26 1 24 27
M  V30 27 1 25 28
M  V30 28 1 27 29
M  V30 29 1 27 30
M  V30 30 2 28 31
M  V30 31 1 28 32
M  V30 32 1 7 9
M  V30 33 1 12 15
M  V30 34 2 19 20
M  V30 35 1 25 26
M  V30 END BOND
M  V30 END CTAB
M  END
>  <Molecule ChEMBL ID>
CHEMBL202407

>  <Smiles>
CC(C)CCn1c(=O)c(C2=NS(=O)(=O)c3ccccc3N2)c(O)c2cc(C(=O)O)ccc21

>  <Standard Value>
1035

$$$$
CHEMBL201406
Actelion Java MolfileCreator 2.0

  0  0  0  0  0  0              0 V3000
M  V30 BEGIN CTAB
M  V30 COUNTS 30 33 0 0 0
M  V30 BEGIN ATOM
M  V30 1 Cl 5.1961 -6.75 0.0 0
M  V30 2 C 5.1961 -5.25 0.0 0
M  V30 3 C 6.4951 -4.5 0.0 0
M  V30 4 C 3.8971 -4.5 0.0 0
M  V30 5 C 6.4951 -3.0 0.0 0
M  V30 6 C 3.8971 -3.0 0.0 0
M  V30 7 C 7.7942 -2.25 0.0 0
M  V30 8 C 5.1961 -2.25 0.0 0
M  V30 9 O 9.0932 -3.0 0.0 0
M  V30 10 C 7.7942 -0.75 0.0 0
M  V30 11 N 5.1961 -0.75 0.0 0
M  V30 12 C 6.4951 0.0 0.0 0
M  V30 13 C 9.0932 0.0 0.0 0
M  V30 14 C 3.8971 0.0 0.0 0
M  V30 15 O 6.4951 1.5 0.0 0
M  V30 16 N 10.3923 -0.75 0.0 0
M  V30 17 N 9.0932 1.5 0.0 0
M  V30 18 C 2.598 -0.75 0.0 0
M  V30 19 S 11.6913 0.0 0.0 0
M  V30 20 C 10.3923 2.25 0.0 0
M  V30 21 C 1.299 0.0 0.0 0
M  V30 22 O 12.4413 -1.299 0.0 0
M  V30 23 O 13.1913 0.0 0.0 0
M  V30 24 C 11.6913 1.5 0.0 0
M  V30 25 C 10.3923 3.75 0.0 0
M  V30 26 C 1.299 1.5 0.0 0
M  V30 27 C 0.0 -0.75 0.0 0
M  V30 28 C 12.9903 2.25 0.0 0
M  V30 29 C 11.6913 4.5 0.0 0
M  V30 30 C 12.9903 3.75 0.0 0
M  V30 END ATOM
M  V30 BEGIN BOND
M  V30 1 1 1 2
M  V30 2 2 2 3
M  V30 3 1 2 4
M  V30 4 1 3 5
M  V30 5 2 4 6
M  V30 6 1 5 7
M  V30 7 2 5 8
M  V30 8 1 7 9
M  V30 9 2 7 10
M  V30 10 1 8 11
M  V30 11 1 10 12
M  V30 12 1 10 13
M  V30 13 1 11 14
M  V30 14 2 12 15
M  V30 15 2 13 16
M  V30 16 1 13 17
M  V30 17 1 14 18
M  V30 18 1 16 19
M  V30 19 1 17 20
M  V30 20 1 18 21
M  V30 21 2 19 22
M  V30 22 2 19 23
M  V30 23 1 19 24
M  V30 24 1 20 25
M  V30 25 1 21 26
M  V30 26 1 21 27
M  V30 27 1 24 28
M  V30 28 2 25 29
M  V30 29 2 28 30
M  V30 30 1 6 8
M  V30 31 1 11 12
M  V30 32 2 20 24
M  V30 33 1 29 30
M  V30 END BOND
M  V30 END CTAB
M  END
>  <Molecule ChEMBL ID>
CHEMBL201406

>  <Smiles>
CC(C)CCn1c(=O)c(C2=NS(=O)(=O)c3ccccc3N2)c(O)c2cc(Cl)ccc21

>  <Standard Value>
1204

$$$$
CHEMBL201927
Actelion Java MolfileCreator 2.0

  0  0  0  0  0  0              0 V3000
M  V30 BEGIN CTAB
M  V30 COUNTS 29 32 0 0 0
M  V30 BEGIN ATOM
M  V30 1 S 6.4951 6.0 0.0 0
M  V30 2 O 5.7452 7.299 0.0 0
M  V30 3 O 4.9952 5.9999 0.0 0
M  V30 4 N 6.4951 4.5 0.0 0
M  V30 5 C 7.7942 6.75 0.0 0
M  V30 6 C 7.7942 3.75 0.0 0
M  V30 7 C 9.0932 6.0 0.0 0
M  V30 8 C 7.7942 8.25 0.0 0
M  V30 9 N 9.0932 4.5 0.0 0
M  V30 10 C 7.7942 2.25 0.0 0
M  V30 11 C 10.3923 6.75 0.0 0
M  V30 12 C 9.0932 9.0 0.0 0
M  V30 13 C 6.4951 1.5 0.0 0
M  V30 14 C 9.0932 1.5 0.0 0
M  V30 15 C 10.3923 8.25 0.0 0
M  V30 16 O 5.1961 2.25 0.0 0
M  V30 17 N 6.4951 0.0 0.0 0
M  V30 18 O 10.3923 2.25 0.0 0
M  V30 19 C 9.0932 0.0 0.0 0
M  V30 20 C 7.7942 -0.75 0.0 0
M  V30 21 C 5.1961 -0.75 0.0 0
M  V30 22 C 10.3923 -0.75 0.0 0
M  V30 23 C 7.7942 -2.25 0.0 0
M  V30 24 C 3.8971 0.0 0.0 0
M  V30 25 C 10.3923 -2.25 0.0 0
M  V30 26 C 9.0932 -3.0 0.0 0
M  V30 27 C 2.598 -0.75 0.0 0
M  V30 28 C 1.299 0.0 0.0 0
M  V30 29 O 0.0 -0.75 0.0 0
M  V30 END ATOM
M  V30 BEGIN BOND
M  V30 1 2 1 2
M  V30 2 2 1 3
M  V30 3 1 1 4
M  V30 4 1 1 5
M  V30 5 2 4 6
M  V30 6 2 5 7
M  V30 7 1 5 8
M  V30 8 1 6 9
M  V30 9 1 6 10
M  V30 10 1 7 11
M  V30 11 2 8 12
M  V30 12 1 10 13
M  V30 13 2 10 14
M  V30 14 2 11 15
M  V30 15 2 13 16
M  V30 16 1 13 17
M  V30 17 1 14 18
M  V30 18 1 14 19
M  V30 19 1 17 20
M  V30 20 1 17 21
M  V30 21 1 19 22
M  V30 22 1 20 23
M  V30 23 1 21 24
M  V30 24 2 22 25
M  V30 25 2 23 26
M  V30 26 1 24 27
M  V30 27 1 27 28
M  V30 28 1 28 29
M  V30 29 1 7 9
M  V30 30 1 12 15
M  V30 31 2 19 20
M  V30 32 1 25 26
M  V30 END BOND
M  V30 END CTAB
M  END
>  <Molecule ChEMBL ID>
CHEMBL201927

>  <Smiles>
O=c1c(C2=NS(=O)(=O)c3ccccc3N2)c(O)c2ccccc2n1CCCCO

>  <Standard Value>
1301

$$$$
CHEMBL202250
Actelion Java MolfileCreator 2.0

  0  0  0  0  0  0              0 V3000
M  V30 BEGIN CTAB
M  V30 COUNTS 27 30 0 0 0
M  V30 BEGIN ATOM
M  V30 1 S 3.8971 6.0 0.0 0
M  V30 2 O 3.1471 7.299 0.0 0
M  V30 3 O 2.3971 5.9999 0.0 0
M  V30 4 N 3.8971 4.5 0.0 0
M  V30 5 C 5.1961 6.75 0.0 0
M  V30 6 C 5.1961 3.75 0.0 0
M  V30 7 C 6.4952 6.0 0.0 0
M  V30 8 C 5.1961 8.25 0.0 0
M  V30 9 N 6.4952 4.5 0.0 0
M  V30 10 C 5.1961 2.25 0.0 0
M  V30 11 C 7.7942 6.75 0.0 0
M  V30 12 C 6.4952 9.0 0.0 0
M  V30 13 C 3.8971 1.5 0.0 0
M  V30 14 C 6.4952 1.5 0.0 0
M  V30 15 C 7.7942 8.25 0.0 0
M  V30 16 O 2.598 2.25 0.0 0
M  V30 17 N 3.8971 0.0 0.0 0
M  V30 18 O 7.7942 2.25 0.0 0
M  V30 19 C 6.4952 0.0 0.0 0
M  V30 20 C 5.1961 -0.75 0.0 0
M  V30 21 C 2.598 -0.75 0.0 0
M  V30 22 C 7.7942 -0.75 0.0 0
M  V30 23 C 5.1961 -2.25 0.0 0
M  V30 24 C 1.299 0.0 0.0 0
M  V30 25 C 7.7942 -2.25 0.0 0
M  V30 26 C 6.4952 -3.0 0.0 0
M  V30 27 C 0.0 -0.75 0.0 0
M  V30 END ATOM
M  V30 BEGIN BOND
M  V30 1 2 1 2
M  V30 2 2 1 3
M  V30 3 1 1 4
M  V30 4 1 1 5
M  V30 5 2 4 6
M  V30 6 2 5 7
M  V30 7 1 5 8
M  V30 8 1 6 9
M  V30 9 1 6 10
M  V30 10 1 7 11
M  V30 11 2 8 12
M  V30 12 1 10 13
M  V30 13 2 10 14
M  V30 14 2 11 15
M  V30 15 2 13 16
M  V30 16 1 13 17
M  V30 17 1 14 18
M  V30 18 1 14 19
M  V30 19 1 17 20
M  V30 20 1 17 21
M  V30 21 1 19 22
M  V30 22 1 20 23
M  V30 23 1 21 24
M  V30 24 2 22 25
M  V30 25 2 23 26
M  V30 26 1 24 27
M  V30 27 1 7 9
M  V30 28 1 12 15
M  V30 29 2 19 20
M  V30 30 1 25 26
M  V30 END BOND
M  V30 END CTAB
M  END
>  <Molecule ChEMBL ID>
CHEMBL202250

>  <Smiles>
CCCn1c(=O)c(C2=NS(=O)(=O)c3ccccc3N2)c(O)c2ccccc21

>  <Standard Value>
1550

$$$$
CHEMBL425757
Actelion Java MolfileCreator 2.0

  0  0  0  0  0  0              0 V3000
M  V30 BEGIN CTAB
M  V30 COUNTS 34 37 0 0 0
M  V30 BEGIN ATOM
M  V30 1 S 15.5884 -0.75 0.0 0
M  V30 2 O 17.0884 -0.75 0.0 0
M  V30 3 O 16.3384 0.549 0.0 0
M  V30 4 N 14.2894 0.0 0.0 0
M  V30 5 C 15.5884 -2.25 0.0 0
M  V30 6 C 12.9903 -0.75 0.0 0
M  V30 7 C 14.2894 -3.0 0.0 0
M  V30 8 C 16.8875 -3.0 0.0 0
M  V30 9 N 12.9903 -2.25 0.0 0
M  V30 10 C 11.6913 0.0 0.0 0
M  V30 11 C 14.2894 -4.5 0.0 0
M  V30 12 C 16.8875 -4.5 0.0 0
M  V30 13 C 11.6913 1.5 0.0 0
M  V30 14 C 10.3923 -0.75 0.0 0
M  V30 15 C 15.5884 -5.25 0.0 0
M  V30 16 O 12.9903 2.25 0.0 0
M  V30 17 N 10.3923 2.25 0.0 0
M  V30 18 O 10.3923 -2.25 0.0 0
M  V30 19 C 9.0932 0.0 0.0 0
M  V30 20 C 9.0932 1.5 0.0 0
M  V30 21 C 10.3923 3.75 0.0 0
M  V30 22 C 7.7942 -0.75 0.0 0
M  V30 23 C 7.7942 2.25 0.0 0
M  V30 24 C 9.0932 4.5 0.0 0
M  V30 25 C 6.4951 0.0 0.0 0
M  V30 26 C 6.4951 1.5 0.0 0
M  V30 27 C 9.0932 6.0 0.0 0
M  V30 28 O 5.1961 -0.75 0.0 0
M  V30 29 C 10.3923 6.75 0.0 0
M  V30 30 C 7.7942 6.75 0.0 0
M  V30 31 C 3.8971 0.0 0.0 0
M  V30 32 C 2.598 -0.75 0.0 0
M  V30 33 O 1.299 0.0 0.0 0
M  V30 34 C 0.0 -0.75 0.0 0
M  V30 END ATOM
M  V30 BEGIN BOND
M  V30 1 2 1 2
M  V30 2 2 1 3
M  V30 3 1 1 4
M  V30 4 1 1 5
M  V30 5 2 4 6
M  V30 6 2 5 7
M  V30 7 1 5 8
M  V30 8 1 6 9
M  V30 9 1 6 10
M  V30 10 1 7 11
M  V30 11 2 8 12
M  V30 12 1 10 13
M  V30 13 2 10 14
M  V30 14 2 11 15
M  V30 15 2 13 16
M  V30 16 1 13 17
M  V30 17 1 14 18
M  V30 18 1 14 19
M  V30 19 1 17 20
M  V30 20 1 17 21
M  V30 21 1 19 22
M  V30 22 1 20 23
M  V30 23 1 21 24
M  V30 24 2 22 25
M  V30 25 2 23 26
M  V30 26 1 24 27
M  V30 27 1 25 28
M  V30 28 1 27 29
M  V30 29 1 27 30
M  V30 30 1 28 31
M  V30 31 1 31 32
M  V30 32 1 32 33
M  V30 33 1 33 34
M  V30 34 1 7 9
M  V30 35 1 12 15
M  V30 36 2 19 20
M  V30 37 1 25 26
M  V30 END BOND
M  V30 END CTAB
M  END
>  <Molecule ChEMBL ID>
CHEMBL425757

>  <Smiles>
COCCOc1ccc2c(c1)c(O)c(C1=NS(=O)(=O)c3ccccc3N1)c(=O)n2CCC(C)C

>  <Standard Value>
1741

$$$$
CHEMBL202606
Actelion Java MolfileCreator 2.0

  0  0  0  0  0  0              0 V3000
M  V30 BEGIN CTAB
M  V30 COUNTS 29 32 0 0 0
M  V30 BEGIN ATOM
M  V30 1 S 10.3923 2.25 0.0 0
M  V30 2 O 11.1423 3.549 0.0 0
M  V30 3 O 9.6423 3.549 0.0 0
M  V30 4 N 9.0932 1.5 0.0 0
M  V30 5 C 11.6913 1.5 0.0 0
M  V30 6 C 9.0932 0.0 0.0 0
M  V30 7 C 11.6913 0.0 0.0 0
M  V30 8 C 12.9903 2.25 0.0 0
M  V30 9 N 10.3923 -0.75 0.0 0
M  V30 10 C 7.7942 -0.75 0.0 0
M  V30 11 C 12.9903 -0.75 0.0 0
M  V30 12 C 14.2894 1.5 0.0 0
M  V30 13 C 6.4951 0.0 0.0 0
M  V30 14 C 7.7942 -2.25 0.0 0
M  V30 15 C 14.2894 0.0 0.0 0
M  V30 16 O 6.4951 1.5 0.0 0
M  V30 17 N 5.1961 -0.75 0.0 0
M  V30 18 O 9.0932 -3.0 0.0 0
M  V30 19 C 6.4951 -3.0 0.0 0
M  V30 20 C 5.1961 -2.25 0.0 0
M  V30 21 C 3.8971 0.0 0.0 0
M  V30 22 C 6.4951 -4.5 0.0 0
M  V30 23 C 3.8971 -3.0 0.0 0
M  V30 24 O 3.8971 1.5 0.0 0
M  V30 25 O 2.598 -0.75 0.0 0
M  V30 26 C 5.1961 -5.25 0.0 0
M  V30 27 C 3.8971 -4.5 0.0 0
M  V30 28 C 1.299 0.0 0.0 0
M  V30 29 C 0.0 -0.75 0.0 0
M  V30 END ATOM
M  V30 BEGIN BOND
M  V30 1 2 1 2
M  V30 2 2 1 3
M  V30 3 1 1 4
M  V30 4 1 1 5
M  V30 5 2 4 6
M  V30 6 2 5 7
M  V30 7 1 5 8
M  V30 8 1 6 9
M  V30 9 1 6 10
M  V30 10 1 7 11
M  V30 11 2 8 12
M  V30 12 1 10 13
M  V30 13 2 10 14
M  V30 14 2 11 15
M  V30 15 2 13 16
M  V30 16 1 13 17
M  V30 17 1 14 18
M  V30 18 1 14 19
M  V30 19 1 17 20
M  V30 20 1 17 21
M  V30 21 1 19 22
M  V30 22 1 20 23
M  V30 23 2 21 24
M  V30 24 1 21 25
M  V30 25 2 22 26
M  V30 26 2 23 27
M  V30 27 1 25 28
M  V30 28 1 28 29
M  V30 29 1 7 9
M  V30 30 1 12 15
M  V30 31 2 19 20
M  V30 32 1 26 27
M  V30 END BOND
M  V30 END CTAB
M  END
>  <Molecule ChEMBL ID>
CHEMBL202606

>  <Smiles>
CCOC(=O)n1c(=O)c(C2=NS(=O)(=O)c3ccccc3N2)c(O)c2ccccc21

>  <Standard Value>
2036

$$$$
CHEMBL201305
Actelion Java MolfileCreator 2.0

  0  0  0  0  0  0              0 V3000
M  V30 BEGIN CTAB
M  V30 COUNTS 26 29 0 0 0
M  V30 BEGIN ATOM
M  V30 1 S 7.7942 2.25 0.0 0
M  V30 2 O 8.5442 3.549 0.0 0
M  V30 3 O 7.0442 3.549 0.0 0
M  V30 4 N 6.4952 1.5 0.0 0
M  V30 5 C 9.0932 1.5 0.0 0
M  V30 6 C 6.4952 0.0 0.0 0
M  V30 7 C 9.0932 0.0 0.0 0
M  V30 8 C 10.3923 2.25 0.0 0
M  V30 9 N 7.7942 -0.75 0.0 0
M  V30 10 C 5.1961 -0.75 0.0 0
M  V30 11 C 10.3923 -0.75 0.0 0
M  V30 12 C 11.6913 1.5 0.0 0
M  V30 13 C 3.8971 0.0 0.0 0
M  V30 14 C 5.1961 -2.25 0.0 0
M  V30 15 C 11.6913 0.0 0.0 0
M  V30 16 O 3.8971 1.5 0.0 0
M  V30 17 N 2.598 -0.75 0.0 0
M  V30 18 O 6.4952 -3.0 0.0 0
M  V30 19 C 3.8971 -3.0 0.0 0
M  V30 20 C 2.598 -2.25 0.0 0
M  V30 21 C 1.299 0.0 0.0 0
M  V30 22 C 3.8971 -4.5 0.0 0
M  V30 23 C 1.299 -3.0 0.0 0
M  V30 24 C 0.0 -0.75 0.0 0
M  V30 25 C 2.598 -5.25 0.0 0
M  V30 26 C 1.299 -4.5 0.0 0
M  V30 END ATOM
M  V30 BEGIN BOND
M  V30 1 2 1 2
M  V30 2 2 1 3
M  V30 3 1 1 4
M  V30 4 1 1 5
M  V30 5 2 4 6
M  V30 6 2 5 7
M  V30 7 1 5 8
M  V30 8 1 6 9
M  V30 9 1 6 10
M  V30 10 1 7 11
M  V30 11 2 8 12
M  V30 12 1 10 13
M  V30 13 2 10 14
M  V30 14 2 11 15
M  V30 15 2 13 16
M  V30 16 1 13 17
M  V30 17 1 14 18
M  V30 18 1 14 19
M  V30 19 1 17 20
M  V30 20 1 17 21
M  V30 21 1 19 22
M  V30 22 1 20 23
M  V30 23 1 21 24
M  V30 24 2 22 25
M  V30 25 2 23 26
M  V30 26 1 7 9
M  V30 27 1 12 15
M  V30 28 2 19 20
M  V30 29 1 25 26
M  V30 END BOND
M  V30 END CTAB
M  END
>  <Molecule ChEMBL ID>
CHEMBL201305

>  <Smiles>
CCn1c(=O)c(C2=NS(=O)(=O)c3ccccc3N2)c(O)c2ccccc21

>  <Standard Value>
2220

$$$$
CHEMBL381699
Actelion Java MolfileCreator 2.0

  0  0  0  0  0  0              0 V3000
M  V30 BEGIN CTAB
M  V30 COUNTS 30 33 0 0 0
M  V30 BEGIN ATOM
M  V30 1 S 3.8971 6.0 0.0 0
M  V30 2 O 3.1471 7.299 0.0 0
M  V30 3 O 2.3971 5.9999 0.0 0
M  V30 4 N 3.8971 4.5 0.0 0
M  V30 5 C 5.1961 6.75 0.0 0
M  V30 6 C 5.1961 3.75 0.0 0
M  V30 7 C 6.4951 6.0 0.0 0
M  V30 8 C 5.1961 8.25 0.0 0
M  V30 9 N 6.4951 4.5 0.0 0
M  V30 10 C 5.1961 2.25 0.0 0
M  V30 11 C 7.7942 6.75 0.0 0
M  V30 12 C 6.4951 9.0 0.0 0
M  V30 13 C 3.8971 1.5 0.0 0
M  V30 14 C 6.4951 1.5 0.0 0
M  V30 15 C 7.7942 8.25 0.0 0
M  V30 16 O 2.598 2.25 0.0 0
M  V30 17 N 3.8971 0.0 0.0 0
M  V30 18 O 7.7942 2.25 0.0 0
M  V30 19 C 6.4951 0.0 0.0 0
M  V30 20 C 5.1961 -0.75 0.0 0
M  V30 21 C 2.598 -0.75 0.0 0
M  V30 22 C 7.7942 -0.75 0.0 0
M  V30 23 C 5.1961 -2.25 0.0 0
M  V30 24 C 1.299 0.0 0.0 0
M  V30 25 C 7.7942 -2.25 0.0 0
M  V30 26 C 6.4951 -3.0 0.0 0
M  V30 27 S 0.0 -0.75 0.0 0
M  V30 28 O -0.75 0.549 0.0 0
M  V30 29 O 0.75 -2.049 0.0 0
M  V30 30 C -1.299 -1.5 0.0 0
M  V30 END ATOM
M  V30 BEGIN BOND
M  V30 1 2 1 2
M  V30 2 2 1 3
M  V30 3 1 1 4
M  V30 4 1 1 5
M  V30 5 2 4 6
M  V30 6 2 5 7
M  V30 7 1 5 8
M  V30 8 1 6 9
M  V30 9 1 6 10
M  V30 10 1 7 11
M  V30 11 2 8 12
M  V30 12 1 10 13
M  V30 13 2 10 14
M  V30 14 2 11 15
M  V30 15 2 13 16
M  V30 16 1 13 17
M  V30 17 1 14 18
M  V30 18 1 14 19
M  V30 19 1 17 20
M  V30 20 1 17 21
M  V30 21 1 19 22
M  V30 22 1 20 23
M  V30 23 1 21 24
M  V30 24 2 22 25
M  V30 25 2 23 26
M  V30 26 1 24 27
M  V30 27 2 27 28
M  V30 28 2 27 29
M  V30 29 1 27 30
M  V30 30 1 7 9
M  V30 31 1 12 15
M  V30 32 2 19 20
M  V30 33 1 25 26
M  V30 END BOND
M  V30 END CTAB
M  END
>  <Molecule ChEMBL ID>
CHEMBL381699

>  <Smiles>
CS(=O)(=O)CCn1c(=O)c(C2=NS(=O)(=O)c3ccccc3N2)c(O)c2ccccc21

>  <Standard Value>
2322

$$$$
CHEMBL203369
Actelion Java MolfileCreator 2.0

  0  0  0  0  0  0              0 V3000
M  V30 BEGIN CTAB
M  V30 COUNTS 30 33 0 0 0
M  V30 BEGIN ATOM
M  V30 1 S 10.3923 2.25 0.0 0
M  V30 2 O 11.1423 3.549 0.0 0
M  V30 3 O 9.6423 3.549 0.0 0
M  V30 4 N 9.0932 1.5 0.0 0
M  V30 5 C 11.6913 1.5 0.0 0
M  V30 6 C 9.0932 0.0 0.0 0
M  V30 7 C 11.6913 0.0 0.0 0
M  V30 8 C 12.9903 2.25 0.0 0
M  V30 9 N 10.3923 -0.75 0.0 0
M  V30 10 C 7.7942 -0.75 0.0 0
M  V30 11 C 12.9903 -0.75 0.0 0
M  V30 12 C 14.2894 1.5 0.0 0
M  V30 13 C 10.3923 -2.25 0.0 0
M  V30 14 C 6.4951 0.0 0.0 0
M  V30 15 C 7.7942 -2.25 0.0 0
M  V30 16 C 14.2894 0.0 0.0 0
M  V30 17 O 6.4951 1.5 0.0 0
M  V30 18 N 5.1961 -0.75 0.0 0
M  V30 19 O 9.0932 -3.0 0.0 0
M  V30 20 C 6.4951 -3.0 0.0 0
M  V30 21 C 5.1961 -2.25 0.0 0
M  V30 22 C 3.8971 0.0 0.0 0
M  V30 23 C 6.4951 -4.5 0.0 0
M  V30 24 C 3.8971 -3.0 0.0 0
M  V30 25 C 2.598 -0.75 0.0 0
M  V30 26 C 5.1961 -5.25 0.0 0
M  V30 27 C 3.8971 -4.5 0.0 0
M  V30 28 C 1.299 0.0 0.0 0
M  V30 29 C 1.299 1.5 0.0 0
M  V30 30 C 0.0 -0.75 0.0 0
M  V30 END ATOM
M  V30 BEGIN BOND
M  V30 1 2 1 2
M  V30 2 2 1 3
M  V30 3 1 1 4
M  V30 4 1 1 5
M  V30 5 2 4 6
M  V30 6 2 5 7
M  V30 7 1 5 8
M  V30 8 1 6 9
M  V30 9 1 6 10
M  V30 10 1 7 11
M  V30 11 2 8 12
M  V30 12 1 9 13
M  V30 13 1 10 14
M  V30 14 2 10 15
M  V30 15 2 11 16
M  V30 16 2 14 17
M  V30 17 1 14 18
M  V30 18 1 15 19
M  V30 19 1 15 20
M  V30 20 1 18 21
M  V30 21 1 18 22
M  V30 22 1 20 23
M  V30 23 1 21 24
M  V30 24 1 22 25
M  V30 25 2 23 26
M  V30 26 2 24 27
M  V30 27 1 25 28
M  V30 28 1 28 29
M  V30 29 1 28 30
M  V30 30 1 7 9
M  V30 31 1 12 16
M  V30 32 2 20 21
M  V30 33 1 26 27
M  V30 END BOND
M  V30 END CTAB
M  END
>  <Molecule ChEMBL ID>
CHEMBL203369

>  <Smiles>
CC(C)CCn1c(=O)c(C2=NS(=O)(=O)c3ccccc3N2C)c(O)c2ccccc21

>  <Standard Value>
2429

$$$$
CHEMBL381497
Actelion Java MolfileCreator 2.0

  0  0  0  0  0  0              0 V3000
M  V30 BEGIN CTAB
M  V30 COUNTS 34 38 0 0 0
M  V30 BEGIN ATOM
M  V30 1 S 7.7942 2.25 0.0 0
M  V30 2 O 8.5442 3.549 0.0 0
M  V30 3 O 7.0442 3.549 0.0 0
M  V30 4 N 6.4951 1.5 0.0 0
M  V30 5 C 9.0932 1.5 0.0 0
M  V30 6 C 6.4951 0.0 0.0 0
M  V30 7 C 9.0932 0.0 0.0 0
M  V30 8 C 10.3923 2.25 0.0 0
M  V30 9 N 7.7942 -0.75 0.0 0
M  V30 10 C 5.1961 -0.75 0.0 0
M  V30 11 C 10.3923 -0.75 0.0 0
M  V30 12 C 11.6913 1.5 0.0 0
M  V30 13 C 3.8971 0.0 0.0 0
M  V30 14 C 5.1961 -2.25 0.0 0
M  V30 15 C 11.6913 0.0 0.0 0
M  V30 16 O 3.8971 1.5 0.0 0
M  V30 17 N 2.598 -0.75 0.0 0
M  V30 18 O 6.4951 -3.0 0.0 0
M  V30 19 C 3.8971 -3.0 0.0 0
M  V30 20 C 2.598 -2.25 0.0 0
M  V30 21 C 1.299 0.0 0.0 0
M  V30 22 C 3.8971 -4.5 0.0 0
M  V30 23 C 1.299 -3.0 0.0 0
M  V30 24 C 0.0 -0.75 0.0 0
M  V30 25 C 2.598 -5.25 0.0 0
M  V30 26 C 1.299 -4.5 0.0 0
M  V30 27 C -1.299 0.0 0.0 0
M  V30 28 C 0.0 -2.25 0.0 0
M  V30 29 C -2.598 -0.75 0.0 0
M  V30 30 C -1.299 -3.0 0.0 0
M  V30 31 C -2.598 -2.25 0.0 0
M  V30 32 N -3.8971 -3.0 0.0 0 CHG=1
M  V30 33 O -5.1961 -2.25 0.0 0
M  V30 34 O -3.8971 -4.5 0.0 0 CHG=-1
M  V30 END ATOM
M  V30 BEGIN BOND
M  V30 1 2 1 2
M  V30 2 2 1 3
M  V30 3 1 1 4
M  V30 4 1 1 5
M  V30 5 2 4 6
M  V30 6 2 5 7
M  V30 7 1 5 8
M  V30 8 1 6 9
M  V30 9 1 6 10
M  V30 10 1 7 11
M  V30 11 2 8 12
M  V30 12 1 10 13
M  V30 13 2 10 14
M  V30 14 2 11 15
M  V30 15 2 13 16
M  V30 16 1 13 17
M  V30 17 1 14 18
M  V30 18 1 14 19
M  V30 19 1 17 20
M  V30 20 1 17 21
M  V30 21 1 19 22
M  V30 22 1 20 23
M  V30 23 1 21 24
M  V30 24 2 22 25
M  V30 25 2 23 26
M  V30 26 2 24 27
M  V30 27 1 24 28
M  V30 28 1 27 29
M  V30 29 2 28 30
M  V30 30 2 29 31
M  V30 31 1 31 32
M  V30 32 2 32 33
M  V30 33 1 32 34
M  V30 34 1 7 9
M  V30 35 1 12 15
M  V30 36 2 19 20
M  V30 37 1 25 26
M  V30 38 1 30 31
M  V30 END BOND
M  V30 END CTAB
M  END
>  <Molecule ChEMBL ID>
CHEMBL381497

>  <Smiles>
O=c1c(C2=NS(=O)(=O)c3ccccc3N2)c(O)c2ccccc2n1Cc1ccc([N+](=O)[O-])cc1

>  <Standard Value>
2442

$$$$
CHEMBL425221
Actelion Java MolfileCreator 2.0

  0  0  0  0  0  0              0 V3000
M  V30 BEGIN CTAB
M  V30 COUNTS 34 37 0 0 0
M  V30 BEGIN ATOM
M  V30 1 S 10.3923 2.25 0.0 0
M  V30 2 O 11.1423 3.549 0.0 0
M  V30 3 O 9.6423 3.549 0.0 0
M  V30 4 N 9.0932 1.5 0.0 0
M  V30 5 C 11.6913 1.5 0.0 0
M  V30 6 C 9.0932 0.0 0.0 0
M  V30 7 C 11.6913 0.0 0.0 0
M  V30 8 C 12.9903 2.25 0.0 0
M  V30 9 N 10.3923 -0.75 0.0 0
M  V30 10 C 7.7942 -0.75 0.0 0
M  V30 11 C 12.9903 -0.75 0.0 0
M  V30 12 C 14.2894 1.5 0.0 0
M  V30 13 C 6.4951 0.0 0.0 0
M  V30 14 C 7.7942 -2.25 0.0 0
M  V30 15 C 14.2894 0.0 0.0 0
M  V30 16 O 6.4951 1.5 0.0 0
M  V30 17 N 5.1961 -0.75 0.0 0
M  V30 18 O 9.0932 -3.0 0.0 0
M  V30 19 C 6.4951 -3.0 0.0 0
M  V30 20 C 5.1961 -2.25 0.0 0
M  V30 21 C 3.8971 0.0 0.0 0
M  V30 22 C 6.4951 -4.5 0.0 0
M  V30 23 C 3.8971 -3.0 0.0 0
M  V30 24 C 2.598 -0.75 0.0 0
M  V30 25 C 5.1961 -5.25 0.0 0
M  V30 26 C 3.8971 -4.5 0.0 0
M  V30 27 C 1.299 0.0 0.0 0
M  V30 28 N 5.1961 -6.75 0.0 0
M  V30 29 C 1.299 1.5 0.0 0
M  V30 30 C 0.0 -0.75 0.0 0
M  V30 31 C 6.4951 -7.5 0.0 0
M  V30 32 C 6.4951 -9.0 0.0 0
M  V30 33 O 5.1961 -9.75 0.0 0
M  V30 34 O 7.7942 -9.75 0.0 0
M  V30 END ATOM
M  V30 BEGIN BOND
M  V30 1 2 1 2
M  V30 2 2 1 3
M  V30 3 1 1 4
M  V30 4 1 1 5
M  V30 5 2 4 6
M  V30 6 2 5 7
M  V30 7 1 5 8
M  V30 8 1 6 9
M  V30 9 1 6 10
M  V30 10 1 7 11
M  V30 11 2 8 12
M  V30 12 1 10 13
M  V30 13 2 10 14
M  V30 14 2 11 15
M  V30 15 2 13 16
M  V30 16 1 13 17
M  V30 17 1 14 18
M  V30 18 1 14 19
M  V30 19 1 17 20
M  V30 20 1 17 21
M  V30 21 1 19 22
M  V30 22 1 20 23
M  V30 23 1 21 24
M  V30 24 2 22 25
M  V30 25 2 23 26
M  V30 26 1 24 27
M  V30 27 1 25 28
M  V30 28 1 27 29
M  V30 29 1 27 30
M  V30 30 1 28 31
M  V30 31 1 31 32
M  V30 32 2 32 33
M  V30 33 1 32 34
M  V30 34 1 7 9
M  V30 35 1 12 15
M  V30 36 2 19 20
M  V30 37 1 25 26
M  V30 END BOND
M  V30 END CTAB
M  END
>  <Molecule ChEMBL ID>
CHEMBL425221

>  <Smiles>
CC(C)CCn1c(=O)c(C2=NS(=O)(=O)c3ccccc3N2)c(O)c2cc(NCC(=O)O)ccc21

>  <Standard Value>
2492

$$$$
CHEMBL202325
Actelion Java MolfileCreator 2.0

  0  0  0  0  0  0              0 V3000
M  V30 BEGIN CTAB
M  V30 COUNTS 29 32 0 0 0
M  V30 BEGIN ATOM
M  V30 1 S 10.3923 2.25 0.0 0
M  V30 2 O 11.1423 3.549 0.0 0
M  V30 3 O 9.6423 3.549 0.0 0
M  V30 4 N 9.0932 1.5 0.0 0
M  V30 5 C 11.6913 1.5 0.0 0
M  V30 6 C 9.0932 0.0 0.0 0
M  V30 7 C 11.6913 0.0 0.0 0
M  V30 8 C 12.9903 2.25 0.0 0
M  V30 9 N 10.3923 -0.75 0.0 0
M  V30 10 C 7.7942 -0.75 0.0 0
M  V30 11 C 12.9903 -0.75 0.0 0
M  V30 12 C 14.2894 1.5 0.0 0
M  V30 13 C 6.4951 0.0 0.0 0
M  V30 14 C 7.7942 -2.25 0.0 0
M  V30 15 C 14.2894 0.0 0.0 0
M  V30 16 O 6.4951 1.5 0.0 0
M  V30 17 N 5.1961 -0.75 0.0 0
M  V30 18 O 9.0932 -3.0 0.0 0
M  V30 19 C 6.4951 -3.0 0.0 0
M  V30 20 C 5.1961 -2.25 0.0 0
M  V30 21 C 3.8971 0.0 0.0 0
M  V30 22 C 6.4951 -4.5 0.0 0
M  V30 23 C 3.8971 -3.0 0.0 0
M  V30 24 C 2.598 -0.75 0.0 0
M  V30 25 C 5.1961 -5.25 0.0 0
M  V30 26 C 3.8971 -4.5 0.0 0
M  V30 27 S 1.299 0.0 0.0 0 CFG=1
M  V30 28 O 1.299 1.5 0.0 0
M  V30 29 C 0.0 -0.75 0.0 0
M  V30 END ATOM
M  V30 BEGIN BOND
M  V30 1 2 1 2
M  V30 2 2 1 3
M  V30 3 1 1 4
M  V30 4 1 1 5
M  V30 5 2 4 6
M  V30 6 2 5 7
M  V30 7 1 5 8
M  V30 8 1 6 9
M  V30 9 1 6 10
M  V30 10 1 7 11
M  V30 11 2 8 12
M  V30 12 1 10 13
M  V30 13 2 10 14
M  V30 14 2 11 15
M  V30 15 2 13 16
M  V30 16 1 13 17
M  V30 17 1 14 18
M  V30 18 1 14 19
M  V30 19 1 17 20
M  V30 20 1 17 21
M  V30 21 1 19 22
M  V30 22 1 20 23
M  V30 23 1 21 24
M  V30 24 2 22 25
M  V30 25 2 23 26
M  V30 26 1 27 24
M  V30 27 2 27 28
M  V30 28 1 27 29 CFG=3
M  V30 29 1 7 9
M  V30 30 1 12 15
M  V30 31 2 19 20
M  V30 32 1 25 26
M  V30 END BOND
M  V30 BEGIN COLLECTION
M  V30 MDLV30/STERAC1 ATOMS=(1 27)
M  V30 END COLLECTION
M  V30 END CTAB
M  END
>  <Molecule ChEMBL ID>
CHEMBL202325

>  <Smiles>
C[S+]([O-])CCn1c(=O)c(C2=NS(=O)(=O)c3ccccc3N2)c(O)c2ccccc21

>  <Standard Value>
2537

$$$$
CHEMBL200985
Actelion Java MolfileCreator 2.0

  0  0  0  0  0  0              0 V3000
M  V30 BEGIN CTAB
M  V30 COUNTS 31 35 0 0 0
M  V30 BEGIN ATOM
M  V30 1 S 7.7942 2.25 0.0 0
M  V30 2 O 8.5442 3.549 0.0 0
M  V30 3 O 7.0442 3.549 0.0 0
M  V30 4 N 6.4951 1.5 0.0 0
M  V30 5 C 9.0932 1.5 0.0 0
M  V30 6 C 6.4951 0.0 0.0 0
M  V30 7 C 9.0932 0.0 0.0 0
M  V30 8 C 10.3923 2.25 0.0 0
M  V30 9 N 7.7942 -0.75 0.0 0
M  V30 10 C 5.1961 -0.75 0.0 0
M  V30 11 C 10.3923 -0.75 0.0 0
M  V30 12 C 11.6913 1.5 0.0 0
M  V30 13 C 3.8971 0.0 0.0 0
M  V30 14 C 5.1961 -2.25 0.0 0
M  V30 15 C 11.6913 0.0 0.0 0
M  V30 16 O 3.8971 1.5 0.0 0
M  V30 17 N 2.598 -0.75 0.0 0
M  V30 18 O 6.4951 -3.0 0.0 0
M  V30 19 C 3.8971 -3.0 0.0 0
M  V30 20 C 2.598 -2.25 0.0 0
M  V30 21 C 1.299 0.0 0.0 0
M  V30 22 C 3.8971 -4.5 0.0 0
M  V30 23 C 1.299 -3.0 0.0 0
M  V30 24 C 0.0 -0.75 0.0 0
M  V30 25 C 2.598 -5.25 0.0 0
M  V30 26 C 1.299 -4.5 0.0 0
M  V30 27 N -1.299 0.0 0.0 0
M  V30 28 C 0.0 -2.25 0.0 0
M  V30 29 C -2.598 -0.75 0.0 0
M  V30 30 C -1.299 -3.0 0.0 0
M  V30 31 C -2.598 -2.25 0.0 0
M  V30 END ATOM
M  V30 BEGIN BOND
M  V30 1 2 1 2
M  V30 2 2 1 3
M  V30 3 1 1 4
M  V30 4 1 1 5
M  V30 5 2 4 6
M  V30 6 2 5 7
M  V30 7 1 5 8
M  V30 8 1 6 9
M  V30 9 1 6 10
M  V30 10 1 7 11
M  V30 11 2 8 12
M  V30 12 1 10 13
M  V30 13 2 10 14
M  V30 14 2 11 15
M  V30 15 2 13 16
M  V30 16 1 13 17
M  V30 17 1 14 18
M  V30 18 1 14 19
M  V30 19 1 17 20
M  V30 20 1 17 21
M  V30 21 1 19 22
M  V30 22 1 20 23
M  V30 23 1 21 24
M  V30 24 2 22 25
M  V30 25 2 23 26
M  V30 26 2 24 27
M  V30 27 1 24 28
M  V30 28 1 27 29
M  V30 29 2 28 30
M  V30 30 2 29 31
M  V30 31 1 7 9
M  V30 32 1 12 15
M  V30 33 2 19 20
M  V30 34 1 25 26
M  V30 35 1 30 31
M  V30 END BOND
M  V30 END CTAB
M  END
>  <Molecule ChEMBL ID>
CHEMBL200985

>  <Smiles>
O=c1c(C2=NS(=O)(=O)c3ccccc3N2)c(O)c2ccccc2n1Cc1ccccn1

>  <Standard Value>
2694

$$$$
CHEMBL201040
Actelion Java MolfileCreator 2.0

  0  0  0  0  0  0              0 V3000
M  V30 BEGIN CTAB
M  V30 COUNTS 28 31 0 0 0
M  V30 BEGIN ATOM
M  V30 1 S 10.3923 2.25 0.0 0
M  V30 2 O 11.1423 3.549 0.0 0
M  V30 3 O 9.6423 3.549 0.0 0
M  V30 4 N 9.0932 1.5 0.0 0
M  V30 5 C 11.6913 1.5 0.0 0
M  V30 6 C 9.0932 0.0 0.0 0
M  V30 7 C 11.6913 0.0 0.0 0
M  V30 8 C 12.9903 2.25 0.0 0
M  V30 9 N 10.3923 -0.75 0.0 0
M  V30 10 C 7.7942 -0.75 0.0 0
M  V30 11 C 12.9903 -0.75 0.0 0
M  V30 12 C 14.2894 1.5 0.0 0
M  V30 13 C 6.4951 0.0 0.0 0
M  V30 14 C 7.7942 -2.25 0.0 0
M  V30 15 C 14.2894 0.0 0.0 0
M  V30 16 O 6.4951 1.5 0.0 0
M  V30 17 N 5.1961 -0.75 0.0 0
M  V30 18 O 9.0932 -3.0 0.0 0
M  V30 19 C 6.4951 -3.0 0.0 0
M  V30 20 C 5.1961 -2.25 0.0 0
M  V30 21 C 3.8971 0.0 0.0 0
M  V30 22 C 6.4951 -4.5 0.0 0
M  V30 23 C 3.8971 -3.0 0.0 0
M  V30 24 C 2.598 -0.75 0.0 0
M  V30 25 C 5.1961 -5.25 0.0 0
M  V30 26 C 3.8971 -4.5 0.0 0
M  V30 27 C 1.299 0.0 0.0 0
M  V30 28 O 0.0 -0.75 0.0 0
M  V30 END ATOM
M  V30 BEGIN BOND
M  V30 1 2 1 2
M  V30 2 2 1 3
M  V30 3 1 1 4
M  V30 4 1 1 5
M  V30 5 2 4 6
M  V30 6 2 5 7
M  V30 7 1 5 8
M  V30 8 1 6 9
M  V30 9 1 6 10
M  V30 10 1 7 11
M  V30 11 2 8 12
M  V30 12 1 10 13
M  V30 13 2 10 14
M  V30 14 2 11 15
M  V30 15 2 13 16
M  V30 16 1 13 17
M  V30 17 1 14 18
M  V30 18 1 14 19
M  V30 19 1 17 20
M  V30 20 1 17 21
M  V30 21 1 19 22
M  V30 22 1 20 23
M  V30 23 1 21 24
M  V30 24 2 22 25
M  V30 25 2 23 26
M  V30 26 1 24 27
M  V30 27 1 27 28
M  V30 28 1 7 9
M  V30 29 1 12 15
M  V30 30 2 19 20
M  V30 31 1 25 26
M  V30 END BOND
M  V30 END CTAB
M  END
>  <Molecule ChEMBL ID>
CHEMBL201040

>  <Smiles>
O=c1c(C2=NS(=O)(=O)c3ccccc3N2)c(O)c2ccccc2n1CCCO

>  <Standard Value>
2815

$$$$
CHEMBL201034
Actelion Java MolfileCreator 2.0

  0  0  0  0  0  0              0 V3000
M  V30 BEGIN CTAB
M  V30 COUNTS 37 41 0 0 0
M  V30 BEGIN ATOM
M  V30 1 S 10.3923 2.25 0.0 0
M  V30 2 O 11.1423 3.549 0.0 0
M  V30 3 O 9.6423 3.549 0.0 0
M  V30 4 N 9.0932 1.5 0.0 0
M  V30 5 C 11.6913 1.5 0.0 0
M  V30 6 C 9.0932 0.0 0.0 0
M  V30 7 C 11.6913 0.0 0.0 0
M  V30 8 C 12.9903 2.25 0.0 0
M  V30 9 N 10.3923 -0.75 0.0 0
M  V30 10 C 7.7942 -0.75 0.0 0
M  V30 11 C 12.9903 -0.75 0.0 0
M  V30 12 C 14.2894 1.5 0.0 0
M  V30 13 C 6.4951 0.0 0.0 0
M  V30 14 C 7.7942 -2.25 0.0 0
M  V30 15 C 14.2894 0.0 0.0 0
M  V30 16 O 6.4951 1.5 0.0 0
M  V30 17 N 5.1961 -0.75 0.0 0
M  V30 18 O 9.0932 -3.0 0.0 0
M  V30 19 C 6.4951 -3.0 0.0 0
M  V30 20 C 5.1961 -2.25 0.0 0
M  V30 21 C 3.8971 0.0 0.0 0
M  V30 22 C 6.4951 -4.5 0.0 0
M  V30 23 C 3.8971 -3.0 0.0 0
M  V30 24 C 2.598 -0.75 0.0 0
M  V30 25 C 5.1961 -5.25 0.0 0
M  V30 26 C 3.8971 -4.5 0.0 0
M  V30 27 C 1.299 0.0 0.0 0
M  V30 28 O 5.1961 -6.75 0.0 0
M  V30 29 C 1.299 1.5 0.0 0
M  V30 30 C 0.0 -0.75 0.0 0
M  V30 31 C 3.8971 -7.5 0.0 0
M  V30 32 C 3.8971 -9.0 0.0 0
M  V30 33 C 2.598 -9.75 0.0 0
M  V30 34 C 5.1961 -9.75 0.0 0
M  V30 35 C 2.598 -11.25 0.0 0
M  V30 36 C 5.1961 -11.25 0.0 0
M  V30 37 C 3.8971 -12.0 0.0 0
M  V30 END ATOM
M  V30 BEGIN BOND
M  V30 1 2 1 2
M  V30 2 2 1 3
M  V30 3 1 1 4
M  V30 4 1 1 5
M  V30 5 2 4 6
M  V30 6 2 5 7
M  V30 7 1 5 8
M  V30 8 1 6 9
M  V30 9 1 6 10
M  V30 10 1 7 11
M  V30 11 2 8 12
M  V30 12 1 10 13
M  V30 13 2 10 14
M  V30 14 2 11 15
M  V30 15 2 13 16
M  V30 16 1 13 17
M  V30 17 1 14 18
M  V30 18 1 14 19
M  V30 19 1 17 20
M  V30 20 1 17 21
M  V30 21 1 19 22
M  V30 22 1 20 23
M  V30 23 1 21 24
M  V30 24 2 22 25
M  V30 25 2 23 26
M  V30 26 1 24 27
M  V30 27 1 25 28
M  V30 28 1 27 29
M  V30 29 1 27 30
M  V30 30 1 28 31
M  V30 31 1 31 32
M  V30 32 2 32 33
M  V30 33 1 32 34
M  V30 34 1 33 35
M  V30 35 2 34 36
M  V30 36 2 35 37
M  V30 37 1 7 9
M  V30 38 1 12 15
M  V30 39 2 19 20
M  V30 40 1 25 26
M  V30 41 1 36 37
M  V30 END BOND
M  V30 END CTAB
M  END
>  <Molecule ChEMBL ID>
CHEMBL201034

>  <Smiles>
CC(C)CCn1c(=O)c(C2=NS(=O)(=O)c3ccccc3N2)c(O)c2cc(OCc3ccccc3)ccc21

>  <Standard Value>
3950

$$$$
CHEMBL202005
Actelion Java MolfileCreator 2.0

  0  0  0  0  0  0              0 V3000
M  V30 BEGIN CTAB
M  V30 COUNTS 38 42 0 0 0
M  V30 BEGIN ATOM
M  V30 1 S 10.3923 2.25 0.0 0
M  V30 2 O 11.1423 3.549 0.0 0
M  V30 3 O 9.6423 3.549 0.0 0
M  V30 4 N 9.0932 1.5 0.0 0
M  V30 5 C 11.6913 1.5 0.0 0
M  V30 6 C 9.0932 0.0 0.0 0
M  V30 7 C 11.6913 0.0 0.0 0
M  V30 8 C 12.9903 2.25 0.0 0
M  V30 9 N 10.3923 -0.75 0.0 0
M  V30 10 C 7.7942 -0.75 0.0 0
M  V30 11 C 12.9903 -0.75 0.0 0
M  V30 12 C 14.2894 1.5 0.0 0
M  V30 13 C 6.4951 0.0 0.0 0
M  V30 14 C 7.7942 -2.25 0.0 0
M  V30 15 C 14.2894 0.0 0.0 0
M  V30 16 O 6.4951 1.5 0.0 0
M  V30 17 N 5.1961 -0.75 0.0 0
M  V30 18 O 9.0932 -3.0 0.0 0
M  V30 19 C 6.4951 -3.0 0.0 0
M  V30 20 C 5.1961 -2.25 0.0 0
M  V30 21 C 3.8971 0.0 0.0 0
M  V30 22 C 6.4951 -4.5 0.0 0
M  V30 23 C 3.8971 -3.0 0.0 0
M  V30 24 C 2.598 -0.75 0.0 0
M  V30 25 C 5.1961 -5.25 0.0 0
M  V30 26 C 3.8971 -4.5 0.0 0
M  V30 27 C 1.299 0.0 0.0 0
M  V30 28 N 5.1961 -6.75 0.0 0
M  V30 29 C 1.299 1.5 0.0 0
M  V30 30 C 0.0 -0.75 0.0 0
M  V30 31 C 3.8971 -7.5 0.0 0
M  V30 32 O 2.598 -6.75 0.0 0
M  V30 33 C 3.8971 -9.0 0.0 0
M  V30 34 C 2.598 -9.75 0.0 0
M  V30 35 C 5.1961 -9.75 0.0 0
M  V30 36 C 2.598 -11.25 0.0 0
M  V30 37 C 5.1961 -11.25 0.0 0
M  V30 38 C 3.8971 -12.0 0.0 0
M  V30 END ATOM
M  V30 BEGIN BOND
M  V30 1 2 1 2
M  V30 2 2 1 3
M  V30 3 1 1 4
M  V30 4 1 1 5
M  V30 5 2 4 6
M  V30 6 2 5 7
M  V30 7 1 5 8
M  V30 8 1 6 9
M  V30 9 1 6 10
M  V30 10 1 7 11
M  V30 11 2 8 12
M  V30 12 1 10 13
M  V30 13 2 10 14
M  V30 14 2 11 15
M  V30 15 2 13 16
M  V30 16 1 13 17
M  V30 17 1 14 18
M  V30 18 1 14 19
M  V30 19 1 17 20
M  V30 20 1 17 21
M  V30 21 1 19 22
M  V30 22 1 20 23
M  V30 23 1 21 24
M  V30 24 2 22 25
M  V30 25 2 23 26
M  V30 26 1 24 27
M  V30 27 1 25 28
M  V30 28 1 27 29
M  V30 29 1 27 30
M  V30 30 1 28 31
M  V30 31 2 31 32
M  V30 32 1 31 33
M  V30 33 2 33 34
M  V30 34 1 33 35
M  V30 35 1 34 36
M  V30 36 2 35 37
M  V30 37 2 36 38
M  V30 38 1 7 9
M  V30 39 1 12 15
M  V30 40 2 19 20
M  V30 41 1 25 26
M  V30 42 1 37 38
M  V30 END BOND
M  V30 END CTAB
M  END
>  <Molecule ChEMBL ID>
CHEMBL202005

>  <Smiles>
CC(C)CCn1c(=O)c(C2=NS(=O)(=O)c3ccccc3N2)c(O)c2cc(NC(=O)c3ccccc3)ccc21

>  <Standard Value>
4235

$$$$
CHEMBL382159
Actelion Java MolfileCreator 2.0

  0  0  0  0  0  0              0 V3000
M  V30 BEGIN CTAB
M  V30 COUNTS 35 38 0 0 0
M  V30 BEGIN ATOM
M  V30 1 S 10.3923 2.25 0.0 0
M  V30 2 O 11.1423 3.549 0.0 0
M  V30 3 O 9.6423 3.549 0.0 0
M  V30 4 N 9.0932 1.5 0.0 0
M  V30 5 C 11.6913 1.5 0.0 0
M  V30 6 C 9.0932 0.0 0.0 0
M  V30 7 C 11.6913 0.0 0.0 0
M  V30 8 C 12.9903 2.25 0.0 0
M  V30 9 N 10.3923 -0.75 0.0 0
M  V30 10 C 7.7942 -0.75 0.0 0
M  V30 11 C 12.9903 -0.75 0.0 0
M  V30 12 C 14.2894 1.5 0.0 0
M  V30 13 C 6.4951 0.0 0.0 0
M  V30 14 C 7.7942 -2.25 0.0 0
M  V30 15 C 14.2894 0.0 0.0 0
M  V30 16 O 6.4951 1.5 0.0 0
M  V30 17 N 5.1961 -0.75 0.0 0
M  V30 18 O 9.0932 -3.0 0.0 0
M  V30 19 C 6.4951 -3.0 0.0 0
M  V30 20 C 5.1961 -2.25 0.0 0
M  V30 21 C 3.8971 0.0 0.0 0
M  V30 22 C 6.4951 -4.5 0.0 0
M  V30 23 C 3.8971 -3.0 0.0 0
M  V30 24 C 2.598 -0.75 0.0 0
M  V30 25 C 5.1961 -5.25 0.0 0
M  V30 26 C 3.8971 -4.5 0.0 0
M  V30 27 C 1.299 0.0 0.0 0
M  V30 28 O 5.1961 -6.75 0.0 0
M  V30 29 C 1.299 1.5 0.0 0
M  V30 30 C 0.0 -0.75 0.0 0
M  V30 31 C 6.4951 -7.5 0.0 0
M  V30 32 C 6.4951 -9.0 0.0 0
M  V30 33 C 7.7942 -9.75 0.0 0
M  V30 34 C 9.0932 -9.0 0.0 0
M  V30 35 N 10.3923 -8.25 0.0 0
M  V30 END ATOM
M  V30 BEGIN BOND
M  V30 1 2 1 2
M  V30 2 2 1 3
M  V30 3 1 1 4
M  V30 4 1 1 5
M  V30 5 2 4 6
M  V30 6 2 5 7
M  V30 7 1 5 8
M  V30 8 1 6 9
M  V30 9 1 6 10
M  V30 10 1 7 11
M  V30 11 2 8 12
M  V30 12 1 10 13
M  V30 13 2 10 14
M  V30 14 2 11 15
M  V30 15 2 13 16
M  V30 16 1 13 17
M  V30 17 1 14 18
M  V30 18 1 14 19
M  V30 19 1 17 20
M  V30 20 1 17 21
M  V30 21 1 19 22
M  V30 22 1 20 23
M  V30 23 1 21 24
M  V30 24 2 22 25
M  V30 25 2 23 26
M  V30 26 1 24 27
M  V30 27 1 25 28
M  V30 28 1 27 29
M  V30 29 1 27 30
M  V30 30 1 28 31
M  V30 31 1 31 32
M  V30 32 1 32 33
M  V30 33 1 33 34
M  V30 34 3 34 35
M  V30 35 1 7 9
M  V30 36 1 12 15
M  V30 37 2 19 20
M  V30 38 1 25 26
M  V30 END BOND
M  V30 END CTAB
M  END
>  <Molecule ChEMBL ID>
CHEMBL382159

>  <Smiles>
CC(C)CCn1c(=O)c(C2=NS(=O)(=O)c3ccccc3N2)c(O)c2cc(OCCCC#N)ccc21

>  <Standard Value>
4328

$$$$
CHEMBL202566
Actelion Java MolfileCreator 2.0

  0  0  0  0  0  0              0 V3000
M  V30 BEGIN CTAB
M  V30 COUNTS 25 28 0 0 0
M  V30 BEGIN ATOM
M  V30 1 S 2.598 2.25 0.0 0
M  V30 2 O 3.348 3.549 0.0 0
M  V30 3 O 1.848 3.549 0.0 0
M  V30 4 N 1.299 1.5 0.0 0
M  V30 5 C 3.8971 1.5 0.0 0
M  V30 6 C 1.299 0.0 0.0 0
M  V30 7 C 3.8971 0.0 0.0 0
M  V30 8 C 5.1961 2.25 0.0 0
M  V30 9 N 2.598 -0.75 0.0 0
M  V30 10 C 0.0 -0.75 0.0 0
M  V30 11 C 5.1961 -0.75 0.0 0
M  V30 12 C 6.4952 1.5 0.0 0
M  V30 13 C -1.299 0.0 0.0 0
M  V30 14 C 0.0 -2.25 0.0 0
M  V30 15 C 6.4952 0.0 0.0 0
M  V30 16 O -1.299 1.5 0.0 0
M  V30 17 N -2.598 -0.75 0.0 0
M  V30 18 O 1.299 -3.0 0.0 0
M  V30 19 C -1.299 -3.0 0.0 0
M  V30 20 C -2.598 -2.25 0.0 0
M  V30 21 C -3.8971 0.0 0.0 0
M  V30 22 C -1.299 -4.5 0.0 0
M  V30 23 C -3.8971 -3.0 0.0 0
M  V30 24 C -2.598 -5.25 0.0 0
M  V30 25 C -3.8971 -4.5 0.0 0
M  V30 END ATOM
M  V30 BEGIN BOND
M  V30 1 2 1 2
M  V30 2 2 1 3
M  V30 3 1 1 4
M  V30 4 1 1 5
M  V30 5 2 4 6
M  V30 6 2 5 7
M  V30 7 1 5 8
M  V30 8 1 6 9
M  V30 9 1 6 10
M  V30 10 1 7 11
M  V30 11 2 8 12
M  V30 12 1 10 13
M  V30 13 2 10 14
M  V30 14 2 11 15
M  V30 15 2 13 16
M  V30 16 1 13 17
M  V30 17 1 14 18
M  V30 18 1 14 19
M  V30 19 1 17 20
M  V30 20 1 17 21
M  V30 21 1 19 22
M  V30 22 1 20 23
M  V30 23 2 22 24
M  V30 24 2 23 25
M  V30 25 1 7 9
M  V30 26 1 12 15
M  V30 27 2 19 20
M  V30 28 1 24 25
M  V30 END BOND
M  V30 END CTAB
M  END
>  <Molecule ChEMBL ID>
CHEMBL202566

>  <Smiles>
Cn1c(=O)c(C2=NS(=O)(=O)c3ccccc3N2)c(O)c2ccccc21

>  <Standard Value>
5592

$$$$
CHEMBL204401
Actelion Java MolfileCreator 2.0

  0  0  0  0  0  0              0 V3000
M  V30 BEGIN CTAB
M  V30 COUNTS 36 39 0 0 0
M  V30 BEGIN ATOM
M  V30 1 S 15.5884 -0.75 0.0 0
M  V30 2 O 17.0884 -0.75 0.0 0
M  V30 3 O 16.3384 0.549 0.0 0
M  V30 4 N 14.2894 0.0 0.0 0
M  V30 5 C 15.5884 -2.25 0.0 0
M  V30 6 C 12.9903 -0.75 0.0 0
M  V30 7 C 14.2894 -3.0 0.0 0
M  V30 8 C 16.8875 -3.0 0.0 0
M  V30 9 N 12.9903 -2.25 0.0 0
M  V30 10 C 11.6913 0.0 0.0 0
M  V30 11 C 14.2894 -4.5 0.0 0
M  V30 12 C 16.8875 -4.5 0.0 0
M  V30 13 C 11.6913 1.5 0.0 0
M  V30 14 C 10.3923 -0.75 0.0 0
M  V30 15 C 15.5884 -5.25 0.0 0
M  V30 16 O 12.9903 2.25 0.0 0
M  V30 17 N 10.3923 2.25 0.0 0
M  V30 18 O 10.3923 -2.25 0.0 0
M  V30 19 C 9.0932 0.0 0.0 0
M  V30 20 C 9.0932 1.5 0.0 0
M  V30 21 C 10.3923 3.75 0.0 0
M  V30 22 C 7.7942 -0.75 0.0 0
M  V30 23 C 7.7942 2.25 0.0 0
M  V30 24 C 9.0932 4.5 0.0 0
M  V30 25 C 6.4951 0.0 0.0 0
M  V30 26 C 6.4951 1.5 0.0 0
M  V30 27 C 9.0932 6.0 0.0 0
M  V30 28 N 5.1961 -0.75 0.0 0
M  V30 29 C 10.3923 6.75 0.0 0
M  V30 30 C 7.7942 6.75 0.0 0
M  V30 31 C 3.8971 0.0 0.0 0
M  V30 32 O 3.8971 1.5 0.0 0
M  V30 33 C 2.598 -0.75 0.0 0
M  V30 34 N 1.299 0.0 0.0 0
M  V30 35 C 1.299 1.5 0.0 0
M  V30 36 C 0.0 -0.75 0.0 0
M  V30 END ATOM
M  V30 BEGIN BOND
M  V30 1 2 1 2
M  V30 2 2 1 3
M  V30 3 1 1 4
M  V30 4 1 1 5
M  V30 5 2 4 6
M  V30 6 2 5 7
M  V30 7 1 5 8
M  V30 8 1 6 9
M  V30 9 1 6 10
M  V30 10 1 7 11
M  V30 11 2 8 12
M  V30 12 1 10 13
M  V30 13 2 10 14
M  V30 14 2 11 15
M  V30 15 2 13 16
M  V30 16 1 13 17
M  V30 17 1 14 18
M  V30 18 1 14 19
M  V30 19 1 17 20
M  V30 20 1 17 21
M  V30 21 1 19 22
M  V30 22 1 20 23
M  V30 23 1 21 24
M  V30 24 2 22 25
M  V30 25 2 23 26
M  V30 26 1 24 27
M  V30 27 1 25 28
M  V30 28 1 27 29
M  V30 29 1 27 30
M  V30 30 1 28 31
M  V30 31 2 31 32
M  V30 32 1 31 33
M  V30 33 1 33 34
M  V30 34 1 34 35
M  V30 35 1 34 36
M  V30 36 1 7 9
M  V30 37 1 12 15
M  V30 38 2 19 20
M  V30 39 1 25 26
M  V30 END BOND
M  V30 END CTAB
M  END
>  <Molecule ChEMBL ID>
CHEMBL204401

>  <Smiles>
CC(C)CCn1c(=O)c(C2=NS(=O)(=O)c3ccccc3N2)c(O)c2cc(NC(=O)CN(C)C)ccc21

>  <Standard Value>
5805

$$$$
CHEMBL383063
Actelion Java MolfileCreator 2.0

  0  0  0  0  0  0              0 V3000
M  V30 BEGIN CTAB
M  V30 COUNTS 36 39 0 0 0
M  V30 BEGIN ATOM
M  V30 1 S 15.5884 -0.75 0.0 0
M  V30 2 O 17.0884 -0.75 0.0 0
M  V30 3 O 16.3384 0.549 0.0 0
M  V30 4 N 14.2894 0.0 0.0 0
M  V30 5 C 15.5884 -2.25 0.0 0
M  V30 6 C 12.9903 -0.75 0.0 0
M  V30 7 C 14.2894 -3.0 0.0 0
M  V30 8 C 16.8875 -3.0 0.0 0
M  V30 9 N 12.9903 -2.25 0.0 0
M  V30 10 C 11.6913 0.0 0.0 0
M  V30 11 C 14.2894 -4.5 0.0 0
M  V30 12 C 16.8875 -4.5 0.0 0
M  V30 13 C 11.6913 1.5 0.0 0
M  V30 14 C 10.3923 -0.75 0.0 0
M  V30 15 C 15.5884 -5.25 0.0 0
M  V30 16 O 12.9903 2.25 0.0 0
M  V30 17 N 10.3923 2.25 0.0 0
M  V30 18 O 10.3923 -2.25 0.0 0
M  V30 19 C 9.0932 0.0 0.0 0
M  V30 20 C 9.0932 1.5 0.0 0
M  V30 21 C 10.3923 3.75 0.0 0
M  V30 22 C 7.7942 -0.75 0.0 0
M  V30 23 C 7.7942 2.25 0.0 0
M  V30 24 C 9.0932 4.5 0.0 0
M  V30 25 C 6.4951 0.0 0.0 0
M  V30 26 C 6.4951 1.5 0.0 0
M  V30 27 C 9.0932 6.0 0.0 0
M  V30 28 N 5.1961 -0.75 0.0 0
M  V30 29 C 10.3923 6.75 0.0 0
M  V30 30 C 7.7942 6.75 0.0 0
M  V30 31 C 3.8971 0.0 0.0 0
M  V30 32 O 3.8971 1.5 0.0 0
M  V30 33 C 2.598 -0.75 0.0 0
M  V30 34 C 1.299 0.0 0.0 0
M  V30 35 C 1.299 1.5 0.0 0
M  V30 36 C 0.0 -0.75 0.0 0
M  V30 END ATOM
M  V30 BEGIN BOND
M  V30 1 2 1 2
M  V30 2 2 1 3
M  V30 3 1 1 4
M  V30 4 1 1 5
M  V30 5 2 4 6
M  V30 6 2 5 7
M  V30 7 1 5 8
M  V30 8 1 6 9
M  V30 9 1 6 10
M  V30 10 1 7 11
M  V30 11 2 8 12
M  V30 12 1 10 13
M  V30 13 2 10 14
M  V30 14 2 11 15
M  V30 15 2 13 16
M  V30 16 1 13 17
M  V30 17 1 14 18
M  V30 18 1 14 19
M  V30 19 1 17 20
M  V30 20 1 17 21
M  V30 21 1 19 22
M  V30 22 1 20 23
M  V30 23 1 21 24
M  V30 24 2 22 25
M  V30 25 2 23 26
M  V30 26 1 24 27
M  V30 27 1 25 28
M  V30 28 1 27 29
M  V30 29 1 27 30
M  V30 30 1 28 31
M  V30 31 2 31 32
M  V30 32 1 31 33
M  V30 33 1 33 34
M  V30 34 1 34 35
M  V30 35 1 34 36
M  V30 36 1 7 9
M  V30 37 1 12 15
M  V30 38 2 19 20
M  V30 39 1 25 26
M  V30 END BOND
M  V30 END CTAB
M  END
>  <Molecule ChEMBL ID>
CHEMBL383063

>  <Smiles>
CC(C)CCn1c(=O)c(C2=NS(=O)(=O)c3ccccc3N2)c(O)c2cc(NC(=O)CC(C)C)ccc21

>  <Standard Value>
6503

$$$$
CHEMBL201876
Actelion Java MolfileCreator 2.0

  0  0  0  0  0  0              0 V3000
M  V30 BEGIN CTAB
M  V30 COUNTS 29 32 0 0 0
M  V30 BEGIN ATOM
M  V30 1 S 10.3923 2.25 0.0 0
M  V30 2 O 11.1423 3.549 0.0 0
M  V30 3 O 9.6423 3.549 0.0 0
M  V30 4 N 9.0932 1.5 0.0 0
M  V30 5 C 11.6913 1.5 0.0 0
M  V30 6 C 9.0932 0.0 0.0 0
M  V30 7 C 11.6913 0.0 0.0 0
M  V30 8 C 12.9903 2.25 0.0 0
M  V30 9 N 7.7942 -0.75 0.0 0
M  V30 10 N 10.3923 -0.75 0.0 0
M  V30 11 C 12.9903 -0.75 0.0 0
M  V30 12 C 14.2894 1.5 0.0 0
M  V30 13 C 6.4951 0.0 0.0 0
M  V30 14 C 7.7942 -2.25 0.0 0
M  V30 15 C 14.2894 0.0 0.0 0
M  V30 16 O 6.4951 1.5 0.0 0
M  V30 17 N 5.1961 -0.75 0.0 0
M  V30 18 O 9.0932 -3.0 0.0 0
M  V30 19 C 6.4951 -3.0 0.0 0
M  V30 20 C 5.1961 -2.25 0.0 0
M  V30 21 C 3.8971 0.0 0.0 0
M  V30 22 C 6.4951 -4.5 0.0 0
M  V30 23 C 3.8971 -3.0 0.0 0
M  V30 24 C 2.598 -0.75 0.0 0
M  V30 25 C 5.1961 -5.25 0.0 0
M  V30 26 C 3.8971 -4.5 0.0 0
M  V30 27 C 1.299 0.0 0.0 0
M  V30 28 C 1.299 1.5 0.0 0
M  V30 29 C 0.0 -0.75 0.0 0
M  V30 END ATOM
M  V30 BEGIN BOND
M  V30 1 2 1 2
M  V30 2 2 1 3
M  V30 3 1 1 4
M  V30 4 1 1 5
M  V30 5 2 4 6
M  V30 6 2 5 7
M  V30 7 1 5 8
M  V30 8 1 6 9
M  V30 9 1 6 10
M  V30 10 1 7 11
M  V30 11 2 8 12
M  V30 12 1 9 13
M  V30 13 1 9 14
M  V30 14 2 11 15
M  V30 15 2 13 16
M  V30 16 1 13 17
M  V30 17 2 14 18
M  V30 18 1 14 19
M  V30 19 1 17 20
M  V30 20 1 17 21
M  V30 21 1 19 22
M  V30 22 1 20 23
M  V30 23 1 21 24
M  V30 24 2 22 25
M  V30 25 2 23 26
M  V30 26 1 24 27
M  V30 27 1 27 28
M  V30 28 1 27 29
M  V30 29 1 7 10
M  V30 30 1 12 15
M  V30 31 2 19 20
M  V30 32 1 25 26
M  V30 END BOND
M  V30 END CTAB
M  END
>  <Molecule ChEMBL ID>
CHEMBL201876

>  <Smiles>
CC(C)CCn1c(=O)n(C2=NS(=O)(=O)c3ccccc3N2)c(=O)c2ccccc21

>  <Standard Value>
9940

$$$$
CHEMBL201555
Actelion Java MolfileCreator 2.0

  0  0  0  0  0  0              0 V3000
M  V30 BEGIN CTAB
M  V30 COUNTS 27 30 0 0 0
M  V30 BEGIN ATOM
M  V30 1 S 3.8971 6.0 0.0 0
M  V30 2 O 3.1471 7.299 0.0 0
M  V30 3 O 2.3971 5.9999 0.0 0
M  V30 4 N 3.8971 4.5 0.0 0
M  V30 5 C 5.1961 6.75 0.0 0
M  V30 6 C 5.1961 3.75 0.0 0
M  V30 7 C 6.4952 6.0 0.0 0
M  V30 8 C 5.1961 8.25 0.0 0
M  V30 9 N 6.4952 4.5 0.0 0
M  V30 10 C 5.1961 2.25 0.0 0
M  V30 11 C 7.7942 6.75 0.0 0
M  V30 12 C 6.4952 9.0 0.0 0
M  V30 13 C 3.8971 1.5 0.0 0
M  V30 14 C 6.4952 1.5 0.0 0
M  V30 15 C 7.7942 8.25 0.0 0
M  V30 16 O 2.598 2.25 0.0 0
M  V30 17 N 3.8971 0.0 0.0 0
M  V30 18 O 7.7942 2.25 0.0 0
M  V30 19 C 6.4952 0.0 0.0 0
M  V30 20 C 5.1961 -0.75 0.0 0
M  V30 21 C 2.598 -0.75 0.0 0
M  V30 22 C 7.7942 -0.75 0.0 0
M  V30 23 C 5.1961 -2.25 0.0 0
M  V30 24 C 1.299 0.0 0.0 0
M  V30 25 C 7.7942 -2.25 0.0 0
M  V30 26 C 6.4952 -3.0 0.0 0
M  V30 27 C 0.0 -0.75 0.0 0
M  V30 END ATOM
M  V30 BEGIN BOND
M  V30 1 2 1 2
M  V30 2 2 1 3
M  V30 3 1 1 4
M  V30 4 1 1 5
M  V30 5 2 4 6
M  V30 6 2 5 7
M  V30 7 1 5 8
M  V30 8 1 6 9
M  V30 9 1 6 10
M  V30 10 1 7 11
M  V30 11 2 8 12
M  V30 12 1 10 13
M  V30 13 2 10 14
M  V30 14 2 11 15
M  V30 15 2 13 16
M  V30 16 1 13 17
M  V30 17 1 14 18
M  V30 18 1 14 19
M  V30 19 1 17 20
M  V30 20 1 17 21
M  V30 21 1 19 22
M  V30 22 1 20 23
M  V30 23 1 21 24
M  V30 24 2 22 25
M  V30 25 2 23 26
M  V30 26 2 24 27
M  V30 27 1 7 9
M  V30 28 1 12 15
M  V30 29 2 19 20
M  V30 30 1 25 26
M  V30 END BOND
M  V30 END CTAB
M  END
>  <Molecule ChEMBL ID>
CHEMBL201555

>  <Smiles>
C=CCn1c(=O)c(C2=NS(=O)(=O)c3ccccc3N2)c(O)c2ccccc21

>  <Standard Value>
10000

$$$$
CHEMBL201601
Actelion Java MolfileCreator 2.0

  0  0  0  0  0  0              0 V3000
M  V30 BEGIN CTAB
M  V30 COUNTS 30 33 0 0 0
M  V30 BEGIN ATOM
M  V30 1 I 5.1961 -6.75 0.0 0
M  V30 2 C 5.1961 -5.25 0.0 0
M  V30 3 C 6.4951 -4.5 0.0 0
M  V30 4 C 3.8971 -4.5 0.0 0
M  V30 5 C 6.4951 -3.0 0.0 0
M  V30 6 C 3.8971 -3.0 0.0 0
M  V30 7 C 7.7942 -2.25 0.0 0
M  V30 8 C 5.1961 -2.25 0.0 0
M  V30 9 O 9.0932 -3.0 0.0 0
M  V30 10 C 7.7942 -0.75 0.0 0
M  V30 11 N 5.1961 -0.75 0.0 0
M  V30 12 C 6.4951 0.0 0.0 0
M  V30 13 C 9.0932 0.0 0.0 0
M  V30 14 C 3.8971 0.0 0.0 0
M  V30 15 O 6.4951 1.5 0.0 0
M  V30 16 N 10.3923 -0.75 0.0 0
M  V30 17 N 9.0932 1.5 0.0 0
M  V30 18 C 2.598 -0.75 0.0 0
M  V30 19 S 11.6913 0.0 0.0 0
M  V30 20 C 10.3923 2.25 0.0 0
M  V30 21 C 1.299 0.0 0.0 0
M  V30 22 O 12.4413 -1.299 0.0 0
M  V30 23 O 13.1913 0.0 0.0 0
M  V30 24 C 11.6913 1.5 0.0 0
M  V30 25 C 10.3923 3.75 0.0 0
M  V30 26 C 1.299 1.5 0.0 0
M  V30 27 C 0.0 -0.75 0.0 0
M  V30 28 C 12.9903 2.25 0.0 0
M  V30 29 C 11.6913 4.5 0.0 0
M  V30 30 C 12.9903 3.75 0.0 0
M  V30 END ATOM
M  V30 BEGIN BOND
M  V30 1 1 1 2
M  V30 2 2 2 3
M  V30 3 1 2 4
M  V30 4 1 3 5
M  V30 5 2 4 6
M  V30 6 1 5 7
M  V30 7 2 5 8
M  V30 8 1 7 9
M  V30 9 2 7 10
M  V30 10 1 8 11
M  V30 11 1 10 12
M  V30 12 1 10 13
M  V30 13 1 11 14
M  V30 14 2 12 15
M  V30 15 2 13 16
M  V30 16 1 13 17
M  V30 17 1 14 18
M  V30 18 1 16 19
M  V30 19 1 17 20
M  V30 20 1 18 21
M  V30 21 2 19 22
M  V30 22 2 19 23
M  V30 23 1 19 24
M  V30 24 1 20 25
M  V30 25 1 21 26
M  V30 26 1 21 27
M  V30 27 1 24 28
M  V30 28 2 25 29
M  V30 29 2 28 30
M  V30 30 1 6 8
M  V30 31 1 11 12
M  V30 32 2 20 24
M  V30 33 1 29 30
M  V30 END BOND
M  V30 END CTAB
M  END
>  <Molecule ChEMBL ID>
CHEMBL201601

>  <Smiles>
CC(C)CCn1c(=O)c(C2=NS(=O)(=O)c3ccccc3N2)c(O)c2cc(I)ccc21

>  <Standard Value>
10000

$$$$
CHEMBL201435
Actelion Java MolfileCreator 2.0

  0  0  0  0  0  0              0 V3000
M  V30 BEGIN CTAB
M  V30 COUNTS 32 36 0 0 0
M  V30 BEGIN ATOM
M  V30 1 S 3.8971 6.0 0.0 0
M  V30 2 O 3.1471 7.299 0.0 0
M  V30 3 O 2.3971 5.9999 0.0 0
M  V30 4 N 3.8971 4.5 0.0 0
M  V30 5 C 5.1961 6.75 0.0 0
M  V30 6 C 5.1961 3.75 0.0 0
M  V30 7 C 6.4951 6.0 0.0 0
M  V30 8 C 5.1961 8.25 0.0 0
M  V30 9 N 6.4951 4.5 0.0 0
M  V30 10 C 5.1961 2.25 0.0 0
M  V30 11 C 7.7942 6.75 0.0 0
M  V30 12 C 6.4951 9.0 0.0 0
M  V30 13 C 3.8971 1.5 0.0 0
M  V30 14 C 6.4951 1.5 0.0 0
M  V30 15 C 7.7942 8.25 0.0 0
M  V30 16 O 2.598 2.25 0.0 0
M  V30 17 N 3.8971 0.0 0.0 0
M  V30 18 O 7.7942 2.25 0.0 0
M  V30 19 C 6.4951 0.0 0.0 0
M  V30 20 C 5.1961 -0.75 0.0 0
M  V30 21 C 2.598 -0.75 0.0 0
M  V30 22 C 7.7942 -0.75 0.0 0
M  V30 23 C 5.1961 -2.25 0.0 0
M  V30 24 C 1.299 0.0 0.0 0
M  V30 25 C 7.7942 -2.25 0.0 0
M  V30 26 C 6.4951 -3.0 0.0 0
M  V30 27 C 0.0 -0.75 0.0 0
M  V30 28 C -1.299 0.0 0.0 0
M  V30 29 C 0.0 -2.25 0.0 0
M  V30 30 C -2.598 -0.75 0.0 0
M  V30 31 C -1.299 -3.0 0.0 0
M  V30 32 C -2.598 -2.25 0.0 0
M  V30 END ATOM
M  V30 BEGIN BOND
M  V30 1 2 1 2
M  V30 2 2 1 3
M  V30 3 1 1 4
M  V30 4 1 1 5
M  V30 5 2 4 6
M  V30 6 2 5 7
M  V30 7 1 5 8
M  V30 8 1 6 9
M  V30 9 1 6 10
M  V30 10 1 7 11
M  V30 11 2 8 12
M  V30 12 1 10 13
M  V30 13 2 10 14
M  V30 14 2 11 15
M  V30 15 2 13 16
M  V30 16 1 13 17
M  V30 17 1 14 18
M  V30 18 1 14 19
M  V30 19 1 17 20
M  V30 20 1 17 21
M  V30 21 1 19 22
M  V30 22 1 20 23
M  V30 23 1 21 24
M  V30 24 2 22 25
M  V30 25 2 23 26
M  V30 26 1 24 27
M  V30 27 2 27 28
M  V30 28 1 27 29
M  V30 29 1 28 30
M  V30 30 2 29 31
M  V30 31 2 30 32
M  V30 32 1 7 9
M  V30 33 1 12 15
M  V30 34 2 19 20
M  V30 35 1 25 26
M  V30 36 1 31 32
M  V30 END BOND
M  V30 END CTAB
M  END
>  <Molecule ChEMBL ID>
CHEMBL201435

>  <Smiles>
O=c1c(C2=NS(=O)(=O)c3ccccc3N2)c(O)c2ccccc2n1CCc1ccccc1

>  <Standard Value>
10000

$$$$
CHEMBL202449
Actelion Java MolfileCreator 2.0

  0  0  0  0  0  0              0 V3000
M  V30 BEGIN CTAB
M  V30 COUNTS 28 31 0 0 0
M  V30 BEGIN ATOM
M  V30 1 S 7.7942 -6.75 0.0 0
M  V30 2 O 8.5442 -8.049 0.0 0
M  V30 3 O 9.2942 -6.7499 0.0 0
M  V30 4 N 7.7942 -5.25 0.0 0
M  V30 5 C 6.4951 -7.5 0.0 0
M  V30 6 C 6.4951 -4.5 0.0 0
M  V30 7 C 5.1961 -6.75 0.0 0
M  V30 8 C 6.4951 -9.0 0.0 0
M  V30 9 N 5.1961 -5.25 0.0 0
M  V30 10 C 6.4951 -3.0 0.0 0
M  V30 11 C 3.8971 -7.5 0.0 0
M  V30 12 C 5.1961 -9.75 0.0 0
M  V30 13 C 7.7942 -2.25 0.0 0
M  V30 14 C 5.1961 -2.25 0.0 0
M  V30 15 C 3.8971 -9.0 0.0 0
M  V30 16 O 9.0932 -3.0 0.0 0
M  V30 17 C 7.7942 -0.75 0.0 0
M  V30 18 N 5.1961 -0.75 0.0 0
M  V30 19 C 6.4951 0.0 0.0 0
M  V30 20 C 9.0932 0.0 0.0 0
M  V30 21 C 3.8971 0.0 0.0 0
M  V30 22 C 6.4951 1.5 0.0 0
M  V30 23 C 9.0932 1.5 0.0 0
M  V30 24 C 2.598 -0.75 0.0 0
M  V30 25 C 7.7942 2.25 0.0 0
M  V30 26 C 1.299 0.0 0.0 0
M  V30 27 C 1.299 1.5 0.0 0
M  V30 28 C 0.0 -0.75 0.0 0
M  V30 END ATOM
M  V30 BEGIN BOND
M  V30 1 2 1 2
M  V30 2 2 1 3
M  V30 3 1 1 4
M  V30 4 1 1 5
M  V30 5 2 4 6
M  V30 6 2 5 7
M  V30 7 1 5 8
M  V30 8 1 6 9
M  V30 9 1 6 10
M  V30 10 1 7 11
M  V30 11 2 8 12
M  V30 12 1 10 13
M  V30 13 2 10 14
M  V30 14 2 11 15
M  V30 15 2 13 16
M  V30 16 1 13 17
M  V30 17 1 14 18
M  V30 18 2 17 19
M  V30 19 1 17 20
M  V30 20 1 18 21
M  V30 21 1 19 22
M  V30 22 2 20 23
M  V30 23 1 21 24
M  V30 24 2 22 25
M  V30 25 1 24 26
M  V30 26 1 26 27
M  V30 27 1 26 28
M  V30 28 1 7 9
M  V30 29 1 12 15
M  V30 30 1 18 19
M  V30 31 1 23 25
M  V30 END BOND
M  V30 END CTAB
M  END
>  <Molecule ChEMBL ID>
CHEMBL202449

>  <Smiles>
CC(C)CCn1cc(C2=NS(=O)(=O)c3ccccc3N2)c(=O)c2ccccc21

>  <Standard Value>
10000

$$$$
CHEMBL201634
Actelion Java MolfileCreator 2.0

  0  0  0  0  0  0              0 V3000
M  V30 BEGIN CTAB
M  V30 COUNTS 31 35 0 0 0
M  V30 BEGIN ATOM
M  V30 1 S 3.8971 6.0 0.0 0
M  V30 2 O 3.1471 7.299 0.0 0
M  V30 3 O 2.3971 5.9999 0.0 0
M  V30 4 N 3.8971 4.5 0.0 0
M  V30 5 C 5.1961 6.75 0.0 0
M  V30 6 C 5.1961 3.75 0.0 0
M  V30 7 C 6.4951 6.0 0.0 0
M  V30 8 C 5.1961 8.25 0.0 0
M  V30 9 N 6.4951 4.5 0.0 0
M  V30 10 C 5.1961 2.25 0.0 0
M  V30 11 C 7.7942 6.75 0.0 0
M  V30 12 C 6.4951 9.0 0.0 0
M  V30 13 C 3.8971 1.5 0.0 0
M  V30 14 C 6.4951 1.5 0.0 0
M  V30 15 C 7.7942 8.25 0.0 0
M  V30 16 O 2.598 2.25 0.0 0
M  V30 17 N 3.8971 0.0 0.0 0
M  V30 18 O 7.7942 2.25 0.0 0
M  V30 19 C 6.4951 0.0 0.0 0
M  V30 20 C 5.1961 -0.75 0.0 0
M  V30 21 C 2.598 -0.75 0.0 0
M  V30 22 C 7.7942 -0.75 0.0 0
M  V30 23 C 5.1961 -2.25 0.0 0
M  V30 24 C 1.299 0.0 0.0 0
M  V30 25 C 7.7942 -2.25 0.0 0
M  V30 26 C 6.4951 -3.0 0.0 0
M  V30 27 N 0.0 -0.75 0.0 0
M  V30 28 C -1.3703 -0.1398 0.0 0
M  V30 29 C -0.1567 -2.2417 0.0 0
M  V30 30 C -2.374 -1.2546 0.0 0
M  V30 31 C -1.624 -2.5536 0.0 0
M  V30 END ATOM
M  V30 BEGIN BOND
M  V30 1 2 1 2
M  V30 2 2 1 3
M  V30 3 1 1 4
M  V30 4 1 1 5
M  V30 5 2 4 6
M  V30 6 2 5 7
M  V30 7 1 5 8
M  V30 8 1 6 9
M  V30 9 1 6 10
M  V30 10 1 7 11
M  V30 11 2 8 12
M  V30 12 1 10 13
M  V30 13 2 10 14
M  V30 14 2 11 15
M  V30 15 2 13 16
M  V30 16 1 13 17
M  V30 17 1 14 18
M  V30 18 1 14 19
M  V30 19 1 17 20
M  V30 20 1 17 21
M  V30 21 1 19 22
M  V30 22 1 20 23
M  V30 23 1 21 24
M  V30 24 2 22 25
M  V30 25 2 23 26
M  V30 26 1 24 27
M  V30 27 1 27 28
M  V30 28 1 27 29
M  V30 29 1 28 30
M  V30 30 1 29 31
M  V30 31 1 7 9
M  V30 32 1 12 15
M  V30 33 2 19 20
M  V30 34 1 25 26
M  V30 35 1 30 31
M  V30 END BOND
M  V30 END CTAB
M  END
>  <Molecule ChEMBL ID>
CHEMBL201634

>  <Smiles>
O=c1c(C2=NS(=O)(=O)c3ccccc3N2)c(O)c2ccccc2n1CCN1CCCC1

>  <Standard Value>
10000

$$$$
CHEMBL201457
Actelion Java MolfileCreator 2.0

  0  0  0  0  0  0              0 V3000
M  V30 BEGIN CTAB
M  V30 COUNTS 31 35 0 0 0
M  V30 BEGIN ATOM
M  V30 1 S 3.8971 6.0 0.0 0
M  V30 2 O 3.1471 7.299 0.0 0
M  V30 3 O 2.3971 5.9999 0.0 0
M  V30 4 N 3.8971 4.5 0.0 0
M  V30 5 C 5.1961 6.75 0.0 0
M  V30 6 C 5.1961 3.75 0.0 0
M  V30 7 C 6.4951 6.0 0.0 0
M  V30 8 C 5.1961 8.25 0.0 0
M  V30 9 N 6.4951 4.5 0.0 0
M  V30 10 C 5.1961 2.25 0.0 0
M  V30 11 C 7.7942 6.75 0.0 0
M  V30 12 C 6.4951 9.0 0.0 0
M  V30 13 C 3.8971 1.5 0.0 0
M  V30 14 C 6.4951 1.5 0.0 0
M  V30 15 C 7.7942 8.25 0.0 0
M  V30 16 O 2.598 2.25 0.0 0
M  V30 17 N 3.8971 0.0 0.0 0
M  V30 18 O 7.7942 2.25 0.0 0
M  V30 19 C 6.4951 0.0 0.0 0
M  V30 20 C 5.1961 -0.75 0.0 0
M  V30 21 C 2.598 -0.75 0.0 0
M  V30 22 C 7.7942 -0.75 0.0 0
M  V30 23 C 5.1961 -2.25 0.0 0
M  V30 24 C 1.299 0.0 0.0 0
M  V30 25 C 7.7942 -2.25 0.0 0
M  V30 26 C 6.4951 -3.0 0.0 0
M  V30 27 C 0.0 -0.75 0.0 0
M  V30 28 S -1.3703 -0.1398 0.0 0
M  V30 29 C -0.1567 -2.2417 0.0 0
M  V30 30 C -2.374 -1.2546 0.0 0
M  V30 31 C -1.624 -2.5536 0.0 0
M  V30 END ATOM
M  V30 BEGIN BOND
M  V30 1 2 1 2
M  V30 2 2 1 3
M  V30 3 1 1 4
M  V30 4 1 1 5
M  V30 5 2 4 6
M  V30 6 2 5 7
M  V30 7 1 5 8
M  V30 8 1 6 9
M  V30 9 1 6 10
M  V30 10 1 7 11
M  V30 11 2 8 12
M  V30 12 1 10 13
M  V30 13 2 10 14
M  V30 14 2 11 15
M  V30 15 2 13 16
M  V30 16 1 13 17
M  V30 17 1 14 18
M  V30 18 1 14 19
M  V30 19 1 17 20
M  V30 20 1 17 21
M  V30 21 1 19 22
M  V30 22 1 20 23
M  V30 23 1 21 24
M  V30 24 2 22 25
M  V30 25 2 23 26
M  V30 26 1 24 27
M  V30 27 1 27 28
M  V30 28 2 27 29
M  V30 29 1 28 30
M  V30 30 1 29 31
M  V30 31 1 7 9
M  V30 32 1 12 15
M  V30 33 2 19 20
M  V30 34 1 25 26
M  V30 35 2 30 31
M  V30 END BOND
M  V30 END CTAB
M  END
>  <Molecule ChEMBL ID>
CHEMBL201457

>  <Smiles>
O=c1c(C2=NS(=O)(=O)c3ccccc3N2)c(O)c2ccccc2n1CCc1cccs1

>  <Standard Value>
10000

$$$$
CHEMBL383449
Actelion Java MolfileCreator 2.0

  0  0  0  0  0  0              0 V3000
M  V30 BEGIN CTAB
M  V30 COUNTS 34 37 0 0 0
M  V30 BEGIN ATOM
M  V30 1 S 10.3923 2.25 0.0 0
M  V30 2 O 11.1423 3.549 0.0 0
M  V30 3 O 9.6423 3.549 0.0 0
M  V30 4 N 9.0932 1.5 0.0 0
M  V30 5 C 11.6913 1.5 0.0 0
M  V30 6 C 9.0932 0.0 0.0 0
M  V30 7 C 11.6913 0.0 0.0 0
M  V30 8 C 12.9903 2.25 0.0 0
M  V30 9 N 10.3923 -0.75 0.0 0
M  V30 10 C 7.7942 -0.75 0.0 0
M  V30 11 C 12.9903 -0.75 0.0 0
M  V30 12 C 14.2894 1.5 0.0 0
M  V30 13 C 6.4951 0.0 0.0 0
M  V30 14 C 7.7942 -2.25 0.0 0
M  V30 15 C 14.2894 0.0 0.0 0
M  V30 16 O 6.4951 1.5 0.0 0
M  V30 17 N 5.1961 -0.75 0.0 0
M  V30 18 O 9.0932 -3.0 0.0 0
M  V30 19 C 6.4951 -3.0 0.0 0
M  V30 20 C 5.1961 -2.25 0.0 0
M  V30 21 C 3.8971 0.0 0.0 0
M  V30 22 C 6.4951 -4.5 0.0 0
M  V30 23 C 3.8971 -3.0 0.0 0
M  V30 24 C 2.598 -0.75 0.0 0
M  V30 25 C 5.1961 -5.25 0.0 0
M  V30 26 C 3.8971 -4.5 0.0 0
M  V30 27 C 1.299 0.0 0.0 0
M  V30 28 C 5.1961 -6.75 0.0 0
M  V30 29 C 1.299 1.5 0.0 0
M  V30 30 C 0.0 -0.75 0.0 0
M  V30 31 O 3.8971 -7.5 0.0 0
M  V30 32 O 6.4951 -7.5 0.0 0
M  V30 33 C 6.4951 -9.0 0.0 0
M  V30 34 C 7.7942 -9.75 0.0 0
M  V30 END ATOM
M  V30 BEGIN BOND
M  V30 1 2 1 2
M  V30 2 2 1 3
M  V30 3 1 1 4
M  V30 4 1 1 5
M  V30 5 2 4 6
M  V30 6 2 5 7
M  V30 7 1 5 8
M  V30 8 1 6 9
M  V30 9 1 6 10
M  V30 10 1 7 11
M  V30 11 2 8 12
M  V30 12 1 10 13
M  V30 13 2 10 14
M  V30 14 2 11 15
M  V30 15 2 13 16
M  V30 16 1 13 17
M  V30 17 1 14 18
M  V30 18 1 14 19
M  V30 19 1 17 20
M  V30 20 1 17 21
M  V30 21 1 19 22
M  V30 22 1 20 23
M  V30 23 1 21 24
M  V30 24 2 22 25
M  V30 25 2 23 26
M  V30 26 1 24 27
M  V30 27 1 25 28
M  V30 28 1 27 29
M  V30 29 1 27 30
M  V30 30 2 28 31
M  V30 31 1 28 32
M  V30 32 1 32 33
M  V30 33 1 33 34
M  V30 34 1 7 9
M  V30 35 1 12 15
M  V30 36 2 19 20
M  V30 37 1 25 26
M  V30 END BOND
M  V30 END CTAB
M  END
>  <Molecule ChEMBL ID>
CHEMBL383449

>  <Smiles>
CCOC(=O)c1ccc2c(c1)c(O)c(C1=NS(=O)(=O)c3ccccc3N1)c(=O)n2CCC(C)C

>  <Standard Value>
10000

$$$$
CHEMBL202587
Actelion Java MolfileCreator 2.0

  0  0  0  0  0  0              0 V3000
M  V30 BEGIN CTAB
M  V30 COUNTS 32 35 0 0 0
M  V30 BEGIN ATOM
M  V30 1 S 10.3923 2.25 0.0 0
M  V30 2 O 11.1423 3.549 0.0 0
M  V30 3 O 9.6423 3.549 0.0 0
M  V30 4 N 9.0932 1.5 0.0 0
M  V30 5 C 11.6913 1.5 0.0 0
M  V30 6 C 9.0932 0.0 0.0 0
M  V30 7 C 11.6913 0.0 0.0 0
M  V30 8 C 12.9903 2.25 0.0 0
M  V30 9 N 10.3923 -0.75 0.0 0
M  V30 10 C 7.7942 -0.75 0.0 0
M  V30 11 C 12.9903 -0.75 0.0 0
M  V30 12 C 14.2894 1.5 0.0 0
M  V30 13 C 6.4951 0.0 0.0 0
M  V30 14 C 7.7942 -2.25 0.0 0
M  V30 15 C 14.2894 0.0 0.0 0
M  V30 16 O 6.4951 1.5 0.0 0
M  V30 17 N 5.1961 -0.75 0.0 0
M  V30 18 O 9.0932 -3.0 0.0 0
M  V30 19 C 6.4951 -3.0 0.0 0
M  V30 20 C 5.1961 -2.25 0.0 0
M  V30 21 C 3.8971 0.0 0.0 0
M  V30 22 C 6.4951 -4.5 0.0 0
M  V30 23 C 3.8971 -3.0 0.0 0
M  V30 24 C 2.598 -0.75 0.0 0
M  V30 25 C 5.1961 -5.25 0.0 0
M  V30 26 C 3.8971 -4.5 0.0 0
M  V30 27 C 1.299 0.0 0.0 0
M  V30 28 C 2.598 -5.25 0.0 0
M  V30 29 C 1.299 1.5 0.0 0
M  V30 30 C 0.0 -0.75 0.0 0
M  V30 31 O 1.299 -4.5 0.0 0
M  V30 32 O 2.598 -6.75 0.0 0
M  V30 END ATOM
M  V30 BEGIN BOND
M  V30 1 2 1 2
M  V30 2 2 1 3
M  V30 3 1 1 4
M  V30 4 1 1 5
M  V30 5 2 4 6
M  V30 6 2 5 7
M  V30 7 1 5 8
M  V30 8 1 6 9
M  V30 9 1 6 10
M  V30 10 1 7 11
M  V30 11 2 8 12
M  V30 12 1 10 13
M  V30 13 2 10 14
M  V30 14 2 11 15
M  V30 15 2 13 16
M  V30 16 1 13 17
M  V30 17 1 14 18
M  V30 18 1 14 19
M  V30 19 1 17 20
M  V30 20 1 17 21
M  V30 21 1 19 22
M  V30 22 1 20 23
M  V30 23 1 21 24
M  V30 24 2 22 25
M  V30 25 2 23 26
M  V30 26 1 24 27
M  V30 27 1 26 28
M  V30 28 1 27 29
M  V30 29 1 27 30
M  V30 30 2 28 31
M  V30 31 1 28 32
M  V30 32 1 7 9
M  V30 33 1 12 15
M  V30 34 2 19 20
M  V30 35 1 25 26
M  V30 END BOND
M  V30 END CTAB
M  END
>  <Molecule ChEMBL ID>
CHEMBL202587

>  <Smiles>
CC(C)CCn1c(=O)c(C2=NS(=O)(=O)c3ccccc3N2)c(O)c2ccc(C(=O)O)cc21

>  <Standard Value>
10000

$$$$
CHEMBL201606
Actelion Java MolfileCreator 2.0

  0  0  0  0  0  0              0 V3000
M  V30 BEGIN CTAB
M  V30 COUNTS 32 35 0 0 0
M  V30 BEGIN ATOM
M  V30 1 S 9.0932 6.0 0.0 0
M  V30 2 O 8.3433 7.299 0.0 0
M  V30 3 O 7.5933 5.9999 0.0 0
M  V30 4 N 9.0932 4.5 0.0 0
M  V30 5 C 10.3923 6.75 0.0 0
M  V30 6 C 10.3923 3.75 0.0 0
M  V30 7 C 11.6913 6.0 0.0 0
M  V30 8 C 10.3923 8.25 0.0 0
M  V30 9 N 11.6913 4.5 0.0 0
M  V30 10 C 10.3923 2.25 0.0 0
M  V30 11 C 12.9903 6.75 0.0 0
M  V30 12 C 11.6913 9.0 0.0 0
M  V30 13 C 9.0932 1.5 0.0 0
M  V30 14 C 11.6913 1.5 0.0 0
M  V30 15 C 12.9903 8.25 0.0 0
M  V30 16 O 7.7942 2.25 0.0 0
M  V30 17 N 9.0932 0.0 0.0 0
M  V30 18 O 12.9903 2.25 0.0 0
M  V30 19 C 11.6913 0.0 0.0 0
M  V30 20 C 10.3923 -0.75 0.0 0
M  V30 21 C 7.7942 -0.75 0.0 0
M  V30 22 C 12.9903 -0.75 0.0 0
M  V30 23 C 10.3923 -2.25 0.0 0
M  V30 24 C 6.4951 0.0 0.0 0
M  V30 25 C 12.9903 -2.25 0.0 0
M  V30 26 C 11.6913 -3.0 0.0 0
M  V30 27 C 5.1961 -0.75 0.0 0
M  V30 28 C 3.8971 0.0 0.0 0
M  V30 29 O 3.8971 1.5 0.0 0
M  V30 30 O 2.598 -0.75 0.0 0
M  V30 31 C 1.299 0.0 0.0 0
M  V30 32 C 0.0 -0.75 0.0 0
M  V30 END ATOM
M  V30 BEGIN BOND
M  V30 1 2 1 2
M  V30 2 2 1 3
M  V30 3 1 1 4
M  V30 4 1 1 5
M  V30 5 2 4 6
M  V30 6 2 5 7
M  V30 7 1 5 8
M  V30 8 1 6 9
M  V30 9 1 6 10
M  V30 10 1 7 11
M  V30 11 2 8 12
M  V30 12 1 10 13
M  V30 13 2 10 14
M  V30 14 2 11 15
M  V30 15 2 13 16
M  V30 16 1 13 17
M  V30 17 1 14 18
M  V30 18 1 14 19
M  V30 19 1 17 20
M  V30 20 1 17 21
M  V30 21 1 19 22
M  V30 22 1 20 23
M  V30 23 1 21 24
M  V30 24 2 22 25
M  V30 25 2 23 26
M  V30 26 1 24 27
M  V30 27 1 27 28
M  V30 28 2 28 29
M  V30 29 1 28 30
M  V30 30 1 30 31
M  V30 31 1 31 32
M  V30 32 1 7 9
M  V30 33 1 12 15
M  V30 34 2 19 20
M  V30 35 1 25 26
M  V30 END BOND
M  V30 END CTAB
M  END
>  <Molecule ChEMBL ID>
CHEMBL201606

>  <Smiles>
CCOC(=O)CCCn1c(=O)c(C2=NS(=O)(=O)c3ccccc3N2)c(O)c2ccccc21

>  <Standard Value>
10000

$$$$
CHEMBL202195
Actelion Java MolfileCreator 2.0

  0  0  0  0  0  0              0 V3000
M  V30 BEGIN CTAB
M  V30 COUNTS 25 28 0 0 0
M  V30 BEGIN ATOM
M  V30 1 O 6.4951 1.4999 0.0 0
M  V30 2 C 6.4951 0.0 0.0 0
M  V30 3 N 5.1961 -0.75 0.0 0
M  V30 4 C 7.7942 -0.75 0.0 0
M  V30 5 C 5.1961 -2.25 0.0 0
M  V30 6 C 3.8971 0.0 0.0 0
M  V30 7 C 7.7942 -2.25 0.0 0
M  V30 8 C 9.0932 0.0 0.0 0
M  V30 9 C 6.4951 -3.0 0.0 0
M  V30 10 C 3.8971 -2.9999 0.0 0
M  V30 11 C 2.598 -0.75 0.0 0
M  V30 12 O 9.0932 -3.0 0.0 0
M  V30 13 N 10.4635 -0.6101 0.0 0
M  V30 14 N 9.25 1.4917 0.0 0
M  V30 15 C 6.4951 -4.5 0.0 0
M  V30 16 C 3.8971 -4.5 0.0 0
M  V30 17 C 1.299 0.0 0.0 0
M  V30 18 C 11.4672 0.5046 0.0 0
M  V30 19 C 10.7172 1.8036 0.0 0
M  V30 20 C 5.1961 -5.25 0.0 0
M  V30 21 C 0.0 -0.75 0.0 0
M  V30 22 C 12.9672 0.5046 0.0 0
M  V30 23 C 11.4672 3.1026 0.0 0
M  V30 24 C 13.7172 1.8036 0.0 0
M  V30 25 C 12.9672 3.1026 0.0 0
M  V30 END ATOM
M  V30 BEGIN BOND
M  V30 1 2 1 2
M  V30 2 1 2 3
M  V30 3 1 2 4
M  V30 4 1 3 5
M  V30 5 1 3 6
M  V30 6 2 4 7
M  V30 7 1 4 8
M  V30 8 2 5 9
M  V30 9 1 5 10
M  V30 10 1 6 11
M  V30 11 1 7 12
M  V30 12 2 8 13
M  V30 13 1 8 14
M  V30 14 1 9 15
M  V30 15 2 10 16
M  V30 16 1 11 17
M  V30 17 1 13 18
M  V30 18 1 14 19
M  V30 19 2 15 20
M  V30 20 1 17 21
M  V30 21 1 18 22
M  V30 22 1 19 23
M  V30 23 2 22 24
M  V30 24 2 23 25
M  V30 25 1 7 9
M  V30 26 1 16 20
M  V30 27 2 18 19
M  V30 28 1 24 25
M  V30 END BOND
M  V30 END CTAB
M  END
>  <Molecule ChEMBL ID>
CHEMBL202195

>  <Smiles>
CCCCn1c(=O)c(-c2nc3ccccc3[nH]2)c(O)c2ccccc21

>  <Standard Value>
10000

$$$$
CHEMBL377075
Actelion Java MolfileCreator 2.0

  0  0  0  0  0  0              0 V3000
M  V30 BEGIN CTAB
M  V30 COUNTS 30 34 0 0 0
M  V30 BEGIN ATOM
M  V30 1 S 2.598 2.25 0.0 0
M  V30 2 O 3.348 3.549 0.0 0
M  V30 3 O 1.848 3.549 0.0 0
M  V30 4 N 1.299 1.5 0.0 0
M  V30 5 C 3.8971 1.5 0.0 0
M  V30 6 C 1.299 0.0 0.0 0
M  V30 7 C 3.8971 0.0 0.0 0
M  V30 8 C 5.1961 2.25 0.0 0
M  V30 9 N 2.598 -0.75 0.0 0
M  V30 10 C 0.0 -0.75 0.0 0
M  V30 11 C 5.1961 -0.75 0.0 0
M  V30 12 C 6.4951 1.5 0.0 0
M  V30 13 C -1.299 0.0 0.0 0
M  V30 14 C 0.0 -2.25 0.0 0
M  V30 15 C 6.4951 0.0 0.0 0
M  V30 16 O -1.299 1.5 0.0 0
M  V30 17 N -2.598 -0.75 0.0 0
M  V30 18 O 1.299 -3.0 0.0 0
M  V30 19 C -1.299 -3.0 0.0 0
M  V30 20 C -2.598 -2.25 0.0 0
M  V30 21 C -3.8971 0.0 0.0 0
M  V30 22 C -1.299 -4.5 0.0 0
M  V30 23 C -3.8971 -3.0 0.0 0
M  V30 24 C -3.8971 1.5 0.0 0
M  V30 25 C -5.1961 -0.75 0.0 0
M  V30 26 C -2.598 -5.25 0.0 0
M  V30 27 C -3.8971 -4.5 0.0 0
M  V30 28 C -5.1961 2.25 0.0 0
M  V30 29 C -6.4951 0.0 0.0 0
M  V30 30 C -6.4951 1.5 0.0 0
M  V30 END ATOM
M  V30 BEGIN BOND
M  V30 1 2 1 2
M  V30 2 2 1 3
M  V30 3 1 1 4
M  V30 4 1 1 5
M  V30 5 2 4 6
M  V30 6 2 5 7
M  V30 7 1 5 8
M  V30 8 1 6 9
M  V30 9 1 6 10
M  V30 10 1 7 11
M  V30 11 2 8 12
M  V30 12 1 10 13
M  V30 13 2 10 14
M  V30 14 2 11 15
M  V30 15 2 13 16
M  V30 16 1 13 17
M  V30 17 1 14 18
M  V30 18 1 14 19
M  V30 19 1 17 20
M  V30 20 1 17 21
M  V30 21 1 19 22
M  V30 22 1 20 23
M  V30 23 2 21 24
M  V30 24 1 21 25
M  V30 25 2 22 26
M  V30 26 2 23 27
M  V30 27 1 24 28
M  V30 28 2 25 29
M  V30 29 2 28 30
M  V30 30 1 7 9
M  V30 31 1 12 15
M  V30 32 2 19 20
M  V30 33 1 26 27
M  V30 34 1 29 30
M  V30 END BOND
M  V30 END CTAB
M  END
>  <Molecule ChEMBL ID>
CHEMBL377075

>  <Smiles>
O=c1c(C2=NS(=O)(=O)c3ccccc3N2)c(O)c2ccccc2n1-c1ccccc1

>  <Standard Value>
10000

$$$$
CHEMBL201770
Actelion Java MolfileCreator 2.0

  0  0  0  0  0  0              0 V3000
M  V30 BEGIN CTAB
M  V30 COUNTS 30 33 0 0 0
M  V30 BEGIN ATOM
M  V30 1 S 6.4951 6.0 0.0 0
M  V30 2 O 5.7452 7.299 0.0 0
M  V30 3 O 4.9952 5.9999 0.0 0
M  V30 4 N 6.4951 4.5 0.0 0
M  V30 5 C 7.7942 6.75 0.0 0
M  V30 6 C 7.7942 3.75 0.0 0
M  V30 7 C 9.0932 6.0 0.0 0
M  V30 8 C 7.7942 8.25 0.0 0
M  V30 9 N 9.0932 4.5 0.0 0
M  V30 10 C 7.7942 2.25 0.0 0
M  V30 11 C 10.3923 6.75 0.0 0
M  V30 12 C 9.0932 9.0 0.0 0
M  V30 13 C 6.4951 1.5 0.0 0
M  V30 14 C 9.0932 1.5 0.0 0
M  V30 15 C 10.3923 8.25 0.0 0
M  V30 16 O 5.1961 2.25 0.0 0
M  V30 17 N 6.4951 0.0 0.0 0
M  V30 18 O 10.3923 2.25 0.0 0
M  V30 19 C 9.0932 0.0 0.0 0
M  V30 20 C 7.7942 -0.75 0.0 0
M  V30 21 C 5.1961 -0.75 0.0 0
M  V30 22 C 10.3923 -0.75 0.0 0
M  V30 23 C 7.7942 -2.25 0.0 0
M  V30 24 C 3.8971 0.0 0.0 0
M  V30 25 C 10.3923 -2.25 0.0 0
M  V30 26 C 9.0932 -3.0 0.0 0
M  V30 27 C 2.598 -0.75 0.0 0
M  V30 28 C 1.299 0.0 0.0 0
M  V30 29 O 1.299 1.5 0.0 0
M  V30 30 O 0.0 -0.75 0.0 0
M  V30 END ATOM
M  V30 BEGIN BOND
M  V30 1 2 1 2
M  V30 2 2 1 3
M  V30 3 1 1 4
M  V30 4 1 1 5
M  V30 5 2 4 6
M  V30 6 2 5 7
M  V30 7 1 5 8
M  V30 8 1 6 9
M  V30 9 1 6 10
M  V30 10 1 7 11
M  V30 11 2 8 12
M  V30 12 1 10 13
M  V30 13 2 10 14
M  V30 14 2 11 15
M  V30 15 2 13 16
M  V30 16 1 13 17
M  V30 17 1 14 18
M  V30 18 1 14 19
M  V30 19 1 17 20
M  V30 20 1 17 21
M  V30 21 1 19 22
M  V30 22 1 20 23
M  V30 23 1 21 24
M  V30 24 2 22 25
M  V30 25 2 23 26
M  V30 26 1 24 27
M  V30 27 1 27 28
M  V30 28 2 28 29
M  V30 29 1 28 30
M  V30 30 1 7 9
M  V30 31 1 12 15
M  V30 32 2 19 20
M  V30 33 1 25 26
M  V30 END BOND
M  V30 END CTAB
M  END
>  <Molecule ChEMBL ID>
CHEMBL201770

>  <Smiles>
O=C(O)CCCn1c(=O)c(C2=NS(=O)(=O)c3ccccc3N2)c(O)c2ccccc21

>  <Standard Value>
10000

$$$$
CHEMBL202448
Actelion Java MolfileCreator 2.0

  0  0  0  0  0  0              0 V3000
M  V30 BEGIN CTAB
M  V30 COUNTS 28 31 0 0 0
M  V30 BEGIN ATOM
M  V30 1 S 10.3923 2.25 0.0 0
M  V30 2 O 11.1423 3.549 0.0 0
M  V30 3 O 9.6423 3.549 0.0 0
M  V30 4 N 9.0932 1.5 0.0 0
M  V30 5 C 11.6913 1.5 0.0 0
M  V30 6 C 9.0932 0.0 0.0 0
M  V30 7 C 11.6913 0.0 0.0 0
M  V30 8 C 12.9903 2.25 0.0 0
M  V30 9 N 10.3923 -0.75 0.0 0
M  V30 10 C 7.7942 -0.75 0.0 0
M  V30 11 C 12.9903 -0.75 0.0 0
M  V30 12 C 14.2894 1.5 0.0 0
M  V30 13 C 6.4951 0.0 0.0 0
M  V30 14 C 7.7942 -2.25 0.0 0
M  V30 15 C 14.2894 0.0 0.0 0
M  V30 16 O 6.4951 1.5 0.0 0
M  V30 17 N 5.1961 -0.75 0.0 0
M  V30 18 C 6.4951 -3.0 0.0 0
M  V30 19 C 5.1961 -2.25 0.0 0
M  V30 20 C 3.8971 0.0 0.0 0
M  V30 21 C 6.4951 -4.5 0.0 0
M  V30 22 C 3.8971 -3.0 0.0 0
M  V30 23 C 2.598 -0.75 0.0 0
M  V30 24 C 5.1961 -5.25 0.0 0
M  V30 25 C 3.8971 -4.5 0.0 0
M  V30 26 C 1.299 0.0 0.0 0
M  V30 27 C 1.299 1.5 0.0 0
M  V30 28 C 0.0 -0.75 0.0 0
M  V30 END ATOM
M  V30 BEGIN BOND
M  V30 1 2 1 2
M  V30 2 2 1 3
M  V30 3 1 1 4
M  V30 4 1 1 5
M  V30 5 2 4 6
M  V30 6 2 5 7
M  V30 7 1 5 8
M  V30 8 1 6 9
M  V30 9 1 6 10
M  V30 10 1 7 11
M  V30 11 2 8 12
M  V30 12 1 10 13
M  V30 13 2 10 14
M  V30 14 2 11 15
M  V30 15 2 13 16
M  V30 16 1 13 17
M  V30 17 1 14 18
M  V30 18 1 17 19
M  V30 19 1 17 20
M  V30 20 1 18 21
M  V30 21 1 19 22
M  V30 22 1 20 23
M  V30 23 2 21 24
M  V30 24 2 22 25
M  V30 25 1 23 26
M  V30 26 1 26 27
M  V30 27 1 26 28
M  V30 28 1 7 9
M  V30 29 1 12 15
M  V30 30 2 18 19
M  V30 31 1 24 25
M  V30 END BOND
M  V30 END CTAB
M  END
>  <Molecule ChEMBL ID>
CHEMBL202448

>  <Smiles>
CC(C)CCn1c(=O)c(C2=NS(=O)(=O)c3ccccc3N2)cc2ccccc21

>  <Standard Value>
10000

$$$$
CHEMBL201360
Actelion Java MolfileCreator 2.0

  0  0  0  0  0  0              0 V3000
M  V30 BEGIN CTAB
M  V30 COUNTS 27 30 0 0 0
M  V30 BEGIN ATOM
M  V30 1 S 3.8971 6.0 0.0 0
M  V30 2 O 3.1471 7.299 0.0 0
M  V30 3 O 2.3971 5.9999 0.0 0
M  V30 4 N 3.8971 4.5 0.0 0
M  V30 5 C 5.1961 6.75 0.0 0
M  V30 6 C 5.1961 3.75 0.0 0
M  V30 7 C 6.4952 6.0 0.0 0
M  V30 8 C 5.1961 8.25 0.0 0
M  V30 9 N 6.4952 4.5 0.0 0
M  V30 10 C 5.1961 2.25 0.0 0
M  V30 11 C 7.7942 6.75 0.0 0
M  V30 12 C 6.4952 9.0 0.0 0
M  V30 13 C 3.8971 1.5 0.0 0
M  V30 14 C 6.4952 1.5 0.0 0
M  V30 15 C 7.7942 8.25 0.0 0
M  V30 16 O 2.598 2.25 0.0 0
M  V30 17 N 3.8971 0.0 0.0 0
M  V30 18 O 7.7942 2.25 0.0 0
M  V30 19 C 6.4952 0.0 0.0 0
M  V30 20 C 5.1961 -0.75 0.0 0
M  V30 21 C 2.598 -0.75 0.0 0
M  V30 22 C 7.7942 -0.75 0.0 0
M  V30 23 C 5.1961 -2.25 0.0 0
M  V30 24 C 1.299 0.0 0.0 0
M  V30 25 C 7.7942 -2.25 0.0 0
M  V30 26 C 6.4952 -3.0 0.0 0
M  V30 27 O 0.0 -0.75 0.0 0
M  V30 END ATOM
M  V30 BEGIN BOND
M  V30 1 2 1 2
M  V30 2 2 1 3
M  V30 3 1 1 4
M  V30 4 1 1 5
M  V30 5 2 4 6
M  V30 6 2 5 7
M  V30 7 1 5 8
M  V30 8 1 6 9
M  V30 9 1 6 10
M  V30 10 1 7 11
M  V30 11 2 8 12
M  V30 12 1 10 13
M  V30 13 2 10 14
M  V30 14 2 11 15
M  V30 15 2 13 16
M  V30 16 1 13 17
M  V30 17 1 14 18
M  V30 18 1 14 19
M  V30 19 1 17 20
M  V30 20 1 17 21
M  V30 21 1 19 22
M  V30 22 1 20 23
M  V30 23 1 21 24
M  V30 24 2 22 25
M  V30 25 2 23 26
M  V30 26 1 24 27
M  V30 27 1 7 9
M  V30 28 1 12 15
M  V30 29 2 19 20
M  V30 30 1 25 26
M  V30 END BOND
M  V30 END CTAB
M  END
>  <Molecule ChEMBL ID>
CHEMBL201360

>  <Smiles>
O=c1c(C2=NS(=O)(=O)c3ccccc3N2)c(O)c2ccccc2n1CCO

>  <Standard Value>
10000

$$$$
CHEMBL201823
Actelion Java MolfileCreator 2.0

  0  0  0  0  0  0              0 V3000
M  V30 BEGIN CTAB
M  V30 COUNTS 33 36 0 0 0
M  V30 BEGIN ATOM
M  V30 1 S 10.3923 2.25 0.0 0
M  V30 2 O 11.1423 3.549 0.0 0
M  V30 3 O 9.6423 3.549 0.0 0
M  V30 4 N 9.0932 1.5 0.0 0
M  V30 5 C 11.6913 1.5 0.0 0
M  V30 6 C 9.0932 0.0 0.0 0
M  V30 7 C 11.6913 0.0 0.0 0
M  V30 8 C 12.9903 2.25 0.0 0
M  V30 9 N 10.3923 -0.75 0.0 0
M  V30 10 C 7.7942 -0.75 0.0 0
M  V30 11 C 12.9903 -0.75 0.0 0
M  V30 12 C 14.2894 1.5 0.0 0
M  V30 13 C 6.4951 0.0 0.0 0
M  V30 14 C 7.7942 -2.25 0.0 0
M  V30 15 C 14.2894 0.0 0.0 0
M  V30 16 O 6.4951 1.5 0.0 0
M  V30 17 N 5.1961 -0.75 0.0 0
M  V30 18 O 9.0932 -3.0 0.0 0
M  V30 19 C 6.4951 -3.0 0.0 0
M  V30 20 C 5.1961 -2.25 0.0 0
M  V30 21 C 3.8971 0.0 0.0 0
M  V30 22 C 6.4951 -4.5 0.0 0
M  V30 23 C 3.8971 -3.0 0.0 0
M  V30 24 C 2.598 -0.75 0.0 0
M  V30 25 C 5.1961 -5.25 0.0 0
M  V30 26 C 3.8971 -4.5 0.0 0
M  V30 27 C 1.299 0.0 0.0 0
M  V30 28 N 5.1961 -6.75 0.0 0
M  V30 29 C 1.299 1.5 0.0 0
M  V30 30 C 0.0 -0.75 0.0 0
M  V30 31 C 3.8971 -7.5 0.0 0
M  V30 32 O 2.598 -6.75 0.0 0
M  V30 33 C 3.8971 -9.0 0.0 0
M  V30 END ATOM
M  V30 BEGIN BOND
M  V30 1 2 1 2
M  V30 2 2 1 3
M  V30 3 1 1 4
M  V30 4 1 1 5
M  V30 5 2 4 6
M  V30 6 2 5 7
M  V30 7 1 5 8
M  V30 8 1 6 9
M  V30 9 1 6 10
M  V30 10 1 7 11
M  V30 11 2 8 12
M  V30 12 1 10 13
M  V30 13 2 10 14
M  V30 14 2 11 15
M  V30 15 2 13 16
M  V30 16 1 13 17
M  V30 17 1 14 18
M  V30 18 1 14 19
M  V30 19 1 17 20
M  V30 20 1 17 21
M  V30 21 1 19 22
M  V30 22 1 20 23
M  V30 23 1 21 24
M  V30 24 2 22 25
M  V30 25 2 23 26
M  V30 26 1 24 27
M  V30 27 1 25 28
M  V30 28 1 27 29
M  V30 29 1 27 30
M  V30 30 1 28 31
M  V30 31 2 31 32
M  V30 32 1 31 33
M  V30 33 1 7 9
M  V30 34 1 12 15
M  V30 35 2 19 20
M  V30 36 1 25 26
M  V30 END BOND
M  V30 END CTAB
M  END
>  <Molecule ChEMBL ID>
CHEMBL201823

>  <Smiles>
CC(=O)Nc1ccc2c(c1)c(O)c(C1=NS(=O)(=O)c3ccccc3N1)c(=O)n2CCC(C)C

>  <Standard Value>
10000

$$$$
CHEMBL377721
Actelion Java MolfileCreator 2.0

  0  0  0  0  0  0              0 V3000
M  V30 BEGIN CTAB
M  V30 COUNTS 32 35 0 0 0
M  V30 BEGIN ATOM
M  V30 1 S 10.3923 2.25 0.0 0
M  V30 2 O 11.1423 3.549 0.0 0
M  V30 3 O 9.6423 3.549 0.0 0
M  V30 4 N 9.0932 1.5 0.0 0
M  V30 5 C 11.6913 1.5 0.0 0
M  V30 6 C 9.0932 0.0 0.0 0
M  V30 7 C 11.6913 0.0 0.0 0
M  V30 8 C 12.9903 2.25 0.0 0
M  V30 9 N 10.3923 -0.75 0.0 0
M  V30 10 C 7.7942 -0.75 0.0 0
M  V30 11 C 12.9903 -0.75 0.0 0
M  V30 12 C 14.2894 1.5 0.0 0
M  V30 13 C 6.4951 0.0 0.0 0
M  V30 14 C 7.7942 -2.25 0.0 0
M  V30 15 C 14.2894 0.0 0.0 0
M  V30 16 O 6.4951 1.5 0.0 0
M  V30 17 N 5.1961 -0.75 0.0 0
M  V30 18 O 9.0932 -3.0 0.0 0
M  V30 19 C 6.4951 -3.0 0.0 0
M  V30 20 C 5.1961 -2.25 0.0 0
M  V30 21 C 3.8971 0.0 0.0 0
M  V30 22 C 6.4951 -4.5 0.0 0
M  V30 23 C 3.8971 -3.0 0.0 0
M  V30 24 C 2.598 -0.75 0.0 0
M  V30 25 C 5.1961 -5.25 0.0 0
M  V30 26 C 3.8971 -4.5 0.0 0
M  V30 27 C 1.299 0.0 0.0 0
M  V30 28 N 2.598 -5.25 0.0 0 CHG=1
M  V30 29 C 1.299 1.5 0.0 0
M  V30 30 C 0.0 -0.75 0.0 0
M  V30 31 O 1.299 -4.5 0.0 0
M  V30 32 O 2.598 -6.75 0.0 0 CHG=-1
M  V30 END ATOM
M  V30 BEGIN BOND
M  V30 1 2 1 2
M  V30 2 2 1 3
M  V30 3 1 1 4
M  V30 4 1 1 5
M  V30 5 2 4 6
M  V30 6 2 5 7
M  V30 7 1 5 8
M  V30 8 1 6 9
M  V30 9 1 6 10
M  V30 10 1 7 11
M  V30 11 2 8 12
M  V30 12 1 10 13
M  V30 13 2 10 14
M  V30 14 2 11 15
M  V30 15 2 13 16
M  V30 16 1 13 17
M  V30 17 1 14 18
M  V30 18 1 14 19
M  V30 19 1 17 20
M  V30 20 1 17 21
M  V30 21 1 19 22
M  V30 22 1 20 23
M  V30 23 1 21 24
M  V30 24 2 22 25
M  V30 25 2 23 26
M  V30 26 1 24 27
M  V30 27 1 26 28
M  V30 28 1 27 29
M  V30 29 1 27 30
M  V30 30 2 28 31
M  V30 31 1 28 32
M  V30 32 1 7 9
M  V30 33 1 12 15
M  V30 34 2 19 20
M  V30 35 1 25 26
M  V30 END BOND
M  V30 END CTAB
M  END
>  <Molecule ChEMBL ID>
CHEMBL377721

>  <Smiles>
CC(C)CCn1c(=O)c(C2=NS(=O)(=O)c3ccccc3N2)c(O)c2ccc([N+](=O)[O-])cc21

>  <Standard Value>
10000

$$$$
CHEMBL201722
Actelion Java MolfileCreator 2.0

  0  0  0  0  0  0              0 V3000
M  V30 BEGIN CTAB
M  V30 COUNTS 34 37 0 0 0
M  V30 BEGIN ATOM
M  V30 1 S 10.3923 2.25 0.0 0
M  V30 2 O 11.1423 3.549 0.0 0
M  V30 3 O 9.6423 3.549 0.0 0
M  V30 4 N 9.0932 1.5 0.0 0
M  V30 5 C 11.6913 1.5 0.0 0
M  V30 6 C 9.0932 0.0 0.0 0
M  V30 7 C 11.6913 0.0 0.0 0
M  V30 8 C 12.9903 2.25 0.0 0
M  V30 9 N 10.3923 -0.75 0.0 0
M  V30 10 C 7.7942 -0.75 0.0 0
M  V30 11 C 12.9903 -0.75 0.0 0
M  V30 12 C 14.2894 1.5 0.0 0
M  V30 13 C 6.4951 0.0 0.0 0
M  V30 14 C 7.7942 -2.25 0.0 0
M  V30 15 C 14.2894 0.0 0.0 0
M  V30 16 O 6.4951 1.5 0.0 0
M  V30 17 N 5.1961 -0.75 0.0 0
M  V30 18 O 9.0932 -3.0 0.0 0
M  V30 19 C 6.4951 -3.0 0.0 0
M  V30 20 C 5.1961 -2.25 0.0 0
M  V30 21 C 3.8971 0.0 0.0 0
M  V30 22 C 6.4951 -4.5 0.0 0
M  V30 23 C 3.8971 -3.0 0.0 0
M  V30 24 C 2.598 -0.75 0.0 0
M  V30 25 C 5.1961 -5.25 0.0 0
M  V30 26 C 3.8971 -4.5 0.0 0
M  V30 27 C 1.299 0.0 0.0 0
M  V30 28 C 2.598 -5.25 0.0 0
M  V30 29 C 1.299 1.5 0.0 0
M  V30 30 C 0.0 -0.75 0.0 0
M  V30 31 C 2.598 -6.75 0.0 0
M  V30 32 C 1.299 -7.5 0.0 0
M  V30 33 O 0.0 -6.75 0.0 0
M  V30 34 N 1.299 -9.0 0.0 0
M  V30 END ATOM
M  V30 BEGIN BOND
M  V30 1 2 1 2
M  V30 2 2 1 3
M  V30 3 1 1 4
M  V30 4 1 1 5
M  V30 5 2 4 6
M  V30 6 2 5 7
M  V30 7 1 5 8
M  V30 8 1 6 9
M  V30 9 1 6 10
M  V30 10 1 7 11
M  V30 11 2 8 12
M  V30 12 1 10 13
M  V30 13 2 10 14
M  V30 14 2 11 15
M  V30 15 2 13 16
M  V30 16 1 13 17
M  V30 17 1 14 18
M  V30 18 1 14 19
M  V30 19 1 17 20
M  V30 20 1 17 21
M  V30 21 1 19 22
M  V30 22 1 20 23
M  V30 23 1 21 24
M  V30 24 2 22 25
M  V30 25 2 23 26
M  V30 26 1 24 27
M  V30 27 1 26 28
M  V30 28 1 27 29
M  V30 29 1 27 30
M  V30 30 2 28 31
M  V30 31 1 31 32
M  V30 32 2 32 33
M  V30 33 1 32 34
M  V30 34 1 7 9
M  V30 35 1 12 15
M  V30 36 2 19 20
M  V30 37 1 25 26
M  V30 END BOND
M  V30 END CTAB
M  END
>  <Molecule ChEMBL ID>
CHEMBL201722

>  <Smiles>
CC(C)CCn1c(=O)c(C2=NS(=O)(=O)c3ccccc3N2)c(O)c2ccc(/C=C/C(N)=O)cc21

>  <Standard Value>
10000

$$$$
CHEMBL202423
Actelion Java MolfileCreator 2.0

  0  0  0  0  0  0              0 V3000
M  V30 BEGIN CTAB
M  V30 COUNTS 29 32 0 0 0
M  V30 BEGIN ATOM
M  V30 1 S 10.3923 2.25 0.0 0
M  V30 2 O 11.1423 3.549 0.0 0
M  V30 3 O 9.6423 3.549 0.0 0
M  V30 4 N 9.0932 1.5 0.0 0
M  V30 5 C 11.6913 1.5 0.0 0
M  V30 6 C 9.0932 0.0 0.0 0
M  V30 7 C 11.6913 0.0 0.0 0
M  V30 8 C 12.9903 2.25 0.0 0
M  V30 9 N 10.3923 -0.75 0.0 0
M  V30 10 C 7.7942 -0.75 0.0 0
M  V30 11 C 12.9903 -0.75 0.0 0
M  V30 12 C 14.2894 1.5 0.0 0
M  V30 13 C 6.4951 0.0 0.0 0
M  V30 14 C 7.7942 -2.25 0.0 0
M  V30 15 C 14.2894 0.0 0.0 0
M  V30 16 O 6.4951 1.5 0.0 0
M  V30 17 N 5.1961 -0.75 0.0 0
M  V30 18 N 9.0932 -3.0 0.0 0
M  V30 19 C 6.4951 -3.0 0.0 0
M  V30 20 C 5.1961 -2.25 0.0 0
M  V30 21 C 3.8971 0.0 0.0 0
M  V30 22 C 6.4951 -4.5 0.0 0
M  V30 23 C 3.8971 -3.0 0.0 0
M  V30 24 C 2.598 -0.75 0.0 0
M  V30 25 C 5.1961 -5.25 0.0 0
M  V30 26 C 3.8971 -4.5 0.0 0
M  V30 27 C 1.299 0.0 0.0 0
M  V30 28 C 1.299 1.5 0.0 0
M  V30 29 C 0.0 -0.75 0.0 0
M  V30 END ATOM
M  V30 BEGIN BOND
M  V30 1 2 1 2
M  V30 2 2 1 3
M  V30 3 1 1 4
M  V30 4 1 1 5
M  V30 5 2 4 6
M  V30 6 2 5 7
M  V30 7 1 5 8
M  V30 8 1 6 9
M  V30 9 1 6 10
M  V30 10 1 7 11
M  V30 11 2 8 12
M  V30 12 1 10 13
M  V30 13 2 10 14
M  V30 14 2 11 15
M  V30 15 2 13 16
M  V30 16 1 13 17
M  V30 17 1 14 18
M  V30 18 1 14 19
M  V30 19 1 17 20
M  V30 20 1 17 21
M  V30 21 1 19 22
M  V30 22 1 20 23
M  V30 23 1 21 24
M  V30 24 2 22 25
M  V30 25 2 23 26
M  V30 26 1 24 27
M  V30 27 1 27 28
M  V30 28 1 27 29
M  V30 29 1 7 9
M  V30 30 1 12 15
M  V30 31 2 19 20
M  V30 32 1 25 26
M  V30 END BOND
M  V30 END CTAB
M  END
>  <Molecule ChEMBL ID>
CHEMBL202423

>  <Smiles>
CC(C)CCn1c(=O)c(C2=NS(=O)(=O)c3ccccc3N2)c(N)c2ccccc21

>  <Standard Value>
10000

$$$$
CHEMBL201912
Actelion Java MolfileCreator 2.0

  0  0  0  0  0  0              0 V3000
M  V30 BEGIN CTAB
M  V30 COUNTS 34 37 0 0 0
M  V30 BEGIN ATOM
M  V30 1 S 10.3923 2.25 0.0 0
M  V30 2 O 11.1423 3.549 0.0 0
M  V30 3 O 9.6423 3.549 0.0 0
M  V30 4 N 9.0932 1.5 0.0 0
M  V30 5 C 11.6913 1.5 0.0 0
M  V30 6 C 9.0932 0.0 0.0 0
M  V30 7 C 11.6913 0.0 0.0 0
M  V30 8 C 12.9903 2.25 0.0 0
M  V30 9 N 10.3923 -0.75 0.0 0
M  V30 10 C 7.7942 -0.75 0.0 0
M  V30 11 C 12.9903 -0.75 0.0 0
M  V30 12 C 14.2894 1.5 0.0 0
M  V30 13 C 6.4951 0.0 0.0 0
M  V30 14 C 7.7942 -2.25 0.0 0
M  V30 15 C 14.2894 0.0 0.0 0
M  V30 16 O 6.4951 1.5 0.0 0
M  V30 17 N 5.1961 -0.75 0.0 0
M  V30 18 O 9.0932 -3.0 0.0 0
M  V30 19 C 6.4951 -3.0 0.0 0
M  V30 20 C 5.1961 -2.25 0.0 0
M  V30 21 C 3.8971 0.0 0.0 0
M  V30 22 C 6.4951 -4.5 0.0 0
M  V30 23 C 3.8971 -3.0 0.0 0
M  V30 24 C 2.598 -0.75 0.0 0
M  V30 25 C 5.1961 -5.25 0.0 0
M  V30 26 C 3.8971 -4.5 0.0 0
M  V30 27 C 1.299 0.0 0.0 0
M  V30 28 C 2.598 -5.25 0.0 0
M  V30 29 C 1.299 1.5 0.0 0
M  V30 30 C 0.0 -0.75 0.0 0
M  V30 31 O 1.299 -4.5 0.0 0
M  V30 32 O 2.598 -6.75 0.0 0
M  V30 33 C 1.299 -7.5 0.0 0
M  V30 34 C 1.299 -9.0 0.0 0
M  V30 END ATOM
M  V30 BEGIN BOND
M  V30 1 2 1 2
M  V30 2 2 1 3
M  V30 3 1 1 4
M  V30 4 1 1 5
M  V30 5 2 4 6
M  V30 6 2 5 7
M  V30 7 1 5 8
M  V30 8 1 6 9
M  V30 9 1 6 10
M  V30 10 1 7 11
M  V30 11 2 8 12
M  V30 12 1 10 13
M  V30 13 2 10 14
M  V30 14 2 11 15
M  V30 15 2 13 16
M  V30 16 1 13 17
M  V30 17 1 14 18
M  V30 18 1 14 19
M  V30 19 1 17 20
M  V30 20 1 17 21
M  V30 21 1 19 22
M  V30 22 1 20 23
M  V30 23 1 21 24
M  V30 24 2 22 25
M  V30 25 2 23 26
M  V30 26 1 24 27
M  V30 27 1 26 28
M  V30 28 1 27 29
M  V30 29 1 27 30
M  V30 30 2 28 31
M  V30 31 1 28 32
M  V30 32 1 32 33
M  V30 33 1 33 34
M  V30 34 1 7 9
M  V30 35 1 12 15
M  V30 36 2 19 20
M  V30 37 1 25 26
M  V30 END BOND
M  V30 END CTAB
M  END
>  <Molecule ChEMBL ID>
CHEMBL201912

>  <Smiles>
CCOC(=O)c1ccc2c(O)c(C3=NS(=O)(=O)c4ccccc4N3)c(=O)n(CCC(C)C)c2c1

>  <Standard Value>
10000

$$$$
CHEMBL202261
Actelion Java MolfileCreator 2.0

  0  0  0  0  0  0              0 V3000
M  V30 BEGIN CTAB
M  V30 COUNTS 30 33 0 0 0
M  V30 BEGIN ATOM
M  V30 1 Br 7.7942 3.75 0.0 0
M  V30 2 C 7.7942 2.25 0.0 0
M  V30 3 C 6.4951 1.5 0.0 0
M  V30 4 C 9.0932 1.5 0.0 0
M  V30 5 C 6.4951 0.0 0.0 0
M  V30 6 C 9.0932 0.0 0.0 0
M  V30 7 N 5.1961 -0.75 0.0 0
M  V30 8 C 7.7942 -0.75 0.0 0
M  V30 9 C 5.1961 -2.25 0.0 0
M  V30 10 C 3.8971 0.0 0.0 0
M  V30 11 C 7.7942 -2.25 0.0 0
M  V30 12 O 3.8971 -3.0 0.0 0
M  V30 13 C 6.4951 -3.0 0.0 0
M  V30 14 C 2.598 -0.75 0.0 0
M  V30 15 O 9.0932 -3.0 0.0 0
M  V30 16 C 6.4951 -4.5 0.0 0
M  V30 17 C 1.299 0.0 0.0 0
M  V30 18 N 5.1961 -5.25 0.0 0
M  V30 19 N 7.7942 -5.25 0.0 0
M  V30 20 C 1.299 1.5 0.0 0
M  V30 21 C 0.0 -0.75 0.0 0
M  V30 22 S 5.1961 -6.75 0.0 0
M  V30 23 C 7.7942 -6.75 0.0 0
M  V30 24 O 3.6961 -6.7499 0.0 0
M  V30 25 O 4.4461 -8.049 0.0 0
M  V30 26 C 6.4951 -7.5 0.0 0
M  V30 27 C 9.0932 -7.5 0.0 0
M  V30 28 C 6.4951 -9.0 0.0 0
M  V30 29 C 9.0932 -9.0 0.0 0
M  V30 30 C 7.7942 -9.75 0.0 0
M  V30 END ATOM
M  V30 BEGIN BOND
M  V30 1 1 1 2
M  V30 2 2 2 3
M  V30 3 1 2 4
M  V30 4 1 3 5
M  V30 5 2 4 6
M  V30 6 1 5 7
M  V30 7 2 5 8
M  V30 8 1 7 9
M  V30 9 1 7 10
M  V30 10 1 8 11
M  V30 11 2 9 12
M  V30 12 1 9 13
M  V30 13 1 10 14
M  V30 14 1 11 15
M  V30 15 1 13 16
M  V30 16 1 14 17
M  V30 17 2 16 18
M  V30 18 1 16 19
M  V30 19 1 17 20
M  V30 20 1 17 21
M  V30 21 1 18 22
M  V30 22 1 19 23
M  V30 23 2 22 24
M  V30 24 2 22 25
M  V30 25 1 22 26
M  V30 26 1 23 27
M  V30 27 1 26 28
M  V30 28 2 27 29
M  V30 29 2 28 30
M  V30 30 1 6 8
M  V30 31 2 11 13
M  V30 32 2 23 26
M  V30 33 1 29 30
M  V30 END BOND
M  V30 END CTAB
M  END
>  <Molecule ChEMBL ID>
CHEMBL202261

>  <Smiles>
CC(C)CCn1c(=O)c(C2=NS(=O)(=O)c3ccccc3N2)c(O)c2ccc(Br)cc21

>  <Standard Value>
10000

$$$$
CHEMBL202375
Actelion Java MolfileCreator 2.0

  0  0  0  0  0  0              0 V3000
M  V30 BEGIN CTAB
M  V30 COUNTS 31 35 0 0 0
M  V30 BEGIN ATOM
M  V30 1 S 3.8971 6.0 0.0 0
M  V30 2 O 3.1471 7.299 0.0 0
M  V30 3 O 2.3971 5.9999 0.0 0
M  V30 4 N 3.8971 4.5 0.0 0
M  V30 5 C 5.1961 6.75 0.0 0
M  V30 6 C 5.1961 3.75 0.0 0
M  V30 7 C 6.4951 6.0 0.0 0
M  V30 8 C 5.1961 8.25 0.0 0
M  V30 9 N 6.4951 4.5 0.0 0
M  V30 10 C 5.1961 2.25 0.0 0
M  V30 11 C 7.7942 6.75 0.0 0
M  V30 12 C 6.4951 9.0 0.0 0
M  V30 13 C 3.8971 1.5 0.0 0
M  V30 14 C 6.4951 1.5 0.0 0
M  V30 15 C 7.7942 8.25 0.0 0
M  V30 16 O 2.598 2.25 0.0 0
M  V30 17 N 3.8971 0.0 0.0 0
M  V30 18 O 7.7942 2.25 0.0 0
M  V30 19 C 6.4951 0.0 0.0 0
M  V30 20 C 5.1961 -0.75 0.0 0
M  V30 21 C 2.598 -0.75 0.0 0
M  V30 22 C 7.7942 -0.75 0.0 0
M  V30 23 C 5.1961 -2.25 0.0 0
M  V30 24 C 1.299 0.0 0.0 0
M  V30 25 C 7.7942 -2.25 0.0 0
M  V30 26 C 6.4951 -3.0 0.0 0
M  V30 27 C 0.0 -0.75 0.0 0
M  V30 28 C -1.3703 -0.1398 0.0 0
M  V30 29 C -0.1567 -2.2417 0.0 0
M  V30 30 S -2.374 -1.2546 0.0 0
M  V30 31 C -1.624 -2.5536 0.0 0
M  V30 END ATOM
M  V30 BEGIN BOND
M  V30 1 2 1 2
M  V30 2 2 1 3
M  V30 3 1 1 4
M  V30 4 1 1 5
M  V30 5 2 4 6
M  V30 6 2 5 7
M  V30 7 1 5 8
M  V30 8 1 6 9
M  V30 9 1 6 10
M  V30 10 1 7 11
M  V30 11 2 8 12
M  V30 12 1 10 13
M  V30 13 2 10 14
M  V30 14 2 11 15
M  V30 15 2 13 16
M  V30 16 1 13 17
M  V30 17 1 14 18
M  V30 18 1 14 19
M  V30 19 1 17 20
M  V30 20 1 17 21
M  V30 21 1 19 22
M  V30 22 1 20 23
M  V30 23 1 21 24
M  V30 24 2 22 25
M  V30 25 2 23 26
M  V30 26 1 24 27
M  V30 27 2 27 28
M  V30 28 1 27 29
M  V30 29 1 28 30
M  V30 30 2 29 31
M  V30 31 1 7 9
M  V30 32 1 12 15
M  V30 33 2 19 20
M  V30 34 1 25 26
M  V30 35 1 30 31
M  V30 END BOND
M  V30 END CTAB
M  END
>  <Molecule ChEMBL ID>
CHEMBL202375

>  <Smiles>
O=c1c(C2=NS(=O)(=O)c3ccccc3N2)c(O)c2ccccc2n1CCc1ccsc1

>  <Standard Value>
10000

$$$$
CHEMBL202304
Actelion Java MolfileCreator 2.0

  0  0  0  0  0  0              0 V3000
M  V30 BEGIN CTAB
M  V30 COUNTS 32 35 0 0 0
M  V30 BEGIN ATOM
M  V30 1 S 10.3923 2.25 0.0 0
M  V30 2 O 11.1423 3.549 0.0 0
M  V30 3 O 9.6423 3.549 0.0 0
M  V30 4 N 9.0932 1.5 0.0 0
M  V30 5 C 11.6913 1.5 0.0 0
M  V30 6 C 9.0932 0.0 0.0 0
M  V30 7 C 11.6913 0.0 0.0 0
M  V30 8 C 12.9903 2.25 0.0 0
M  V30 9 N 10.3923 -0.75 0.0 0
M  V30 10 C 7.7942 -0.75 0.0 0
M  V30 11 C 12.9903 -0.75 0.0 0
M  V30 12 C 14.2894 1.5 0.0 0
M  V30 13 C 6.4951 0.0 0.0 0
M  V30 14 C 7.7942 -2.25 0.0 0
M  V30 15 C 14.2894 0.0 0.0 0
M  V30 16 O 6.4951 1.5 0.0 0
M  V30 17 N 5.1961 -0.75 0.0 0
M  V30 18 O 9.0932 -3.0 0.0 0
M  V30 19 C 6.4951 -3.0 0.0 0
M  V30 20 C 5.1961 -2.25 0.0 0
M  V30 21 C 3.8971 0.0 0.0 0
M  V30 22 C 6.4951 -4.5 0.0 0
M  V30 23 C 3.8971 -3.0 0.0 0
M  V30 24 C 3.8971 1.5 0.0 0
M  V30 25 C 5.1961 -5.25 0.0 0
M  V30 26 N 2.598 -2.25 0.0 0 CHG=1
M  V30 27 C 3.8971 -4.5 0.0 0
M  V30 28 C 2.598 2.25 0.0 0
M  V30 29 O 2.598 -0.75 0.0 0
M  V30 30 O 1.299 -3.0 0.0 0 CHG=-1
M  V30 31 C 1.299 1.5 0.0 0
M  V30 32 C 2.598 3.75 0.0 0
M  V30 END ATOM
M  V30 BEGIN BOND
M  V30 1 2 1 2
M  V30 2 2 1 3
M  V30 3 1 1 4
M  V30 4 1 1 5
M  V30 5 2 4 6
M  V30 6 2 5 7
M  V30 7 1 5 8
M  V30 8 1 6 9
M  V30 9 1 6 10
M  V30 10 1 7 11
M  V30 11 2 8 12
M  V30 12 1 10 13
M  V30 13 2 10 14
M  V30 14 2 11 15
M  V30 15 2 13 16
M  V30 16 1 13 17
M  V30 17 1 14 18
M  V30 18 1 14 19
M  V30 19 1 17 20
M  V30 20 1 17 21
M  V30 21 1 19 22
M  V30 22 1 20 23
M  V30 23 1 21 24
M  V30 24 2 22 25
M  V30 25 1 23 26
M  V30 26 2 23 27
M  V30 27 1 24 28
M  V30 28 2 26 29
M  V30 29 1 26 30
M  V30 30 1 28 31
M  V30 31 1 28 32
M  V30 32 1 7 9
M  V30 33 1 12 15
M  V30 34 2 19 20
M  V30 35 1 25 27
M  V30 END BOND
M  V30 END CTAB
M  END
>  <Molecule ChEMBL ID>
CHEMBL202304

>  <Smiles>
CC(C)CCn1c(=O)c(C2=NS(=O)(=O)c3ccccc3N2)c(O)c2cccc([N+](=O)[O-])c21

>  <Standard Value>
10000

$$$$
CHEMBL201928
Actelion Java MolfileCreator 2.0

  0  0  0  0  0  0              0 V3000
M  V30 BEGIN CTAB
M  V30 COUNTS 29 32 0 0 0
M  V30 BEGIN ATOM
M  V30 1 S 10.3923 2.25 0.0 0
M  V30 2 O 11.1423 3.549 0.0 0
M  V30 3 O 9.6423 3.549 0.0 0
M  V30 4 N 9.0932 1.5 0.0 0
M  V30 5 C 11.6913 1.5 0.0 0
M  V30 6 C 9.0932 0.0 0.0 0
M  V30 7 C 11.6913 0.0 0.0 0
M  V30 8 C 12.9903 2.25 0.0 0
M  V30 9 N 10.3923 -0.75 0.0 0
M  V30 10 C 7.7942 -0.75 0.0 0
M  V30 11 C 12.9903 -0.75 0.0 0
M  V30 12 C 14.2894 1.5 0.0 0
M  V30 13 C 6.4951 0.0 0.0 0
M  V30 14 C 7.7942 -2.25 0.0 0
M  V30 15 C 14.2894 0.0 0.0 0
M  V30 16 O 6.4951 1.5 0.0 0
M  V30 17 N 5.1961 -0.75 0.0 0
M  V30 18 O 9.0932 -3.0 0.0 0
M  V30 19 C 6.4951 -3.0 0.0 0
M  V30 20 C 5.1961 -2.25 0.0 0
M  V30 21 C 3.8971 0.0 0.0 0
M  V30 22 C 6.4951 -4.5 0.0 0
M  V30 23 C 3.8971 -3.0 0.0 0
M  V30 24 C 2.598 -0.75 0.0 0
M  V30 25 C 5.1961 -5.25 0.0 0
M  V30 26 C 3.8971 -4.5 0.0 0
M  V30 27 N 1.299 0.0 0.0 0
M  V30 28 C 1.299 1.5 0.0 0
M  V30 29 C 0.0 -0.75 0.0 0
M  V30 END ATOM
M  V30 BEGIN BOND
M  V30 1 2 1 2
M  V30 2 2 1 3
M  V30 3 1 1 4
M  V30 4 1 1 5
M  V30 5 2 4 6
M  V30 6 2 5 7
M  V30 7 1 5 8
M  V30 8 1 6 9
M  V30 9 1 6 10
M  V30 10 1 7 11
M  V30 11 2 8 12
M  V30 12 1 10 13
M  V30 13 2 10 14
M  V30 14 2 11 15
M  V30 15 2 13 16
M  V30 16 1 13 17
M  V30 17 1 14 18
M  V30 18 1 14 19
M  V30 19 1 17 20
M  V30 20 1 17 21
M  V30 21 1 19 22
M  V30 22 1 20 23
M  V30 23 1 21 24
M  V30 24 2 22 25
M  V30 25 2 23 26
M  V30 26 1 24 27
M  V30 27 1 27 28
M  V30 28 1 27 29
M  V30 29 1 7 9
M  V30 30 1 12 15
M  V30 31 2 19 20
M  V30 32 1 25 26
M  V30 END BOND
M  V30 END CTAB
M  END
>  <Molecule ChEMBL ID>
CHEMBL201928

>  <Smiles>
CN(C)CCn1c(=O)c(C2=NS(=O)(=O)c3ccccc3N2)c(O)c2ccccc21

>  <Standard Value>
10000

$$$$
CHEMBL201350
Actelion Java MolfileCreator 2.0

  0  0  0  0  0  0              0 V3000
M  V30 BEGIN CTAB
M  V30 COUNTS 35 39 0 0 0
M  V30 BEGIN ATOM
M  V30 1 S 7.7942 2.25 0.0 0
M  V30 2 O 8.5442 3.549 0.0 0
M  V30 3 O 7.0442 3.549 0.0 0
M  V30 4 N 6.4951 1.5 0.0 0
M  V30 5 C 9.0932 1.5 0.0 0
M  V30 6 C 6.4951 0.0 0.0 0
M  V30 7 C 9.0932 0.0 0.0 0
M  V30 8 C 10.3923 2.25 0.0 0
M  V30 9 N 7.7942 -0.75 0.0 0
M  V30 10 C 5.1961 -0.75 0.0 0
M  V30 11 C 10.3923 -0.75 0.0 0
M  V30 12 C 11.6913 1.5 0.0 0
M  V30 13 C 3.8971 0.0 0.0 0
M  V30 14 C 5.1961 -2.25 0.0 0
M  V30 15 C 11.6913 0.0 0.0 0
M  V30 16 O 3.8971 1.5 0.0 0
M  V30 17 N 2.598 -0.75 0.0 0
M  V30 18 O 6.4951 -3.0 0.0 0
M  V30 19 C 3.8971 -3.0 0.0 0
M  V30 20 C 2.598 -2.25 0.0 0
M  V30 21 C 1.299 0.0 0.0 0
M  V30 22 C 3.8971 -4.5 0.0 0
M  V30 23 C 1.299 -3.0 0.0 0
M  V30 24 C 0.0 -0.75 0.0 0
M  V30 25 C 2.598 -5.25 0.0 0
M  V30 26 C 1.299 -4.5 0.0 0
M  V30 27 C -1.299 0.0 0.0 0
M  V30 28 C 0.0 -2.25 0.0 0
M  V30 29 C -2.598 -0.75 0.0 0
M  V30 30 C -1.299 -3.0 0.0 0
M  V30 31 C -2.598 -2.25 0.0 0
M  V30 32 C -3.8971 -3.0 0.0 0
M  V30 33 C -3.1471 -4.299 0.0 0
M  V30 34 C -5.1961 -3.75 0.0 0
M  V30 35 C -4.6471 -1.7009 0.0 0
M  V30 END ATOM
M  V30 BEGIN BOND
M  V30 1 2 1 2
M  V30 2 2 1 3
M  V30 3 1 1 4
M  V30 4 1 1 5
M  V30 5 2 4 6
M  V30 6 2 5 7
M  V30 7 1 5 8
M  V30 8 1 6 9
M  V30 9 1 6 10
M  V30 10 1 7 11
M  V30 11 2 8 12
M  V30 12 1 10 13
M  V30 13 2 10 14
M  V30 14 2 11 15
M  V30 15 2 13 16
M  V30 16 1 13 17
M  V30 17 1 14 18
M  V30 18 1 14 19
M  V30 19 1 17 20
M  V30 20 1 17 21
M  V30 21 1 19 22
M  V30 22 1 20 23
M  V30 23 1 21 24
M  V30 24 2 22 25
M  V30 25 2 23 26
M  V30 26 2 24 27
M  V30 27 1 24 28
M  V30 28 1 27 29
M  V30 29 2 28 30
M  V30 30 2 29 31
M  V30 31 1 31 32
M  V30 32 1 32 33
M  V30 33 1 32 34
M  V30 34 1 32 35
M  V30 35 1 7 9
M  V30 36 1 12 15
M  V30 37 2 19 20
M  V30 38 1 25 26
M  V30 39 1 30 31
M  V30 END BOND
M  V30 END CTAB
M  END
>  <Molecule ChEMBL ID>
CHEMBL201350

>  <Smiles>
CC(C)(C)c1ccc(Cn2c(=O)c(C3=NS(=O)(=O)c4ccccc4N3)c(O)c3ccccc32)cc1

>  <Standard Value>
10000

$$$$
CHEMBL201256
Actelion Java MolfileCreator 2.0

  0  0  0  0  0  0              0 V3000
M  V30 BEGIN CTAB
M  V30 COUNTS 24 27 0 0 0
M  V30 BEGIN ATOM
M  V30 1 S 2.598 2.25 0.0 0
M  V30 2 O 3.348 3.549 0.0 0
M  V30 3 O 1.848 3.549 0.0 0
M  V30 4 N 1.299 1.5 0.0 0
M  V30 5 C 3.8971 1.5 0.0 0
M  V30 6 C 1.299 0.0 0.0 0
M  V30 7 C 3.8971 0.0 0.0 0
M  V30 8 C 5.1961 2.25 0.0 0
M  V30 9 N 2.598 -0.75 0.0 0
M  V30 10 C 0.0 -0.75 0.0 0
M  V30 11 C 5.1961 -0.75 0.0 0
M  V30 12 C 6.4952 1.5 0.0 0
M  V30 13 C -1.299 0.0 0.0 0
M  V30 14 C 0.0 -2.25 0.0 0
M  V30 15 C 6.4952 0.0 0.0 0
M  V30 16 O -1.299 1.5 0.0 0
M  V30 17 N -2.598 -0.75 0.0 0
M  V30 18 O 1.299 -3.0 0.0 0
M  V30 19 C -1.299 -3.0 0.0 0
M  V30 20 C -2.598 -2.25 0.0 0
M  V30 21 C -1.299 -4.5 0.0 0
M  V30 22 C -3.8971 -3.0 0.0 0
M  V30 23 C -2.598 -5.25 0.0 0
M  V30 24 C -3.8971 -4.5 0.0 0
M  V30 END ATOM
M  V30 BEGIN BOND
M  V30 1 2 1 2
M  V30 2 2 1 3
M  V30 3 1 1 4
M  V30 4 1 1 5
M  V30 5 2 4 6
M  V30 6 2 5 7
M  V30 7 1 5 8
M  V30 8 1 6 9
M  V30 9 1 6 10
M  V30 10 1 7 11
M  V30 11 2 8 12
M  V30 12 1 10 13
M  V30 13 2 10 14
M  V30 14 2 11 15
M  V30 15 1 13 16
M  V30 16 2 13 17
M  V30 17 1 14 18
M  V30 18 1 14 19
M  V30 19 1 17 20
M  V30 20 2 19 21
M  V30 21 2 20 22
M  V30 22 1 21 23
M  V30 23 1 22 24
M  V30 24 1 7 9
M  V30 25 1 12 15
M  V30 26 1 19 20
M  V30 27 2 23 24
M  V30 END BOND
M  V30 END CTAB
M  END
>  <Molecule ChEMBL ID>
CHEMBL201256

>  <Smiles>
O=S1(=O)N=C(c2c(O)nc3ccccc3c2O)Nc2ccccc21

>  <Standard Value>
10000

$$$$
CHEMBL201336
Actelion Java MolfileCreator 2.0

  0  0  0  0  0  0              0 V3000
M  V30 BEGIN CTAB
M  V30 COUNTS 31 34 0 0 0
M  V30 BEGIN ATOM
M  V30 1 S 10.3923 2.25 0.0 0
M  V30 2 O 11.1423 3.549 0.0 0
M  V30 3 O 9.6423 3.549 0.0 0
M  V30 4 N 9.0932 1.5 0.0 0
M  V30 5 C 11.6913 1.5 0.0 0
M  V30 6 C 9.0932 0.0 0.0 0
M  V30 7 C 11.6913 0.0 0.0 0
M  V30 8 C 12.9903 2.25 0.0 0
M  V30 9 N 10.3923 -0.75 0.0 0
M  V30 10 C 7.7942 -0.75 0.0 0
M  V30 11 C 12.9903 -0.75 0.0 0
M  V30 12 C 14.2894 1.5 0.0 0
M  V30 13 C 6.4951 0.0 0.0 0
M  V30 14 C 7.7942 -2.25 0.0 0
M  V30 15 C 14.2894 0.0 0.0 0
M  V30 16 O 6.4951 1.5 0.0 0
M  V30 17 N 5.1961 -0.75 0.0 0
M  V30 18 O 9.0932 -3.0 0.0 0
M  V30 19 C 6.4951 -3.0 0.0 0
M  V30 20 C 5.1961 -2.25 0.0 0
M  V30 21 C 3.8971 0.0 0.0 0
M  V30 22 C 6.4951 -4.5 0.0 0
M  V30 23 C 3.8971 -3.0 0.0 0
M  V30 24 C 2.598 -0.75 0.0 0
M  V30 25 C 5.1961 -5.25 0.0 0
M  V30 26 C 3.8971 -4.5 0.0 0
M  V30 27 O 2.598 -2.25 0.0 0
M  V30 28 N 1.299 0.0 0.0 0
M  V30 29 F 5.1961 -6.75 0.0 0
M  V30 30 C 1.299 1.5 0.0 0
M  V30 31 C 0.0 -0.75 0.0 0
M  V30 END ATOM
M  V30 BEGIN BOND
M  V30 1 2 1 2
M  V30 2 2 1 3
M  V30 3 1 1 4
M  V30 4 1 1 5
M  V30 5 2 4 6
M  V30 6 2 5 7
M  V30 7 1 5 8
M  V30 8 1 6 9
M  V30 9 1 6 10
M  V30 10 1 7 11
M  V30 11 2 8 12
M  V30 12 1 10 13
M  V30 13 2 10 14
M  V30 14 2 11 15
M  V30 15 2 13 16
M  V30 16 1 13 17
M  V30 17 1 14 18
M  V30 18 1 14 19
M  V30 19 1 17 20
M  V30 20 1 17 21
M  V30 21 1 19 22
M  V30 22 1 20 23
M  V30 23 1 21 24
M  V30 24 2 22 25
M  V30 25 2 23 26
M  V30 26 2 24 27
M  V30 27 1 24 28
M  V30 28 1 25 29
M  V30 29 1 28 30
M  V30 30 1 28 31
M  V30 31 1 7 9
M  V30 32 1 12 15
M  V30 33 2 19 20
M  V30 34 1 25 26
M  V30 END BOND
M  V30 END CTAB
M  END
>  <Molecule ChEMBL ID>
CHEMBL201336

>  <Smiles>
CN(C)C(=O)Cn1c(=O)c(C2=NS(=O)(=O)c3ccccc3N2)c(O)c2cc(F)ccc21

>  <Standard Value>
10000

$$$$
CHEMBL383418
Actelion Java MolfileCreator 2.0

  0  0  0  0  0  0              0 V3000
M  V30 BEGIN CTAB
M  V30 COUNTS 30 33 0 0 0
M  V30 BEGIN ATOM
M  V30 1 S 6.4951 6.0 0.0 0
M  V30 2 O 5.7452 7.299 0.0 0
M  V30 3 O 4.9952 5.9999 0.0 0
M  V30 4 N 6.4951 4.5 0.0 0
M  V30 5 C 7.7942 6.75 0.0 0
M  V30 6 C 7.7942 3.75 0.0 0
M  V30 7 C 9.0932 6.0 0.0 0
M  V30 8 C 7.7942 8.25 0.0 0
M  V30 9 N 9.0932 4.5 0.0 0
M  V30 10 C 7.7942 2.25 0.0 0
M  V30 11 C 10.3923 6.75 0.0 0
M  V30 12 C 9.0932 9.0 0.0 0
M  V30 13 C 6.4951 1.5 0.0 0
M  V30 14 C 9.0932 1.5 0.0 0
M  V30 15 C 10.3923 8.25 0.0 0
M  V30 16 O 5.1961 2.25 0.0 0
M  V30 17 N 6.4951 0.0 0.0 0
M  V30 18 O 10.3923 2.25 0.0 0
M  V30 19 C 9.0932 0.0 0.0 0
M  V30 20 C 7.7942 -0.75 0.0 0
M  V30 21 C 5.1961 -0.75 0.0 0
M  V30 22 C 10.3923 -0.75 0.0 0
M  V30 23 C 7.7942 -2.25 0.0 0
M  V30 24 C 3.8971 0.0 0.0 0
M  V30 25 C 10.3923 -2.25 0.0 0
M  V30 26 C 9.0932 -3.0 0.0 0
M  V30 27 C 2.598 -0.75 0.0 0
M  V30 28 C 1.299 0.0 0.0 0
M  V30 29 O 1.299 1.5 0.0 0
M  V30 30 N 0.0 -0.75 0.0 0
M  V30 END ATOM
M  V30 BEGIN BOND
M  V30 1 2 1 2
M  V30 2 2 1 3
M  V30 3 1 1 4
M  V30 4 1 1 5
M  V30 5 2 4 6
M  V30 6 2 5 7
M  V30 7 1 5 8
M  V30 8 1 6 9
M  V30 9 1 6 10
M  V30 10 1 7 11
M  V30 11 2 8 12
M  V30 12 1 10 13
M  V30 13 2 10 14
M  V30 14 2 11 15
M  V30 15 2 13 16
M  V30 16 1 13 17
M  V30 17 1 14 18
M  V30 18 1 14 19
M  V30 19 1 17 20
M  V30 20 1 17 21
M  V30 21 1 19 22
M  V30 22 1 20 23
M  V30 23 1 21 24
M  V30 24 2 22 25
M  V30 25 2 23 26
M  V30 26 1 24 27
M  V30 27 1 27 28
M  V30 28 2 28 29
M  V30 29 1 28 30
M  V30 30 1 7 9
M  V30 31 1 12 15
M  V30 32 2 19 20
M  V30 33 1 25 26
M  V30 END BOND
M  V30 END CTAB
M  END
>  <Molecule ChEMBL ID>
CHEMBL383418

>  <Smiles>
NC(=O)CCCn1c(=O)c(C2=NS(=O)(=O)c3ccccc3N2)c(O)c2ccccc21

>  <Standard Value>
10000

$$$$
CHEMBL201635
Actelion Java MolfileCreator 2.0

  0  0  0  0  0  0              0 V3000
M  V30 BEGIN CTAB
M  V30 COUNTS 29 32 0 0 0
M  V30 BEGIN ATOM
M  V30 1 S 6.4951 6.0 0.0 0
M  V30 2 O 5.7452 7.299 0.0 0
M  V30 3 O 4.9952 5.9999 0.0 0
M  V30 4 N 6.4951 4.5 0.0 0
M  V30 5 C 7.7942 6.75 0.0 0
M  V30 6 C 7.7942 3.75 0.0 0
M  V30 7 C 9.0932 6.0 0.0 0
M  V30 8 C 7.7942 8.25 0.0 0
M  V30 9 N 9.0932 4.5 0.0 0
M  V30 10 C 7.7942 2.25 0.0 0
M  V30 11 C 10.3923 6.75 0.0 0
M  V30 12 C 9.0932 9.0 0.0 0
M  V30 13 C 6.4951 1.5 0.0 0
M  V30 14 C 9.0932 1.5 0.0 0
M  V30 15 C 10.3923 8.25 0.0 0
M  V30 16 O 5.1961 2.25 0.0 0
M  V30 17 N 6.4951 0.0 0.0 0
M  V30 18 O 10.3923 2.25 0.0 0
M  V30 19 C 9.0932 0.0 0.0 0
M  V30 20 C 7.7942 -0.75 0.0 0
M  V30 21 C 5.1961 -0.75 0.0 0
M  V30 22 C 10.3923 -0.75 0.0 0
M  V30 23 C 7.7942 -2.25 0.0 0
M  V30 24 C 3.8971 0.0 0.0 0
M  V30 25 C 10.3923 -2.25 0.0 0
M  V30 26 C 9.0932 -3.0 0.0 0
M  V30 27 C 2.598 -0.75 0.0 0
M  V30 28 C 1.299 0.0 0.0 0
M  V30 29 N 0.0 -0.75 0.0 0
M  V30 END ATOM
M  V30 BEGIN BOND
M  V30 1 2 1 2
M  V30 2 2 1 3
M  V30 3 1 1 4
M  V30 4 1 1 5
M  V30 5 2 4 6
M  V30 6 2 5 7
M  V30 7 1 5 8
M  V30 8 1 6 9
M  V30 9 1 6 10
M  V30 10 1 7 11
M  V30 11 2 8 12
M  V30 12 1 10 13
M  V30 13 2 10 14
M  V30 14 2 11 15
M  V30 15 2 13 16
M  V30 16 1 13 17
M  V30 17 1 14 18
M  V30 18 1 14 19
M  V30 19 1 17 20
M  V30 20 1 17 21
M  V30 21 1 19 22
M  V30 22 1 20 23
M  V30 23 1 21 24
M  V30 24 2 22 25
M  V30 25 2 23 26
M  V30 26 1 24 27
M  V30 27 1 27 28
M  V30 28 1 28 29
M  V30 29 1 7 9
M  V30 30 1 12 15
M  V30 31 2 19 20
M  V30 32 1 25 26
M  V30 END BOND
M  V30 END CTAB
M  END
>  <Molecule ChEMBL ID>
CHEMBL201635

>  <Smiles>
NCCCCn1c(=O)c(C2=NS(=O)(=O)c3ccccc3N2)c(O)c2ccccc21

>  <Standard Value>
10000

$$$$
CHEMBL380341
Actelion Java MolfileCreator 2.0

  0  0  0  0  0  0              0 V3000
M  V30 BEGIN CTAB
M  V30 COUNTS 33 37 0 0 0
M  V30 BEGIN ATOM
M  V30 1 S 10.3923 2.25 0.0 0
M  V30 2 O 11.1423 3.549 0.0 0
M  V30 3 O 9.6423 3.549 0.0 0
M  V30 4 N 9.0932 1.5 0.0 0
M  V30 5 C 11.6913 1.5 0.0 0
M  V30 6 C 9.0932 0.0 0.0 0
M  V30 7 C 11.6913 0.0 0.0 0
M  V30 8 C 12.9903 2.25 0.0 0
M  V30 9 N 10.3923 -0.75 0.0 0
M  V30 10 C 7.7942 -0.75 0.0 0
M  V30 11 C 12.9903 -0.75 0.0 0
M  V30 12 C 14.2894 1.5 0.0 0
M  V30 13 C 6.4951 0.0 0.0 0
M  V30 14 C 7.7942 -2.25 0.0 0
M  V30 15 C 14.2894 0.0 0.0 0
M  V30 16 O 6.4951 1.5 0.0 0
M  V30 17 N 5.1961 -0.75 0.0 0
M  V30 18 O 9.0932 -3.0 0.0 0
M  V30 19 C 6.4951 -3.0 0.0 0
M  V30 20 C 5.1961 -2.25 0.0 0
M  V30 21 C 3.8971 0.0 0.0 0
M  V30 22 C 6.4951 -4.5 0.0 0
M  V30 23 C 3.8971 -3.0 0.0 0
M  V30 24 C 2.598 -0.75 0.0 0
M  V30 25 C 5.1961 -5.25 0.0 0
M  V30 26 C 3.8971 -4.5 0.0 0
M  V30 27 C 1.299 0.0 0.0 0
M  V30 28 C 0.0 -0.75 0.0 0
M  V30 29 C -1.299 0.0 0.0 0
M  V30 30 C 0.0 -2.25 0.0 0
M  V30 31 C -2.598 -0.75 0.0 0
M  V30 32 C -1.299 -3.0 0.0 0
M  V30 33 C -2.598 -2.25 0.0 0
M  V30 END ATOM
M  V30 BEGIN BOND
M  V30 1 2 1 2
M  V30 2 2 1 3
M  V30 3 1 1 4
M  V30 4 1 1 5
M  V30 5 2 4 6
M  V30 6 2 5 7
M  V30 7 1 5 8
M  V30 8 1 6 9
M  V30 9 1 6 10
M  V30 10 1 7 11
M  V30 11 2 8 12
M  V30 12 1 10 13
M  V30 13 2 10 14
M  V30 14 2 11 15
M  V30 15 2 13 16
M  V30 16 1 13 17
M  V30 17 1 14 18
M  V30 18 1 14 19
M  V30 19 1 17 20
M  V30 20 1 17 21
M  V30 21 1 19 22
M  V30 22 1 20 23
M  V30 23 1 21 24
M  V30 24 2 22 25
M  V30 25 2 23 26
M  V30 26 1 24 27
M  V30 27 1 27 28
M  V30 28 2 28 29
M  V30 29 1 28 30
M  V30 30 1 29 31
M  V30 31 2 30 32
M  V30 32 2 31 33
M  V30 33 1 7 9
M  V30 34 1 12 15
M  V30 35 2 19 20
M  V30 36 1 25 26
M  V30 37 1 32 33
M  V30 END BOND
M  V30 END CTAB
M  END
>  <Molecule ChEMBL ID>
CHEMBL380341

>  <Smiles>
O=c1c(C2=NS(=O)(=O)c3ccccc3N2)c(O)c2ccccc2n1CCCc1ccccc1

>  <Standard Value>
10000

$$$$
CHEMBL201231
Actelion Java MolfileCreator 2.0

  0  0  0  0  0  0              0 V3000
M  V30 BEGIN CTAB
M  V30 COUNTS 34 38 0 0 0
M  V30 BEGIN ATOM
M  V30 1 S 7.7942 2.25 0.0 0
M  V30 2 O 8.5442 3.549 0.0 0
M  V30 3 O 7.0442 3.549 0.0 0
M  V30 4 N 6.4951 1.5 0.0 0
M  V30 5 C 9.0932 1.5 0.0 0
M  V30 6 C 6.4951 0.0 0.0 0
M  V30 7 C 9.0932 0.0 0.0 0
M  V30 8 C 10.3923 2.25 0.0 0
M  V30 9 N 7.7942 -0.75 0.0 0
M  V30 10 C 5.1961 -0.75 0.0 0
M  V30 11 C 10.3923 -0.75 0.0 0
M  V30 12 C 11.6913 1.5 0.0 0
M  V30 13 C 3.8971 0.0 0.0 0
M  V30 14 C 5.1961 -2.25 0.0 0
M  V30 15 C 11.6913 0.0 0.0 0
M  V30 16 O 3.8971 1.5 0.0 0
M  V30 17 N 2.598 -0.75 0.0 0
M  V30 18 O 6.4951 -3.0 0.0 0
M  V30 19 C 3.8971 -3.0 0.0 0
M  V30 20 C 2.598 -2.25 0.0 0
M  V30 21 C 1.299 0.0 0.0 0
M  V30 22 C 3.8971 -4.5 0.0 0
M  V30 23 C 1.299 -3.0 0.0 0
M  V30 24 C 0.0 -0.75 0.0 0
M  V30 25 C 2.598 -5.25 0.0 0
M  V30 26 C 1.299 -4.5 0.0 0
M  V30 27 C -1.299 0.0 0.0 0
M  V30 28 C 0.0 -2.25 0.0 0
M  V30 29 N -1.299 1.5 0.0 0 CHG=1
M  V30 30 C -2.598 -0.75 0.0 0
M  V30 31 C -1.299 -3.0 0.0 0
M  V30 32 O 0.0 2.25 0.0 0
M  V30 33 O -2.598 2.25 0.0 0 CHG=-1
M  V30 34 C -2.598 -2.25 0.0 0
M  V30 END ATOM
M  V30 BEGIN BOND
M  V30 1 2 1 2
M  V30 2 2 1 3
M  V30 3 1 1 4
M  V30 4 1 1 5
M  V30 5 2 4 6
M  V30 6 2 5 7
M  V30 7 1 5 8
M  V30 8 1 6 9
M  V30 9 1 6 10
M  V30 10 1 7 11
M  V30 11 2 8 12
M  V30 12 1 10 13
M  V30 13 2 10 14
M  V30 14 2 11 15
M  V30 15 2 13 16
M  V30 16 1 13 17
M  V30 17 1 14 18
M  V30 18 1 14 19
M  V30 19 1 17 20
M  V30 20 1 17 21
M  V30 21 1 19 22
M  V30 22 1 20 23
M  V30 23 1 21 24
M  V30 24 2 22 25
M  V30 25 2 23 26
M  V30 26 2 24 27
M  V30 27 1 24 28
M  V30 28 1 27 29
M  V30 29 1 27 30
M  V30 30 2 28 31
M  V30 31 2 29 32
M  V30 32 1 29 33
M  V30 33 2 30 34
M  V30 34 1 7 9
M  V30 35 1 12 15
M  V30 36 2 19 20
M  V30 37 1 25 26
M  V30 38 1 31 34
M  V30 END BOND
M  V30 END CTAB
M  END
>  <Molecule ChEMBL ID>
CHEMBL201231

>  <Smiles>
O=c1c(C2=NS(=O)(=O)c3ccccc3N2)c(O)c2ccccc2n1Cc1ccccc1[N+](=O)[O-]

>  <Standard Value>
10000

$$$$
CHEMBL202987
Actelion Java MolfileCreator 2.0

  0  0  0  0  0  0              0 V3000
M  V30 BEGIN CTAB
M  V30 COUNTS 29 33 0 0 0
M  V30 BEGIN ATOM
M  V30 1 F 6.0621 -2.0 0.0 0
M  V30 2 C 5.1961 -1.5 0.0 0
M  V30 3 C 5.1961 -0.5 0.0 0
M  V30 4 C 4.3301 -1.9999 0.0 0
M  V30 5 C 4.3301 0.0 0.0 0
M  V30 6 C 3.4641 -1.4999 0.0 0
M  V30 7 C 4.3301 0.9999 0.0 0
M  V30 8 C 3.4641 -0.4999 0.0 0
M  V30 9 O 5.1961 1.4999 0.0 0
M  V30 10 C 3.4641 1.5 0.0 0
M  V30 11 N 2.598 0.0 0.0 0
M  V30 12 C 3.4641 2.5 0.0 0
M  V30 13 C 2.598 0.9999 0.0 0
M  V30 14 C 1.732 -0.5 0.0 0
M  V30 15 N 4.3301 3.0 0.0 0
M  V30 16 N 2.598 2.9999 0.0 0
M  V30 17 O 1.732 1.4999 0.0 0
M  V30 18 C 0.866 0.0 0.0 0
M  V30 19 C 4.3301 4.0 0.0 0
M  V30 20 C 2.598 4.0 0.0 0
M  V30 21 C 0.0 -0.5 0.0 0
M  V30 22 O 5.1961 4.5 0.0 0
M  V30 23 C 3.4641 4.5 0.0 0
M  V30 24 C 1.732 4.5 0.0 0
M  V30 25 C -1.0 -0.4999 0.0 0
M  V30 26 C -0.5 -1.366 0.0 0
M  V30 27 C 3.4641 5.5 0.0 0
M  V30 28 C 1.732 5.5 0.0 0
M  V30 29 C 2.598 6.0 0.0 0
M  V30 END ATOM
M  V30 BEGIN BOND
M  V30 1 1 1 2
M  V30 2 2 2 3
M  V30 3 1 2 4
M  V30 4 1 3 5
M  V30 5 2 4 6
M  V30 6 1 5 7
M  V30 7 2 5 8
M  V30 8 1 7 9
M  V30 9 2 7 10
M  V30 10 1 8 11
M  V30 11 1 10 12
M  V30 12 1 10 13
M  V30 13 1 11 14
M  V30 14 1 12 15
M  V30 15 2 12 16
M  V30 16 2 13 17
M  V30 17 1 14 18
M  V30 18 2 15 19
M  V30 19 1 16 20
M  V30 20 1 18 21
M  V30 21 1 19 22
M  V30 22 1 19 23
M  V30 23 2 20 24
M  V30 24 1 21 25
M  V30 25 1 21 26
M  V30 26 2 23 27
M  V30 27 1 24 28
M  V30 28 1 27 29
M  V30 29 1 6 8
M  V30 30 1 11 13
M  V30 31 1 20 23
M  V30 32 1 25 26
M  V30 33 2 28 29
M  V30 END BOND
M  V30 END CTAB
M  END
>  <Molecule ChEMBL ID>
CHEMBL202987

>  <Smiles>
O=c1c(-c2nc(O)c3ccccc3n2)c(O)c2cc(F)ccc2n1CCC1CC1

>  <Standard Value>
10000

$$$$
CHEMBL202326
Actelion Java MolfileCreator 2.0

  0  0  0  0  0  0              0 V3000
M  V30 BEGIN CTAB
M  V30 COUNTS 30 33 0 0 0
M  V30 BEGIN ATOM
M  V30 1 Cl 7.7942 3.75 0.0 0
M  V30 2 C 7.7942 2.25 0.0 0
M  V30 3 C 6.4951 1.5 0.0 0
M  V30 4 C 9.0932 1.5 0.0 0
M  V30 5 C 6.4951 0.0 0.0 0
M  V30 6 C 9.0932 0.0 0.0 0
M  V30 7 N 5.1961 -0.75 0.0 0
M  V30 8 C 7.7942 -0.75 0.0 0
M  V30 9 C 5.1961 -2.25 0.0 0
M  V30 10 C 3.8971 0.0 0.0 0
M  V30 11 C 7.7942 -2.25 0.0 0
M  V30 12 O 3.8971 -3.0 0.0 0
M  V30 13 C 6.4951 -3.0 0.0 0
M  V30 14 C 2.598 -0.75 0.0 0
M  V30 15 O 9.0932 -3.0 0.0 0
M  V30 16 C 6.4951 -4.5 0.0 0
M  V30 17 C 1.299 0.0 0.0 0
M  V30 18 N 5.1961 -5.25 0.0 0
M  V30 19 N 7.7942 -5.25 0.0 0
M  V30 20 C 1.299 1.5 0.0 0
M  V30 21 C 0.0 -0.75 0.0 0
M  V30 22 S 5.1961 -6.75 0.0 0
M  V30 23 C 7.7942 -6.75 0.0 0
M  V30 24 O 3.6961 -6.7499 0.0 0
M  V30 25 O 4.4461 -8.049 0.0 0
M  V30 26 C 6.4951 -7.5 0.0 0
M  V30 27 C 9.0932 -7.5 0.0 0
M  V30 28 C 6.4951 -9.0 0.0 0
M  V30 29 C 9.0932 -9.0 0.0 0
M  V30 30 C 7.7942 -9.75 0.0 0
M  V30 END ATOM
M  V30 BEGIN BOND
M  V30 1 1 1 2
M  V30 2 2 2 3
M  V30 3 1 2 4
M  V30 4 1 3 5
M  V30 5 2 4 6
M  V30 6 1 5 7
M  V30 7 2 5 8
M  V30 8 1 7 9
M  V30 9 1 7 10
M  V30 10 1 8 11
M  V30 11 2 9 12
M  V30 12 1 9 13
M  V30 13 1 10 14
M  V30 14 1 11 15
M  V30 15 1 13 16
M  V30 16 1 14 17
M  V30 17 2 16 18
M  V30 18 1 16 19
M  V30 19 1 17 20
M  V30 20 1 17 21
M  V30 21 1 18 22
M  V30 22 1 19 23
M  V30 23 2 22 24
M  V30 24 2 22 25
M  V30 25 1 22 26
M  V30 26 1 23 27
M  V30 27 1 26 28
M  V30 28 2 27 29
M  V30 29 2 28 30
M  V30 30 1 6 8
M  V30 31 2 11 13
M  V30 32 2 23 26
M  V30 33 1 29 30
M  V30 END BOND
M  V30 END CTAB
M  END
>  <Molecule ChEMBL ID>
CHEMBL202326

>  <Smiles>
CC(C)CCn1c(=O)c(C2=NS(=O)(=O)c3ccccc3N2)c(O)c2ccc(Cl)cc21

>  <Standard Value>
10000

$$$$
CHEMBL372357
Actelion Java MolfileCreator 2.0

  0  0  0  0  0  0              0 V3000
M  V30 BEGIN CTAB
M  V30 COUNTS 30 34 0 0 0
M  V30 BEGIN ATOM
M  V30 1 S 3.8971 6.0 0.0 0
M  V30 2 O 3.1471 7.299 0.0 0
M  V30 3 O 2.3971 5.9999 0.0 0
M  V30 4 N 3.8971 4.5 0.0 0
M  V30 5 C 5.1961 6.75 0.0 0
M  V30 6 C 5.1961 3.75 0.0 0
M  V30 7 C 6.4951 6.0 0.0 0
M  V30 8 C 5.1961 8.25 0.0 0
M  V30 9 N 6.4951 4.5 0.0 0
M  V30 10 C 5.1961 2.25 0.0 0
M  V30 11 C 7.7942 6.75 0.0 0
M  V30 12 C 6.4951 9.0 0.0 0
M  V30 13 C 3.8971 1.5 0.0 0
M  V30 14 C 6.4951 1.5 0.0 0
M  V30 15 C 7.7942 8.25 0.0 0
M  V30 16 O 2.598 2.25 0.0 0
M  V30 17 N 3.8971 0.0 0.0 0
M  V30 18 O 7.7942 2.25 0.0 0
M  V30 19 C 6.4951 0.0 0.0 0
M  V30 20 C 5.1961 -0.75 0.0 0
M  V30 21 C 2.598 -0.75 0.0 0
M  V30 22 C 7.7942 -0.75 0.0 0
M  V30 23 C 5.1961 -2.25 0.0 0
M  V30 24 C 1.299 0.0 0.0 0
M  V30 25 C 7.7942 -2.25 0.0 0
M  V30 26 C 6.4951 -3.0 0.0 0
M  V30 27 C 0.0 -0.75 0.0 0
M  V30 28 F 9.0932 -3.0 0.0 0
M  V30 29 C -1.5 -0.75 0.0 0
M  V30 30 C -0.75 -2.049 0.0 0
M  V30 END ATOM
M  V30 BEGIN BOND
M  V30 1 2 1 2
M  V30 2 2 1 3
M  V30 3 1 1 4
M  V30 4 1 1 5
M  V30 5 1 4 6
M  V30 6 2 5 7
M  V30 7 1 5 8
M  V30 8 2 6 9
M  V30 9 1 6 10
M  V30 10 1 7 11
M  V30 11 2 8 12
M  V30 12 1 10 13
M  V30 13 2 10 14
M  V30 14 2 11 15
M  V30 15 2 13 16
M  V30 16 1 13 17
M  V30 17 1 14 18
M  V30 18 1 14 19
M  V30 19 1 17 20
M  V30 20 1 17 21
M  V30 21 1 19 22
M  V30 22 1 20 23
M  V30 23 1 21 24
M  V30 24 2 22 25
M  V30 25 2 23 26
M  V30 26 1 24 27
M  V30 27 1 25 28
M  V30 28 1 27 29
M  V30 29 1 27 30
M  V30 30 1 7 9
M  V30 31 1 12 15
M  V30 32 2 19 20
M  V30 33 1 25 26
M  V30 34 1 29 30
M  V30 END BOND
M  V30 END CTAB
M  END
>  <Molecule ChEMBL ID>
CHEMBL372357

>  <Smiles>
O=c1c(C2=Nc3ccccc3S(=O)(=O)N2)c(O)c2cc(F)ccc2n1CCC1CC1

>  <Standard Value>
13000

$$$$
CHEMBL372357
Actelion Java MolfileCreator 2.0

  0  0  0  0  0  0              0 V3000
M  V30 BEGIN CTAB
M  V30 COUNTS 30 34 0 0 0
M  V30 BEGIN ATOM
M  V30 1 S 3.8971 6.0 0.0 0
M  V30 2 O 3.1471 7.299 0.0 0
M  V30 3 O 2.3971 5.9999 0.0 0
M  V30 4 N 3.8971 4.5 0.0 0
M  V30 5 C 5.1961 6.75 0.0 0
M  V30 6 C 5.1961 3.75 0.0 0
M  V30 7 C 6.4951 6.0 0.0 0
M  V30 8 C 5.1961 8.25 0.0 0
M  V30 9 N 6.4951 4.5 0.0 0
M  V30 10 C 5.1961 2.25 0.0 0
M  V30 11 C 7.7942 6.75 0.0 0
M  V30 12 C 6.4951 9.0 0.0 0
M  V30 13 C 3.8971 1.5 0.0 0
M  V30 14 C 6.4951 1.5 0.0 0
M  V30 15 C 7.7942 8.25 0.0 0
M  V30 16 O 2.598 2.25 0.0 0
M  V30 17 N 3.8971 0.0 0.0 0
M  V30 18 O 7.7942 2.25 0.0 0
M  V30 19 C 6.4951 0.0 0.0 0
M  V30 20 C 5.1961 -0.75 0.0 0
M  V30 21 C 2.598 -0.75 0.0 0
M  V30 22 C 7.7942 -0.75 0.0 0
M  V30 23 C 5.1961 -2.25 0.0 0
M  V30 24 C 1.299 0.0 0.0 0
M  V30 25 C 7.7942 -2.25 0.0 0
M  V30 26 C 6.4951 -3.0 0.0 0
M  V30 27 C 0.0 -0.75 0.0 0
M  V30 28 F 9.0932 -3.0 0.0 0
M  V30 29 C -1.5 -0.75 0.0 0
M  V30 30 C -0.75 -2.049 0.0 0
M  V30 END ATOM
M  V30 BEGIN BOND
M  V30 1 2 1 2
M  V30 2 2 1 3
M  V30 3 1 1 4
M  V30 4 1 1 5
M  V30 5 1 4 6
M  V30 6 2 5 7
M  V30 7 1 5 8
M  V30 8 2 6 9
M  V30 9 1 6 10
M  V30 10 1 7 11
M  V30 11 2 8 12
M  V30 12 1 10 13
M  V30 13 2 10 14
M  V30 14 2 11 15
M  V30 15 2 13 16
M  V30 16 1 13 17
M  V30 17 1 14 18
M  V30 18 1 14 19
M  V30 19 1 17 20
M  V30 20 1 17 21
M  V30 21 1 19 22
M  V30 22 1 20 23
M  V30 23 1 21 24
M  V30 24 2 22 25
M  V30 25 2 23 26
M  V30 26 1 24 27
M  V30 27 1 25 28
M  V30 28 1 27 29
M  V30 29 1 27 30
M  V30 30 1 7 9
M  V30 31 1 12 15
M  V30 32 2 19 20
M  V30 33 1 25 26
M  V30 34 1 29 30
M  V30 END BOND
M  V30 END CTAB
M  END
>  <Molecule ChEMBL ID>
CHEMBL372357

>  <Smiles>
O=c1c(C2=Nc3ccccc3S(=O)(=O)N2)c(O)c2cc(F)ccc2n1CCC1CC1

>  <Standard Value>
20000

$$$$
