C[NH+](C)CC[N@@H+]1CC[C@@H]2[C@@H]1c3cc(ccc3-c4c(c5ccc(cc5n4CC2)C(=O)[O-])C6CCCCC6)OC
Actelion Java MolfileCreator 2.0

  0  0  0  0  0  0              0 V3000
M  V30 BEGIN CTAB
M  V30 COUNTS 38 43 0 0 0
M  V30 BEGIN ATOM
M  V30 1 O 5.5583 -8.223 0.0 0
M  V30 2 C 5.6628 -7.2285 0.0 0
M  V30 3 O 6.5764 -6.8217 0.0 0
M  V30 4 C 4.8538 -6.6407 0.0 0
M  V30 5 C 4.9583 -5.6461 0.0 0
M  V30 6 C 3.9403 -7.0474 0.0 0
M  V30 7 C 4.1493 -5.0584 0.0 0
M  V30 8 C 3.1312 -6.4596 0.0 0
M  V30 9 N 4.0448 -4.0638 0.0 0
M  V30 10 C 3.2358 -5.4651 0.0 0
M  V30 11 C 3.0666 -3.8559 0.0 0
M  V30 12 C 4.8835 -3.5192 0.0 0
M  V30 13 C 2.5666 -4.722 0.0 0
M  V30 14 C 2.522 -3.0173 0.0 0
M  V30 15 C 5.0914 -2.5411 0.0 0
M  V30 16 C 1.5721 -4.8265 0.0 0
M  V30 17 C 2.7299 -2.0391 0.0 0
M  V30 18 C 1.5709 -3.3263 0.0 0
M  V30 19 C 4.5467 -1.7024 0.0 0 CFG=1
M  V30 20 C 0.9843 -4.0175 0.0 0
M  V30 21 C 1.1654 -5.74 0.0 0
M  V30 22 C 1.9868 -1.37 0.0 0
M  V30 23 C 3.5686 -1.4945 0.0 0 CFG=1
M  V30 24 C 0.8278 -2.6571 0.0 0
M  V30 25 C 5.0467 -0.8364 0.0 0
M  V30 26 C -0.0101 -4.122 0.0 0
M  V30 27 C 0.1709 -5.8446 0.0 0
M  V30 28 C 1.0357 -1.679 0.0 0
M  V30 29 N 3.4641 -0.5 0.0 0 CHG=1 CFG=1
M  V30 30 C 4.3776 -0.0932 0.0 0
M  V30 31 C -0.4168 -5.0355 0.0 0
M  V30 32 O 0.2926 -1.0099 0.0 0
M  V30 33 C 2.598 0.0 0.0 0
M  V30 34 C -0.6584 -1.3189 0.0 0
M  V30 35 C 2.598 0.9999 0.0 0
M  V30 36 N 1.732 1.4999 0.0 0
M  V30 37 C 0.866 0.9999 0.0 0
M  V30 38 C 1.732 2.4999 0.0 0
M  V30 END ATOM
M  V30 BEGIN BOND
M  V30 1 2 1 2
M  V30 2 1 2 3
M  V30 3 1 2 4
M  V30 4 2 4 5
M  V30 5 1 4 6
M  V30 6 1 5 7
M  V30 7 2 6 8
M  V30 8 1 7 9
M  V30 9 2 7 10
M  V30 10 1 9 11
M  V30 11 1 9 12
M  V30 12 1 10 13
M  V30 13 1 11 14
M  V30 14 1 12 15
M  V30 15 1 13 16
M  V30 16 2 14 17
M  V30 17 1 14 18
M  V30 18 1 19 15 CFG=1
M  V30 19 1 16 20
M  V30 20 1 16 21
M  V30 21 1 17 22
M  V30 22 1 23 17 CFG=3
M  V30 23 2 18 24
M  V30 24 1 19 25
M  V30 25 1 20 26
M  V30 26 1 21 27
M  V30 27 2 22 28
M  V30 28 1 29 23
M  V30 29 1 25 30
M  V30 30 1 26 31
M  V30 31 1 28 32
M  V30 32 1 29 33 CFG=3
M  V30 33 1 32 34
M  V30 34 1 33 35
M  V30 35 1 35 36
M  V30 36 1 36 37
M  V30 37 1 36 38
M  V30 38 1 8 10
M  V30 39 2 11 13
M  V30 40 1 19 23
M  V30 41 1 24 28
M  V30 42 1 27 31
M  V30 43 1 29 30
M  V30 END BOND
M  V30 BEGIN COLLECTION
M  V30 MDLV30/STEABS ATOMS=(3 19 23 29)
M  V30 END COLLECTION
M  V30 END CTAB
M  END
>  <ligand SMILES>
C[NH+](C)CC[N@@H+]1CC[C@@H]2[C@@H]1c3cc(ccc3-c4c(c5ccc(cc5n4CC2)C(=O)[O-])C6CCCCC6)OC

>  <input_id>
1

>  <protonation_id>
P10000031

>  <Column 1>
516.706

>  <Column 2>
6.239

>  <Column 3>
6

>  <Column 4>
6

>  <Column 5>
2

>  <Column 6>
1

$$$$
C[NH+](C)CC[N@@]1CC[C@@H]2[C@@H]1c3cc(ccc3-c4c(c5ccc(cc5n4CC2)C(=O)[O-])C6CCCCC6)OC
Actelion Java MolfileCreator 2.0

  0  0  0  0  0  0              0 V3000
M  V30 BEGIN CTAB
M  V30 COUNTS 38 43 0 0 0
M  V30 BEGIN ATOM
M  V30 1 O 5.5583 -8.223 0.0 0
M  V30 2 C 5.6628 -7.2285 0.0 0
M  V30 3 O 6.5764 -6.8217 0.0 0
M  V30 4 C 4.8538 -6.6407 0.0 0
M  V30 5 C 4.9583 -5.6461 0.0 0
M  V30 6 C 3.9403 -7.0474 0.0 0
M  V30 7 C 4.1493 -5.0584 0.0 0
M  V30 8 C 3.1312 -6.4596 0.0 0
M  V30 9 N 4.0448 -4.0638 0.0 0
M  V30 10 C 3.2358 -5.4651 0.0 0
M  V30 11 C 3.0666 -3.8559 0.0 0
M  V30 12 C 4.8835 -3.5192 0.0 0
M  V30 13 C 2.5666 -4.722 0.0 0
M  V30 14 C 2.522 -3.0173 0.0 0
M  V30 15 C 5.0914 -2.5411 0.0 0
M  V30 16 C 1.5721 -4.8265 0.0 0
M  V30 17 C 2.7299 -2.0391 0.0 0
M  V30 18 C 1.5709 -3.3263 0.0 0
M  V30 19 C 4.5467 -1.7024 0.0 0 CFG=1
M  V30 20 C 0.9843 -4.0175 0.0 0
M  V30 21 C 1.1654 -5.74 0.0 0
M  V30 22 C 1.9868 -1.37 0.0 0
M  V30 23 C 3.5686 -1.4945 0.0 0 CFG=1
M  V30 24 C 0.8278 -2.6571 0.0 0
M  V30 25 C 5.0467 -0.8364 0.0 0
M  V30 26 C -0.0101 -4.122 0.0 0
M  V30 27 C 0.1709 -5.8446 0.0 0
M  V30 28 C 1.0357 -1.679 0.0 0
M  V30 29 N 3.4641 -0.5 0.0 0
M  V30 30 C 4.3776 -0.0932 0.0 0
M  V30 31 C -0.4168 -5.0355 0.0 0
M  V30 32 O 0.2926 -1.0099 0.0 0
M  V30 33 C 2.598 0.0 0.0 0
M  V30 34 C -0.6584 -1.3189 0.0 0
M  V30 35 C 2.598 0.9999 0.0 0
M  V30 36 N 1.732 1.4999 0.0 0
M  V30 37 C 0.866 0.9999 0.0 0
M  V30 38 C 1.732 2.4999 0.0 0
M  V30 END ATOM
M  V30 BEGIN BOND
M  V30 1 2 1 2
M  V30 2 1 2 3
M  V30 3 1 2 4
M  V30 4 2 4 5
M  V30 5 1 4 6
M  V30 6 1 5 7
M  V30 7 2 6 8
M  V30 8 1 7 9
M  V30 9 2 7 10
M  V30 10 1 9 11
M  V30 11 1 9 12
M  V30 12 1 10 13
M  V30 13 1 11 14
M  V30 14 1 12 15
M  V30 15 1 13 16
M  V30 16 2 14 17
M  V30 17 1 14 18
M  V30 18 1 19 15 CFG=1
M  V30 19 1 16 20
M  V30 20 1 16 21
M  V30 21 1 17 22
M  V30 22 1 23 17
M  V30 23 2 18 24
M  V30 24 1 19 25
M  V30 25 1 20 26
M  V30 26 1 21 27
M  V30 27 2 22 28
M  V30 28 1 23 29 CFG=3
M  V30 29 1 25 30
M  V30 30 1 26 31
M  V30 31 1 28 32
M  V30 32 1 29 33
M  V30 33 1 32 34
M  V30 34 1 33 35
M  V30 35 1 35 36
M  V30 36 1 36 37
M  V30 37 1 36 38
M  V30 38 1 8 10
M  V30 39 2 11 13
M  V30 40 1 19 23
M  V30 41 1 24 28
M  V30 42 1 27 31
M  V30 43 1 29 30
M  V30 END BOND
M  V30 BEGIN COLLECTION
M  V30 MDLV30/STEABS ATOMS=(2 19 23)
M  V30 END COLLECTION
M  V30 END CTAB
M  END
>  <ligand SMILES>
C[NH+](C)CC[N@@]1CC[C@@H]2[C@@H]1c3cc(ccc3-c4c(c5ccc(cc5n4CC2)C(=O)[O-])C6CCCCC6)OC

>  <input_id>
1

>  <protonation_id>
P10000030

>  <Column 1>
515.698

>  <Column 2>
6.239

>  <Column 3>
6

>  <Column 4>
6

>  <Column 5>
1

>  <Column 6>
0

$$$$
Cc1cnccc1n2c(c(cn2)C(=O)C3[C@@H]4CCC[C@H]3COC4)C5=Cc6cc(ccc6-c7c(c8ccc(cc8n7C5)/C(=N/S(=O)(=O)C(C)C)/[O-])C9CCCCC9)OC
Actelion Java MolfileCreator 2.0

  0  0  0  0  0  0              0 V3000
M  V30 BEGIN CTAB
M  V30 COUNTS 58 66 0 0 0
M  V30 BEGIN ATOM
M  V30 1 S 2.598 0.0 0.0 0
M  V30 2 O 3.098 0.866 0.0 0
M  V30 3 O 2.098 0.866 0.0 0
M  V30 4 N 1.732 -0.5 0.0 0
M  V30 5 C 3.4641 -0.5 0.0 0
M  V30 6 C 0.866 0.0 0.0 0
M  V30 7 C 4.3301 0.0 0.0 0
M  V30 8 C 3.4641 -1.5 0.0 0
M  V30 9 O 0.866 1.0 0.0 0 CHG=-1
M  V30 10 C 0.0 -0.5 0.0 0
M  V30 11 C -0.866 0.0 0.0 0
M  V30 12 C 0.0 -1.4999 0.0 0
M  V30 13 C -1.732 -0.4999 0.0 0
M  V30 14 C -0.866 -1.9999 0.0 0
M  V30 15 N -2.6831 -0.1909 0.0 0
M  V30 16 C -1.732 -1.4999 0.0 0
M  V30 17 C -3.2708 -0.9999 0.0 0
M  V30 18 C -2.9491 0.7729 0.0 0
M  V30 19 C -2.6831 -1.809 0.0 0
M  V30 20 C -4.2698 -1.0448 0.0 0
M  V30 21 C -3.8686 1.166 0.0 0
M  V30 22 C -2.9921 -2.76 0.0 0
M  V30 23 C -4.9278 -0.2917 0.0 0
M  V30 24 C -4.593 -1.9911 0.0 0
M  V30 25 C -3.9135 2.1649 0.0 0
M  V30 26 C -4.7492 0.6921 0.0 0
M  V30 27 C -3.9702 -2.9679 0.0 0
M  V30 28 C -2.3229 -3.5032 0.0 0
M  V30 29 C -5.9089 -0.485 0.0 0
M  V30 30 C -5.5742 -2.1844 0.0 0
M  V30 31 N -3.1317 2.7884 0.0 0
M  V30 32 C -4.7481 2.7158 0.0 0
M  V30 33 C -4.2792 -3.919 0.0 0
M  V30 34 C -2.632 -4.4542 0.0 0
M  V30 35 C -6.2321 -1.4313 0.0 0
M  V30 36 N -3.483 3.7247 0.0 0
M  V30 37 C -2.1677 2.5224 0.0 0
M  V30 38 C -5.7325 2.4041 0.0 0
M  V30 39 C -4.482 3.6798 0.0 0
M  V30 40 C -3.6101 -4.6621 0.0 0
M  V30 41 O -7.2133 -1.6246 0.0 0
M  V30 42 C -1.4553 3.2242 0.0 0
M  V30 43 C -1.9161 1.5546 0.0 0
M  V30 44 O -5.8481 1.378 0.0 0
M  V30 45 C -6.4567 2.9996 0.0 0
M  V30 46 C -7.5365 -2.5709 0.0 0
M  V30 47 C -0.4914 2.9582 0.0 0
M  V30 48 C -1.7069 4.192 0.0 0
M  V30 49 C -0.9521 1.2885 0.0 0
M  V30 50 C -7.3929 2.6482 0.0 0 CFG=2
M  V30 51 C -6.2929 3.9861 0.0 0 CFG=1
M  V30 52 N -0.2398 1.9903 0.0 0
M  V30 53 C -8.1654 3.2833 0.0 0
M  V30 54 C -6.3631 1.8014 0.0 0
M  V30 55 C -7.0653 4.6212 0.0 0
M  V30 56 C -5.263 3.1393 0.0 0
M  V30 57 O -8.0015 4.2698 0.0 0
M  V30 58 C -5.3582 2.0964 0.0 0
M  V30 END ATOM
M  V30 BEGIN BOND
M  V30 1 2 1 2
M  V30 2 2 1 3
M  V30 3 1 1 4
M  V30 4 1 1 5
M  V30 5 2 4 6
M  V30 6 1 5 7
M  V30 7 1 5 8
M  V30 8 1 6 9
M  V30 9 1 6 10
M  V30 10 2 10 11
M  V30 11 1 10 12
M  V30 12 1 11 13
M  V30 13 2 12 14
M  V30 14 1 13 15
M  V30 15 2 13 16
M  V30 16 1 15 17
M  V30 17 1 15 18
M  V30 18 1 16 19
M  V30 19 1 17 20
M  V30 20 1 18 21
M  V30 21 1 19 22
M  V30 22 2 20 23
M  V30 23 1 20 24
M  V30 24 1 21 25
M  V30 25 2 21 26
M  V30 26 1 22 27
M  V30 27 1 22 28
M  V30 28 1 23 29
M  V30 29 2 24 30
M  V30 30 1 25 31
M  V30 31 2 25 32
M  V30 32 1 27 33
M  V30 33 1 28 34
M  V30 34 2 29 35
M  V30 35 1 31 36
M  V30 36 1 31 37
M  V30 37 1 32 38
M  V30 38 1 32 39
M  V30 39 1 33 40
M  V30 40 1 35 41
M  V30 41 2 37 42
M  V30 42 1 37 43
M  V30 43 2 38 44
M  V30 44 1 38 45
M  V30 45 1 41 46
M  V30 46 1 42 47
M  V30 47 1 42 48
M  V30 48 2 43 49
M  V30 49 1 50 45
M  V30 50 1 51 45
M  V30 51 2 47 52
M  V30 52 1 50 53
M  V30 53 1 50 54 CFG=1
M  V30 54 1 51 55
M  V30 55 1 51 56 CFG=1
M  V30 56 1 53 57
M  V30 57 1 54 58
M  V30 58 1 14 16
M  V30 59 2 17 19
M  V30 60 1 23 26
M  V30 61 1 30 35
M  V30 62 1 34 40
M  V30 63 2 36 39
M  V30 64 1 49 52
M  V30 65 1 55 57
M  V30 66 1 56 58
M  V30 END BOND
M  V30 BEGIN COLLECTION
M  V30 MDLV30/STEABS ATOMS=(2 50 51)
M  V30 END COLLECTION
M  V30 END CTAB
M  END
>  <ligand SMILES>
Cc1cnccc1n2c(c(cn2)C(=O)C3[C@@H]4CCC[C@H]3COC4)C5=Cc6cc(ccc6-c7c(c8ccc(cc8n7C5)/C(=N/S(=O)(=O)C(C)C)/[O-])C9CCCCC9)OC

>  <input_id>
2

>  <protonation_id>
P10000034

>  <Column 1>
801.002

>  <Column 2>
7.638

>  <Column 3>
9

>  <Column 4>
11

>  <Column 5>
0

>  <Column 6>
-1

$$$$
Cc1ccc2c(c1)n(c(c2c3ccc[nH]c3=O)/C(=N/S(=O)(=O)C4CC4)/[O-])Cc5cc(ccc5F)F
Actelion Java MolfileCreator 2.0

  0  0  0  0  0  0              0 V3000
M  V30 BEGIN CTAB
M  V30 COUNTS 35 39 0 0 0
M  V30 BEGIN ATOM
M  V30 1 S 3.8971 0.0 0.0 0
M  V30 2 O 4.6471 1.299 0.0 0
M  V30 3 O 3.1471 1.299 0.0 0
M  V30 4 N 2.598 -0.75 0.0 0
M  V30 5 C 5.1961 -0.75 0.0 0
M  V30 6 C 1.299 0.0 0.0 0
M  V30 7 C 5.9461 -2.049 0.0 0
M  V30 8 C 6.6961 -0.75 0.0 0
M  V30 9 O 1.299 1.5 0.0 0 CHG=-1
M  V30 10 C 0.0 -0.75 0.0 0
M  V30 11 N -1.3703 -0.1398 0.0 0
M  V30 12 C -0.1567 -2.2417 0.0 0
M  V30 13 C -2.374 -1.2546 0.0 0
M  V30 14 C -1.6821 1.3273 0.0 0
M  V30 15 C 0.9579 -3.2454 0.0 0
M  V30 16 C -1.624 -2.5536 0.0 0
M  V30 17 C -3.874 -1.2546 0.0 0
M  V30 18 C -3.1087 1.7908 0.0 0
M  V30 19 C 0.646 -4.7127 0.0 0
M  V30 20 C 2.3845 -2.7819 0.0 0
M  V30 21 C -2.374 -3.8526 0.0 0
M  V30 22 C -4.624 -2.5536 0.0 0
M  V30 23 C -3.4206 3.258 0.0 0
M  V30 24 C -4.2234 0.7871 0.0 0
M  V30 25 O -0.7805 -5.1762 0.0 0
M  V30 26 N 1.7607 -5.7164 0.0 0
M  V30 27 C 3.4992 -3.7856 0.0 0
M  V30 28 C -3.874 -3.8526 0.0 0
M  V30 29 C -6.124 -2.5536 0.0 0
M  V30 30 F -2.3059 4.2617 0.0 0
M  V30 31 C -4.8472 3.7216 0.0 0
M  V30 32 C -5.65 1.2506 0.0 0
M  V30 33 C 3.1873 -5.2528 0.0 0
M  V30 34 C -5.9619 2.7179 0.0 0
M  V30 35 F -6.7647 0.2469 0.0 0
M  V30 END ATOM
M  V30 BEGIN BOND
M  V30 1 2 1 2
M  V30 2 2 1 3
M  V30 3 1 1 4
M  V30 4 1 1 5
M  V30 5 2 4 6
M  V30 6 1 5 7
M  V30 7 1 5 8
M  V30 8 1 6 9
M  V30 9 1 6 10
M  V30 10 1 10 11
M  V30 11 2 10 12
M  V30 12 1 11 13
M  V30 13 1 11 14
M  V30 14 1 12 15
M  V30 15 1 12 16
M  V30 16 1 13 17
M  V30 17 1 14 18
M  V30 18 1 15 19
M  V30 19 2 15 20
M  V30 20 1 16 21
M  V30 21 2 17 22
M  V30 22 2 18 23
M  V30 23 1 18 24
M  V30 24 2 19 25
M  V30 25 1 19 26
M  V30 26 1 20 27
M  V30 27 2 21 28
M  V30 28 1 22 29
M  V30 29 1 23 30
M  V30 30 1 23 31
M  V30 31 2 24 32
M  V30 32 1 26 33
M  V30 33 2 31 34
M  V30 34 1 32 35
M  V30 35 1 7 8
M  V30 36 2 13 16
M  V30 37 1 22 28
M  V30 38 2 27 33
M  V30 39 1 32 34
M  V30 END BOND
M  V30 END CTAB
M  END
>  <ligand SMILES>
Cc1ccc2c(c1)n(c(c2c3ccc[nH]c3=O)/C(=N/S(=O)(=O)C4CC4)/[O-])Cc5cc(ccc5F)F

>  <input_id>
3

>  <protonation_id>
P10000032

>  <Column 1>
496.515

>  <Column 2>
3.843

>  <Column 3>
6

>  <Column 4>
7

>  <Column 5>
1

>  <Column 6>
-1

$$$$
C[N@](CC[NH+](C)C)[C@@H]1Cn2c3cc(ccc3c(c2-c4ccccc4O1)C5CCCCC5)C(=O)[O-]
Actelion Java MolfileCreator 2.0

  0  0  0  0  0  0              0 V3000
M  V30 BEGIN CTAB
M  V30 COUNTS 34 38 0 0 0
M  V30 BEGIN ATOM
M  V30 1 O 3.2289 5.7385 0.0 0
M  V30 2 C 3.184 4.7395 0.0 0
M  V30 3 O 2.2964 4.2789 0.0 0
M  V30 4 C 4.0267 4.2012 0.0 0
M  V30 5 C 3.9819 3.2022 0.0 0
M  V30 6 C 4.9143 4.6618 0.0 0
M  V30 7 C 4.8246 2.6638 0.0 0
M  V30 8 C 5.757 4.1235 0.0 0
M  V30 9 N 4.9884 1.6773 0.0 0
M  V30 10 C 5.7122 3.1245 0.0 0
M  V30 11 C 5.9772 1.5283 0.0 0
M  V30 12 C 4.2553 0.9972 0.0 0
M  V30 13 C 6.4245 2.4227 0.0 0
M  V30 14 C 6.4772 0.6623 0.0 0
M  V30 15 C 4.3301 0.0 0.0 0 CFG=2
M  V30 16 C 7.411 2.5865 0.0 0
M  V30 17 C 6.1119 -0.2685 0.0 0
M  V30 18 C 7.4661 0.8113 0.0 0
M  V30 19 O 5.1563 -0.5633 0.0 0
M  V30 20 N 3.4641 -0.5 0.0 0
M  V30 21 C 8.0461 1.8141 0.0 0
M  V30 22 C 7.7624 3.5227 0.0 0
M  V30 23 C 6.7354 -1.0503 0.0 0
M  V30 24 C 8.0896 0.0295 0.0 0
M  V30 25 C 2.598 0.0 0.0 0
M  V30 26 C 3.4641 -1.5 0.0 0
M  V30 27 C 9.0326 1.9779 0.0 0
M  V30 28 C 8.7489 3.6865 0.0 0
M  V30 29 C 7.7242 -0.9013 0.0 0
M  V30 30 C 1.732 -0.5 0.0 0
M  V30 31 C 9.384 2.9141 0.0 0
M  V30 32 N 0.866 0.0 0.0 0
M  V30 33 C 0.866 1.0 0.0 0
M  V30 34 C 0.0 -0.5 0.0 0
M  V30 END ATOM
M  V30 BEGIN BOND
M  V30 1 2 1 2
M  V30 2 1 2 3
M  V30 3 1 2 4
M  V30 4 2 4 5
M  V30 5 1 4 6
M  V30 6 1 5 7
M  V30 7 2 6 8
M  V30 8 1 7 9
M  V30 9 2 7 10
M  V30 10 1 9 11
M  V30 11 1 9 12
M  V30 12 1 10 13
M  V30 13 1 11 14
M  V30 14 1 15 12
M  V30 15 1 13 16
M  V30 16 2 14 17
M  V30 17 1 14 18
M  V30 18 1 15 19
M  V30 19 1 15 20 CFG=3
M  V30 20 1 16 21
M  V30 21 1 16 22
M  V30 22 1 17 23
M  V30 23 2 18 24
M  V30 24 1 20 25
M  V30 25 1 20 26
M  V30 26 1 21 27
M  V30 27 1 22 28
M  V30 28 2 23 29
M  V30 29 1 25 30
M  V30 30 1 27 31
M  V30 31 1 30 32
M  V30 32 1 32 33
M  V30 33 1 32 34
M  V30 34 1 8 10
M  V30 35 2 11 13
M  V30 36 1 17 19
M  V30 37 1 24 29
M  V30 38 1 28 31
M  V30 END BOND
M  V30 BEGIN COLLECTION
M  V30 MDLV30/STEABS ATOMS=(1 15)
M  V30 END COLLECTION
M  V30 END CTAB
M  END
>  <ligand SMILES>
C[N@](CC[NH+](C)C)[C@@H]1Cn2c3cc(ccc3c(c2-c4ccccc4O1)C5CCCCC5)C(=O)[O-]

>  <input_id>
4

>  <protonation_id>
P10000038

>  <Column 1>
461.606

>  <Column 2>
5.508

>  <Column 3>
6

>  <Column 4>
6

>  <Column 5>
1

>  <Column 6>
0

$$$$
C[C@H]1COc2c1cc3c(c2)c(c(n3Cc4cc(ccc4F)F)/C(=N/S(=O)(=O)C)/[O-])c5ccc[nH]c5=O
Actelion Java MolfileCreator 2.0

  0  0  0  0  0  0              0 V3000
M  V30 BEGIN CTAB
M  V30 COUNTS 36 40 0 0 0
M  V30 BEGIN ATOM
M  V30 1 S 3.8971 0.0 0.0 0
M  V30 2 O 4.6471 -1.299 0.0 0
M  V30 3 O 3.1471 1.299 0.0 0
M  V30 4 N 2.598 -0.75 0.0 0
M  V30 5 C 5.1961 0.75 0.0 0
M  V30 6 C 1.299 0.0 0.0 0
M  V30 7 O 1.299 1.5 0.0 0 CHG=-1
M  V30 8 C 0.0 -0.75 0.0 0
M  V30 9 N -1.3703 -0.1398 0.0 0
M  V30 10 C -0.1567 -2.2417 0.0 0
M  V30 11 C -2.374 -1.2546 0.0 0
M  V30 12 C -1.6821 1.3273 0.0 0
M  V30 13 C 0.9579 -3.2454 0.0 0
M  V30 14 C -1.624 -2.5536 0.0 0
M  V30 15 C -3.874 -1.2546 0.0 0
M  V30 16 C -3.1087 1.7908 0.0 0
M  V30 17 C 0.646 -4.7127 0.0 0
M  V30 18 C 2.3845 -2.7819 0.0 0
M  V30 19 C -2.374 -3.8526 0.0 0
M  V30 20 C -4.624 -2.5536 0.0 0
M  V30 21 C -3.4206 3.258 0.0 0
M  V30 22 C -4.2234 0.7871 0.0 0
M  V30 23 O -0.7805 -5.1762 0.0 0
M  V30 24 N 1.7607 -5.7163 0.0 0
M  V30 25 C 3.4992 -3.7856 0.0 0
M  V30 26 C -3.874 -3.8526 0.0 0
M  V30 27 C -6.0912 -2.8655 0.0 0 CFG=2
M  V30 28 F -2.3059 4.2617 0.0 0
M  V30 29 C -4.8472 3.7215 0.0 0
M  V30 30 C -5.65 1.2506 0.0 0
M  V30 31 C 3.1873 -5.2528 0.0 0
M  V30 32 O -4.8777 -4.9674 0.0 0
M  V30 33 C -6.248 -4.3573 0.0 0
M  V30 34 C -7.2059 -1.8618 0.0 0
M  V30 35 C -5.9619 2.7179 0.0 0
M  V30 36 F -6.7647 0.2469 0.0 0
M  V30 END ATOM
M  V30 BEGIN BOND
M  V30 1 2 1 2
M  V30 2 2 1 3
M  V30 3 1 1 4
M  V30 4 1 1 5
M  V30 5 2 4 6
M  V30 6 1 6 7
M  V30 7 1 6 8
M  V30 8 1 8 9
M  V30 9 2 8 10
M  V30 10 1 9 11
M  V30 11 1 9 12
M  V30 12 1 10 13
M  V30 13 1 10 14
M  V30 14 1 11 15
M  V30 15 1 12 16
M  V30 16 1 13 17
M  V30 17 2 13 18
M  V30 18 1 14 19
M  V30 19 2 15 20
M  V30 20 2 16 21
M  V30 21 1 16 22
M  V30 22 2 17 23
M  V30 23 1 17 24
M  V30 24 1 18 25
M  V30 25 2 19 26
M  V30 26 1 27 20
M  V30 27 1 21 28
M  V30 28 1 21 29
M  V30 29 2 22 30
M  V30 30 1 24 31
M  V30 31 1 26 32
M  V30 32 1 27 33
M  V30 33 1 27 34 CFG=3
M  V30 34 2 29 35
M  V30 35 1 30 36
M  V30 36 2 11 14
M  V30 37 1 20 26
M  V30 38 2 25 31
M  V30 39 1 30 35
M  V30 40 1 32 33
M  V30 END BOND
M  V30 BEGIN COLLECTION
M  V30 MDLV30/STEABS ATOMS=(1 27)
M  V30 END COLLECTION
M  V30 END CTAB
M  END
>  <ligand SMILES>
C[C@H]1COc2c1cc3c(c2)c(c(n3Cc4cc(ccc4F)F)/C(=N/S(=O)(=O)C)/[O-])c5ccc[nH]c5=O

>  <input_id>
5

>  <protonation_id>
P10000036

>  <Column 1>
512.514

>  <Column 2>
3.379

>  <Column 3>
5

>  <Column 4>
8

>  <Column 5>
1

>  <Column 6>
-1

$$$$
c1cc2c(cc1C(=O)[O-])n3c(c2C4CCCCC4)-c5ccc(cc5OCC3)OCc6cc(ccc6N7CCOCC7)N8CCCC8=O
Actelion Java MolfileCreator 2.0

  0  0  0  0  0  0              0 V3000
M  V30 BEGIN CTAB
M  V30 COUNTS 47 54 0 0 0
M  V30 BEGIN ATOM
M  V30 1 O 1.704 2.7787 0.0 0
M  V30 2 C 2.655 3.0877 0.0 0
M  V30 3 N 3.4641 2.5 0.0 0
M  V30 4 C 2.9641 4.0388 0.0 0
M  V30 5 C 3.4641 1.5 0.0 0
M  V30 6 C 4.2731 3.0877 0.0 0
M  V30 7 C 3.9641 4.0388 0.0 0
M  V30 8 C 2.598 1.0 0.0 0
M  V30 9 C 4.3301 1.0 0.0 0
M  V30 10 C 2.598 0.0 0.0 0
M  V30 11 C 4.3301 0.0 0.0 0
M  V30 12 C 3.4641 -0.4999 0.0 0
M  V30 13 C 1.732 -0.5 0.0 0
M  V30 14 N 3.4641 -1.5 0.0 0
M  V30 15 O 0.866 0.0 0.0 0
M  V30 16 C 2.598 -1.9999 0.0 0
M  V30 17 C 4.3301 -2.0 0.0 0
M  V30 18 C 0.0 -0.5 0.0 0
M  V30 19 C 2.598 -2.9999 0.0 0
M  V30 20 C 4.3301 -3.0 0.0 0
M  V30 21 C -0.866 0.0 0.0 0
M  V30 22 C 0.0 -1.4999 0.0 0
M  V30 23 O 3.4641 -3.5 0.0 0
M  V30 24 C -1.732 -0.4999 0.0 0
M  V30 25 C -0.866 -1.9999 0.0 0
M  V30 26 O -2.5138 0.1234 0.0 0
M  V30 27 C -1.732 -1.4999 0.0 0
M  V30 28 C -3.4888 -0.099 0.0 0
M  V30 29 C -2.5138 -2.1234 0.0 0
M  V30 30 C -3.9226 -0.9999 0.0 0
M  V30 31 N -3.4888 -1.9009 0.0 0
M  V30 32 C -2.4242 -3.1194 0.0 0
M  V30 33 C -4.0017 -2.7594 0.0 0
M  V30 34 C -3.3437 -3.5124 0.0 0
M  V30 35 C -1.5657 -3.6323 0.0 0
M  V30 36 C -4.9828 -2.9526 0.0 0
M  V30 37 C -3.6669 -4.4588 0.0 0
M  V30 38 C -1.5807 -4.6322 0.0 0
M  V30 39 C -0.6923 -3.1453 0.0 0
M  V30 40 C -5.306 -3.899 0.0 0
M  V30 41 C -4.6481 -4.652 0.0 0
M  V30 42 C -0.7223 -5.1451 0.0 0
M  V30 43 C 0.166 -3.6582 0.0 0
M  V30 44 C -6.2872 -4.0922 0.0 0
M  V30 45 C 0.1511 -4.6581 0.0 0
M  V30 46 O -6.9451 -3.3391 0.0 0
M  V30 47 O -6.6104 -5.0385 0.0 0 CHG=-1
M  V30 END ATOM
M  V30 BEGIN BOND
M  V30 1 2 1 2
M  V30 2 1 2 3
M  V30 3 1 2 4
M  V30 4 1 3 5
M  V30 5 1 3 6
M  V30 6 1 4 7
M  V30 7 2 5 8
M  V30 8 1 5 9
M  V30 9 1 8 10
M  V30 10 2 9 11
M  V30 11 2 10 12
M  V30 12 1 10 13
M  V30 13 1 12 14
M  V30 14 1 13 15
M  V30 15 1 14 16
M  V30 16 1 14 17
M  V30 17 1 15 18
M  V30 18 1 16 19
M  V30 19 1 17 20
M  V30 20 2 18 21
M  V30 21 1 18 22
M  V30 22 1 19 23
M  V30 23 1 21 24
M  V30 24 2 22 25
M  V30 25 1 24 26
M  V30 26 2 24 27
M  V30 27 1 26 28
M  V30 28 1 27 29
M  V30 29 1 28 30
M  V30 30 1 29 31
M  V30 31 2 29 32
M  V30 32 1 31 33
M  V30 33 1 32 34
M  V30 34 1 32 35
M  V30 35 1 33 36
M  V30 36 1 34 37
M  V30 37 1 35 38
M  V30 38 1 35 39
M  V30 39 2 36 40
M  V30 40 2 37 41
M  V30 41 1 38 42
M  V30 42 1 39 43
M  V30 43 1 40 44
M  V30 44 1 42 45
M  V30 45 2 44 46
M  V30 46 1 44 47
M  V30 47 1 6 7
M  V30 48 1 11 12
M  V30 49 1 20 23
M  V30 50 1 25 27
M  V30 51 1 30 31
M  V30 52 2 33 34
M  V30 53 1 40 41
M  V30 54 1 43 45
M  V30 END BOND
M  V30 END CTAB
M  END
>  <ligand SMILES>
c1cc2c(cc1C(=O)[O-])n3c(c2C4CCCCC4)-c5ccc(cc5OCC3)OCc6cc(ccc6N7CCOCC7)N8CCCC8=O

>  <input_id>
6

>  <protonation_id>
P10000040

>  <Column 1>
634.753

>  <Column 2>
6.34

>  <Column 3>
7

>  <Column 4>
9

>  <Column 5>
0

>  <Column 6>
-1

$$$$
Cc1cc2c(cc1F)n(c(c2c3ccc[nH]c3=O)/C(=N/S(=O)(=O)C4CC4)/[O-])Cc5cc(ccc5F)F
Actelion Java MolfileCreator 2.0

  0  0  0  0  0  0              0 V3000
M  V30 BEGIN CTAB
M  V30 COUNTS 36 40 0 0 0
M  V30 BEGIN ATOM
M  V30 1 S 3.8971 0.0 0.0 0
M  V30 2 O 4.6471 1.299 0.0 0
M  V30 3 O 3.1471 1.299 0.0 0
M  V30 4 N 2.598 -0.75 0.0 0
M  V30 5 C 5.1961 -0.75 0.0 0
M  V30 6 C 1.299 0.0 0.0 0
M  V30 7 C 5.9461 -2.049 0.0 0
M  V30 8 C 6.6961 -0.75 0.0 0
M  V30 9 O 1.299 1.5 0.0 0 CHG=-1
M  V30 10 C 0.0 -0.75 0.0 0
M  V30 11 N -1.3703 -0.1398 0.0 0
M  V30 12 C -0.1567 -2.2417 0.0 0
M  V30 13 C -2.374 -1.2546 0.0 0
M  V30 14 C -1.6821 1.3273 0.0 0
M  V30 15 C 0.9579 -3.2454 0.0 0
M  V30 16 C -1.624 -2.5536 0.0 0
M  V30 17 C -3.874 -1.2546 0.0 0
M  V30 18 C -3.1087 1.7908 0.0 0
M  V30 19 C 0.646 -4.7127 0.0 0
M  V30 20 C 2.3845 -2.7819 0.0 0
M  V30 21 C -2.374 -3.8526 0.0 0
M  V30 22 C -4.624 -2.5536 0.0 0
M  V30 23 C -3.4206 3.258 0.0 0
M  V30 24 C -4.2234 0.7871 0.0 0
M  V30 25 O -0.7805 -5.1762 0.0 0
M  V30 26 N 1.7607 -5.7164 0.0 0
M  V30 27 C 3.4992 -3.7856 0.0 0
M  V30 28 C -3.874 -3.8526 0.0 0
M  V30 29 F -6.124 -2.5536 0.0 0
M  V30 30 F -2.3059 4.2617 0.0 0
M  V30 31 C -4.8472 3.7216 0.0 0
M  V30 32 C -5.65 1.2506 0.0 0
M  V30 33 C 3.1873 -5.2528 0.0 0
M  V30 34 C -4.624 -5.1517 0.0 0
M  V30 35 C -5.9619 2.7179 0.0 0
M  V30 36 F -6.7647 0.2469 0.0 0
M  V30 END ATOM
M  V30 BEGIN BOND
M  V30 1 2 1 2
M  V30 2 2 1 3
M  V30 3 1 1 4
M  V30 4 1 1 5
M  V30 5 2 4 6
M  V30 6 1 5 7
M  V30 7 1 5 8
M  V30 8 1 6 9
M  V30 9 1 6 10
M  V30 10 1 10 11
M  V30 11 2 10 12
M  V30 12 1 11 13
M  V30 13 1 11 14
M  V30 14 1 12 15
M  V30 15 1 12 16
M  V30 16 1 13 17
M  V30 17 1 14 18
M  V30 18 1 15 19
M  V30 19 2 15 20
M  V30 20 1 16 21
M  V30 21 2 17 22
M  V30 22 2 18 23
M  V30 23 1 18 24
M  V30 24 2 19 25
M  V30 25 1 19 26
M  V30 26 1 20 27
M  V30 27 2 21 28
M  V30 28 1 22 29
M  V30 29 1 23 30
M  V30 30 1 23 31
M  V30 31 2 24 32
M  V30 32 1 26 33
M  V30 33 1 28 34
M  V30 34 2 31 35
M  V30 35 1 32 36
M  V30 36 1 7 8
M  V30 37 2 13 16
M  V30 38 1 22 28
M  V30 39 2 27 33
M  V30 40 1 32 35
M  V30 END BOND
M  V30 END CTAB
M  END
>  <ligand SMILES>
Cc1cc2c(cc1F)n(c(c2c3ccc[nH]c3=O)/C(=N/S(=O)(=O)C4CC4)/[O-])Cc5cc(ccc5F)F

>  <input_id>
7

>  <protonation_id>
P10000039

>  <Column 1>
514.505

>  <Column 2>
3.934

>  <Column 3>
6

>  <Column 4>
7

>  <Column 5>
1

>  <Column 6>
-1

$$$$
c1ccc2c(c1)[N-]C(=NS2(=O)=O)c3c(=O)c4cc(ccc4n(c3[O-])CCC5CC5)F
Actelion Java MolfileCreator 2.0

  0  0  0  0  0  0              0 V3000
M  V30 BEGIN CTAB
M  V30 COUNTS 30 34 0 0 0
M  V30 BEGIN ATOM
M  V30 1 S 3.8971 6.0 0.0 0
M  V30 2 O 3.1471 7.299 0.0 0
M  V30 3 O 2.3971 5.9999 0.0 0
M  V30 4 N 3.8971 4.5 0.0 0
M  V30 5 C 5.1961 6.75 0.0 0
M  V30 6 C 5.1961 3.75 0.0 0
M  V30 7 C 6.4951 6.0 0.0 0
M  V30 8 C 5.1961 8.25 0.0 0
M  V30 9 N 6.4951 4.5 0.0 0 CHG=-1
M  V30 10 C 5.1961 2.25 0.0 0
M  V30 11 C 7.7942 6.75 0.0 0
M  V30 12 C 6.4951 9.0 0.0 0
M  V30 13 C 3.8971 1.5 0.0 0
M  V30 14 C 6.4951 1.5 0.0 0
M  V30 15 C 7.7942 8.25 0.0 0
M  V30 16 O 2.598 2.25 0.0 0 CHG=-1
M  V30 17 N 3.8971 0.0 0.0 0
M  V30 18 O 7.7942 2.25 0.0 0
M  V30 19 C 6.4951 0.0 0.0 0
M  V30 20 C 5.1961 -0.75 0.0 0
M  V30 21 C 2.598 -0.75 0.0 0
M  V30 22 C 7.7942 -0.75 0.0 0
M  V30 23 C 5.1961 -2.25 0.0 0
M  V30 24 C 1.299 0.0 0.0 0
M  V30 25 C 7.7942 -2.25 0.0 0
M  V30 26 C 6.4951 -3.0 0.0 0
M  V30 27 C 0.0 -0.75 0.0 0
M  V30 28 F 9.0932 -3.0 0.0 0
M  V30 29 C -1.5 -0.75 0.0 0
M  V30 30 C -0.75 -2.049 0.0 0
M  V30 END ATOM
M  V30 BEGIN BOND
M  V30 1 2 1 2
M  V30 2 2 1 3
M  V30 3 1 1 4
M  V30 4 1 1 5
M  V30 5 2 4 6
M  V30 6 2 5 7
M  V30 7 1 5 8
M  V30 8 1 6 9
M  V30 9 1 6 10
M  V30 10 1 7 11
M  V30 11 2 8 12
M  V30 12 2 10 13
M  V30 13 1 10 14
M  V30 14 2 11 15
M  V30 15 1 13 16
M  V30 16 1 13 17
M  V30 17 2 14 18
M  V30 18 1 14 19
M  V30 19 1 17 20
M  V30 20 1 17 21
M  V30 21 1 19 22
M  V30 22 1 20 23
M  V30 23 1 21 24
M  V30 24 2 22 25
M  V30 25 2 23 26
M  V30 26 1 24 27
M  V30 27 1 25 28
M  V30 28 1 27 29
M  V30 29 1 27 30
M  V30 30 1 7 9
M  V30 31 1 12 15
M  V30 32 2 19 20
M  V30 33 1 25 26
M  V30 34 1 29 30
M  V30 END BOND
M  V30 END CTAB
M  END
>  <ligand SMILES>
c1ccc2c(c1)[N-]C(=NS2(=O)=O)c3c(=O)c4cc(ccc4n(c3[O-])CCC5CC5)F

>  <input_id>
8

>  <protonation_id>
P10000042

>  <Column 1>
425.441

>  <Column 2>
0.879

>  <Column 3>
4

>  <Column 4>
7

>  <Column 5>
0

>  <Column 6>
-2

$$$$
c1ccc2c(c1)[N-]C(=NS2(=O)=O)c3c(=O)c4cc(ccc4n(c3[O-])CCC5CC5)F
Actelion Java MolfileCreator 2.0

  0  0  0  0  0  0              0 V3000
M  V30 BEGIN CTAB
M  V30 COUNTS 30 34 0 0 0
M  V30 BEGIN ATOM
M  V30 1 S 3.8971 6.0 0.0 0
M  V30 2 O 3.1471 7.299 0.0 0
M  V30 3 O 2.3971 5.9999 0.0 0
M  V30 4 N 3.8971 4.5 0.0 0
M  V30 5 C 5.1961 6.75 0.0 0
M  V30 6 C 5.1961 3.75 0.0 0
M  V30 7 C 6.4951 6.0 0.0 0
M  V30 8 C 5.1961 8.25 0.0 0
M  V30 9 N 6.4951 4.5 0.0 0 CHG=-1
M  V30 10 C 5.1961 2.25 0.0 0
M  V30 11 C 7.7942 6.75 0.0 0
M  V30 12 C 6.4951 9.0 0.0 0
M  V30 13 C 3.8971 1.5 0.0 0
M  V30 14 C 6.4951 1.5 0.0 0
M  V30 15 C 7.7942 8.25 0.0 0
M  V30 16 O 2.598 2.25 0.0 0 CHG=-1
M  V30 17 N 3.8971 0.0 0.0 0
M  V30 18 O 7.7942 2.25 0.0 0
M  V30 19 C 6.4951 0.0 0.0 0
M  V30 20 C 5.1961 -0.75 0.0 0
M  V30 21 C 2.598 -0.75 0.0 0
M  V30 22 C 7.7942 -0.75 0.0 0
M  V30 23 C 5.1961 -2.25 0.0 0
M  V30 24 C 1.299 0.0 0.0 0
M  V30 25 C 7.7942 -2.25 0.0 0
M  V30 26 C 6.4951 -3.0 0.0 0
M  V30 27 C 0.0 -0.75 0.0 0
M  V30 28 F 9.0932 -3.0 0.0 0
M  V30 29 C -1.5 -0.75 0.0 0
M  V30 30 C -0.75 -2.049 0.0 0
M  V30 END ATOM
M  V30 BEGIN BOND
M  V30 1 2 1 2
M  V30 2 2 1 3
M  V30 3 1 1 4
M  V30 4 1 1 5
M  V30 5 2 4 6
M  V30 6 2 5 7
M  V30 7 1 5 8
M  V30 8 1 6 9
M  V30 9 1 6 10
M  V30 10 1 7 11
M  V30 11 2 8 12
M  V30 12 2 10 13
M  V30 13 1 10 14
M  V30 14 2 11 15
M  V30 15 1 13 16
M  V30 16 1 13 17
M  V30 17 2 14 18
M  V30 18 1 14 19
M  V30 19 1 17 20
M  V30 20 1 17 21
M  V30 21 1 19 22
M  V30 22 1 20 23
M  V30 23 1 21 24
M  V30 24 2 22 25
M  V30 25 2 23 26
M  V30 26 1 24 27
M  V30 27 1 25 28
M  V30 28 1 27 29
M  V30 29 1 27 30
M  V30 30 1 7 9
M  V30 31 1 12 15
M  V30 32 2 19 20
M  V30 33 1 25 26
M  V30 34 1 29 30
M  V30 END BOND
M  V30 END CTAB
M  END
>  <ligand SMILES>
c1ccc2c(c1)[N-]C(=NS2(=O)=O)c3c(=O)c4cc(ccc4n(c3[O-])CCC5CC5)F

>  <input_id>
9

>  <protonation_id>
P10000041

>  <Column 1>
425.441

>  <Column 2>
0.879

>  <Column 3>
4

>  <Column 4>
7

>  <Column 5>
0

>  <Column 6>
-2

$$$$
Cn1c2cc(sc2c(c1c3ccc(cc3)OCc4cc(ccc4N5CCOCC5)N6CCCC6=O)C7CCCCC7)C(=O)[O-]
Actelion Java MolfileCreator 2.0

  0  0  0  0  0  0              0 V3000
M  V30 BEGIN CTAB
M  V30 COUNTS 44 50 0 0 0
M  V30 BEGIN ATOM
M  V30 1 S 6.9479 3.4455 0.0 0
M  V30 2 C 6.2788 2.7024 0.0 0
M  V30 3 C 7.8615 3.0388 0.0 0
M  V30 4 C 6.7788 1.8364 0.0 0
M  V30 5 C 5.3006 2.4945 0.0 0
M  V30 6 C 8.7275 3.5388 0.0 0
M  V30 7 C 7.7569 2.0443 0.0 0
M  V30 8 N 6.1096 1.0932 0.0 0
M  V30 9 C 5.1961 1.5 0.0 0
M  V30 10 C 4.5575 3.1636 0.0 0
M  V30 11 O 9.5935 3.0388 0.0 0
M  V30 12 O 8.7275 4.5388 0.0 0 CHG=-1
M  V30 13 C 6.3176 0.1151 0.0 0
M  V30 14 C 4.3301 1.0 0.0 0
M  V30 15 C 4.7654 4.1418 0.0 0
M  V30 16 C 3.6064 2.8546 0.0 0
M  V30 17 C 3.4641 1.5 0.0 0
M  V30 18 C 4.3301 0.0 0.0 0
M  V30 19 C 4.0223 4.8109 0.0 0
M  V30 20 C 2.8633 3.5237 0.0 0
M  V30 21 C 2.598 0.9999 0.0 0
M  V30 22 C 3.4641 -0.4999 0.0 0
M  V30 23 C 3.0712 4.5019 0.0 0
M  V30 24 C 2.598 0.0 0.0 0
M  V30 25 O 1.732 -0.5 0.0 0
M  V30 26 C 0.866 0.0 0.0 0
M  V30 27 C 0.0 -0.5 0.0 0
M  V30 28 C -0.866 0.0 0.0 0
M  V30 29 C 0.0 -1.4999 0.0 0
M  V30 30 N -0.866 1.0 0.0 0
M  V30 31 C -1.732 -0.4999 0.0 0
M  V30 32 C -0.866 -1.9999 0.0 0
M  V30 33 C 0.0 1.4999 0.0 0
M  V30 34 C -1.732 1.5 0.0 0
M  V30 35 C -1.732 -1.4999 0.0 0
M  V30 36 N -0.866 -2.9999 0.0 0
M  V30 37 C 0.0 2.4999 0.0 0
M  V30 38 C -1.732 2.5 0.0 0
M  V30 39 C -1.675 -3.5877 0.0 0
M  V30 40 C -0.057 -3.5877 0.0 0
M  V30 41 O -0.866 3.0 0.0 0
M  V30 42 O -2.626 -3.2787 0.0 0
M  V30 43 C -1.366 -4.5388 0.0 0
M  V30 44 C -0.366 -4.5388 0.0 0
M  V30 END ATOM
M  V30 BEGIN BOND
M  V30 1 1 1 2
M  V30 2 1 1 3
M  V30 3 2 2 4
M  V30 4 1 2 5
M  V30 5 1 3 6
M  V30 6 2 3 7
M  V30 7 1 4 8
M  V30 8 2 5 9
M  V30 9 1 5 10
M  V30 10 2 6 11
M  V30 11 1 6 12
M  V30 12 1 8 13
M  V30 13 1 9 14
M  V30 14 1 10 15
M  V30 15 1 10 16
M  V30 16 2 14 17
M  V30 17 1 14 18
M  V30 18 1 15 19
M  V30 19 1 16 20
M  V30 20 1 17 21
M  V30 21 2 18 22
M  V30 22 1 19 23
M  V30 23 2 21 24
M  V30 24 1 24 25
M  V30 25 1 25 26
M  V30 26 1 26 27
M  V30 27 2 27 28
M  V30 28 1 27 29
M  V30 29 1 28 30
M  V30 30 1 28 31
M  V30 31 2 29 32
M  V30 32 1 30 33
M  V30 33 1 30 34
M  V30 34 2 31 35
M  V30 35 1 32 36
M  V30 36 1 33 37
M  V30 37 1 34 38
M  V30 38 1 36 39
M  V30 39 1 36 40
M  V30 40 1 37 41
M  V30 41 2 39 42
M  V30 42 1 39 43
M  V30 43 1 40 44
M  V30 44 1 4 7
M  V30 45 1 8 9
M  V30 46 1 20 23
M  V30 47 1 22 24
M  V30 48 1 32 35
M  V30 49 1 38 41
M  V30 50 1 43 44
M  V30 END BOND
M  V30 END CTAB
M  END
>  <ligand SMILES>
Cn1c2cc(sc2c(c1c3ccc(cc3)OCc4cc(ccc4N5CCOCC5)N6CCCC6=O)C7CCCCC7)C(=O)[O-]

>  <input_id>
10

>  <protonation_id>
P10000049

>  <Column 1>
612.772

>  <Column 2>
6.178

>  <Column 3>
8

>  <Column 4>
8

>  <Column 5>
0

>  <Column 6>
-1

$$$$
Cc1c2c(c(c(n2CC(=O)N(C)[C@H]3CC[N@H+](C3)C(C)C)c4ccccc4)C5CCCCC5)sc1C(=O)[O-]
Actelion Java MolfileCreator 2.0

  0  0  0  0  0  0              0 V3000
M  V30 BEGIN CTAB
M  V30 COUNTS 37 41 0 0 0
M  V30 BEGIN ATOM
M  V30 1 S 4.6513 -2.6969 0.0 0
M  V30 2 C 4.5467 -1.7024 0.0 0
M  V30 3 C 3.7377 -3.1036 0.0 0
M  V30 4 C 3.5686 -1.4945 0.0 0
M  V30 5 C 5.0467 -0.8364 0.0 0
M  V30 6 C 3.0686 -2.3605 0.0 0
M  V30 7 C 3.5298 -4.0818 0.0 0
M  V30 8 N 3.4641 -0.5 0.0 0
M  V30 9 C 4.3776 -0.0932 0.0 0
M  V30 10 C 6.0412 -0.7318 0.0 0
M  V30 11 C 2.0741 -2.465 0.0 0
M  V30 12 O 2.5787 -4.3908 0.0 0
M  V30 13 O 4.2729 -4.7509 0.0 0
M  V30 14 C 2.598 0.0 0.0 0
M  V30 15 C 4.5855 0.8848 0.0 0
M  V30 16 C 6.629 -1.5408 0.0 0
M  V30 17 C 6.448 0.1816 0.0 0
M  V30 18 C 1.732 -0.5 0.0 0
M  V30 19 C 5.5366 1.1939 0.0 0
M  V30 20 C 3.8424 1.554 0.0 0
M  V30 21 C 7.6236 -1.4363 0.0 0
M  V30 22 C 7.4425 0.2861 0.0 0
M  V30 23 O 1.732 -1.5 0.0 0
M  V30 24 N 0.866 0.0 0.0 0
M  V30 25 C 5.7445 2.172 0.0 0
M  V30 26 C 4.0503 2.5321 0.0 0
M  V30 27 C 8.0303 -0.5228 0.0 0
M  V30 28 C 0.866 1.0 0.0 0 CFG=2
M  V30 29 C 0.0 -0.5 0.0 0
M  V30 30 C 5.0013 2.8411 0.0 0
M  V30 31 C 1.675 1.5877 0.0 0
M  V30 32 C 0.057 1.5877 0.0 0
M  V30 33 N 1.366 2.5388 0.0 0
M  V30 34 C 0.366 2.5388 0.0 0
M  V30 35 C 1.9538 3.3478 0.0 0
M  V30 36 C 2.9483 3.2433 0.0 0
M  V30 37 C 1.547 4.2614 0.0 0
M  V30 END ATOM
M  V30 BEGIN BOND
M  V30 1 1 1 2
M  V30 2 1 1 3
M  V30 3 2 2 4
M  V30 4 1 2 5
M  V30 5 2 3 6
M  V30 6 1 3 7
M  V30 7 1 4 8
M  V30 8 2 5 9
M  V30 9 1 5 10
M  V30 10 1 6 11
M  V30 11 2 7 12
M  V30 12 1 7 13
M  V30 13 1 8 14
M  V30 14 1 9 15
M  V30 15 1 10 16
M  V30 16 1 10 17
M  V30 17 1 14 18
M  V30 18 2 15 19
M  V30 19 1 15 20
M  V30 20 1 16 21
M  V30 21 1 17 22
M  V30 22 2 18 23
M  V30 23 1 18 24
M  V30 24 1 19 25
M  V30 25 2 20 26
M  V30 26 1 21 27
M  V30 27 1 28 24 CFG=1
M  V30 28 1 24 29
M  V30 29 2 25 30
M  V30 30 1 28 31
M  V30 31 1 28 32
M  V30 32 1 31 33
M  V30 33 1 32 34
M  V30 34 1 33 35
M  V30 35 1 35 36
M  V30 36 1 35 37
M  V30 37 1 4 6
M  V30 38 1 8 9
M  V30 39 1 22 27
M  V30 40 1 26 30
M  V30 41 1 33 34
M  V30 END BOND
M  V30 BEGIN COLLECTION
M  V30 MDLV30/STEABS ATOMS=(1 28)
M  V30 END COLLECTION
M  V30 END CTAB
M  END
>  <ligand SMILES>
Cc1c2c(c(c(n2CC(=O)N(C)[C@H]3CC[N@H+](C3)C(C)C)c4ccccc4)C5CCCCC5)sc1C(=O)[O-]

>  <input_id>
11

>  <protonation_id>
P10000048

>  <Column 1>
521.727

>  <Column 2>
5.837

>  <Column 3>
7

>  <Column 4>
6

>  <Column 5>
1

>  <Column 6>
0

$$$$
c1ccc2c(c1)c(=O)c(c(n2CCC3CC3)[O-])C4=NS(=O)(=O)c5ccccc5[N-]4
Actelion Java MolfileCreator 2.0

  0  0  0  0  0  0              0 V3000
M  V30 BEGIN CTAB
M  V30 COUNTS 29 33 0 0 0
M  V30 BEGIN ATOM
M  V30 1 S 3.8971 6.0 0.0 0
M  V30 2 O 3.1471 7.299 0.0 0
M  V30 3 O 2.3971 5.9999 0.0 0
M  V30 4 N 3.8971 4.5 0.0 0
M  V30 5 C 5.1961 6.75 0.0 0
M  V30 6 C 5.1961 3.75 0.0 0
M  V30 7 C 6.4951 6.0 0.0 0
M  V30 8 C 5.1961 8.25 0.0 0
M  V30 9 N 6.4951 4.5 0.0 0 CHG=-1
M  V30 10 C 5.1961 2.25 0.0 0
M  V30 11 C 7.7942 6.75 0.0 0
M  V30 12 C 6.4951 9.0 0.0 0
M  V30 13 C 3.8971 1.5 0.0 0
M  V30 14 C 6.4951 1.5 0.0 0
M  V30 15 C 7.7942 8.25 0.0 0
M  V30 16 O 2.598 2.25 0.0 0 CHG=-1
M  V30 17 N 3.8971 0.0 0.0 0
M  V30 18 O 7.7942 2.25 0.0 0
M  V30 19 C 6.4951 0.0 0.0 0
M  V30 20 C 5.1961 -0.75 0.0 0
M  V30 21 C 2.598 -0.75 0.0 0
M  V30 22 C 7.7942 -0.75 0.0 0
M  V30 23 C 5.1961 -2.25 0.0 0
M  V30 24 C 1.299 0.0 0.0 0
M  V30 25 C 7.7942 -2.25 0.0 0
M  V30 26 C 6.4951 -3.0 0.0 0
M  V30 27 C 0.0 -0.75 0.0 0
M  V30 28 C -1.5 -0.75 0.0 0
M  V30 29 C -0.75 -2.049 0.0 0
M  V30 END ATOM
M  V30 BEGIN BOND
M  V30 1 2 1 2
M  V30 2 2 1 3
M  V30 3 1 1 4
M  V30 4 1 1 5
M  V30 5 2 4 6
M  V30 6 2 5 7
M  V30 7 1 5 8
M  V30 8 1 6 9
M  V30 9 1 6 10
M  V30 10 1 7 11
M  V30 11 2 8 12
M  V30 12 2 10 13
M  V30 13 1 10 14
M  V30 14 2 11 15
M  V30 15 1 13 16
M  V30 16 1 13 17
M  V30 17 2 14 18
M  V30 18 1 14 19
M  V30 19 1 17 20
M  V30 20 1 17 21
M  V30 21 1 19 22
M  V30 22 1 20 23
M  V30 23 1 21 24
M  V30 24 2 22 25
M  V30 25 2 23 26
M  V30 26 1 24 27
M  V30 27 1 27 28
M  V30 28 1 27 29
M  V30 29 1 7 9
M  V30 30 1 12 15
M  V30 31 2 19 20
M  V30 32 1 25 26
M  V30 33 1 28 29
M  V30 END BOND
M  V30 END CTAB
M  END
>  <ligand SMILES>
c1ccc2c(c1)c(=O)c(c(n2CCC3CC3)[O-])C4=NS(=O)(=O)c5ccccc5[N-]4

>  <input_id>
12

>  <protonation_id>
P10000051

>  <Column 1>
407.451

>  <Column 2>
1.712

>  <Column 3>
4

>  <Column 4>
7

>  <Column 5>
0

>  <Column 6>
-2

$$$$
c1ccc2c(c1)[N-]C(=NS2(=O)=O)c3c(=O)c4cc(ccc4n(c3[O-])CCC5CC5)F
Actelion Java MolfileCreator 2.0

  0  0  0  0  0  0              0 V3000
M  V30 BEGIN CTAB
M  V30 COUNTS 30 34 0 0 0
M  V30 BEGIN ATOM
M  V30 1 S 3.8971 6.0 0.0 0
M  V30 2 O 3.1471 7.299 0.0 0
M  V30 3 O 2.3971 5.9999 0.0 0
M  V30 4 N 3.8971 4.5 0.0 0
M  V30 5 C 5.1961 6.75 0.0 0
M  V30 6 C 5.1961 3.75 0.0 0
M  V30 7 C 6.4951 6.0 0.0 0
M  V30 8 C 5.1961 8.25 0.0 0
M  V30 9 N 6.4951 4.5 0.0 0 CHG=-1
M  V30 10 C 5.1961 2.25 0.0 0
M  V30 11 C 7.7942 6.75 0.0 0
M  V30 12 C 6.4951 9.0 0.0 0
M  V30 13 C 3.8971 1.5 0.0 0
M  V30 14 C 6.4951 1.5 0.0 0
M  V30 15 C 7.7942 8.25 0.0 0
M  V30 16 O 2.598 2.25 0.0 0 CHG=-1
M  V30 17 N 3.8971 0.0 0.0 0
M  V30 18 O 7.7942 2.25 0.0 0
M  V30 19 C 6.4951 0.0 0.0 0
M  V30 20 C 5.1961 -0.75 0.0 0
M  V30 21 C 2.598 -0.75 0.0 0
M  V30 22 C 7.7942 -0.75 0.0 0
M  V30 23 C 5.1961 -2.25 0.0 0
M  V30 24 C 1.299 0.0 0.0 0
M  V30 25 C 7.7942 -2.25 0.0 0
M  V30 26 C 6.4951 -3.0 0.0 0
M  V30 27 C 0.0 -0.75 0.0 0
M  V30 28 F 9.0932 -3.0 0.0 0
M  V30 29 C -1.5 -0.75 0.0 0
M  V30 30 C -0.75 -2.049 0.0 0
M  V30 END ATOM
M  V30 BEGIN BOND
M  V30 1 2 1 2
M  V30 2 2 1 3
M  V30 3 1 1 4
M  V30 4 1 1 5
M  V30 5 2 4 6
M  V30 6 2 5 7
M  V30 7 1 5 8
M  V30 8 1 6 9
M  V30 9 1 6 10
M  V30 10 1 7 11
M  V30 11 2 8 12
M  V30 12 2 10 13
M  V30 13 1 10 14
M  V30 14 2 11 15
M  V30 15 1 13 16
M  V30 16 1 13 17
M  V30 17 2 14 18
M  V30 18 1 14 19
M  V30 19 1 17 20
M  V30 20 1 17 21
M  V30 21 1 19 22
M  V30 22 1 20 23
M  V30 23 1 21 24
M  V30 24 2 22 25
M  V30 25 2 23 26
M  V30 26 1 24 27
M  V30 27 1 25 28
M  V30 28 1 27 29
M  V30 29 1 27 30
M  V30 30 1 7 9
M  V30 31 1 12 15
M  V30 32 2 19 20
M  V30 33 1 25 26
M  V30 34 1 29 30
M  V30 END BOND
M  V30 END CTAB
M  END
>  <ligand SMILES>
c1ccc2c(c1)[N-]C(=NS2(=O)=O)c3c(=O)c4cc(ccc4n(c3[O-])CCC5CC5)F

>  <input_id>
13

>  <protonation_id>
P10000050

>  <Column 1>
425.441

>  <Column 2>
0.879

>  <Column 3>
4

>  <Column 4>
7

>  <Column 5>
0

>  <Column 6>
-2

$$$$
c1cc(ccc1c2cc(ccc2COc3ccc(c(c3)F)c4nc5cc(ccc5n4C6CCCCC6)C(=O)[O-])N7CCCC7=O)Cl
Actelion Java MolfileCreator 2.0

  0  0  0  0  0  0              0 V3000
M  V30 BEGIN CTAB
M  V30 COUNTS 46 52 0 0 0
M  V30 BEGIN ATOM
M  V30 1 Cl -0.866 3.0 0.0 0
M  V30 2 C 0.0 2.5 0.0 0
M  V30 3 C 0.0 1.5 0.0 0
M  V30 4 C 0.866 3.0 0.0 0
M  V30 5 C 0.866 1.0 0.0 0
M  V30 6 C 1.732 2.4999 0.0 0
M  V30 7 C 1.732 1.5 0.0 0
M  V30 8 C 2.598 1.0 0.0 0
M  V30 9 C 2.598 0.0 0.0 0
M  V30 10 C 3.4641 1.4999 0.0 0
M  V30 11 C 3.4641 -0.5 0.0 0
M  V30 12 C 1.732 -0.5 0.0 0
M  V30 13 C 4.3301 1.0 0.0 0
M  V30 14 C 4.3301 0.0 0.0 0
M  V30 15 O 0.866 0.0 0.0 0
M  V30 16 N 5.1961 1.5 0.0 0
M  V30 17 C 0.0 -0.5 0.0 0
M  V30 18 C 6.1096 1.0932 0.0 0
M  V30 19 C 5.3006 2.4945 0.0 0
M  V30 20 C -0.866 0.0 0.0 0
M  V30 21 C 0.0 -1.4999 0.0 0
M  V30 22 O 6.3176 0.1151 0.0 0
M  V30 23 C 6.7788 1.8364 0.0 0
M  V30 24 C 6.2788 2.7024 0.0 0
M  V30 25 C -1.732 -0.4999 0.0 0
M  V30 26 C -0.866 -1.9999 0.0 0
M  V30 27 F -2.598 0.0 0.0 0
M  V30 28 C -1.732 -1.4999 0.0 0
M  V30 29 C -2.598 -1.9999 0.0 0
M  V30 30 N -3.5116 -1.5932 0.0 0
M  V30 31 N -2.7026 -2.9945 0.0 0
M  V30 32 C -4.1807 -2.3364 0.0 0
M  V30 33 C -3.6807 -3.2024 0.0 0
M  V30 34 C -1.9594 -3.6636 0.0 0
M  V30 35 C -5.1807 -2.3364 0.0 0
M  V30 36 C -4.1807 -4.0684 0.0 0
M  V30 37 C -2.1673 -4.6418 0.0 0
M  V30 38 C -1.0084 -3.3546 0.0 0
M  V30 39 C -5.6807 -3.2024 0.0 0
M  V30 40 C -5.1807 -4.0684 0.0 0
M  V30 41 C -1.4242 -5.3109 0.0 0
M  V30 42 C -0.2652 -4.0237 0.0 0
M  V30 43 C -6.6807 -3.2024 0.0 0
M  V30 44 C -0.4731 -5.0019 0.0 0
M  V30 45 O -7.1807 -2.3364 0.0 0
M  V30 46 O -7.1807 -4.0684 0.0 0 CHG=-1
M  V30 END ATOM
M  V30 BEGIN BOND
M  V30 1 1 1 2
M  V30 2 2 2 3
M  V30 3 1 2 4
M  V30 4 1 3 5
M  V30 5 2 4 6
M  V30 6 2 5 7
M  V30 7 1 7 8
M  V30 8 2 8 9
M  V30 9 1 8 10
M  V30 10 1 9 11
M  V30 11 1 9 12
M  V30 12 2 10 13
M  V30 13 2 11 14
M  V30 14 1 12 15
M  V30 15 1 13 16
M  V30 16 1 15 17
M  V30 17 1 16 18
M  V30 18 1 16 19
M  V30 19 2 17 20
M  V30 20 1 17 21
M  V30 21 2 18 22
M  V30 22 1 18 23
M  V30 23 1 19 24
M  V30 24 1 20 25
M  V30 25 2 21 26
M  V30 26 1 25 27
M  V30 27 2 25 28
M  V30 28 1 28 29
M  V30 29 2 29 30
M  V30 30 1 29 31
M  V30 31 1 30 32
M  V30 32 1 31 33
M  V30 33 1 31 34
M  V30 34 1 32 35
M  V30 35 1 33 36
M  V30 36 1 34 37
M  V30 37 1 34 38
M  V30 38 2 35 39
M  V30 39 2 36 40
M  V30 40 1 37 41
M  V30 41 1 38 42
M  V30 42 1 39 43
M  V30 43 1 41 44
M  V30 44 2 43 45
M  V30 45 1 43 46
M  V30 46 1 6 7
M  V30 47 1 13 14
M  V30 48 1 23 24
M  V30 49 1 26 28
M  V30 50 2 32 33
M  V30 51 1 39 40
M  V30 52 1 42 44
M  V30 END BOND
M  V30 END CTAB
M  END
>  <ligand SMILES>
c1cc(ccc1c2cc(ccc2COc3ccc(c(c3)F)c4nc5cc(ccc5n4C6CCCCC6)C(=O)[O-])N7CCCC7=O)Cl

>  <input_id>
14

>  <protonation_id>
P10000060

>  <Column 1>
637.131

>  <Column 2>
8.648

>  <Column 3>
8

>  <Column 4>
7

>  <Column 5>
0

>  <Column 6>
-1

$$$$
c1cc(ccc1c2cc(ccc2COc3ccc(c(c3)F)c4[nH+]c5cc(ccc5n4C6CCCCC6)C(=O)[O-])N7CCCC7=O)Cl
Actelion Java MolfileCreator 2.0

  0  0  0  0  0  0              0 V3000
M  V30 BEGIN CTAB
M  V30 COUNTS 46 52 0 0 0
M  V30 BEGIN ATOM
M  V30 1 Cl -0.866 3.0 0.0 0
M  V30 2 C 0.0 2.5 0.0 0
M  V30 3 C 0.0 1.5 0.0 0
M  V30 4 C 0.866 3.0 0.0 0
M  V30 5 C 0.866 1.0 0.0 0
M  V30 6 C 1.732 2.4999 0.0 0
M  V30 7 C 1.732 1.5 0.0 0
M  V30 8 C 2.598 1.0 0.0 0
M  V30 9 C 2.598 0.0 0.0 0
M  V30 10 C 3.4641 1.4999 0.0 0
M  V30 11 C 3.4641 -0.5 0.0 0
M  V30 12 C 1.732 -0.5 0.0 0
M  V30 13 C 4.3301 1.0 0.0 0
M  V30 14 C 4.3301 0.0 0.0 0
M  V30 15 O 0.866 0.0 0.0 0
M  V30 16 N 5.1961 1.5 0.0 0
M  V30 17 C 0.0 -0.5 0.0 0
M  V30 18 C 6.1096 1.0932 0.0 0
M  V30 19 C 5.3006 2.4945 0.0 0
M  V30 20 C -0.866 0.0 0.0 0
M  V30 21 C 0.0 -1.4999 0.0 0
M  V30 22 O 6.3176 0.1151 0.0 0
M  V30 23 C 6.7788 1.8364 0.0 0
M  V30 24 C 6.2788 2.7024 0.0 0
M  V30 25 C -1.732 -0.4999 0.0 0
M  V30 26 C -0.866 -1.9999 0.0 0
M  V30 27 F -2.598 0.0 0.0 0
M  V30 28 C -1.732 -1.4999 0.0 0
M  V30 29 C -2.598 -1.9999 0.0 0
M  V30 30 N -3.5116 -1.5932 0.0 0
M  V30 31 N -2.7026 -2.9945 0.0 0
M  V30 32 C -4.1807 -2.3364 0.0 0
M  V30 33 C -3.6807 -3.2024 0.0 0
M  V30 34 C -1.9594 -3.6636 0.0 0
M  V30 35 C -5.1807 -2.3364 0.0 0
M  V30 36 C -4.1807 -4.0684 0.0 0
M  V30 37 C -2.1673 -4.6418 0.0 0
M  V30 38 C -1.0084 -3.3546 0.0 0
M  V30 39 C -5.6807 -3.2024 0.0 0
M  V30 40 C -5.1807 -4.0684 0.0 0
M  V30 41 C -1.4242 -5.3109 0.0 0
M  V30 42 C -0.2652 -4.0237 0.0 0
M  V30 43 C -6.6807 -3.2024 0.0 0
M  V30 44 C -0.4731 -5.0019 0.0 0
M  V30 45 O -7.1807 -2.3364 0.0 0
M  V30 46 O -7.1807 -4.0684 0.0 0
M  V30 END ATOM
M  V30 BEGIN BOND
M  V30 1 1 1 2
M  V30 2 2 2 3
M  V30 3 1 2 4
M  V30 4 1 3 5
M  V30 5 2 4 6
M  V30 6 2 5 7
M  V30 7 1 7 8
M  V30 8 2 8 9
M  V30 9 1 8 10
M  V30 10 1 9 11
M  V30 11 1 9 12
M  V30 12 2 10 13
M  V30 13 2 11 14
M  V30 14 1 12 15
M  V30 15 1 13 16
M  V30 16 1 15 17
M  V30 17 1 16 18
M  V30 18 1 16 19
M  V30 19 2 17 20
M  V30 20 1 17 21
M  V30 21 2 18 22
M  V30 22 1 18 23
M  V30 23 1 19 24
M  V30 24 1 20 25
M  V30 25 2 21 26
M  V30 26 1 25 27
M  V30 27 2 25 28
M  V30 28 1 28 29
M  V30 29 2 29 30
M  V30 30 1 29 31
M  V30 31 1 30 32
M  V30 32 1 31 33
M  V30 33 1 31 34
M  V30 34 1 32 35
M  V30 35 1 33 36
M  V30 36 1 34 37
M  V30 37 1 34 38
M  V30 38 2 35 39
M  V30 39 2 36 40
M  V30 40 1 37 41
M  V30 41 1 38 42
M  V30 42 1 39 43
M  V30 43 1 41 44
M  V30 44 2 43 45
M  V30 45 1 43 46
M  V30 46 1 6 7
M  V30 47 1 13 14
M  V30 48 1 23 24
M  V30 49 1 26 28
M  V30 50 2 32 33
M  V30 51 1 39 40
M  V30 52 1 42 44
M  V30 END BOND
M  V30 END CTAB
M  END
>  <ligand SMILES>
c1cc(ccc1c2cc(ccc2COc3ccc(c(c3)F)c4[nH+]c5cc(ccc5n4C6CCCCC6)C(=O)[O-])N7CCCC7=O)Cl

>  <input_id>
14

>  <protonation_id>
P10000061

>  <Column 1>
638.139

>  <Column 2>
8.648

>  <Column 3>
8

>  <Column 4>
7

>  <Column 5>
1

>  <Column 6>
0

$$$$
CC(C)[N@]1CC[C@H](C1)[N@H+]2CCn3c4cc(sc4c(c3-c5ccccc5C2)C6CCCCC6)C(=O)[O-]
Actelion Java MolfileCreator 2.0

  0  0  0  0  0  0              0 V3000
M  V30 BEGIN CTAB
M  V30 COUNTS 35 40 0 0 0
M  V30 BEGIN ATOM
M  V30 1 S 1.8365 -1.4945 0.0 0
M  V30 2 C 2.8147 -1.7024 0.0 0
M  V30 3 C 1.732 -0.5 0.0 0
M  V30 4 C 3.3147 -0.8364 0.0 0
M  V30 5 C 3.4838 -2.4455 0.0 0
M  V30 6 C 0.866 0.0 0.0 0
M  V30 7 C 2.6455 -0.0932 0.0 0
M  V30 8 N 4.2928 -1.0443 0.0 0
M  V30 9 C 4.3974 -2.0388 0.0 0
M  V30 10 C 3.2759 -3.4237 0.0 0
M  V30 11 O 0.866 1.0 0.0 0
M  V30 12 O 0.0 -0.5 0.0 0
M  V30 13 C 4.9221 -0.2671 0.0 0
M  V30 14 C 5.1745 -2.6681 0.0 0
M  V30 15 C 2.3248 -3.7327 0.0 0
M  V30 16 C 4.019 -4.0928 0.0 0
M  V30 17 C 5.9167 -0.1626 0.0 0
M  V30 18 C 6.169 -2.5636 0.0 0
M  V30 19 C 4.7678 -3.5817 0.0 0
M  V30 20 C 2.1169 -4.7108 0.0 0
M  V30 21 C 3.8111 -5.071 0.0 0
M  V30 22 N 6.6938 -0.7919 0.0 0
M  V30 23 C 6.7568 -3.3726 0.0 0
M  V30 24 C 6.7983 -1.7864 0.0 0
M  V30 25 C 5.3555 -4.3907 0.0 0
M  V30 26 C 2.8601 -5.38 0.0 0
M  V30 27 C 7.5726 -0.3148 0.0 0 CFG=1
M  V30 28 C 6.3501 -4.2861 0.0 0
M  V30 29 C 8.4752 -0.7453 0.0 0
M  V30 30 C 7.7032 0.6766 0.0 0
M  V30 31 N 9.1636 -0.0199 0.0 0
M  V30 32 C 8.6864 0.8588 0.0 0
M  V30 33 C 10.155 -0.1504 0.0 0
M  V30 34 C 10.5377 -1.0743 0.0 0
M  V30 35 C 10.7638 0.6428 0.0 0
M  V30 END ATOM
M  V30 BEGIN BOND
M  V30 1 1 1 2
M  V30 2 1 1 3
M  V30 3 2 2 4
M  V30 4 1 2 5
M  V30 5 1 3 6
M  V30 6 2 3 7
M  V30 7 1 4 8
M  V30 8 2 5 9
M  V30 9 1 5 10
M  V30 10 2 6 11
M  V30 11 1 6 12
M  V30 12 1 8 13
M  V30 13 1 9 14
M  V30 14 1 10 15
M  V30 15 1 10 16
M  V30 16 1 13 17
M  V30 17 2 14 18
M  V30 18 1 14 19
M  V30 19 1 15 20
M  V30 20 1 16 21
M  V30 21 1 17 22
M  V30 22 1 18 23
M  V30 23 1 18 24
M  V30 24 2 19 25
M  V30 25 1 20 26
M  V30 26 1 27 22 CFG=3
M  V30 27 2 23 28
M  V30 28 1 27 29
M  V30 29 1 27 30
M  V30 30 1 29 31
M  V30 31 1 30 32
M  V30 32 1 31 33
M  V30 33 1 33 34
M  V30 34 1 33 35
M  V30 35 1 4 7
M  V30 36 1 8 9
M  V30 37 1 21 26
M  V30 38 1 22 24
M  V30 39 1 25 28
M  V30 40 1 31 32
M  V30 END BOND
M  V30 BEGIN COLLECTION
M  V30 MDLV30/STEABS ATOMS=(1 27)
M  V30 END COLLECTION
M  V30 END CTAB
M  END
>  <ligand SMILES>
CC(C)[N@]1CC[C@H](C1)[N@H+]2CCn3c4cc(sc4c(c3-c5ccccc5C2)C6CCCCC6)C(=O)[O-]

>  <input_id>
15

>  <protonation_id>
P10000059

>  <Column 1>
491.701

>  <Column 2>
5.727

>  <Column 3>
4

>  <Column 4>
5

>  <Column 5>
1

>  <Column 6>
0

$$$$
c1ccc2c(c1)c(c[nH]2)C[C@@H](C(=O)[O-])NC(=O)c3ccc4c(c3)nc(n4C5CCCCC5)c6ccoc6
Actelion Java MolfileCreator 2.0

  0  0  0  0  0  0              0 V3000
M  V30 BEGIN CTAB
M  V30 COUNTS 37 42 0 0 0
M  V30 BEGIN ATOM
M  V30 1 O 2.598 0.0 0.0 0
M  V30 2 C 3.4641 -0.5 0.0 0
M  V30 3 N 4.3301 0.0 0.0 0
M  V30 4 C 3.4641 -1.5 0.0 0
M  V30 5 C 5.1961 -0.4999 0.0 0 CFG=2
M  V30 6 C 2.598 -2.0 0.0 0
M  V30 7 C 4.3301 -1.9999 0.0 0
M  V30 8 C 6.0621 0.0 0.0 0
M  V30 9 C 5.1961 -1.4999 0.0 0
M  V30 10 C 2.598 -3.0 0.0 0
M  V30 11 C 4.3301 -2.9999 0.0 0
M  V30 12 O 6.9282 -0.4999 0.0 0
M  V30 13 O 6.0621 1.0 0.0 0 CHG=-1
M  V30 14 C 6.0621 -1.9999 0.0 0
M  V30 15 N 1.8549 -3.6691 0.0 0
M  V30 16 C 3.4641 -3.5 0.0 0
M  V30 17 C 6.1667 -2.9945 0.0 0
M  V30 18 C 6.9757 -1.5932 0.0 0
M  V30 19 C 2.2616 -4.5826 0.0 0
M  V30 20 N 3.2561 -4.4781 0.0 0
M  V30 21 C 7.1448 -3.2024 0.0 0
M  V30 22 C 5.4975 -3.7376 0.0 0
M  V30 23 N 7.6448 -2.3364 0.0 0
M  V30 24 C 1.7616 -5.4487 0.0 0
M  V30 25 C 3.9253 -5.2212 0.0 0
M  V30 26 C 7.4538 -4.1534 0.0 0
M  V30 27 C 5.8065 -4.6887 0.0 0
M  V30 28 C 0.7671 -5.5532 0.0 0
M  V30 29 C 2.1684 -6.3622 0.0 0
M  V30 30 C 3.6163 -6.1723 0.0 0
M  V30 31 C 4.9034 -5.0133 0.0 0
M  V30 32 C 6.7847 -4.8966 0.0 0
M  V30 33 O 0.5592 -6.5313 0.0 0
M  V30 34 C 1.4252 -7.0313 0.0 0
M  V30 35 C 4.2854 -6.9154 0.0 0
M  V30 36 C 5.5725 -5.7565 0.0 0
M  V30 37 C 5.2635 -6.7075 0.0 0
M  V30 END ATOM
M  V30 BEGIN BOND
M  V30 1 2 1 2
M  V30 2 1 2 3
M  V30 3 1 2 4
M  V30 4 1 5 3 CFG=3
M  V30 5 2 4 6
M  V30 6 1 4 7
M  V30 7 1 5 8
M  V30 8 1 5 9
M  V30 9 1 6 10
M  V30 10 2 7 11
M  V30 11 2 8 12
M  V30 12 1 8 13
M  V30 13 1 9 14
M  V30 14 1 10 15
M  V30 15 2 10 16
M  V30 16 1 14 17
M  V30 17 2 14 18
M  V30 18 2 15 19
M  V30 19 1 16 20
M  V30 20 2 17 21
M  V30 21 1 17 22
M  V30 22 1 18 23
M  V30 23 1 19 24
M  V30 24 1 20 25
M  V30 25 1 21 26
M  V30 26 2 22 27
M  V30 27 2 24 28
M  V30 28 1 24 29
M  V30 29 1 25 30
M  V30 30 1 25 31
M  V30 31 2 26 32
M  V30 32 1 28 33
M  V30 33 2 29 34
M  V30 34 1 30 35
M  V30 35 1 31 36
M  V30 36 1 35 37
M  V30 37 1 11 16
M  V30 38 1 19 20
M  V30 39 1 21 23
M  V30 40 1 27 32
M  V30 41 1 33 34
M  V30 42 1 36 37
M  V30 END BOND
M  V30 BEGIN COLLECTION
M  V30 MDLV30/STEABS ATOMS=(1 5)
M  V30 END COLLECTION
M  V30 END CTAB
M  END
>  <ligand SMILES>
c1ccc2c(c1)c(c[nH]2)C[C@@H](C(=O)[O-])NC(=O)c3ccc4c(c3)nc(n4C5CCCCC5)c6ccoc6

>  <input_id>
16

>  <protonation_id>
P10000063

>  <Column 1>
495.559

>  <Column 2>
3.365

>  <Column 3>
7

>  <Column 4>
8

>  <Column 5>
2

>  <Column 6>
-1

$$$$
CC(C)CCn1c2ccc(cc2c(=O)c(c1[O-])C3=NS(=O)(=O)c4ccccc4[N-]3)F
Actelion Java MolfileCreator 2.0

  0  0  0  0  0  0              0 V3000
M  V30 BEGIN CTAB
M  V30 COUNTS 30 33 0 0 0
M  V30 BEGIN ATOM
M  V30 1 S 10.3923 2.25 0.0 0
M  V30 2 O 11.1423 3.549 0.0 0
M  V30 3 O 9.6423 3.549 0.0 0
M  V30 4 N 9.0932 1.5 0.0 0
M  V30 5 C 11.6913 1.5 0.0 0
M  V30 6 C 9.0932 0.0 0.0 0
M  V30 7 C 11.6913 0.0 0.0 0
M  V30 8 C 12.9903 2.25 0.0 0
M  V30 9 N 10.3923 -0.75 0.0 0 CHG=-1
M  V30 10 C 7.7942 -0.75 0.0 0
M  V30 11 C 12.9903 -0.75 0.0 0
M  V30 12 C 14.2894 1.5 0.0 0
M  V30 13 C 6.4951 0.0 0.0 0
M  V30 14 C 7.7942 -2.25 0.0 0
M  V30 15 C 14.2894 0.0 0.0 0
M  V30 16 O 6.4951 1.5 0.0 0 CHG=-1
M  V30 17 N 5.1961 -0.75 0.0 0
M  V30 18 O 9.0932 -3.0 0.0 0
M  V30 19 C 6.4951 -3.0 0.0 0
M  V30 20 C 5.1961 -2.25 0.0 0
M  V30 21 C 3.8971 0.0 0.0 0
M  V30 22 C 6.4951 -4.5 0.0 0
M  V30 23 C 3.8971 -3.0 0.0 0
M  V30 24 C 2.598 -0.75 0.0 0
M  V30 25 C 5.1961 -5.25 0.0 0
M  V30 26 C 3.8971 -4.5 0.0 0
M  V30 27 C 1.299 0.0 0.0 0
M  V30 28 F 5.1961 -6.75 0.0 0
M  V30 29 C 1.299 1.5 0.0 0
M  V30 30 C 0.0 -0.75 0.0 0
M  V30 END ATOM
M  V30 BEGIN BOND
M  V30 1 2 1 2
M  V30 2 2 1 3
M  V30 3 1 1 4
M  V30 4 1 1 5
M  V30 5 2 4 6
M  V30 6 2 5 7
M  V30 7 1 5 8
M  V30 8 1 6 9
M  V30 9 1 6 10
M  V30 10 1 7 11
M  V30 11 2 8 12
M  V30 12 2 10 13
M  V30 13 1 10 14
M  V30 14 2 11 15
M  V30 15 1 13 16
M  V30 16 1 13 17
M  V30 17 2 14 18
M  V30 18 1 14 19
M  V30 19 1 17 20
M  V30 20 1 17 21
M  V30 21 1 19 22
M  V30 22 1 20 23
M  V30 23 1 21 24
M  V30 24 2 22 25
M  V30 25 2 23 26
M  V30 26 1 24 27
M  V30 27 1 25 28
M  V30 28 1 27 29
M  V30 29 1 27 30
M  V30 30 1 7 9
M  V30 31 1 12 15
M  V30 32 2 19 20
M  V30 33 1 25 26
M  V30 END BOND
M  V30 END CTAB
M  END
>  <ligand SMILES>
CC(C)CCn1c2ccc(cc2c(=O)c(c1[O-])C3=NS(=O)(=O)c4ccccc4[N-]3)F

>  <input_id>
17

>  <protonation_id>
P10000062

>  <Column 1>
427.457

>  <Column 2>
1.391

>  <Column 3>
4

>  <Column 4>
7

>  <Column 5>
0

>  <Column 6>
-2

$$$$
CC(C)CCn1c2ccc(cc2c(=O)c(c1[O-])C3=NS(=O)(=O)c4ccccc4[N-]3)NCC(=O)[O-]
Actelion Java MolfileCreator 2.0

  0  0  0  0  0  0              0 V3000
M  V30 BEGIN CTAB
M  V30 COUNTS 34 37 0 0 0
M  V30 BEGIN ATOM
M  V30 1 S 10.3923 2.25 0.0 0
M  V30 2 O 11.1423 3.549 0.0 0
M  V30 3 O 9.6423 3.549 0.0 0
M  V30 4 N 9.0932 1.5 0.0 0
M  V30 5 C 11.6913 1.5 0.0 0
M  V30 6 C 9.0932 0.0 0.0 0
M  V30 7 C 11.6913 0.0 0.0 0
M  V30 8 C 12.9903 2.25 0.0 0
M  V30 9 N 10.3923 -0.75 0.0 0 CHG=-1
M  V30 10 C 7.7942 -0.75 0.0 0
M  V30 11 C 12.9903 -0.75 0.0 0
M  V30 12 C 14.2894 1.5 0.0 0
M  V30 13 C 6.4951 0.0 0.0 0
M  V30 14 C 7.7942 -2.25 0.0 0
M  V30 15 C 14.2894 0.0 0.0 0
M  V30 16 O 6.4951 1.5 0.0 0 CHG=-1
M  V30 17 N 5.1961 -0.75 0.0 0
M  V30 18 O 9.0932 -3.0 0.0 0
M  V30 19 C 6.4951 -3.0 0.0 0
M  V30 20 C 5.1961 -2.25 0.0 0
M  V30 21 C 3.8971 0.0 0.0 0
M  V30 22 C 6.4951 -4.5 0.0 0
M  V30 23 C 3.8971 -3.0 0.0 0
M  V30 24 C 2.598 -0.75 0.0 0
M  V30 25 C 5.1961 -5.25 0.0 0
M  V30 26 C 3.8971 -4.5 0.0 0
M  V30 27 C 1.299 0.0 0.0 0
M  V30 28 N 5.1961 -6.75 0.0 0
M  V30 29 C 1.299 1.5 0.0 0
M  V30 30 C 0.0 -0.75 0.0 0
M  V30 31 C 6.4951 -7.5 0.0 0
M  V30 32 C 6.4951 -9.0 0.0 0
M  V30 33 O 5.1961 -9.75 0.0 0
M  V30 34 O 7.7942 -9.75 0.0 0 CHG=-1
M  V30 END ATOM
M  V30 BEGIN BOND
M  V30 1 2 1 2
M  V30 2 2 1 3
M  V30 3 1 1 4
M  V30 4 1 1 5
M  V30 5 2 4 6
M  V30 6 2 5 7
M  V30 7 1 5 8
M  V30 8 1 6 9
M  V30 9 1 6 10
M  V30 10 1 7 11
M  V30 11 2 8 12
M  V30 12 2 10 13
M  V30 13 1 10 14
M  V30 14 2 11 15
M  V30 15 1 13 16
M  V30 16 1 13 17
M  V30 17 2 14 18
M  V30 18 1 14 19
M  V30 19 1 17 20
M  V30 20 1 17 21
M  V30 21 1 19 22
M  V30 22 1 20 23
M  V30 23 1 21 24
M  V30 24 2 22 25
M  V30 25 2 23 26
M  V30 26 1 24 27
M  V30 27 1 25 28
M  V30 28 1 27 29
M  V30 29 1 27 30
M  V30 30 1 28 31
M  V30 31 1 31 32
M  V30 32 2 32 33
M  V30 33 1 32 34
M  V30 34 1 7 9
M  V30 35 1 12 15
M  V30 36 2 19 20
M  V30 37 1 25 26
M  V30 END BOND
M  V30 END CTAB
M  END
>  <ligand SMILES>
CC(C)CCn1c2ccc(cc2c(=O)c(c1[O-])C3=NS(=O)(=O)c4ccccc4[N-]3)NCC(=O)[O-]

>  <input_id>
18

>  <protonation_id>
P10000065

>  <Column 1>
481.51

>  <Column 2>
0.391

>  <Column 3>
7

>  <Column 4>
10

>  <Column 5>
1

>  <Column 6>
-3

$$$$
CC(C)(C)CCn1c2ccccc2c(=O)c(c1[O-])C3=NS(=O)(=O)c4ccccc4[N-]3
Actelion Java MolfileCreator 2.0

  0  0  0  0  0  0              0 V3000
M  V30 BEGIN CTAB
M  V30 COUNTS 30 33 0 0 0
M  V30 BEGIN ATOM
M  V30 1 S 3.8971 6.0 0.0 0
M  V30 2 O 3.1471 7.299 0.0 0
M  V30 3 O 2.3971 5.9999 0.0 0
M  V30 4 N 3.8971 4.5 0.0 0
M  V30 5 C 5.1961 6.75 0.0 0
M  V30 6 C 5.1961 3.75 0.0 0
M  V30 7 C 6.4951 6.0 0.0 0
M  V30 8 C 5.1961 8.25 0.0 0
M  V30 9 N 6.4951 4.5 0.0 0 CHG=-1
M  V30 10 C 5.1961 2.25 0.0 0
M  V30 11 C 7.7942 6.75 0.0 0
M  V30 12 C 6.4951 9.0 0.0 0
M  V30 13 C 3.8971 1.5 0.0 0
M  V30 14 C 6.4951 1.5 0.0 0
M  V30 15 C 7.7942 8.25 0.0 0
M  V30 16 O 2.598 2.25 0.0 0 CHG=-1
M  V30 17 N 3.8971 0.0 0.0 0
M  V30 18 O 7.7942 2.25 0.0 0
M  V30 19 C 6.4951 0.0 0.0 0
M  V30 20 C 5.1961 -0.75 0.0 0
M  V30 21 C 2.598 -0.75 0.0 0
M  V30 22 C 7.7942 -0.75 0.0 0
M  V30 23 C 5.1961 -2.25 0.0 0
M  V30 24 C 1.299 0.0 0.0 0
M  V30 25 C 7.7942 -2.25 0.0 0
M  V30 26 C 6.4951 -3.0 0.0 0
M  V30 27 C 0.0 -0.75 0.0 0
M  V30 28 C 0.75 -2.049 0.0 0
M  V30 29 C -1.299 -1.5 0.0 0
M  V30 30 C -0.75 0.549 0.0 0
M  V30 END ATOM
M  V30 BEGIN BOND
M  V30 1 2 1 2
M  V30 2 2 1 3
M  V30 3 1 1 4
M  V30 4 1 1 5
M  V30 5 2 4 6
M  V30 6 2 5 7
M  V30 7 1 5 8
M  V30 8 1 6 9
M  V30 9 1 6 10
M  V30 10 1 7 11
M  V30 11 2 8 12
M  V30 12 2 10 13
M  V30 13 1 10 14
M  V30 14 2 11 15
M  V30 15 1 13 16
M  V30 16 1 13 17
M  V30 17 2 14 18
M  V30 18 1 14 19
M  V30 19 1 17 20
M  V30 20 1 17 21
M  V30 21 1 19 22
M  V30 22 1 20 23
M  V30 23 1 21 24
M  V30 24 2 22 25
M  V30 25 2 23 26
M  V30 26 1 24 27
M  V30 27 1 27 28
M  V30 28 1 27 29
M  V30 29 1 27 30
M  V30 30 1 7 9
M  V30 31 1 12 15
M  V30 32 2 19 20
M  V30 33 1 25 26
M  V30 END BOND
M  V30 END CTAB
M  END
>  <ligand SMILES>
CC(C)(C)CCn1c2ccccc2c(=O)c(c1[O-])C3=NS(=O)(=O)c4ccccc4[N-]3

>  <input_id>
19

>  <protonation_id>
P10000064

>  <Column 1>
423.494

>  <Column 2>
2.545

>  <Column 3>
4

>  <Column 4>
7

>  <Column 5>
0

>  <Column 6>
-2

$$$$
CC(C)CCn1c2ccc(cc2c(=O)c(c1[O-])C3=NS(=O)(=O)c4ccccc4[N-]3)OC
Actelion Java MolfileCreator 2.0

  0  0  0  0  0  0              0 V3000
M  V30 BEGIN CTAB
M  V30 COUNTS 31 34 0 0 0
M  V30 BEGIN ATOM
M  V30 1 S 10.3923 2.25 0.0 0
M  V30 2 O 11.1423 3.549 0.0 0
M  V30 3 O 9.6423 3.549 0.0 0
M  V30 4 N 9.0932 1.5 0.0 0
M  V30 5 C 11.6913 1.5 0.0 0
M  V30 6 C 9.0932 0.0 0.0 0
M  V30 7 C 11.6913 0.0 0.0 0
M  V30 8 C 12.9903 2.25 0.0 0
M  V30 9 N 10.3923 -0.75 0.0 0 CHG=-1
M  V30 10 C 7.7942 -0.75 0.0 0
M  V30 11 C 12.9903 -0.75 0.0 0
M  V30 12 C 14.2894 1.5 0.0 0
M  V30 13 C 6.4951 0.0 0.0 0
M  V30 14 C 7.7942 -2.25 0.0 0
M  V30 15 C 14.2894 0.0 0.0 0
M  V30 16 O 6.4951 1.5 0.0 0 CHG=-1
M  V30 17 N 5.1961 -0.75 0.0 0
M  V30 18 O 9.0932 -3.0 0.0 0
M  V30 19 C 6.4951 -3.0 0.0 0
M  V30 20 C 5.1961 -2.25 0.0 0
M  V30 21 C 3.8971 0.0 0.0 0
M  V30 22 C 6.4951 -4.5 0.0 0
M  V30 23 C 3.8971 -3.0 0.0 0
M  V30 24 C 2.598 -0.75 0.0 0
M  V30 25 C 5.1961 -5.25 0.0 0
M  V30 26 C 3.8971 -4.5 0.0 0
M  V30 27 C 1.299 0.0 0.0 0
M  V30 28 O 5.1961 -6.75 0.0 0
M  V30 29 C 1.299 1.5 0.0 0
M  V30 30 C 0.0 -0.75 0.0 0
M  V30 31 C 6.4951 -7.5 0.0 0
M  V30 END ATOM
M  V30 BEGIN BOND
M  V30 1 2 1 2
M  V30 2 2 1 3
M  V30 3 1 1 4
M  V30 4 1 1 5
M  V30 5 2 4 6
M  V30 6 2 5 7
M  V30 7 1 5 8
M  V30 8 1 6 9
M  V30 9 1 6 10
M  V30 10 1 7 11
M  V30 11 2 8 12
M  V30 12 2 10 13
M  V30 13 1 10 14
M  V30 14 2 11 15
M  V30 15 1 13 16
M  V30 16 1 13 17
M  V30 17 2 14 18
M  V30 18 1 14 19
M  V30 19 1 17 20
M  V30 20 1 17 21
M  V30 21 1 19 22
M  V30 22 1 20 23
M  V30 23 1 21 24
M  V30 24 2 22 25
M  V30 25 2 23 26
M  V30 26 1 24 27
M  V30 27 1 25 28
M  V30 28 1 27 29
M  V30 29 1 27 30
M  V30 30 1 28 31
M  V30 31 1 7 9
M  V30 32 1 12 15
M  V30 33 2 19 20
M  V30 34 1 25 26
M  V30 END BOND
M  V30 END CTAB
M  END
>  <ligand SMILES>
CC(C)CCn1c2ccc(cc2c(=O)c(c1[O-])C3=NS(=O)(=O)c4ccccc4[N-]3)OC

>  <input_id>
20

>  <protonation_id>
P10000010

>  <Column 1>
439.493

>  <Column 2>
2.257

>  <Column 3>
5

>  <Column 4>
8

>  <Column 5>
0

>  <Column 6>
-2

$$$$
CC(C)CCn1c2ccc(cc2c(=O)c(c1[O-])C3=NS(=O)(=O)c4ccccc4[N-]3)OCC(=O)N
Actelion Java MolfileCreator 2.0

  0  0  0  0  0  0              0 V3000
M  V30 BEGIN CTAB
M  V30 COUNTS 34 37 0 0 0
M  V30 BEGIN ATOM
M  V30 1 S 10.3923 2.25 0.0 0
M  V30 2 O 11.1423 3.549 0.0 0
M  V30 3 O 9.6423 3.549 0.0 0
M  V30 4 N 9.0932 1.5 0.0 0
M  V30 5 C 11.6913 1.5 0.0 0
M  V30 6 C 9.0932 0.0 0.0 0
M  V30 7 C 11.6913 0.0 0.0 0
M  V30 8 C 12.9903 2.25 0.0 0
M  V30 9 N 10.3923 -0.75 0.0 0 CHG=-1
M  V30 10 C 7.7942 -0.75 0.0 0
M  V30 11 C 12.9903 -0.75 0.0 0
M  V30 12 C 14.2894 1.5 0.0 0
M  V30 13 C 6.4951 0.0 0.0 0
M  V30 14 C 7.7942 -2.25 0.0 0
M  V30 15 C 14.2894 0.0 0.0 0
M  V30 16 O 6.4951 1.5 0.0 0 CHG=-1
M  V30 17 N 5.1961 -0.75 0.0 0
M  V30 18 O 9.0932 -3.0 0.0 0
M  V30 19 C 6.4951 -3.0 0.0 0
M  V30 20 C 5.1961 -2.25 0.0 0
M  V30 21 C 3.8971 0.0 0.0 0
M  V30 22 C 6.4951 -4.5 0.0 0
M  V30 23 C 3.8971 -3.0 0.0 0
M  V30 24 C 2.598 -0.75 0.0 0
M  V30 25 C 5.1961 -5.25 0.0 0
M  V30 26 C 3.8971 -4.5 0.0 0
M  V30 27 C 1.299 0.0 0.0 0
M  V30 28 O 5.1961 -6.75 0.0 0
M  V30 29 C 1.299 1.5 0.0 0
M  V30 30 C 0.0 -0.75 0.0 0
M  V30 31 C 6.4951 -7.5 0.0 0
M  V30 32 C 6.4951 -9.0 0.0 0
M  V30 33 O 5.1961 -9.75 0.0 0
M  V30 34 N 7.7942 -9.75 0.0 0
M  V30 END ATOM
M  V30 BEGIN BOND
M  V30 1 2 1 2
M  V30 2 2 1 3
M  V30 3 1 1 4
M  V30 4 1 1 5
M  V30 5 2 4 6
M  V30 6 2 5 7
M  V30 7 1 5 8
M  V30 8 1 6 9
M  V30 9 1 6 10
M  V30 10 1 7 11
M  V30 11 2 8 12
M  V30 12 2 10 13
M  V30 13 1 10 14
M  V30 14 2 11 15
M  V30 15 1 13 16
M  V30 16 1 13 17
M  V30 17 2 14 18
M  V30 18 1 14 19
M  V30 19 1 17 20
M  V30 20 1 17 21
M  V30 21 1 19 22
M  V30 22 1 20 23
M  V30 23 1 21 24
M  V30 24 2 22 25
M  V30 25 2 23 26
M  V30 26 1 24 27
M  V30 27 1 25 28
M  V30 28 1 27 29
M  V30 29 1 27 30
M  V30 30 1 28 31
M  V30 31 1 31 32
M  V30 32 2 32 33
M  V30 33 1 32 34
M  V30 34 1 7 9
M  V30 35 1 12 15
M  V30 36 2 19 20
M  V30 37 1 25 26
M  V30 END BOND
M  V30 END CTAB
M  END
>  <ligand SMILES>
CC(C)CCn1c2ccc(cc2c(=O)c(c1[O-])C3=NS(=O)(=O)c4ccccc4[N-]3)OCC(=O)N

>  <input_id>
21

>  <protonation_id>
P10000011

>  <Column 1>
482.518

>  <Column 2>
0.989

>  <Column 3>
7

>  <Column 4>
10

>  <Column 5>
2

>  <Column 6>
-2

$$$$
c1ccc2c(c1)c(=O)c(c(n2Cc3ccoc3)[O-])C4=NS(=O)(=O)c5ccccc5[N-]4
Actelion Java MolfileCreator 2.0

  0  0  0  0  0  0              0 V3000
M  V30 BEGIN CTAB
M  V30 COUNTS 30 34 0 0 0
M  V30 BEGIN ATOM
M  V30 1 S 7.7942 2.25 0.0 0
M  V30 2 O 8.5442 3.549 0.0 0
M  V30 3 O 7.0442 3.549 0.0 0
M  V30 4 N 6.4951 1.5 0.0 0
M  V30 5 C 9.0932 1.5 0.0 0
M  V30 6 C 6.4951 0.0 0.0 0
M  V30 7 C 9.0932 0.0 0.0 0
M  V30 8 C 10.3923 2.25 0.0 0
M  V30 9 N 7.7942 -0.75 0.0 0 CHG=-1
M  V30 10 C 5.1961 -0.75 0.0 0
M  V30 11 C 10.3923 -0.75 0.0 0
M  V30 12 C 11.6913 1.5 0.0 0
M  V30 13 C 3.8971 0.0 0.0 0
M  V30 14 C 5.1961 -2.25 0.0 0
M  V30 15 C 11.6913 0.0 0.0 0
M  V30 16 O 3.8971 1.5 0.0 0 CHG=-1
M  V30 17 N 2.598 -0.75 0.0 0
M  V30 18 O 6.4951 -3.0 0.0 0
M  V30 19 C 3.8971 -3.0 0.0 0
M  V30 20 C 2.598 -2.25 0.0 0
M  V30 21 C 1.299 0.0 0.0 0
M  V30 22 C 3.8971 -4.5 0.0 0
M  V30 23 C 1.299 -3.0 0.0 0
M  V30 24 C 0.0 -0.75 0.0 0
M  V30 25 C 2.598 -5.25 0.0 0
M  V30 26 C 1.299 -4.5 0.0 0
M  V30 27 C -1.3703 -0.1398 0.0 0
M  V30 28 C -0.1567 -2.2417 0.0 0
M  V30 29 O -2.374 -1.2546 0.0 0
M  V30 30 C -1.624 -2.5536 0.0 0
M  V30 END ATOM
M  V30 BEGIN BOND
M  V30 1 2 1 2
M  V30 2 2 1 3
M  V30 3 1 1 4
M  V30 4 1 1 5
M  V30 5 2 4 6
M  V30 6 2 5 7
M  V30 7 1 5 8
M  V30 8 1 6 9
M  V30 9 1 6 10
M  V30 10 1 7 11
M  V30 11 2 8 12
M  V30 12 2 10 13
M  V30 13 1 10 14
M  V30 14 2 11 15
M  V30 15 1 13 16
M  V30 16 1 13 17
M  V30 17 2 14 18
M  V30 18 1 14 19
M  V30 19 1 17 20
M  V30 20 1 17 21
M  V30 21 1 19 22
M  V30 22 1 20 23
M  V30 23 1 21 24
M  V30 24 2 22 25
M  V30 25 2 23 26
M  V30 26 2 24 27
M  V30 27 1 24 28
M  V30 28 1 27 29
M  V30 29 2 28 30
M  V30 30 1 7 9
M  V30 31 1 12 15
M  V30 32 2 19 20
M  V30 33 1 25 26
M  V30 34 1 29 30
M  V30 END BOND
M  V30 END CTAB
M  END
>  <ligand SMILES>
c1ccc2c(c1)c(=O)c(c(n2Cc3ccoc3)[O-])C4=NS(=O)(=O)c5ccccc5[N-]4

>  <input_id>
22

>  <protonation_id>
P10000012

>  <Column 1>
419.418

>  <Column 2>
1.113

>  <Column 3>
3

>  <Column 4>
8

>  <Column 5>
0

>  <Column 6>
-2

$$$$
C[NH+](C)CC[N@]1CCn2c3cc(ccc3c(c2-c4ccccc4C1)C5CCCCC5)C(=O)[O-]
Actelion Java MolfileCreator 2.0

  0  0  0  0  0  0              0 V3000
M  V30 BEGIN CTAB
M  V30 COUNTS 33 37 0 0 0
M  V30 BEGIN ATOM
M  V30 1 O 9.8852 1.02 0.0 0
M  V30 2 C 8.8855 1.0462 0.0 0
M  V30 3 O 8.4084 1.925 0.0 0
M  V30 4 C 8.363 0.1935 0.0 0
M  V30 5 C 7.3634 0.2197 0.0 0
M  V30 6 C 8.8402 -0.6852 0.0 0
M  V30 7 C 6.8409 -0.6328 0.0 0
M  V30 8 C 8.3177 -1.5378 0.0 0
M  V30 9 N 5.8576 -0.8151 0.0 0
M  V30 10 C 7.318 -1.5116 0.0 0
M  V30 11 C 5.7271 -1.8065 0.0 0
M  V30 12 C 5.2488 -0.0217 0.0 0
M  V30 13 C 6.6297 -2.237 0.0 0
M  V30 14 C 4.9337 -2.4153 0.0 0
M  V30 15 C 4.2574 0.1087 0.0 0
M  V30 16 C 6.8119 -3.2203 0.0 0
M  V30 17 C 3.9423 -2.2847 0.0 0
M  V30 18 C 5.3164 -3.3392 0.0 0
M  V30 19 N 3.4641 -0.5 0.0 0
M  V30 20 C 6.0515 -3.8697 0.0 0
M  V30 21 C 7.7545 -3.5541 0.0 0
M  V30 22 C 3.3335 -3.0781 0.0 0
M  V30 23 C 3.3335 -1.4914 0.0 0
M  V30 24 C 4.7077 -4.1325 0.0 0
M  V30 25 C 2.598 0.0 0.0 0
M  V30 26 C 6.2337 -4.853 0.0 0
M  V30 27 C 7.9368 -4.5373 0.0 0
M  V30 28 C 3.7162 -4.002 0.0 0
M  V30 29 C 1.732 -0.5 0.0 0
M  V30 30 C 7.1764 -5.1868 0.0 0
M  V30 31 N 0.866 0.0 0.0 0
M  V30 32 C 0.866 1.0 0.0 0
M  V30 33 C 0.0 -0.5 0.0 0
M  V30 END ATOM
M  V30 BEGIN BOND
M  V30 1 2 1 2
M  V30 2 1 2 3
M  V30 3 1 2 4
M  V30 4 2 4 5
M  V30 5 1 4 6
M  V30 6 1 5 7
M  V30 7 2 6 8
M  V30 8 1 7 9
M  V30 9 2 7 10
M  V30 10 1 9 11
M  V30 11 1 9 12
M  V30 12 1 10 13
M  V30 13 1 11 14
M  V30 14 1 12 15
M  V30 15 1 13 16
M  V30 16 2 14 17
M  V30 17 1 14 18
M  V30 18 1 15 19
M  V30 19 1 16 20
M  V30 20 1 16 21
M  V30 21 1 17 22
M  V30 22 1 17 23
M  V30 23 2 18 24
M  V30 24 1 19 25
M  V30 25 1 20 26
M  V30 26 1 21 27
M  V30 27 2 22 28
M  V30 28 1 25 29
M  V30 29 1 26 30
M  V30 30 1 29 31
M  V30 31 1 31 32
M  V30 32 1 31 33
M  V30 33 1 8 10
M  V30 34 2 11 13
M  V30 35 1 19 23
M  V30 36 1 24 28
M  V30 37 1 27 30
M  V30 END BOND
M  V30 END CTAB
M  END
>  <ligand SMILES>
C[NH+](C)CC[N@]1CCn2c3cc(ccc3c(c2-c4ccccc4C1)C5CCCCC5)C(=O)[O-]

>  <input_id>
23

>  <protonation_id>
P10000014

>  <Column 1>
445.607

>  <Column 2>
5.25

>  <Column 3>
5

>  <Column 4>
5

>  <Column 5>
1

>  <Column 6>
0

$$$$
CC(C)CCn1c2ccccc2c(=O)c(c1[O-])C3=NS(=O)(=O)c4ccccc4[N-]3
Actelion Java MolfileCreator 2.0

  0  0  0  0  0  0              0 V3000
M  V30 BEGIN CTAB
M  V30 COUNTS 29 32 0 0 0
M  V30 BEGIN ATOM
M  V30 1 S 10.3923 2.25 0.0 0
M  V30 2 O 11.1423 3.549 0.0 0
M  V30 3 O 9.6423 3.549 0.0 0
M  V30 4 N 9.0932 1.5 0.0 0
M  V30 5 C 11.6913 1.5 0.0 0
M  V30 6 C 9.0932 0.0 0.0 0
M  V30 7 C 11.6913 0.0 0.0 0
M  V30 8 C 12.9903 2.25 0.0 0
M  V30 9 N 10.3923 -0.75 0.0 0 CHG=-1
M  V30 10 C 7.7942 -0.75 0.0 0
M  V30 11 C 12.9903 -0.75 0.0 0
M  V30 12 C 14.2894 1.5 0.0 0
M  V30 13 C 6.4951 0.0 0.0 0
M  V30 14 C 7.7942 -2.25 0.0 0
M  V30 15 C 14.2894 0.0 0.0 0
M  V30 16 O 6.4951 1.5 0.0 0 CHG=-1
M  V30 17 N 5.1961 -0.75 0.0 0
M  V30 18 O 9.0932 -3.0 0.0 0
M  V30 19 C 6.4951 -3.0 0.0 0
M  V30 20 C 5.1961 -2.25 0.0 0
M  V30 21 C 3.8971 0.0 0.0 0
M  V30 22 C 6.4951 -4.5 0.0 0
M  V30 23 C 3.8971 -3.0 0.0 0
M  V30 24 C 2.598 -0.75 0.0 0
M  V30 25 C 5.1961 -5.25 0.0 0
M  V30 26 C 3.8971 -4.5 0.0 0
M  V30 27 C 1.299 0.0 0.0 0
M  V30 28 C 1.299 1.5 0.0 0
M  V30 29 C 0.0 -0.75 0.0 0
M  V30 END ATOM
M  V30 BEGIN BOND
M  V30 1 2 1 2
M  V30 2 2 1 3
M  V30 3 1 1 4
M  V30 4 1 1 5
M  V30 5 2 4 6
M  V30 6 2 5 7
M  V30 7 1 5 8
M  V30 8 1 6 9
M  V30 9 1 6 10
M  V30 10 1 7 11
M  V30 11 2 8 12
M  V30 12 2 10 13
M  V30 13 1 10 14
M  V30 14 2 11 15
M  V30 15 1 13 16
M  V30 16 1 13 17
M  V30 17 2 14 18
M  V30 18 1 14 19
M  V30 19 1 17 20
M  V30 20 1 17 21
M  V30 21 1 19 22
M  V30 22 1 20 23
M  V30 23 1 21 24
M  V30 24 2 22 25
M  V30 25 2 23 26
M  V30 26 1 24 27
M  V30 27 1 27 28
M  V30 28 1 27 29
M  V30 29 1 7 9
M  V30 30 1 12 15
M  V30 31 2 19 20
M  V30 32 1 25 26
M  V30 END BOND
M  V30 END CTAB
M  END
>  <ligand SMILES>
CC(C)CCn1c2ccccc2c(=O)c(c1[O-])C3=NS(=O)(=O)c4ccccc4[N-]3

>  <input_id>
24

>  <protonation_id>
P10000006

>  <Column 1>
409.467

>  <Column 2>
2.224

>  <Column 3>
4

>  <Column 4>
7

>  <Column 5>
0

>  <Column 6>
-2

$$$$
c1ccc2c(c1)[N-]C(=NS2(=O)=O)c3c(=O)c4cc(ccc4n(c3[O-])CCC5CC5)N
Actelion Java MolfileCreator 2.0

  0  0  0  0  0  0              0 V3000
M  V30 BEGIN CTAB
M  V30 COUNTS 30 34 0 0 0
M  V30 BEGIN ATOM
M  V30 1 S 3.8971 6.0 0.0 0
M  V30 2 O 3.1471 7.299 0.0 0
M  V30 3 O 2.3971 5.9999 0.0 0
M  V30 4 N 3.8971 4.5 0.0 0
M  V30 5 C 5.1961 6.75 0.0 0
M  V30 6 C 5.1961 3.75 0.0 0
M  V30 7 C 6.4951 6.0 0.0 0
M  V30 8 C 5.1961 8.25 0.0 0
M  V30 9 N 6.4951 4.5 0.0 0 CHG=-1
M  V30 10 C 5.1961 2.25 0.0 0
M  V30 11 C 7.7942 6.75 0.0 0
M  V30 12 C 6.4951 9.0 0.0 0
M  V30 13 C 3.8971 1.5 0.0 0
M  V30 14 C 6.4951 1.5 0.0 0
M  V30 15 C 7.7942 8.25 0.0 0
M  V30 16 O 2.598 2.25 0.0 0 CHG=-1
M  V30 17 N 3.8971 0.0 0.0 0
M  V30 18 O 7.7942 2.25 0.0 0
M  V30 19 C 6.4951 0.0 0.0 0
M  V30 20 C 5.1961 -0.75 0.0 0
M  V30 21 C 2.598 -0.75 0.0 0
M  V30 22 C 7.7942 -0.75 0.0 0
M  V30 23 C 5.1961 -2.25 0.0 0
M  V30 24 C 1.299 0.0 0.0 0
M  V30 25 C 7.7942 -2.25 0.0 0
M  V30 26 C 6.4951 -3.0 0.0 0
M  V30 27 C 0.0 -0.75 0.0 0
M  V30 28 N 9.0932 -3.0 0.0 0
M  V30 29 C -1.5 -0.75 0.0 0
M  V30 30 C -0.75 -2.049 0.0 0
M  V30 END ATOM
M  V30 BEGIN BOND
M  V30 1 2 1 2
M  V30 2 2 1 3
M  V30 3 1 1 4
M  V30 4 1 1 5
M  V30 5 2 4 6
M  V30 6 2 5 7
M  V30 7 1 5 8
M  V30 8 1 6 9
M  V30 9 1 6 10
M  V30 10 1 7 11
M  V30 11 2 8 12
M  V30 12 2 10 13
M  V30 13 1 10 14
M  V30 14 2 11 15
M  V30 15 1 13 16
M  V30 16 1 13 17
M  V30 17 2 14 18
M  V30 18 1 14 19
M  V30 19 1 17 20
M  V30 20 1 17 21
M  V30 21 1 19 22
M  V30 22 1 20 23
M  V30 23 1 21 24
M  V30 24 2 22 25
M  V30 25 2 23 26
M  V30 26 1 24 27
M  V30 27 1 25 28
M  V30 28 1 27 29
M  V30 29 1 27 30
M  V30 30 1 7 9
M  V30 31 1 12 15
M  V30 32 2 19 20
M  V30 33 1 25 26
M  V30 34 1 29 30
M  V30 END BOND
M  V30 END CTAB
M  END
>  <ligand SMILES>
c1ccc2c(c1)[N-]C(=NS2(=O)=O)c3c(=O)c4cc(ccc4n(c3[O-])CCC5CC5)N

>  <input_id>
25

>  <protonation_id>
P10000007

>  <Column 1>
422.466

>  <Column 2>
0.764

>  <Column 3>
4

>  <Column 4>
8

>  <Column 5>
2

>  <Column 6>
-2

$$$$
CC(C)CCn1c2cccc(c2c(=O)c(c1[O-])C3=NS(=O)(=O)c4ccccc4[N-]3)Cl
Actelion Java MolfileCreator 2.0

  0  0  0  0  0  0              0 V3000
M  V30 BEGIN CTAB
M  V30 COUNTS 30 33 0 0 0
M  V30 BEGIN ATOM
M  V30 1 Cl 7.7942 -5.25 0.0 0
M  V30 2 C 6.4951 -4.5 0.0 0
M  V30 3 C 6.4951 -3.0 0.0 0
M  V30 4 C 5.1961 -5.25 0.0 0
M  V30 5 C 7.7942 -2.25 0.0 0
M  V30 6 C 5.1961 -2.25 0.0 0
M  V30 7 C 3.8971 -4.5 0.0 0
M  V30 8 O 9.0932 -3.0 0.0 0
M  V30 9 C 7.7942 -0.75 0.0 0
M  V30 10 N 5.1961 -0.75 0.0 0
M  V30 11 C 3.8971 -3.0 0.0 0
M  V30 12 C 6.4951 0.0 0.0 0
M  V30 13 C 9.0932 0.0 0.0 0
M  V30 14 C 3.8971 0.0 0.0 0
M  V30 15 O 6.4951 1.5 0.0 0 CHG=-1
M  V30 16 N 10.3923 -0.75 0.0 0
M  V30 17 N 9.0932 1.5 0.0 0 CHG=-1
M  V30 18 C 2.598 -0.75 0.0 0
M  V30 19 S 11.6913 0.0 0.0 0
M  V30 20 C 10.3923 2.25 0.0 0
M  V30 21 C 1.299 0.0 0.0 0
M  V30 22 O 12.4413 -1.299 0.0 0
M  V30 23 O 13.1913 0.0 0.0 0
M  V30 24 C 11.6913 1.5 0.0 0
M  V30 25 C 10.3923 3.75 0.0 0
M  V30 26 C 1.299 1.5 0.0 0
M  V30 27 C 0.0 -0.75 0.0 0
M  V30 28 C 12.9903 2.25 0.0 0
M  V30 29 C 11.6913 4.5 0.0 0
M  V30 30 C 12.9903 3.75 0.0 0
M  V30 END ATOM
M  V30 BEGIN BOND
M  V30 1 1 1 2
M  V30 2 2 2 3
M  V30 3 1 2 4
M  V30 4 1 3 5
M  V30 5 1 3 6
M  V30 6 2 4 7
M  V30 7 2 5 8
M  V30 8 1 5 9
M  V30 9 1 6 10
M  V30 10 2 6 11
M  V30 11 2 9 12
M  V30 12 1 9 13
M  V30 13 1 10 14
M  V30 14 1 12 15
M  V30 15 2 13 16
M  V30 16 1 13 17
M  V30 17 1 14 18
M  V30 18 1 16 19
M  V30 19 1 17 20
M  V30 20 1 18 21
M  V30 21 2 19 22
M  V30 22 2 19 23
M  V30 23 1 19 24
M  V30 24 1 20 25
M  V30 25 1 21 26
M  V30 26 1 21 27
M  V30 27 1 24 28
M  V30 28 2 25 29
M  V30 29 2 28 30
M  V30 30 1 7 11
M  V30 31 1 10 12
M  V30 32 2 20 24
M  V30 33 1 29 30
M  V30 END BOND
M  V30 END CTAB
M  END
>  <ligand SMILES>
CC(C)CCn1c2cccc(c2c(=O)c(c1[O-])C3=NS(=O)(=O)c4ccccc4[N-]3)Cl

>  <input_id>
26

>  <protonation_id>
P10000008

>  <Column 1>
443.912

>  <Column 2>
3.698

>  <Column 3>
4

>  <Column 4>
7

>  <Column 5>
0

>  <Column 6>
-2

$$$$
CC(C)CCn1c2ccc(cc2c(=O)c(c1[O-])C3=NS(=O)(=O)c4ccccc4[N-]3)OCC#N
Actelion Java MolfileCreator 2.0

  0  0  0  0  0  0              0 V3000
M  V30 BEGIN CTAB
M  V30 COUNTS 33 36 0 0 0
M  V30 BEGIN ATOM
M  V30 1 S 10.3923 2.25 0.0 0
M  V30 2 O 11.1423 3.549 0.0 0
M  V30 3 O 9.6423 3.549 0.0 0
M  V30 4 N 9.0932 1.5 0.0 0
M  V30 5 C 11.6913 1.5 0.0 0
M  V30 6 C 9.0932 0.0 0.0 0
M  V30 7 C 11.6913 0.0 0.0 0
M  V30 8 C 12.9903 2.25 0.0 0
M  V30 9 N 10.3923 -0.75 0.0 0 CHG=-1
M  V30 10 C 7.7942 -0.75 0.0 0
M  V30 11 C 12.9903 -0.75 0.0 0
M  V30 12 C 14.2894 1.5 0.0 0
M  V30 13 C 6.4951 0.0 0.0 0
M  V30 14 C 7.7942 -2.25 0.0 0
M  V30 15 C 14.2894 0.0 0.0 0
M  V30 16 O 6.4951 1.5 0.0 0 CHG=-1
M  V30 17 N 5.1961 -0.75 0.0 0
M  V30 18 O 9.0932 -3.0 0.0 0
M  V30 19 C 6.4951 -3.0 0.0 0
M  V30 20 C 5.1961 -2.25 0.0 0
M  V30 21 C 3.8971 0.0 0.0 0
M  V30 22 C 6.4951 -4.5 0.0 0
M  V30 23 C 3.8971 -3.0 0.0 0
M  V30 24 C 2.598 -0.75 0.0 0
M  V30 25 C 5.1961 -5.25 0.0 0
M  V30 26 C 3.8971 -4.5 0.0 0
M  V30 27 C 1.299 0.0 0.0 0
M  V30 28 O 5.1961 -6.75 0.0 0
M  V30 29 C 1.299 1.5 0.0 0
M  V30 30 C 0.0 -0.75 0.0 0
M  V30 31 C 6.4951 -7.5 0.0 0
M  V30 32 C 7.7942 -6.75 0.0 0
M  V30 33 N 9.0932 -6.0 0.0 0
M  V30 END ATOM
M  V30 BEGIN BOND
M  V30 1 2 1 2
M  V30 2 2 1 3
M  V30 3 1 1 4
M  V30 4 1 1 5
M  V30 5 2 4 6
M  V30 6 2 5 7
M  V30 7 1 5 8
M  V30 8 1 6 9
M  V30 9 1 6 10
M  V30 10 1 7 11
M  V30 11 2 8 12
M  V30 12 2 10 13
M  V30 13 1 10 14
M  V30 14 2 11 15
M  V30 15 1 13 16
M  V30 16 1 13 17
M  V30 17 2 14 18
M  V30 18 1 14 19
M  V30 19 1 17 20
M  V30 20 1 17 21
M  V30 21 1 19 22
M  V30 22 1 20 23
M  V30 23 1 21 24
M  V30 24 2 22 25
M  V30 25 2 23 26
M  V30 26 1 24 27
M  V30 27 1 25 28
M  V30 28 1 27 29
M  V30 29 1 27 30
M  V30 30 1 28 31
M  V30 31 1 31 32
M  V30 32 3 32 33
M  V30 33 1 7 9
M  V30 34 1 12 15
M  V30 35 2 19 20
M  V30 36 1 25 26
M  V30 END BOND
M  V30 END CTAB
M  END
>  <ligand SMILES>
CC(C)CCn1c2ccc(cc2c(=O)c(c1[O-])C3=NS(=O)(=O)c4ccccc4[N-]3)OCC#N

>  <input_id>
27

>  <protonation_id>
P10000009

>  <Column 1>
464.503

>  <Column 2>
2.042

>  <Column 3>
6

>  <Column 4>
9

>  <Column 5>
0

>  <Column 6>
-2

$$$$
c1ccc2c(c1)c(=O)c(c(n2Cc3cccc(c3)Br)[O-])C4=NS(=O)(=O)c5ccccc5[N-]4
Actelion Java MolfileCreator 2.0

  0  0  0  0  0  0              0 V3000
M  V30 BEGIN CTAB
M  V30 COUNTS 32 36 0 0 0
M  V30 BEGIN ATOM
M  V30 1 Br 6.4951 0.0 0.0 0
M  V30 2 C 5.1961 -0.75 0.0 0
M  V30 3 C 3.8971 0.0 0.0 0
M  V30 4 C 5.1961 -2.25 0.0 0
M  V30 5 C 2.598 -0.75 0.0 0
M  V30 6 C 3.8971 -3.0 0.0 0
M  V30 7 C 2.598 -2.25 0.0 0
M  V30 8 C 1.299 0.0 0.0 0
M  V30 9 N 0.0 -0.75 0.0 0
M  V30 10 C -1.299 0.0 0.0 0
M  V30 11 C 0.0 -2.25 0.0 0
M  V30 12 O -1.299 1.5 0.0 0 CHG=-1
M  V30 13 C -2.598 -0.75 0.0 0
M  V30 14 C -1.299 -3.0 0.0 0
M  V30 15 C 1.299 -3.0 0.0 0
M  V30 16 C -3.8971 0.0 0.0 0
M  V30 17 C -2.598 -2.25 0.0 0
M  V30 18 C -1.299 -4.5 0.0 0
M  V30 19 C 1.299 -4.5 0.0 0
M  V30 20 N -3.8971 1.5 0.0 0
M  V30 21 N -5.1961 -0.75 0.0 0 CHG=-1
M  V30 22 O -3.8971 -3.0 0.0 0
M  V30 23 C 0.0 -5.25 0.0 0
M  V30 24 S -5.1961 2.25 0.0 0
M  V30 25 C -6.4951 0.0 0.0 0
M  V30 26 O -4.4461 3.549 0.0 0
M  V30 27 O -5.9461 3.549 0.0 0
M  V30 28 C -6.4951 1.5 0.0 0
M  V30 29 C -7.7942 -0.75 0.0 0
M  V30 30 C -7.7942 2.25 0.0 0
M  V30 31 C -9.0932 0.0 0.0 0
M  V30 32 C -9.0932 1.5 0.0 0
M  V30 END ATOM
M  V30 BEGIN BOND
M  V30 1 1 1 2
M  V30 2 2 2 3
M  V30 3 1 2 4
M  V30 4 1 3 5
M  V30 5 2 4 6
M  V30 6 2 5 7
M  V30 7 1 5 8
M  V30 8 1 8 9
M  V30 9 1 9 10
M  V30 10 1 9 11
M  V30 11 1 10 12
M  V30 12 2 10 13
M  V30 13 2 11 14
M  V30 14 1 11 15
M  V30 15 1 13 16
M  V30 16 1 13 17
M  V30 17 1 14 18
M  V30 18 2 15 19
M  V30 19 2 16 20
M  V30 20 1 16 21
M  V30 21 2 17 22
M  V30 22 2 18 23
M  V30 23 1 20 24
M  V30 24 1 21 25
M  V30 25 2 24 26
M  V30 26 2 24 27
M  V30 27 1 24 28
M  V30 28 1 25 29
M  V30 29 1 28 30
M  V30 30 2 29 31
M  V30 31 2 30 32
M  V30 32 1 6 7
M  V30 33 1 14 17
M  V30 34 1 19 23
M  V30 35 2 25 28
M  V30 36 1 31 32
M  V30 END BOND
M  V30 END CTAB
M  END
>  <ligand SMILES>
c1ccc2c(c1)c(=O)c(c(n2Cc3cccc(c3)Br)[O-])C4=NS(=O)(=O)c5ccccc5[N-]4

>  <input_id>
28

>  <protonation_id>
P10000020

>  <Column 1>
508.353

>  <Column 2>
2.952

>  <Column 3>
3

>  <Column 4>
7

>  <Column 5>
0

>  <Column 6>
-2

$$$$
CS(=O)(=O)[N-]c1cccc(c1)S(=O)(=O)/N=C(/c2c(c3ccc(cc3n2Cc4ccnc(c4)N)Cl)c5ccc[nH]c5=O)\[O-]
Actelion Java MolfileCreator 2.0

  0  0  0  0  0  0              0 V3000
M  V30 BEGIN CTAB
M  V30 COUNTS 42 46 0 0 0
M  V30 BEGIN ATOM
M  V30 1 Cl 11.3201 -2.5536 0.0 0
M  V30 2 C 9.8201 -2.5536 0.0 0
M  V30 3 C 9.0701 -1.2546 0.0 0
M  V30 4 C 9.0701 -3.8526 0.0 0
M  V30 5 C 7.5701 -1.2546 0.0 0
M  V30 6 C 7.5701 -3.8526 0.0 0
M  V30 7 N 6.5664 -0.1398 0.0 0
M  V30 8 C 6.8201 -2.5536 0.0 0
M  V30 9 C 5.1961 -0.75 0.0 0
M  V30 10 C 6.8783 1.3273 0.0 0
M  V30 11 C 5.3529 -2.2417 0.0 0
M  V30 12 C 3.8971 0.0 0.0 0
M  V30 13 C 8.3049 1.7908 0.0 0
M  V30 14 C 4.2382 -3.2454 0.0 0
M  V30 15 O 3.8971 1.5 0.0 0 CHG=-1
M  V30 16 N 2.598 -0.75 0.0 0
M  V30 17 C 9.4196 0.7871 0.0 0
M  V30 18 C 8.6167 3.258 0.0 0
M  V30 19 C 4.55 -4.7127 0.0 0
M  V30 20 C 2.8116 -2.7819 0.0 0
M  V30 21 S 1.299 0.0 0.0 0
M  V30 22 C 10.8462 1.2506 0.0 0
M  V30 23 C 10.0433 3.7216 0.0 0
M  V30 24 O 5.9766 -5.1762 0.0 0
M  V30 25 N 3.4353 -5.7164 0.0 0
M  V30 26 C 1.6969 -3.7856 0.0 0
M  V30 27 O 2.049 1.299 0.0 0
M  V30 28 O 0.549 1.299 0.0 0
M  V30 29 C 0.0 -0.75 0.0 0
M  V30 30 N 11.1581 2.7179 0.0 0
M  V30 31 N 11.9609 0.2469 0.0 0
M  V30 32 C 2.0087 -5.2528 0.0 0
M  V30 33 C -1.299 0.0 0.0 0
M  V30 34 C 0.0 -2.25 0.0 0
M  V30 35 C -2.598 -0.75 0.0 0
M  V30 36 C -1.299 -3.0 0.0 0
M  V30 37 N -3.8971 0.0 0.0 0 CHG=-1
M  V30 38 C -2.598 -2.25 0.0 0
M  V30 39 S -5.1961 -0.75 0.0 0
M  V30 40 O -5.9461 0.549 0.0 0
M  V30 41 O -4.4461 -2.049 0.0 0
M  V30 42 C -6.4951 -1.5 0.0 0
M  V30 END ATOM
M  V30 BEGIN BOND
M  V30 1 1 1 2
M  V30 2 2 2 3
M  V30 3 1 2 4
M  V30 4 1 3 5
M  V30 5 2 4 6
M  V30 6 1 5 7
M  V30 7 2 5 8
M  V30 8 1 7 9
M  V30 9 1 7 10
M  V30 10 1 8 11
M  V30 11 1 9 12
M  V30 12 1 10 13
M  V30 13 1 11 14
M  V30 14 1 12 15
M  V30 15 2 12 16
M  V30 16 2 13 17
M  V30 17 1 13 18
M  V30 18 1 14 19
M  V30 19 2 14 20
M  V30 20 1 16 21
M  V30 21 1 17 22
M  V30 22 2 18 23
M  V30 23 2 19 24
M  V30 24 1 19 25
M  V30 25 1 20 26
M  V30 26 2 21 27
M  V30 27 2 21 28
M  V30 28 1 21 29
M  V30 29 2 22 30
M  V30 30 1 22 31
M  V30 31 1 25 32
M  V30 32 2 29 33
M  V30 33 1 29 34
M  V30 34 1 33 35
M  V30 35 2 34 36
M  V30 36 1 35 37
M  V30 37 2 35 38
M  V30 38 1 37 39
M  V30 39 2 39 40
M  V30 40 2 39 41
M  V30 41 1 39 42
M  V30 42 1 6 8
M  V30 43 2 9 11
M  V30 44 1 23 30
M  V30 45 2 26 32
M  V30 46 1 36 38
M  V30 END BOND
M  V30 END CTAB
M  END
>  <ligand SMILES>
CS(=O)(=O)[N-]c1cccc(c1)S(=O)(=O)/N=C(/c2c(c3ccc(cc3n2Cc4ccnc(c4)N)Cl)c5ccc[nH]c5=O)\[O-]

>  <input_id>
29

>  <protonation_id>
P10000022

>  <Column 1>
625.088

>  <Column 2>
2.728

>  <Column 3>
8

>  <Column 4>
12

>  <Column 5>
3

>  <Column 6>
-2

$$$$
CS(=O)(=O)[N-]c1cccc(c1)S(=O)(=O)/N=C(/c2c(c3ccc(cc3n2Cc4cc[nH+]c(c4)N)Cl)c5ccc[nH]c5=O)\[O-]
Actelion Java MolfileCreator 2.0

  0  0  0  0  0  0              0 V3000
M  V30 BEGIN CTAB
M  V30 COUNTS 42 46 0 0 0
M  V30 BEGIN ATOM
M  V30 1 Cl 11.3201 -2.5536 0.0 0
M  V30 2 C 9.8201 -2.5536 0.0 0
M  V30 3 C 9.0701 -1.2546 0.0 0
M  V30 4 C 9.0701 -3.8526 0.0 0
M  V30 5 C 7.5701 -1.2546 0.0 0
M  V30 6 C 7.5701 -3.8526 0.0 0
M  V30 7 N 6.5664 -0.1398 0.0 0
M  V30 8 C 6.8201 -2.5536 0.0 0
M  V30 9 C 5.1961 -0.75 0.0 0
M  V30 10 C 6.8783 1.3273 0.0 0
M  V30 11 C 5.3529 -2.2417 0.0 0
M  V30 12 C 3.8971 0.0 0.0 0
M  V30 13 C 8.3049 1.7908 0.0 0
M  V30 14 C 4.2382 -3.2454 0.0 0
M  V30 15 O 3.8971 1.5 0.0 0
M  V30 16 N 2.598 -0.75 0.0 0
M  V30 17 C 9.4196 0.7871 0.0 0
M  V30 18 C 8.6167 3.258 0.0 0
M  V30 19 C 4.55 -4.7127 0.0 0
M  V30 20 C 2.8116 -2.7819 0.0 0
M  V30 21 S 1.299 0.0 0.0 0
M  V30 22 C 10.8462 1.2506 0.0 0
M  V30 23 C 10.0433 3.7216 0.0 0
M  V30 24 O 5.9766 -5.1762 0.0 0
M  V30 25 N 3.4353 -5.7164 0.0 0
M  V30 26 C 1.6969 -3.7856 0.0 0
M  V30 27 O 2.049 1.299 0.0 0
M  V30 28 O 0.549 1.299 0.0 0
M  V30 29 C 0.0 -0.75 0.0 0
M  V30 30 N 11.1581 2.7179 0.0 0
M  V30 31 N 11.9609 0.2469 0.0 0
M  V30 32 C 2.0087 -5.2528 0.0 0
M  V30 33 C -1.299 0.0 0.0 0
M  V30 34 C 0.0 -2.25 0.0 0
M  V30 35 C -2.598 -0.75 0.0 0
M  V30 36 C -1.299 -3.0 0.0 0
M  V30 37 N -3.8971 0.0 0.0 0 CHG=-1
M  V30 38 C -2.598 -2.25 0.0 0
M  V30 39 S -5.1961 -0.75 0.0 0
M  V30 40 O -5.9461 0.549 0.0 0
M  V30 41 O -4.4461 -2.049 0.0 0
M  V30 42 C -6.4951 -1.5 0.0 0
M  V30 END ATOM
M  V30 BEGIN BOND
M  V30 1 1 1 2
M  V30 2 2 2 3
M  V30 3 1 2 4
M  V30 4 1 3 5
M  V30 5 2 4 6
M  V30 6 1 5 7
M  V30 7 2 5 8
M  V30 8 1 7 9
M  V30 9 1 7 10
M  V30 10 1 8 11
M  V30 11 1 9 12
M  V30 12 1 10 13
M  V30 13 1 11 14
M  V30 14 1 12 15
M  V30 15 2 12 16
M  V30 16 2 13 17
M  V30 17 1 13 18
M  V30 18 1 14 19
M  V30 19 2 14 20
M  V30 20 1 16 21
M  V30 21 1 17 22
M  V30 22 2 18 23
M  V30 23 2 19 24
M  V30 24 1 19 25
M  V30 25 1 20 26
M  V30 26 2 21 27
M  V30 27 2 21 28
M  V30 28 1 21 29
M  V30 29 2 22 30
M  V30 30 1 22 31
M  V30 31 1 25 32
M  V30 32 2 29 33
M  V30 33 1 29 34
M  V30 34 1 33 35
M  V30 35 2 34 36
M  V30 36 1 35 37
M  V30 37 2 35 38
M  V30 38 1 37 39
M  V30 39 2 39 40
M  V30 40 2 39 41
M  V30 41 1 39 42
M  V30 42 1 6 8
M  V30 43 2 9 11
M  V30 44 1 23 30
M  V30 45 2 26 32
M  V30 46 1 36 38
M  V30 END BOND
M  V30 END CTAB
M  END
>  <ligand SMILES>
CS(=O)(=O)[N-]c1cccc(c1)S(=O)(=O)/N=C(/c2c(c3ccc(cc3n2Cc4cc[nH+]c(c4)N)Cl)c5ccc[nH]c5=O)\[O-]

>  <input_id>
29

>  <protonation_id>
P10000021

>  <Column 1>
626.096

>  <Column 2>
2.728

>  <Column 3>
8

>  <Column 4>
12

>  <Column 5>
4

>  <Column 6>
-1

$$$$
C[C@H]1C[C@H]1Cn2c3ccccc3c(=O)c(c2[O-])C4=NS(=O)(=O)c5ccccc5[N-]4
Actelion Java MolfileCreator 2.0

  0  0  0  0  0  0              0 V3000
M  V30 BEGIN CTAB
M  V30 COUNTS 29 33 0 0 0
M  V30 BEGIN ATOM
M  V30 1 S 7.7942 2.25 0.0 0
M  V30 2 O 8.5442 3.549 0.0 0
M  V30 3 O 7.0442 3.549 0.0 0
M  V30 4 N 6.4951 1.5 0.0 0
M  V30 5 C 9.0932 1.5 0.0 0
M  V30 6 C 6.4951 0.0 0.0 0
M  V30 7 C 9.0932 0.0 0.0 0
M  V30 8 C 10.3923 2.25 0.0 0
M  V30 9 N 7.7942 -0.75 0.0 0 CHG=-1
M  V30 10 C 5.1961 -0.75 0.0 0
M  V30 11 C 10.3923 -0.75 0.0 0
M  V30 12 C 11.6913 1.5 0.0 0
M  V30 13 C 3.8971 0.0 0.0 0
M  V30 14 C 5.1961 -2.25 0.0 0
M  V30 15 C 11.6913 0.0 0.0 0
M  V30 16 O 3.8971 1.5 0.0 0 CHG=-1
M  V30 17 N 2.598 -0.75 0.0 0
M  V30 18 O 6.4951 -3.0 0.0 0
M  V30 19 C 3.8971 -3.0 0.0 0
M  V30 20 C 2.598 -2.25 0.0 0
M  V30 21 C 1.299 0.0 0.0 0
M  V30 22 C 3.8971 -4.5 0.0 0
M  V30 23 C 1.299 -3.0 0.0 0
M  V30 24 C 0.0 -0.75 0.0 0 CFG=1
M  V30 25 C 2.598 -5.25 0.0 0
M  V30 26 C 1.299 -4.5 0.0 0
M  V30 27 C -1.5 -0.75 0.0 0 CFG=2
M  V30 28 C -0.75 -2.049 0.0 0
M  V30 29 C -2.799 0.0 0.0 0
M  V30 END ATOM
M  V30 BEGIN BOND
M  V30 1 2 1 2
M  V30 2 2 1 3
M  V30 3 1 1 4
M  V30 4 1 1 5
M  V30 5 2 4 6
M  V30 6 2 5 7
M  V30 7 1 5 8
M  V30 8 1 6 9
M  V30 9 1 6 10
M  V30 10 1 7 11
M  V30 11 2 8 12
M  V30 12 2 10 13
M  V30 13 1 10 14
M  V30 14 2 11 15
M  V30 15 1 13 16
M  V30 16 1 13 17
M  V30 17 2 14 18
M  V30 18 1 14 19
M  V30 19 1 17 20
M  V30 20 1 17 21
M  V30 21 1 19 22
M  V30 22 1 20 23
M  V30 23 1 24 21 CFG=3
M  V30 24 2 22 25
M  V30 25 2 23 26
M  V30 26 1 27 24
M  V30 27 1 24 28
M  V30 28 1 27 29 CFG=3
M  V30 29 1 7 9
M  V30 30 1 12 15
M  V30 31 2 19 20
M  V30 32 1 25 26
M  V30 33 1 27 28
M  V30 END BOND
M  V30 BEGIN COLLECTION
M  V30 MDLV30/STEABS ATOMS=(2 24 27)
M  V30 END COLLECTION
M  V30 END CTAB
M  END
>  <ligand SMILES>
C[C@H]1C[C@H]1Cn2c3ccccc3c(=O)c(c2[O-])C4=NS(=O)(=O)c5ccccc5[N-]4

>  <input_id>
30

>  <protonation_id>
P10000071

>  <Column 1>
407.451

>  <Column 2>
2.051

>  <Column 3>
3

>  <Column 4>
7

>  <Column 5>
0

>  <Column 6>
-2

$$$$
CC(C)N(c1ccc(c(c1)COc2ccc(c(c2)F)c3nc4cc(ccc4n3C5CCCCC5)C(=O)[O-])N6CCOCC6)C(=O)C
Actelion Java MolfileCreator 2.0

  0  0  0  0  0  0              0 V3000
M  V30 BEGIN CTAB
M  V30 COUNTS 46 51 0 0 0
M  V30 BEGIN ATOM
M  V30 1 F -6.4951 -4.4999 0.0 0
M  V30 2 C -5.1961 -5.2499 0.0 0
M  V30 3 C -5.1961 -6.7499 0.0 0
M  V30 4 C -3.8971 -4.4999 0.0 0
M  V30 5 C -6.4951 -7.4999 0.0 0
M  V30 6 C -3.8971 -7.4999 0.0 0
M  V30 7 C -2.598 -5.2499 0.0 0
M  V30 8 N -7.8655 -6.8898 0.0 0
M  V30 9 N -6.6519 -8.9917 0.0 0
M  V30 10 C -2.598 -6.7499 0.0 0
M  V30 11 O -1.299 -4.4999 0.0 0
M  V30 12 C -8.8692 -8.0046 0.0 0
M  V30 13 C -8.1192 -9.3036 0.0 0
M  V30 14 C -5.5372 -9.9954 0.0 0
M  V30 15 C 0.0 -5.2499 0.0 0
M  V30 16 C -10.3692 -8.0046 0.0 0
M  V30 17 C -8.8692 -10.6026 0.0 0
M  V30 18 C -5.8491 -11.4627 0.0 0
M  V30 19 C -4.1106 -9.5319 0.0 0
M  V30 20 C 1.299 -4.4999 0.0 0
M  V30 21 C -11.1192 -9.3036 0.0 0
M  V30 22 C -10.3692 -10.6026 0.0 0
M  V30 23 C -4.7344 -12.4663 0.0 0
M  V30 24 C -2.9959 -10.5356 0.0 0
M  V30 25 C 2.598 -5.25 0.0 0
M  V30 26 C 1.299 -2.9999 0.0 0
M  V30 27 C -12.6192 -9.3036 0.0 0
M  V30 28 C -3.3078 -12.0028 0.0 0
M  V30 29 N 2.598 -6.75 0.0 0
M  V30 30 C 3.8971 -4.5 0.0 0
M  V30 31 C 2.598 -2.25 0.0 0
M  V30 32 O -13.3692 -8.0046 0.0 0
M  V30 33 O -13.3692 -10.6026 0.0 0 CHG=-1
M  V30 34 C 1.299 -7.4999 0.0 0
M  V30 35 C 3.8971 -7.5 0.0 0
M  V30 36 C 3.8971 -3.0 0.0 0
M  V30 37 N 2.598 -0.75 0.0 0
M  V30 38 C 1.299 -8.9999 0.0 0
M  V30 39 C 3.8971 -9.0 0.0 0
M  V30 40 C 3.8971 0.0 0.0 0
M  V30 41 C 1.299 0.0 0.0 0
M  V30 42 O 2.598 -9.75 0.0 0
M  V30 43 O 5.1961 -0.75 0.0 0
M  V30 44 C 3.8971 1.5 0.0 0
M  V30 45 C 1.299 1.5 0.0 0
M  V30 46 C 0.0 -0.75 0.0 0
M  V30 END ATOM
M  V30 BEGIN BOND
M  V30 1 1 1 2
M  V30 2 2 2 3
M  V30 3 1 2 4
M  V30 4 1 3 5
M  V30 5 1 3 6
M  V30 6 2 4 7
M  V30 7 2 5 8
M  V30 8 1 5 9
M  V30 9 2 6 10
M  V30 10 1 7 11
M  V30 11 1 8 12
M  V30 12 1 9 13
M  V30 13 1 9 14
M  V30 14 1 11 15
M  V30 15 1 12 16
M  V30 16 1 13 17
M  V30 17 1 14 18
M  V30 18 1 14 19
M  V30 19 1 15 20
M  V30 20 2 16 21
M  V30 21 2 17 22
M  V30 22 1 18 23
M  V30 23 1 19 24
M  V30 24 2 20 25
M  V30 25 1 20 26
M  V30 26 1 21 27
M  V30 27 1 23 28
M  V30 28 1 25 29
M  V30 29 1 25 30
M  V30 30 2 26 31
M  V30 31 2 27 32
M  V30 32 1 27 33
M  V30 33 1 29 34
M  V30 34 1 29 35
M  V30 35 2 30 36
M  V30 36 1 31 37
M  V30 37 1 34 38
M  V30 38 1 35 39
M  V30 39 1 37 40
M  V30 40 1 37 41
M  V30 41 1 38 42
M  V30 42 2 40 43
M  V30 43 1 40 44
M  V30 44 1 41 45
M  V30 45 1 41 46
M  V30 46 1 7 10
M  V30 47 2 12 13
M  V30 48 1 21 22
M  V30 49 1 24 28
M  V30 50 1 31 36
M  V30 51 1 39 42
M  V30 END BOND
M  V30 END CTAB
M  END
>  <ligand SMILES>
CC(C)N(c1ccc(c(c1)COc2ccc(c(c2)F)c3nc4cc(ccc4n3C5CCCCC5)C(=O)[O-])N6CCOCC6)C(=O)C

>  <input_id>
31

>  <protonation_id>
P10000066

>  <Column 1>
627.737

>  <Column 2>
7.161

>  <Column 3>
9

>  <Column 4>
9

>  <Column 5>
0

>  <Column 6>
-1

$$$$
CC(C)N(c1ccc(c(c1)COc2ccc(c(c2)F)c3[nH+]c4cc(ccc4n3C5CCCCC5)C(=O)[O-])N6CCOCC6)C(=O)C
Actelion Java MolfileCreator 2.0

  0  0  0  0  0  0              0 V3000
M  V30 BEGIN CTAB
M  V30 COUNTS 46 51 0 0 0
M  V30 BEGIN ATOM
M  V30 1 F -6.4951 -4.4999 0.0 0
M  V30 2 C -5.1961 -5.2499 0.0 0
M  V30 3 C -5.1961 -6.7499 0.0 0
M  V30 4 C -3.8971 -4.4999 0.0 0
M  V30 5 C -6.4951 -7.4999 0.0 0
M  V30 6 C -3.8971 -7.4999 0.0 0
M  V30 7 C -2.598 -5.2499 0.0 0
M  V30 8 N -7.8655 -6.8898 0.0 0
M  V30 9 N -6.6519 -8.9917 0.0 0
M  V30 10 C -2.598 -6.7499 0.0 0
M  V30 11 O -1.299 -4.4999 0.0 0
M  V30 12 C -8.8692 -8.0046 0.0 0
M  V30 13 C -8.1192 -9.3036 0.0 0
M  V30 14 C -5.5372 -9.9954 0.0 0
M  V30 15 C 0.0 -5.2499 0.0 0
M  V30 16 C -10.3692 -8.0046 0.0 0
M  V30 17 C -8.8692 -10.6026 0.0 0
M  V30 18 C -5.8491 -11.4627 0.0 0
M  V30 19 C -4.1106 -9.5319 0.0 0
M  V30 20 C 1.299 -4.4999 0.0 0
M  V30 21 C -11.1192 -9.3036 0.0 0
M  V30 22 C -10.3692 -10.6026 0.0 0
M  V30 23 C -4.7344 -12.4663 0.0 0
M  V30 24 C -2.9959 -10.5356 0.0 0
M  V30 25 C 2.598 -5.25 0.0 0
M  V30 26 C 1.299 -2.9999 0.0 0
M  V30 27 C -12.6192 -9.3036 0.0 0
M  V30 28 C -3.3078 -12.0028 0.0 0
M  V30 29 N 2.598 -6.75 0.0 0
M  V30 30 C 3.8971 -4.5 0.0 0
M  V30 31 C 2.598 -2.25 0.0 0
M  V30 32 O -13.3692 -8.0046 0.0 0
M  V30 33 O -13.3692 -10.6026 0.0 0
M  V30 34 C 1.299 -7.4999 0.0 0
M  V30 35 C 3.8971 -7.5 0.0 0
M  V30 36 C 3.8971 -3.0 0.0 0
M  V30 37 N 2.598 -0.75 0.0 0
M  V30 38 C 1.299 -8.9999 0.0 0
M  V30 39 C 3.8971 -9.0 0.0 0
M  V30 40 C 3.8971 0.0 0.0 0
M  V30 41 C 1.299 0.0 0.0 0
M  V30 42 O 2.598 -9.75 0.0 0
M  V30 43 O 5.1961 -0.75 0.0 0
M  V30 44 C 3.8971 1.5 0.0 0
M  V30 45 C 1.299 1.5 0.0 0
M  V30 46 C 0.0 -0.75 0.0 0
M  V30 END ATOM
M  V30 BEGIN BOND
M  V30 1 1 1 2
M  V30 2 2 2 3
M  V30 3 1 2 4
M  V30 4 1 3 5
M  V30 5 1 3 6
M  V30 6 2 4 7
M  V30 7 2 5 8
M  V30 8 1 5 9
M  V30 9 2 6 10
M  V30 10 1 7 11
M  V30 11 1 8 12
M  V30 12 1 9 13
M  V30 13 1 9 14
M  V30 14 1 11 15
M  V30 15 1 12 16
M  V30 16 1 13 17
M  V30 17 1 14 18
M  V30 18 1 14 19
M  V30 19 1 15 20
M  V30 20 2 16 21
M  V30 21 2 17 22
M  V30 22 1 18 23
M  V30 23 1 19 24
M  V30 24 2 20 25
M  V30 25 1 20 26
M  V30 26 1 21 27
M  V30 27 1 23 28
M  V30 28 1 25 29
M  V30 29 1 25 30
M  V30 30 2 26 31
M  V30 31 2 27 32
M  V30 32 1 27 33
M  V30 33 1 29 34
M  V30 34 1 29 35
M  V30 35 2 30 36
M  V30 36 1 31 37
M  V30 37 1 34 38
M  V30 38 1 35 39
M  V30 39 1 37 40
M  V30 40 1 37 41
M  V30 41 1 38 42
M  V30 42 2 40 43
M  V30 43 1 40 44
M  V30 44 1 41 45
M  V30 45 1 41 46
M  V30 46 1 7 10
M  V30 47 2 12 13
M  V30 48 1 21 22
M  V30 49 1 24 28
M  V30 50 1 31 36
M  V30 51 1 39 42
M  V30 END BOND
M  V30 END CTAB
M  END
>  <ligand SMILES>
CC(C)N(c1ccc(c(c1)COc2ccc(c(c2)F)c3[nH+]c4cc(ccc4n3C5CCCCC5)C(=O)[O-])N6CCOCC6)C(=O)C

>  <input_id>
31

>  <protonation_id>
P10000067

>  <Column 1>
628.745

>  <Column 2>
7.161

>  <Column 3>
9

>  <Column 4>
9

>  <Column 5>
1

>  <Column 6>
0

$$$$
CC(C)CCn1c2ccc(cc2c(=O)c(c1[O-])C3=NS(=O)(=O)c4ccccc4[N-]3)Cl
Actelion Java MolfileCreator 2.0

  0  0  0  0  0  0              0 V3000
M  V30 BEGIN CTAB
M  V30 COUNTS 30 33 0 0 0
M  V30 BEGIN ATOM
M  V30 1 Cl 5.1961 -6.75 0.0 0
M  V30 2 C 5.1961 -5.25 0.0 0
M  V30 3 C 6.4951 -4.5 0.0 0
M  V30 4 C 3.8971 -4.5 0.0 0
M  V30 5 C 6.4951 -3.0 0.0 0
M  V30 6 C 3.8971 -3.0 0.0 0
M  V30 7 C 7.7942 -2.25 0.0 0
M  V30 8 C 5.1961 -2.25 0.0 0
M  V30 9 O 9.0932 -3.0 0.0 0
M  V30 10 C 7.7942 -0.75 0.0 0
M  V30 11 N 5.1961 -0.75 0.0 0
M  V30 12 C 6.4951 0.0 0.0 0
M  V30 13 C 9.0932 0.0 0.0 0
M  V30 14 C 3.8971 0.0 0.0 0
M  V30 15 O 6.4951 1.5 0.0 0 CHG=-1
M  V30 16 N 10.3923 -0.75 0.0 0
M  V30 17 N 9.0932 1.5 0.0 0 CHG=-1
M  V30 18 C 2.598 -0.75 0.0 0
M  V30 19 S 11.6913 0.0 0.0 0
M  V30 20 C 10.3923 2.25 0.0 0
M  V30 21 C 1.299 0.0 0.0 0
M  V30 22 O 12.4413 -1.299 0.0 0
M  V30 23 O 13.1913 0.0 0.0 0
M  V30 24 C 11.6913 1.5 0.0 0
M  V30 25 C 10.3923 3.75 0.0 0
M  V30 26 C 1.299 1.5 0.0 0
M  V30 27 C 0.0 -0.75 0.0 0
M  V30 28 C 12.9903 2.25 0.0 0
M  V30 29 C 11.6913 4.5 0.0 0
M  V30 30 C 12.9903 3.75 0.0 0
M  V30 END ATOM
M  V30 BEGIN BOND
M  V30 1 1 1 2
M  V30 2 2 2 3
M  V30 3 1 2 4
M  V30 4 1 3 5
M  V30 5 2 4 6
M  V30 6 1 5 7
M  V30 7 2 5 8
M  V30 8 2 7 9
M  V30 9 1 7 10
M  V30 10 1 8 11
M  V30 11 2 10 12
M  V30 12 1 10 13
M  V30 13 1 11 14
M  V30 14 1 12 15
M  V30 15 2 13 16
M  V30 16 1 13 17
M  V30 17 1 14 18
M  V30 18 1 16 19
M  V30 19 1 17 20
M  V30 20 1 18 21
M  V30 21 2 19 22
M  V30 22 2 19 23
M  V30 23 1 19 24
M  V30 24 1 20 25
M  V30 25 1 21 26
M  V30 26 1 21 27
M  V30 27 1 24 28
M  V30 28 2 25 29
M  V30 29 2 28 30
M  V30 30 1 6 8
M  V30 31 1 11 12
M  V30 32 2 20 24
M  V30 33 1 29 30
M  V30 END BOND
M  V30 END CTAB
M  END
>  <ligand SMILES>
CC(C)CCn1c2ccc(cc2c(=O)c(c1[O-])C3=NS(=O)(=O)c4ccccc4[N-]3)Cl

>  <input_id>
32

>  <protonation_id>
P10000078

>  <Column 1>
443.912

>  <Column 2>
2.879

>  <Column 3>
4

>  <Column 4>
7

>  <Column 5>
0

>  <Column 6>
-2

$$$$
C[C@@H](CCn1c2ccccc2c(=O)c(c1[O-])C3=NS(=O)(=O)c4ccccc4[N-]3)C(F)(F)F
Actelion Java MolfileCreator 2.0

  0  0  0  0  0  0              0 V3000
M  V30 BEGIN CTAB
M  V30 COUNTS 32 35 0 0 0
M  V30 BEGIN ATOM
M  V30 1 S 10.3923 2.25 0.0 0
M  V30 2 O 11.1423 3.549 0.0 0
M  V30 3 O 9.6423 3.549 0.0 0
M  V30 4 N 9.0932 1.5 0.0 0
M  V30 5 C 11.6913 1.5 0.0 0
M  V30 6 C 9.0932 0.0 0.0 0
M  V30 7 C 11.6913 0.0 0.0 0
M  V30 8 C 12.9903 2.25 0.0 0
M  V30 9 N 10.3923 -0.75 0.0 0 CHG=-1
M  V30 10 C 7.7942 -0.75 0.0 0
M  V30 11 C 12.9903 -0.75 0.0 0
M  V30 12 C 14.2894 1.5 0.0 0
M  V30 13 C 6.4951 0.0 0.0 0
M  V30 14 C 7.7942 -2.25 0.0 0
M  V30 15 C 14.2894 0.0 0.0 0
M  V30 16 O 6.4951 1.5 0.0 0 CHG=-1
M  V30 17 N 5.1961 -0.75 0.0 0
M  V30 18 O 9.0932 -3.0 0.0 0
M  V30 19 C 6.4951 -3.0 0.0 0
M  V30 20 C 5.1961 -2.25 0.0 0
M  V30 21 C 3.8971 0.0 0.0 0
M  V30 22 C 6.4951 -4.5 0.0 0
M  V30 23 C 3.8971 -3.0 0.0 0
M  V30 24 C 2.598 -0.75 0.0 0
M  V30 25 C 5.1961 -5.25 0.0 0
M  V30 26 C 3.8971 -4.5 0.0 0
M  V30 27 C 1.299 0.0 0.0 0 CFG=1
M  V30 28 C 1.299 1.5 0.0 0
M  V30 29 C 0.0 -0.75 0.0 0
M  V30 30 F -0.2009 1.5 0.0 0
M  V30 31 F 1.299 3.0 0.0 0
M  V30 32 F 2.799 1.5 0.0 0
M  V30 END ATOM
M  V30 BEGIN BOND
M  V30 1 2 1 2
M  V30 2 2 1 3
M  V30 3 1 1 4
M  V30 4 1 1 5
M  V30 5 2 4 6
M  V30 6 2 5 7
M  V30 7 1 5 8
M  V30 8 1 6 9
M  V30 9 1 6 10
M  V30 10 1 7 11
M  V30 11 2 8 12
M  V30 12 2 10 13
M  V30 13 1 10 14
M  V30 14 2 11 15
M  V30 15 1 13 16
M  V30 16 1 13 17
M  V30 17 2 14 18
M  V30 18 1 14 19
M  V30 19 1 17 20
M  V30 20 1 17 21
M  V30 21 1 19 22
M  V30 22 1 20 23
M  V30 23 1 21 24
M  V30 24 2 22 25
M  V30 25 2 23 26
M  V30 26 1 27 24
M  V30 27 1 27 28
M  V30 28 1 27 29 CFG=3
M  V30 29 1 28 30
M  V30 30 1 28 31
M  V30 31 1 28 32
M  V30 32 1 7 9
M  V30 33 1 12 15
M  V30 34 2 19 20
M  V30 35 1 25 26
M  V30 END BOND
M  V30 BEGIN COLLECTION
M  V30 MDLV30/STEABS ATOMS=(1 27)
M  V30 END COLLECTION
M  V30 END CTAB
M  END
>  <ligand SMILES>
C[C@@H](CCn1c2ccccc2c(=O)c(c1[O-])C3=NS(=O)(=O)c4ccccc4[N-]3)C(F)(F)F

>  <input_id>
33

>  <protonation_id>
P10000077

>  <Column 1>
463.437

>  <Column 2>
2.514

>  <Column 3>
5

>  <Column 4>
7

>  <Column 5>
0

>  <Column 6>
-2

$$$$
Cc1ccc2c(c1)c(=O)c(c(n2CCC(C)C)[O-])C3=NS(=O)(=O)c4ccccc4[N-]3
Actelion Java MolfileCreator 2.0

  0  0  0  0  0  0              0 V3000
M  V30 BEGIN CTAB
M  V30 COUNTS 30 33 0 0 0
M  V30 BEGIN ATOM
M  V30 1 S 10.3923 2.25 0.0 0
M  V30 2 O 11.1423 3.549 0.0 0
M  V30 3 O 9.6423 3.549 0.0 0
M  V30 4 N 9.0932 1.5 0.0 0
M  V30 5 C 11.6913 1.5 0.0 0
M  V30 6 C 9.0932 0.0 0.0 0
M  V30 7 C 11.6913 0.0 0.0 0
M  V30 8 C 12.9903 2.25 0.0 0
M  V30 9 N 10.3923 -0.75 0.0 0 CHG=-1
M  V30 10 C 7.7942 -0.75 0.0 0
M  V30 11 C 12.9903 -0.75 0.0 0
M  V30 12 C 14.2894 1.5 0.0 0
M  V30 13 C 6.4951 0.0 0.0 0
M  V30 14 C 7.7942 -2.25 0.0 0
M  V30 15 C 14.2894 0.0 0.0 0
M  V30 16 O 6.4951 1.5 0.0 0 CHG=-1
M  V30 17 N 5.1961 -0.75 0.0 0
M  V30 18 O 9.0932 -3.0 0.0 0
M  V30 19 C 6.4951 -3.0 0.0 0
M  V30 20 C 5.1961 -2.25 0.0 0
M  V30 21 C 3.8971 0.0 0.0 0
M  V30 22 C 6.4951 -4.5 0.0 0
M  V30 23 C 3.8971 -3.0 0.0 0
M  V30 24 C 2.598 -0.75 0.0 0
M  V30 25 C 5.1961 -5.25 0.0 0
M  V30 26 C 3.8971 -4.5 0.0 0
M  V30 27 C 1.299 0.0 0.0 0
M  V30 28 C 5.1961 -6.75 0.0 0
M  V30 29 C 1.299 1.5 0.0 0
M  V30 30 C 0.0 -0.75 0.0 0
M  V30 END ATOM
M  V30 BEGIN BOND
M  V30 1 2 1 2
M  V30 2 2 1 3
M  V30 3 1 1 4
M  V30 4 1 1 5
M  V30 5 2 4 6
M  V30 6 2 5 7
M  V30 7 1 5 8
M  V30 8 1 6 9
M  V30 9 1 6 10
M  V30 10 1 7 11
M  V30 11 2 8 12
M  V30 12 2 10 13
M  V30 13 1 10 14
M  V30 14 2 11 15
M  V30 15 1 13 16
M  V30 16 1 13 17
M  V30 17 2 14 18
M  V30 18 1 14 19
M  V30 19 1 17 20
M  V30 20 1 17 21
M  V30 21 1 19 22
M  V30 22 1 20 23
M  V30 23 1 21 24
M  V30 24 2 22 25
M  V30 25 2 23 26
M  V30 26 1 24 27
M  V30 27 1 25 28
M  V30 28 1 27 29
M  V30 29 1 27 30
M  V30 30 1 7 9
M  V30 31 1 12 15
M  V30 32 2 19 20
M  V30 33 1 25 26
M  V30 END BOND
M  V30 END CTAB
M  END
>  <ligand SMILES>
Cc1ccc2c(c1)c(=O)c(c(n2CCC(C)C)[O-])C3=NS(=O)(=O)c4ccccc4[N-]3

>  <input_id>
34

>  <protonation_id>
P10000075

>  <Column 1>
423.494

>  <Column 2>
2.649

>  <Column 3>
4

>  <Column 4>
7

>  <Column 5>
0

>  <Column 6>
-2

$$$$
CC(C)CCn1c2cccc(c2c(=O)c(c1[O-])C3=NS(=O)(=O)c4ccccc4[N-]3)O
Actelion Java MolfileCreator 2.0

  0  0  0  0  0  0              0 V3000
M  V30 BEGIN CTAB
M  V30 COUNTS 30 33 0 0 0
M  V30 BEGIN ATOM
M  V30 1 S 10.3923 2.25 0.0 0
M  V30 2 O 11.1423 3.549 0.0 0
M  V30 3 O 9.6423 3.549 0.0 0
M  V30 4 N 9.0932 1.5 0.0 0
M  V30 5 C 11.6913 1.5 0.0 0
M  V30 6 C 9.0932 0.0 0.0 0
M  V30 7 C 11.6913 0.0 0.0 0
M  V30 8 C 12.9903 2.25 0.0 0
M  V30 9 N 10.3923 -0.75 0.0 0 CHG=-1
M  V30 10 C 7.7942 -0.75 0.0 0
M  V30 11 C 12.9903 -0.75 0.0 0
M  V30 12 C 14.2894 1.5 0.0 0
M  V30 13 C 6.4951 0.0 0.0 0
M  V30 14 C 7.7942 -2.25 0.0 0
M  V30 15 C 14.2894 0.0 0.0 0
M  V30 16 O 6.4951 1.5 0.0 0 CHG=-1
M  V30 17 N 5.1961 -0.75 0.0 0
M  V30 18 O 9.0932 -3.0 0.0 0
M  V30 19 C 6.4951 -3.0 0.0 0
M  V30 20 C 5.1961 -2.25 0.0 0
M  V30 21 C 3.8971 0.0 0.0 0
M  V30 22 C 6.4951 -4.5 0.0 0
M  V30 23 C 3.8971 -3.0 0.0 0
M  V30 24 C 2.598 -0.75 0.0 0
M  V30 25 O 7.7942 -5.25 0.0 0
M  V30 26 C 5.1961 -5.25 0.0 0
M  V30 27 C 3.8971 -4.5 0.0 0
M  V30 28 C 1.299 0.0 0.0 0
M  V30 29 C 1.299 1.5 0.0 0
M  V30 30 C 0.0 -0.75 0.0 0
M  V30 END ATOM
M  V30 BEGIN BOND
M  V30 1 2 1 2
M  V30 2 2 1 3
M  V30 3 1 1 4
M  V30 4 1 1 5
M  V30 5 2 4 6
M  V30 6 2 5 7
M  V30 7 1 5 8
M  V30 8 1 6 9
M  V30 9 1 6 10
M  V30 10 1 7 11
M  V30 11 2 8 12
M  V30 12 2 10 13
M  V30 13 1 10 14
M  V30 14 2 11 15
M  V30 15 1 13 16
M  V30 16 1 13 17
M  V30 17 2 14 18
M  V30 18 1 14 19
M  V30 19 1 17 20
M  V30 20 1 17 21
M  V30 21 1 19 22
M  V30 22 1 20 23
M  V30 23 1 21 24
M  V30 24 1 22 25
M  V30 25 2 22 26
M  V30 26 2 23 27
M  V30 27 1 24 28
M  V30 28 1 28 29
M  V30 29 1 28 30
M  V30 30 1 7 9
M  V30 31 1 12 15
M  V30 32 2 19 20
M  V30 33 1 26 27
M  V30 END BOND
M  V30 END CTAB
M  END
>  <ligand SMILES>
CC(C)CCn1c2cccc(c2c(=O)c(c1[O-])C3=NS(=O)(=O)c4ccccc4[N-]3)O

>  <input_id>
35

>  <protonation_id>
P10000074

>  <Column 1>
425.466

>  <Column 2>
2.8

>  <Column 3>
4

>  <Column 4>
8

>  <Column 5>
1

>  <Column 6>
-2

$$$$
CC(C)(C)CCn1c2ccc(cc2c(=O)c(c1[O-])C3=NS(=O)(=O)c4ccccc4[N-]3)NCCO
Actelion Java MolfileCreator 2.0

  0  0  0  0  0  0              0 V3000
M  V30 BEGIN CTAB
M  V30 COUNTS 34 37 0 0 0
M  V30 BEGIN ATOM
M  V30 1 S 9.0932 -9.0 0.0 0
M  V30 2 O 9.8432 -10.299 0.0 0
M  V30 3 O 10.5932 -8.9999 0.0 0
M  V30 4 N 9.0932 -7.5 0.0 0
M  V30 5 C 7.7942 -9.75 0.0 0
M  V30 6 C 7.7942 -6.75 0.0 0
M  V30 7 C 6.4951 -9.0 0.0 0
M  V30 8 C 7.7942 -11.25 0.0 0
M  V30 9 N 6.4951 -7.5 0.0 0 CHG=-1
M  V30 10 C 7.7942 -5.25 0.0 0
M  V30 11 C 5.1961 -9.75 0.0 0
M  V30 12 C 6.4951 -12.0 0.0 0
M  V30 13 C 9.0932 -4.5 0.0 0
M  V30 14 C 6.4951 -4.5 0.0 0
M  V30 15 C 5.1961 -11.25 0.0 0
M  V30 16 O 10.3923 -5.25 0.0 0 CHG=-1
M  V30 17 N 9.0932 -3.0 0.0 0
M  V30 18 O 5.1961 -5.25 0.0 0
M  V30 19 C 6.4951 -3.0 0.0 0
M  V30 20 C 7.7942 -2.25 0.0 0
M  V30 21 C 10.3923 -2.25 0.0 0
M  V30 22 C 5.1961 -2.25 0.0 0
M  V30 23 C 7.7942 -0.75 0.0 0
M  V30 24 C 11.6913 -3.0 0.0 0
M  V30 25 C 5.1961 -0.75 0.0 0
M  V30 26 C 6.4951 0.0 0.0 0
M  V30 27 C 12.9903 -2.25 0.0 0
M  V30 28 N 3.8971 0.0 0.0 0
M  V30 29 C 12.2403 -0.9509 0.0 0
M  V30 30 C 14.2894 -1.5 0.0 0
M  V30 31 C 13.7403 -3.549 0.0 0
M  V30 32 C 2.598 -0.75 0.0 0
M  V30 33 C 1.299 0.0 0.0 0
M  V30 34 O 0.0 -0.75 0.0 0
M  V30 END ATOM
M  V30 BEGIN BOND
M  V30 1 2 1 2
M  V30 2 2 1 3
M  V30 3 1 1 4
M  V30 4 1 1 5
M  V30 5 2 4 6
M  V30 6 2 5 7
M  V30 7 1 5 8
M  V30 8 1 6 9
M  V30 9 1 6 10
M  V30 10 1 7 11
M  V30 11 2 8 12
M  V30 12 2 10 13
M  V30 13 1 10 14
M  V30 14 2 11 15
M  V30 15 1 13 16
M  V30 16 1 13 17
M  V30 17 2 14 18
M  V30 18 1 14 19
M  V30 19 1 17 20
M  V30 20 1 17 21
M  V30 21 1 19 22
M  V30 22 1 20 23
M  V30 23 1 21 24
M  V30 24 2 22 25
M  V30 25 2 23 26
M  V30 26 1 24 27
M  V30 27 1 25 28
M  V30 28 1 27 29
M  V30 29 1 27 30
M  V30 30 1 27 31
M  V30 31 1 28 32
M  V30 32 1 32 33
M  V30 33 1 33 34
M  V30 34 1 7 9
M  V30 35 1 12 15
M  V30 36 2 19 20
M  V30 37 1 25 26
M  V30 END BOND
M  V30 END CTAB
M  END
>  <ligand SMILES>
CC(C)(C)CCn1c2ccc(cc2c(=O)c(c1[O-])C3=NS(=O)(=O)c4ccccc4[N-]3)NCCO

>  <input_id>
36

>  <protonation_id>
P10000073

>  <Column 1>
482.562

>  <Column 2>
1.746

>  <Column 3>
7

>  <Column 4>
9

>  <Column 5>
2

>  <Column 6>
-2

$$$$
c1ccc2c(c1)c(=O)c(c(n2CC3CCC3)[O-])C4=NS(=O)(=O)c5ccccc5[N-]4
Actelion Java MolfileCreator 2.0

  0  0  0  0  0  0              0 V3000
M  V30 BEGIN CTAB
M  V30 COUNTS 29 33 0 0 0
M  V30 BEGIN ATOM
M  V30 1 S 7.7942 2.25 0.0 0
M  V30 2 O 8.5442 3.549 0.0 0
M  V30 3 O 7.0442 3.549 0.0 0
M  V30 4 N 6.4951 1.5 0.0 0
M  V30 5 C 9.0932 1.5 0.0 0
M  V30 6 C 6.4951 0.0 0.0 0
M  V30 7 C 9.0932 0.0 0.0 0
M  V30 8 C 10.3923 2.25 0.0 0
M  V30 9 N 7.7942 -0.75 0.0 0 CHG=-1
M  V30 10 C 5.1961 -0.75 0.0 0
M  V30 11 C 10.3923 -0.75 0.0 0
M  V30 12 C 11.6913 1.5 0.0 0
M  V30 13 C 3.8971 0.0 0.0 0
M  V30 14 C 5.1961 -2.25 0.0 0
M  V30 15 C 11.6913 0.0 0.0 0
M  V30 16 O 3.8971 1.5 0.0 0 CHG=-1
M  V30 17 N 2.598 -0.75 0.0 0
M  V30 18 O 6.4951 -3.0 0.0 0
M  V30 19 C 3.8971 -3.0 0.0 0
M  V30 20 C 2.598 -2.25 0.0 0
M  V30 21 C 1.299 0.0 0.0 0
M  V30 22 C 3.8971 -4.5 0.0 0
M  V30 23 C 1.299 -3.0 0.0 0
M  V30 24 C 0.0 -0.75 0.0 0
M  V30 25 C 2.598 -5.25 0.0 0
M  V30 26 C 1.299 -4.5 0.0 0
M  V30 27 C -1.4488 -0.3617 0.0 0
M  V30 28 C -0.3882 -2.1988 0.0 0
M  V30 29 C -1.8371 -1.8106 0.0 0
M  V30 END ATOM
M  V30 BEGIN BOND
M  V30 1 2 1 2
M  V30 2 2 1 3
M  V30 3 1 1 4
M  V30 4 1 1 5
M  V30 5 2 4 6
M  V30 6 2 5 7
M  V30 7 1 5 8
M  V30 8 1 6 9
M  V30 9 1 6 10
M  V30 10 1 7 11
M  V30 11 2 8 12
M  V30 12 2 10 13
M  V30 13 1 10 14
M  V30 14 2 11 15
M  V30 15 1 13 16
M  V30 16 1 13 17
M  V30 17 2 14 18
M  V30 18 1 14 19
M  V30 19 1 17 20
M  V30 20 1 17 21
M  V30 21 1 19 22
M  V30 22 1 20 23
M  V30 23 1 21 24
M  V30 24 2 22 25
M  V30 25 2 23 26
M  V30 26 1 24 27
M  V30 27 1 24 28
M  V30 28 1 27 29
M  V30 29 1 7 9
M  V30 30 1 12 15
M  V30 31 2 19 20
M  V30 32 1 25 26
M  V30 33 1 28 29
M  V30 END BOND
M  V30 END CTAB
M  END
>  <ligand SMILES>
c1ccc2c(c1)c(=O)c(c(n2CC3CCC3)[O-])C4=NS(=O)(=O)c5ccccc5[N-]4

>  <input_id>
37

>  <protonation_id>
P10000072

>  <Column 1>
407.451

>  <Column 2>
1.615

>  <Column 3>
3

>  <Column 4>
7

>  <Column 5>
0

>  <Column 6>
-2

$$$$
c1ccc2c(c1)[N-]C(=NS2(=O)=O)c3c(=O)c4cc(ccc4n(c3[O-])CCC5CC5)F
Actelion Java MolfileCreator 2.0

  0  0  0  0  0  0              0 V3000
M  V30 BEGIN CTAB
M  V30 COUNTS 30 34 0 0 0
M  V30 BEGIN ATOM
M  V30 1 S 3.8971 6.0 0.0 0
M  V30 2 O 3.1471 7.299 0.0 0
M  V30 3 O 2.3971 5.9999 0.0 0
M  V30 4 N 3.8971 4.5 0.0 0
M  V30 5 C 5.1961 6.75 0.0 0
M  V30 6 C 5.1961 3.75 0.0 0
M  V30 7 C 6.4951 6.0 0.0 0
M  V30 8 C 5.1961 8.25 0.0 0
M  V30 9 N 6.4951 4.5 0.0 0 CHG=-1
M  V30 10 C 5.1961 2.25 0.0 0
M  V30 11 C 7.7942 6.75 0.0 0
M  V30 12 C 6.4951 9.0 0.0 0
M  V30 13 C 3.8971 1.5 0.0 0
M  V30 14 C 6.4951 1.5 0.0 0
M  V30 15 C 7.7942 8.25 0.0 0
M  V30 16 O 2.598 2.25 0.0 0 CHG=-1
M  V30 17 N 3.8971 0.0 0.0 0
M  V30 18 O 7.7942 2.25 0.0 0
M  V30 19 C 6.4951 0.0 0.0 0
M  V30 20 C 5.1961 -0.75 0.0 0
M  V30 21 C 2.598 -0.75 0.0 0
M  V30 22 C 7.7942 -0.75 0.0 0
M  V30 23 C 5.1961 -2.25 0.0 0
M  V30 24 C 1.299 0.0 0.0 0
M  V30 25 C 7.7942 -2.25 0.0 0
M  V30 26 C 6.4951 -3.0 0.0 0
M  V30 27 C 0.0 -0.75 0.0 0
M  V30 28 F 9.0932 -3.0 0.0 0
M  V30 29 C -1.5 -0.75 0.0 0
M  V30 30 C -0.75 -2.049 0.0 0
M  V30 END ATOM
M  V30 BEGIN BOND
M  V30 1 2 1 2
M  V30 2 2 1 3
M  V30 3 1 1 4
M  V30 4 1 1 5
M  V30 5 2 4 6
M  V30 6 2 5 7
M  V30 7 1 5 8
M  V30 8 1 6 9
M  V30 9 1 6 10
M  V30 10 1 7 11
M  V30 11 2 8 12
M  V30 12 2 10 13
M  V30 13 1 10 14
M  V30 14 2 11 15
M  V30 15 1 13 16
M  V30 16 1 13 17
M  V30 17 2 14 18
M  V30 18 1 14 19
M  V30 19 1 17 20
M  V30 20 1 17 21
M  V30 21 1 19 22
M  V30 22 1 20 23
M  V30 23 1 21 24
M  V30 24 2 22 25
M  V30 25 2 23 26
M  V30 26 1 24 27
M  V30 27 1 25 28
M  V30 28 1 27 29
M  V30 29 1 27 30
M  V30 30 1 7 9
M  V30 31 1 12 15
M  V30 32 2 19 20
M  V30 33 1 25 26
M  V30 34 1 29 30
M  V30 END BOND
M  V30 END CTAB
M  END
>  <ligand SMILES>
c1ccc2c(c1)[N-]C(=NS2(=O)=O)c3c(=O)c4cc(ccc4n(c3[O-])CCC5CC5)F

>  <input_id>
38

>  <protonation_id>
P10000044

>  <Column 1>
425.441

>  <Column 2>
0.879

>  <Column 3>
4

>  <Column 4>
7

>  <Column 5>
0

>  <Column 6>
-2

$$$$
CSCCn1c2ccccc2c(=O)c(c1[O-])C3=NS(=O)(=O)c4ccccc4[N-]3
Actelion Java MolfileCreator 2.0

  0  0  0  0  0  0              0 V3000
M  V30 BEGIN CTAB
M  V30 COUNTS 28 31 0 0 0
M  V30 BEGIN ATOM
M  V30 1 S 10.3923 2.25 0.0 0
M  V30 2 O 11.1423 3.549 0.0 0
M  V30 3 O 9.6423 3.549 0.0 0
M  V30 4 N 9.0932 1.5 0.0 0
M  V30 5 C 11.6913 1.5 0.0 0
M  V30 6 C 9.0932 0.0 0.0 0
M  V30 7 C 11.6913 0.0 0.0 0
M  V30 8 C 12.9903 2.25 0.0 0
M  V30 9 N 10.3923 -0.75 0.0 0 CHG=-1
M  V30 10 C 7.7942 -0.75 0.0 0
M  V30 11 C 12.9903 -0.75 0.0 0
M  V30 12 C 14.2894 1.5 0.0 0
M  V30 13 C 6.4951 0.0 0.0 0
M  V30 14 C 7.7942 -2.25 0.0 0
M  V30 15 C 14.2894 0.0 0.0 0
M  V30 16 O 6.4951 1.5 0.0 0 CHG=-1
M  V30 17 N 5.1961 -0.75 0.0 0
M  V30 18 O 9.0932 -3.0 0.0 0
M  V30 19 C 6.4951 -3.0 0.0 0
M  V30 20 C 5.1961 -2.25 0.0 0
M  V30 21 C 3.8971 0.0 0.0 0
M  V30 22 C 6.4951 -4.5 0.0 0
M  V30 23 C 3.8971 -3.0 0.0 0
M  V30 24 C 2.598 -0.75 0.0 0
M  V30 25 C 5.1961 -5.25 0.0 0
M  V30 26 C 3.8971 -4.5 0.0 0
M  V30 27 S 1.299 0.0 0.0 0
M  V30 28 C 0.0 -0.75 0.0 0
M  V30 END ATOM
M  V30 BEGIN BOND
M  V30 1 2 1 2
M  V30 2 2 1 3
M  V30 3 1 1 4
M  V30 4 1 1 5
M  V30 5 2 4 6
M  V30 6 2 5 7
M  V30 7 1 5 8
M  V30 8 1 6 9
M  V30 9 1 6 10
M  V30 10 1 7 11
M  V30 11 2 8 12
M  V30 12 2 10 13
M  V30 13 1 10 14
M  V30 14 2 11 15
M  V30 15 1 13 16
M  V30 16 1 13 17
M  V30 17 2 14 18
M  V30 18 1 14 19
M  V30 19 1 17 20
M  V30 20 1 17 21
M  V30 21 1 19 22
M  V30 22 1 20 23
M  V30 23 1 21 24
M  V30 24 2 22 25
M  V30 25 2 23 26
M  V30 26 1 24 27
M  V30 27 1 27 28
M  V30 28 1 7 9
M  V30 29 1 12 15
M  V30 30 2 19 20
M  V30 31 1 25 26
M  V30 END BOND
M  V30 END CTAB
M  END
>  <ligand SMILES>
CSCCn1c2ccccc2c(=O)c(c1[O-])C3=NS(=O)(=O)c4ccccc4[N-]3

>  <input_id>
39

>  <protonation_id>
P10000043

>  <Column 1>
413.48

>  <Column 2>
1.097

>  <Column 3>
4

>  <Column 4>
7

>  <Column 5>
0

>  <Column 6>
-2

$$$$
c1cc(c(=O)[nH]c1)c2c3ccc(cc3n(c2C(=O)[O-])Cc4ccnc(c4)N)Cl
Actelion Java MolfileCreator 2.0

  0  0  0  0  0  0              0 V3000
M  V30 BEGIN CTAB
M  V30 COUNTS 28 31 0 0 0
M  V30 BEGIN ATOM
M  V30 1 Cl 6.3626 3.0251 0.0 0
M  V30 2 C 5.8991 1.5985 0.0 0
M  V30 3 C 4.4319 1.2866 0.0 0
M  V30 4 C 6.9028 0.4838 0.0 0
M  V30 5 C 3.9683 -0.1398 0.0 0
M  V30 6 C 6.4393 -0.9427 0.0 0
M  V30 7 N 2.598 -0.75 0.0 0
M  V30 8 C 4.972 -1.2546 0.0 0
M  V30 9 C 2.7548 -2.2417 0.0 0
M  V30 10 C 1.299 0.0 0.0 0
M  V30 11 C 4.222 -2.5536 0.0 0
M  V30 12 C 1.6401 -3.2454 0.0 0
M  V30 13 C 1.299 1.4999 0.0 0
M  V30 14 C 4.8321 -3.9239 0.0 0
M  V30 15 O 0.2135 -2.7819 0.0 0
M  V30 16 O 1.952 -4.7127 0.0 0 CHG=-1
M  V30 17 C 2.598 2.2499 0.0 0
M  V30 18 C 0.0 2.25 0.0 0
M  V30 19 C 6.3239 -4.0807 0.0 0
M  V30 20 C 3.9505 -5.1374 0.0 0
M  V30 21 C 2.598 3.7499 0.0 0
M  V30 22 C 0.0 3.75 0.0 0
M  V30 23 O 7.2056 -2.8672 0.0 0
M  V30 24 N 6.934 -5.451 0.0 0
M  V30 25 C 4.5606 -6.5078 0.0 0
M  V30 26 N 1.299 4.5 0.0 0
M  V30 27 N 3.8971 4.4999 0.0 0
M  V30 28 C 6.0524 -6.6646 0.0 0
M  V30 END ATOM
M  V30 BEGIN BOND
M  V30 1 1 1 2
M  V30 2 2 2 3
M  V30 3 1 2 4
M  V30 4 1 3 5
M  V30 5 2 4 6
M  V30 6 1 5 7
M  V30 7 2 5 8
M  V30 8 1 7 9
M  V30 9 1 7 10
M  V30 10 1 8 11
M  V30 11 1 9 12
M  V30 12 1 10 13
M  V30 13 1 11 14
M  V30 14 2 12 15
M  V30 15 1 12 16
M  V30 16 2 13 17
M  V30 17 1 13 18
M  V30 18 1 14 19
M  V30 19 2 14 20
M  V30 20 1 17 21
M  V30 21 2 18 22
M  V30 22 2 19 23
M  V30 23 1 19 24
M  V30 24 1 20 25
M  V30 25 2 21 26
M  V30 26 1 21 27
M  V30 27 1 24 28
M  V30 28 1 6 8
M  V30 29 2 9 11
M  V30 30 1 22 26
M  V30 31 2 25 28
M  V30 END BOND
M  V30 END CTAB
M  END
>  <ligand SMILES>
c1cc(c(=O)[nH]c1)c2c3ccc(cc3n(c2C(=O)[O-])Cc4ccnc(c4)N)Cl

>  <input_id>
40

>  <protonation_id>
P10000024

>  <Column 1>
393.81

>  <Column 2>
2.923

>  <Column 3>
4

>  <Column 4>
7

>  <Column 5>
3

>  <Column 6>
-1

$$$$
c1cc(c(=O)[nH]c1)c2c3ccc(cc3n(c2C(=O)[O-])Cc4cc[nH+]c(c4)N)Cl
Actelion Java MolfileCreator 2.0

  0  0  0  0  0  0              0 V3000
M  V30 BEGIN CTAB
M  V30 COUNTS 28 31 0 0 0
M  V30 BEGIN ATOM
M  V30 1 Cl 6.3626 3.0251 0.0 0
M  V30 2 C 5.8991 1.5985 0.0 0
M  V30 3 C 4.4319 1.2866 0.0 0
M  V30 4 C 6.9028 0.4838 0.0 0
M  V30 5 C 3.9683 -0.1398 0.0 0
M  V30 6 C 6.4393 -0.9427 0.0 0
M  V30 7 N 2.598 -0.75 0.0 0
M  V30 8 C 4.972 -1.2546 0.0 0
M  V30 9 C 2.7548 -2.2417 0.0 0
M  V30 10 C 1.299 0.0 0.0 0
M  V30 11 C 4.222 -2.5536 0.0 0
M  V30 12 C 1.6401 -3.2454 0.0 0
M  V30 13 C 1.299 1.4999 0.0 0
M  V30 14 C 4.8321 -3.9239 0.0 0
M  V30 15 O 0.2135 -2.7819 0.0 0
M  V30 16 O 1.952 -4.7127 0.0 0
M  V30 17 C 2.598 2.2499 0.0 0
M  V30 18 C 0.0 2.25 0.0 0
M  V30 19 C 6.3239 -4.0807 0.0 0
M  V30 20 C 3.9505 -5.1374 0.0 0
M  V30 21 C 2.598 3.7499 0.0 0
M  V30 22 C 0.0 3.75 0.0 0
M  V30 23 O 7.2056 -2.8672 0.0 0
M  V30 24 N 6.934 -5.451 0.0 0
M  V30 25 C 4.5606 -6.5078 0.0 0
M  V30 26 N 1.299 4.5 0.0 0
M  V30 27 N 3.8971 4.4999 0.0 0
M  V30 28 C 6.0524 -6.6646 0.0 0
M  V30 END ATOM
M  V30 BEGIN BOND
M  V30 1 1 1 2
M  V30 2 2 2 3
M  V30 3 1 2 4
M  V30 4 1 3 5
M  V30 5 2 4 6
M  V30 6 1 5 7
M  V30 7 2 5 8
M  V30 8 1 7 9
M  V30 9 1 7 10
M  V30 10 1 8 11
M  V30 11 1 9 12
M  V30 12 1 10 13
M  V30 13 1 11 14
M  V30 14 2 12 15
M  V30 15 1 12 16
M  V30 16 2 13 17
M  V30 17 1 13 18
M  V30 18 1 14 19
M  V30 19 2 14 20
M  V30 20 1 17 21
M  V30 21 2 18 22
M  V30 22 2 19 23
M  V30 23 1 19 24
M  V30 24 1 20 25
M  V30 25 2 21 26
M  V30 26 1 21 27
M  V30 27 1 24 28
M  V30 28 1 6 8
M  V30 29 2 9 11
M  V30 30 1 22 26
M  V30 31 2 25 28
M  V30 END BOND
M  V30 END CTAB
M  END
>  <ligand SMILES>
c1cc(c(=O)[nH]c1)c2c3ccc(cc3n(c2C(=O)[O-])Cc4cc[nH+]c(c4)N)Cl

>  <input_id>
40

>  <protonation_id>
P10000023

>  <Column 1>
394.818

>  <Column 2>
2.923

>  <Column 3>
4

>  <Column 4>
7

>  <Column 5>
4

>  <Column 6>
0

$$$$
CN(C)C(=O)Cn1c2cc(sc2c(c1c3ccccc3)C4CCCCC4)C(=O)[O-]
Actelion Java MolfileCreator 2.0

  0  0  0  0  0  0              0 V3000
M  V30 BEGIN CTAB
M  V30 COUNTS 29 32 0 0 0
M  V30 BEGIN ATOM
M  V30 1 S 4.6513 -2.6969 0.0 0
M  V30 2 C 4.5467 -1.7024 0.0 0
M  V30 3 C 3.7377 -3.1036 0.0 0
M  V30 4 C 3.5686 -1.4945 0.0 0
M  V30 5 C 5.0467 -0.8364 0.0 0
M  V30 6 C 3.5298 -4.0818 0.0 0
M  V30 7 C 3.0686 -2.3605 0.0 0
M  V30 8 N 3.4641 -0.5 0.0 0
M  V30 9 C 4.3776 -0.0932 0.0 0
M  V30 10 C 6.0412 -0.7318 0.0 0
M  V30 11 O 2.5787 -4.3908 0.0 0
M  V30 12 O 4.2729 -4.7509 0.0 0 CHG=-1
M  V30 13 C 2.598 0.0 0.0 0
M  V30 14 C 4.5855 0.8848 0.0 0
M  V30 15 C 6.629 -1.5408 0.0 0
M  V30 16 C 6.448 0.1816 0.0 0
M  V30 17 C 1.732 -0.5 0.0 0
M  V30 18 C 5.5366 1.1939 0.0 0
M  V30 19 C 3.8424 1.554 0.0 0
M  V30 20 C 7.6236 -1.4363 0.0 0
M  V30 21 C 7.4425 0.2861 0.0 0
M  V30 22 O 1.732 -1.5 0.0 0
M  V30 23 N 0.866 0.0 0.0 0
M  V30 24 C 5.7445 2.172 0.0 0
M  V30 25 C 4.0503 2.5321 0.0 0
M  V30 26 C 8.0303 -0.5228 0.0 0
M  V30 27 C 0.866 1.0 0.0 0
M  V30 28 C 0.0 -0.5 0.0 0
M  V30 29 C 5.0013 2.8411 0.0 0
M  V30 END ATOM
M  V30 BEGIN BOND
M  V30 1 1 1 2
M  V30 2 1 1 3
M  V30 3 2 2 4
M  V30 4 1 2 5
M  V30 5 1 3 6
M  V30 6 2 3 7
M  V30 7 1 4 8
M  V30 8 2 5 9
M  V30 9 1 5 10
M  V30 10 2 6 11
M  V30 11 1 6 12
M  V30 12 1 8 13
M  V30 13 1 9 14
M  V30 14 1 10 15
M  V30 15 1 10 16
M  V30 16 1 13 17
M  V30 17 2 14 18
M  V30 18 1 14 19
M  V30 19 1 15 20
M  V30 20 1 16 21
M  V30 21 2 17 22
M  V30 22 1 17 23
M  V30 23 1 18 24
M  V30 24 2 19 25
M  V30 25 1 20 26
M  V30 26 1 23 27
M  V30 27 1 23 28
M  V30 28 2 24 29
M  V30 29 1 4 7
M  V30 30 1 8 9
M  V30 31 1 21 26
M  V30 32 1 25 29
M  V30 END BOND
M  V30 END CTAB
M  END
>  <ligand SMILES>
CN(C)C(=O)Cn1c2cc(sc2c(c1c3ccccc3)C4CCCCC4)C(=O)[O-]

>  <input_id>
41

>  <protonation_id>
P10000025

>  <Column 1>
409.531

>  <Column 2>
4.196

>  <Column 3>
5

>  <Column 4>
5

>  <Column 5>
0

>  <Column 6>
-1

$$$$
c1ccc2c(c1)c(=O)c(c(n2Cc3ccncc3)[O-])C4=NS(=O)(=O)c5ccccc5[N-]4
Actelion Java MolfileCreator 2.0

  0  0  0  0  0  0              0 V3000
M  V30 BEGIN CTAB
M  V30 COUNTS 31 35 0 0 0
M  V30 BEGIN ATOM
M  V30 1 S 7.7942 2.25 0.0 0
M  V30 2 O 8.5442 3.549 0.0 0
M  V30 3 O 7.0442 3.549 0.0 0
M  V30 4 N 6.4951 1.5 0.0 0
M  V30 5 C 9.0932 1.5 0.0 0
M  V30 6 C 6.4951 0.0 0.0 0
M  V30 7 C 9.0932 0.0 0.0 0
M  V30 8 C 10.3923 2.25 0.0 0
M  V30 9 N 7.7942 -0.75 0.0 0 CHG=-1
M  V30 10 C 5.1961 -0.75 0.0 0
M  V30 11 C 10.3923 -0.75 0.0 0
M  V30 12 C 11.6913 1.5 0.0 0
M  V30 13 C 3.8971 0.0 0.0 0
M  V30 14 C 5.1961 -2.25 0.0 0
M  V30 15 C 11.6913 0.0 0.0 0
M  V30 16 O 3.8971 1.5 0.0 0 CHG=-1
M  V30 17 N 2.598 -0.75 0.0 0
M  V30 18 O 6.4951 -3.0 0.0 0
M  V30 19 C 3.8971 -3.0 0.0 0
M  V30 20 C 2.598 -2.25 0.0 0
M  V30 21 C 1.299 0.0 0.0 0
M  V30 22 C 3.8971 -4.5 0.0 0
M  V30 23 C 1.299 -3.0 0.0 0
M  V30 24 C 0.0 -0.75 0.0 0
M  V30 25 C 2.598 -5.25 0.0 0
M  V30 26 C 1.299 -4.5 0.0 0
M  V30 27 C -1.299 0.0 0.0 0
M  V30 28 C 0.0 -2.25 0.0 0
M  V30 29 C -2.598 -0.75 0.0 0
M  V30 30 C -1.299 -3.0 0.0 0
M  V30 31 N -2.598 -2.25 0.0 0
M  V30 END ATOM
M  V30 BEGIN BOND
M  V30 1 2 1 2
M  V30 2 2 1 3
M  V30 3 1 1 4
M  V30 4 1 1 5
M  V30 5 2 4 6
M  V30 6 2 5 7
M  V30 7 1 5 8
M  V30 8 1 6 9
M  V30 9 1 6 10
M  V30 10 1 7 11
M  V30 11 2 8 12
M  V30 12 2 10 13
M  V30 13 1 10 14
M  V30 14 2 11 15
M  V30 15 1 13 16
M  V30 16 1 13 17
M  V30 17 2 14 18
M  V30 18 1 14 19
M  V30 19 1 17 20
M  V30 20 1 17 21
M  V30 21 1 19 22
M  V30 22 1 20 23
M  V30 23 1 21 24
M  V30 24 2 22 25
M  V30 25 2 23 26
M  V30 26 2 24 27
M  V30 27 1 24 28
M  V30 28 1 27 29
M  V30 29 2 28 30
M  V30 30 2 29 31
M  V30 31 1 7 9
M  V30 32 1 12 15
M  V30 33 2 19 20
M  V30 34 1 25 26
M  V30 35 1 30 31
M  V30 END BOND
M  V30 END CTAB
M  END
>  <ligand SMILES>
c1ccc2c(c1)c(=O)c(c(n2Cc3ccncc3)[O-])C4=NS(=O)(=O)c5ccccc5[N-]4

>  <input_id>
42

>  <protonation_id>
P10000001

>  <Column 1>
430.445

>  <Column 2>
0.877

>  <Column 3>
3

>  <Column 4>
8

>  <Column 5>
0

>  <Column 6>
-2

$$$$
CC(C)CCn1c2ccc(cc2c(=O)c(c1[O-])C3=NS(=O)(=O)c4ccccc4[N-]3)N
Actelion Java MolfileCreator 2.0

  0  0  0  0  0  0              0 V3000
M  V30 BEGIN CTAB
M  V30 COUNTS 30 33 0 0 0
M  V30 BEGIN ATOM
M  V30 1 S 10.3923 2.25 0.0 0
M  V30 2 O 11.1423 3.549 0.0 0
M  V30 3 O 9.6423 3.549 0.0 0
M  V30 4 N 9.0932 1.5 0.0 0
M  V30 5 C 11.6913 1.5 0.0 0
M  V30 6 C 9.0932 0.0 0.0 0
M  V30 7 C 11.6913 0.0 0.0 0
M  V30 8 C 12.9903 2.25 0.0 0
M  V30 9 N 10.3923 -0.75 0.0 0 CHG=-1
M  V30 10 C 7.7942 -0.75 0.0 0
M  V30 11 C 12.9903 -0.75 0.0 0
M  V30 12 C 14.2894 1.5 0.0 0
M  V30 13 C 6.4951 0.0 0.0 0
M  V30 14 C 7.7942 -2.25 0.0 0
M  V30 15 C 14.2894 0.0 0.0 0
M  V30 16 O 6.4951 1.5 0.0 0 CHG=-1
M  V30 17 N 5.1961 -0.75 0.0 0
M  V30 18 O 9.0932 -3.0 0.0 0
M  V30 19 C 6.4951 -3.0 0.0 0
M  V30 20 C 5.1961 -2.25 0.0 0
M  V30 21 C 3.8971 0.0 0.0 0
M  V30 22 C 6.4951 -4.5 0.0 0
M  V30 23 C 3.8971 -3.0 0.0 0
M  V30 24 C 2.598 -0.75 0.0 0
M  V30 25 C 5.1961 -5.25 0.0 0
M  V30 26 C 3.8971 -4.5 0.0 0
M  V30 27 C 1.299 0.0 0.0 0
M  V30 28 N 5.1961 -6.75 0.0 0
M  V30 29 C 1.299 1.5 0.0 0
M  V30 30 C 0.0 -0.75 0.0 0
M  V30 END ATOM
M  V30 BEGIN BOND
M  V30 1 2 1 2
M  V30 2 2 1 3
M  V30 3 1 1 4
M  V30 4 1 1 5
M  V30 5 2 4 6
M  V30 6 2 5 7
M  V30 7 1 5 8
M  V30 8 1 6 9
M  V30 9 1 6 10
M  V30 10 1 7 11
M  V30 11 2 8 12
M  V30 12 2 10 13
M  V30 13 1 10 14
M  V30 14 2 11 15
M  V30 15 1 13 16
M  V30 16 1 13 17
M  V30 17 2 14 18
M  V30 18 1 14 19
M  V30 19 1 17 20
M  V30 20 1 17 21
M  V30 21 1 19 22
M  V30 22 1 20 23
M  V30 23 1 21 24
M  V30 24 2 22 25
M  V30 25 2 23 26
M  V30 26 1 24 27
M  V30 27 1 25 28
M  V30 28 1 27 29
M  V30 29 1 27 30
M  V30 30 1 7 9
M  V30 31 1 12 15
M  V30 32 2 19 20
M  V30 33 1 25 26
M  V30 END BOND
M  V30 END CTAB
M  END
>  <ligand SMILES>
CC(C)CCn1c2ccc(cc2c(=O)c(c1[O-])C3=NS(=O)(=O)c4ccccc4[N-]3)N

>  <input_id>
43

>  <protonation_id>
P10000003

>  <Column 1>
424.482

>  <Column 2>
1.277

>  <Column 3>
4

>  <Column 4>
8

>  <Column 5>
2

>  <Column 6>
-2

$$$$
CC[C@@H](C)CCn1c2ccccc2c(=O)c(c1[O-])C3=NS(=O)(=O)c4ccccc4[N-]3
Actelion Java MolfileCreator 2.0

  0  0  0  0  0  0              0 V3000
M  V30 BEGIN CTAB
M  V30 COUNTS 30 33 0 0 0
M  V30 BEGIN ATOM
M  V30 1 S 6.4951 6.0 0.0 0
M  V30 2 O 5.7452 7.299 0.0 0
M  V30 3 O 4.9952 5.9999 0.0 0
M  V30 4 N 6.4951 4.5 0.0 0
M  V30 5 C 7.7942 6.75 0.0 0
M  V30 6 C 7.7942 3.75 0.0 0
M  V30 7 C 9.0932 6.0 0.0 0
M  V30 8 C 7.7942 8.25 0.0 0
M  V30 9 N 9.0932 4.5 0.0 0 CHG=-1
M  V30 10 C 7.7942 2.25 0.0 0
M  V30 11 C 10.3923 6.75 0.0 0
M  V30 12 C 9.0932 9.0 0.0 0
M  V30 13 C 6.4951 1.5 0.0 0
M  V30 14 C 9.0932 1.5 0.0 0
M  V30 15 C 10.3923 8.25 0.0 0
M  V30 16 O 5.1961 2.25 0.0 0 CHG=-1
M  V30 17 N 6.4951 0.0 0.0 0
M  V30 18 O 10.3923 2.25 0.0 0
M  V30 19 C 9.0932 0.0 0.0 0
M  V30 20 C 7.7942 -0.75 0.0 0
M  V30 21 C 5.1961 -0.75 0.0 0
M  V30 22 C 10.3923 -0.75 0.0 0
M  V30 23 C 7.7942 -2.25 0.0 0
M  V30 24 C 3.8971 0.0 0.0 0
M  V30 25 C 10.3923 -2.25 0.0 0
M  V30 26 C 9.0932 -3.0 0.0 0
M  V30 27 C 2.598 -0.75 0.0 0 CFG=1
M  V30 28 C 1.299 0.0 0.0 0
M  V30 29 C 2.598 -2.25 0.0 0
M  V30 30 C 0.0 -0.75 0.0 0
M  V30 END ATOM
M  V30 BEGIN BOND
M  V30 1 2 1 2
M  V30 2 2 1 3
M  V30 3 1 1 4
M  V30 4 1 1 5
M  V30 5 2 4 6
M  V30 6 2 5 7
M  V30 7 1 5 8
M  V30 8 1 6 9
M  V30 9 1 6 10
M  V30 10 1 7 11
M  V30 11 2 8 12
M  V30 12 2 10 13
M  V30 13 1 10 14
M  V30 14 2 11 15
M  V30 15 1 13 16
M  V30 16 1 13 17
M  V30 17 2 14 18
M  V30 18 1 14 19
M  V30 19 1 17 20
M  V30 20 1 17 21
M  V30 21 1 19 22
M  V30 22 1 20 23
M  V30 23 1 21 24
M  V30 24 2 22 25
M  V30 25 2 23 26
M  V30 26 1 27 24
M  V30 27 1 27 28
M  V30 28 1 27 29 CFG=3
M  V30 29 1 28 30
M  V30 30 1 7 9
M  V30 31 1 12 15
M  V30 32 2 19 20
M  V30 33 1 25 26
M  V30 END BOND
M  V30 BEGIN COLLECTION
M  V30 MDLV30/STEABS ATOMS=(1 27)
M  V30 END COLLECTION
M  V30 END CTAB
M  END
>  <ligand SMILES>
CC[C@@H](C)CCn1c2ccccc2c(=O)c(c1[O-])C3=NS(=O)(=O)c4ccccc4[N-]3

>  <input_id>
44

>  <protonation_id>
P10000018

>  <Column 1>
423.494

>  <Column 2>
2.467

>  <Column 3>
5

>  <Column 4>
7

>  <Column 5>
0

>  <Column 6>
-2

$$$$
c1ccc2c(c1)-c3c(c4ccc(cc4n3CC(=O)N2)C(=O)[O-])C5CCCCC5
Actelion Java MolfileCreator 2.0

  0  0  0  0  0  0              0 V3000
M  V30 BEGIN CTAB
M  V30 COUNTS 28 32 0 0 0
M  V30 BEGIN ATOM
M  V30 1 O 1.3808 -5.2217 0.0 0
M  V30 2 C 2.2235 -4.6833 0.0 0
M  V30 3 N 3.0742 -5.209 0.0 0
M  V30 4 C 2.1041 -3.6905 0.0 0
M  V30 5 C 4.0156 -4.8717 0.0 0
M  V30 6 N 2.8059 -2.9781 0.0 0
M  V30 7 C 4.3388 -3.9253 0.0 0
M  V30 8 C 4.6735 -5.6247 0.0 0
M  V30 9 C 3.8005 -3.0826 0.0 0
M  V30 10 C 2.598 -1.9999 0.0 0
M  V30 11 C 5.32 -3.7321 0.0 0
M  V30 12 C 5.6547 -5.4315 0.0 0
M  V30 13 C 4.2072 -2.1691 0.0 0
M  V30 14 C 3.4641 -1.4999 0.0 0
M  V30 15 C 1.732 -1.5 0.0 0
M  V30 16 C 5.9779 -4.4852 0.0 0
M  V30 17 C 5.1853 -1.9612 0.0 0
M  V30 18 C 3.4641 -0.4999 0.0 0
M  V30 19 C 1.732 -0.5 0.0 0
M  V30 20 C 5.8545 -2.7043 0.0 0
M  V30 21 C 5.4944 -1.0101 0.0 0
M  V30 22 C 2.598 0.0 0.0 0
M  V30 23 C 0.866 0.0 0.0 0
M  V30 24 C 6.8326 -2.4964 0.0 0
M  V30 25 C 6.4725 -0.8022 0.0 0
M  V30 26 O 0.866 1.0 0.0 0
M  V30 27 O 0.0 -0.5 0.0 0 CHG=-1
M  V30 28 C 7.1416 -1.5453 0.0 0
M  V30 END ATOM
M  V30 BEGIN BOND
M  V30 1 2 1 2
M  V30 2 1 2 3
M  V30 3 1 2 4
M  V30 4 1 3 5
M  V30 5 1 4 6
M  V30 6 2 5 7
M  V30 7 1 5 8
M  V30 8 1 6 9
M  V30 9 1 6 10
M  V30 10 1 7 11
M  V30 11 2 8 12
M  V30 12 2 9 13
M  V30 13 2 10 14
M  V30 14 1 10 15
M  V30 15 2 11 16
M  V30 16 1 13 17
M  V30 17 1 14 18
M  V30 18 2 15 19
M  V30 19 1 17 20
M  V30 20 1 17 21
M  V30 21 2 18 22
M  V30 22 1 19 23
M  V30 23 1 20 24
M  V30 24 1 21 25
M  V30 25 2 23 26
M  V30 26 1 23 27
M  V30 27 1 24 28
M  V30 28 1 7 9
M  V30 29 1 12 16
M  V30 30 1 13 14
M  V30 31 1 19 22
M  V30 32 1 25 28
M  V30 END BOND
M  V30 END CTAB
M  END
>  <ligand SMILES>
c1ccc2c(c1)-c3c(c4ccc(cc4n3CC(=O)N2)C(=O)[O-])C5CCCCC5

>  <input_id>
45

>  <protonation_id>
P10000019

>  <Column 1>
373.432

>  <Column 2>
4.595

>  <Column 3>
2

>  <Column 4>
5

>  <Column 5>
1

>  <Column 6>
-1

$$$$
c1ccc2c(c1)c(=O)c(c(n2CC3CC3)[O-])C4=NS(=O)(=O)c5ccccc5[N-]4
Actelion Java MolfileCreator 2.0

  0  0  0  0  0  0              0 V3000
M  V30 BEGIN CTAB
M  V30 COUNTS 28 32 0 0 0
M  V30 BEGIN ATOM
M  V30 1 S 7.7942 2.25 0.0 0
M  V30 2 O 8.5442 3.549 0.0 0
M  V30 3 O 7.0442 3.549 0.0 0
M  V30 4 N 6.4951 1.5 0.0 0
M  V30 5 C 9.0932 1.5 0.0 0
M  V30 6 C 6.4951 0.0 0.0 0
M  V30 7 C 9.0932 0.0 0.0 0
M  V30 8 C 10.3923 2.25 0.0 0
M  V30 9 N 7.7942 -0.75 0.0 0 CHG=-1
M  V30 10 C 5.1961 -0.75 0.0 0
M  V30 11 C 10.3923 -0.75 0.0 0
M  V30 12 C 11.6913 1.5 0.0 0
M  V30 13 C 3.8971 0.0 0.0 0
M  V30 14 C 5.1961 -2.25 0.0 0
M  V30 15 C 11.6913 0.0 0.0 0
M  V30 16 O 3.8971 1.5 0.0 0 CHG=-1
M  V30 17 N 2.598 -0.75 0.0 0
M  V30 18 O 6.4951 -3.0 0.0 0
M  V30 19 C 3.8971 -3.0 0.0 0
M  V30 20 C 2.598 -2.25 0.0 0
M  V30 21 C 1.299 0.0 0.0 0
M  V30 22 C 3.8971 -4.5 0.0 0
M  V30 23 C 1.299 -3.0 0.0 0
M  V30 24 C 0.0 -0.75 0.0 0
M  V30 25 C 2.598 -5.25 0.0 0
M  V30 26 C 1.299 -4.5 0.0 0
M  V30 27 C -1.5 -0.75 0.0 0
M  V30 28 C -0.75 -2.049 0.0 0
M  V30 END ATOM
M  V30 BEGIN BOND
M  V30 1 2 1 2
M  V30 2 2 1 3
M  V30 3 1 1 4
M  V30 4 1 1 5
M  V30 5 2 4 6
M  V30 6 2 5 7
M  V30 7 1 5 8
M  V30 8 1 6 9
M  V30 9 1 6 10
M  V30 10 1 7 11
M  V30 11 2 8 12
M  V30 12 2 10 13
M  V30 13 1 10 14
M  V30 14 2 11 15
M  V30 15 1 13 16
M  V30 16 1 13 17
M  V30 17 2 14 18
M  V30 18 1 14 19
M  V30 19 1 17 20
M  V30 20 1 17 21
M  V30 21 1 19 22
M  V30 22 1 20 23
M  V30 23 1 21 24
M  V30 24 2 22 25
M  V30 25 2 23 26
M  V30 26 1 24 27
M  V30 27 1 24 28
M  V30 28 1 7 9
M  V30 29 1 12 15
M  V30 30 2 19 20
M  V30 31 1 25 26
M  V30 32 1 27 28
M  V30 END BOND
M  V30 END CTAB
M  END
>  <ligand SMILES>
c1ccc2c(c1)c(=O)c(c(n2CC3CC3)[O-])C4=NS(=O)(=O)c5ccccc5[N-]4

>  <input_id>
46

>  <protonation_id>
P10000015

>  <Column 1>
393.424

>  <Column 2>
1.442

>  <Column 3>
3

>  <Column 4>
7

>  <Column 5>
0

>  <Column 6>
-2

$$$$
CCCCCn1c2ccccc2c(=O)c(c1[O-])C3=NS(=O)(=O)c4ccccc4[N-]3
Actelion Java MolfileCreator 2.0

  0  0  0  0  0  0              0 V3000
M  V30 BEGIN CTAB
M  V30 COUNTS 29 32 0 0 0
M  V30 BEGIN ATOM
M  V30 1 S 6.4951 6.0 0.0 0
M  V30 2 O 5.7452 7.299 0.0 0
M  V30 3 O 4.9952 5.9999 0.0 0
M  V30 4 N 6.4951 4.5 0.0 0
M  V30 5 C 7.7942 6.75 0.0 0
M  V30 6 C 7.7942 3.75 0.0 0
M  V30 7 C 9.0932 6.0 0.0 0
M  V30 8 C 7.7942 8.25 0.0 0
M  V30 9 N 9.0932 4.5 0.0 0 CHG=-1
M  V30 10 C 7.7942 2.25 0.0 0
M  V30 11 C 10.3923 6.75 0.0 0
M  V30 12 C 9.0932 9.0 0.0 0
M  V30 13 C 6.4951 1.5 0.0 0
M  V30 14 C 9.0932 1.5 0.0 0
M  V30 15 C 10.3923 8.25 0.0 0
M  V30 16 O 5.1961 2.25 0.0 0 CHG=-1
M  V30 17 N 6.4951 0.0 0.0 0
M  V30 18 O 10.3923 2.25 0.0 0
M  V30 19 C 9.0932 0.0 0.0 0
M  V30 20 C 7.7942 -0.75 0.0 0
M  V30 21 C 5.1961 -0.75 0.0 0
M  V30 22 C 10.3923 -0.75 0.0 0
M  V30 23 C 7.7942 -2.25 0.0 0
M  V30 24 C 3.8971 0.0 0.0 0
M  V30 25 C 10.3923 -2.25 0.0 0
M  V30 26 C 9.0932 -3.0 0.0 0
M  V30 27 C 2.598 -0.75 0.0 0
M  V30 28 C 1.299 0.0 0.0 0
M  V30 29 C 0.0 -0.75 0.0 0
M  V30 END ATOM
M  V30 BEGIN BOND
M  V30 1 2 1 2
M  V30 2 2 1 3
M  V30 3 1 1 4
M  V30 4 1 1 5
M  V30 5 2 4 6
M  V30 6 2 5 7
M  V30 7 1 5 8
M  V30 8 1 6 9
M  V30 9 1 6 10
M  V30 10 1 7 11
M  V30 11 2 8 12
M  V30 12 2 10 13
M  V30 13 1 10 14
M  V30 14 2 11 15
M  V30 15 1 13 16
M  V30 16 1 13 17
M  V30 17 2 14 18
M  V30 18 1 14 19
M  V30 19 1 17 20
M  V30 20 1 17 21
M  V30 21 1 19 22
M  V30 22 1 20 23
M  V30 23 1 21 24
M  V30 24 2 22 25
M  V30 25 2 23 26
M  V30 26 1 24 27
M  V30 27 1 27 28
M  V30 28 1 28 29
M  V30 29 1 7 9
M  V30 30 1 12 15
M  V30 31 2 19 20
M  V30 32 1 25 26
M  V30 END BOND
M  V30 END CTAB
M  END
>  <ligand SMILES>
CCCCCn1c2ccccc2c(=O)c(c1[O-])C3=NS(=O)(=O)c4ccccc4[N-]3

>  <input_id>
47

>  <protonation_id>
P10000016

>  <Column 1>
409.467

>  <Column 2>
2.515

>  <Column 3>
5

>  <Column 4>
7

>  <Column 5>
0

>  <Column 6>
-2

$$$$
c1ccc2c(c1)c(=O)c(c(n2Cc3cccc(c3)[N+](=O)[O-])[O-])C4=NS(=O)(=O)c5ccccc5[N-]4
Actelion Java MolfileCreator 2.0

  0  0  0  0  0  0              0 V3000
M  V30 BEGIN CTAB
M  V30 COUNTS 34 38 0 0 0
M  V30 BEGIN ATOM
M  V30 1 S 7.7942 2.25 0.0 0
M  V30 2 O 8.5442 3.549 0.0 0
M  V30 3 O 7.0442 3.549 0.0 0
M  V30 4 N 6.4951 1.5 0.0 0
M  V30 5 C 9.0932 1.5 0.0 0
M  V30 6 C 6.4951 0.0 0.0 0
M  V30 7 C 9.0932 0.0 0.0 0
M  V30 8 C 10.3923 2.25 0.0 0
M  V30 9 N 7.7942 -0.75 0.0 0 CHG=-1
M  V30 10 C 5.1961 -0.75 0.0 0
M  V30 11 C 10.3923 -0.75 0.0 0
M  V30 12 C 11.6913 1.5 0.0 0
M  V30 13 C 3.8971 0.0 0.0 0
M  V30 14 C 5.1961 -2.25 0.0 0
M  V30 15 C 11.6913 0.0 0.0 0
M  V30 16 O 3.8971 1.5 0.0 0 CHG=-1
M  V30 17 N 2.598 -0.75 0.0 0
M  V30 18 O 6.4951 -3.0 0.0 0
M  V30 19 C 3.8971 -3.0 0.0 0
M  V30 20 C 2.598 -2.25 0.0 0
M  V30 21 C 1.299 0.0 0.0 0
M  V30 22 C 3.8971 -4.5 0.0 0
M  V30 23 C 1.299 -3.0 0.0 0
M  V30 24 C 0.0 -0.75 0.0 0
M  V30 25 C 2.598 -5.25 0.0 0
M  V30 26 C 1.299 -4.5 0.0 0
M  V30 27 C -1.299 0.0 0.0 0
M  V30 28 C 0.0 -2.25 0.0 0
M  V30 29 C -2.598 -0.75 0.0 0
M  V30 30 C -1.299 -3.0 0.0 0
M  V30 31 N -3.8971 0.0 0.0 0 CHG=1
M  V30 32 C -2.598 -2.25 0.0 0
M  V30 33 O -3.8971 1.5 0.0 0
M  V30 34 O -5.1961 -0.75 0.0 0 CHG=-1
M  V30 END ATOM
M  V30 BEGIN BOND
M  V30 1 2 1 2
M  V30 2 2 1 3
M  V30 3 1 1 4
M  V30 4 1 1 5
M  V30 5 2 4 6
M  V30 6 2 5 7
M  V30 7 1 5 8
M  V30 8 1 6 9
M  V30 9 1 6 10
M  V30 10 1 7 11
M  V30 11 2 8 12
M  V30 12 2 10 13
M  V30 13 1 10 14
M  V30 14 2 11 15
M  V30 15 1 13 16
M  V30 16 1 13 17
M  V30 17 2 14 18
M  V30 18 1 14 19
M  V30 19 1 17 20
M  V30 20 1 17 21
M  V30 21 1 19 22
M  V30 22 1 20 23
M  V30 23 1 21 24
M  V30 24 2 22 25
M  V30 25 2 23 26
M  V30 26 2 24 27
M  V30 27 1 24 28
M  V30 28 1 27 29
M  V30 29 2 28 30
M  V30 30 1 29 31
M  V30 31 2 29 32
M  V30 32 2 31 33
M  V30 33 1 31 34
M  V30 34 1 7 9
M  V30 35 1 12 15
M  V30 36 2 19 20
M  V30 37 1 25 26
M  V30 38 1 30 32
M  V30 END BOND
M  V30 END CTAB
M  END
>  <ligand SMILES>
c1ccc2c(c1)c(=O)c(c(n2Cc3cccc(c3)[N+](=O)[O-])[O-])C4=NS(=O)(=O)c5ccccc5[N-]4

>  <input_id>
48

>  <protonation_id>
P10000002

>  <Column 1>
474.454

>  <Column 2>
2.101

>  <Column 3>
4

>  <Column 4>
10

>  <Column 5>
0

>  <Column 6>
-2

$$$$
C[C@@H](CCn1c2ccccc2c(=O)c(c1[O-])C3=NS(=O)(=O)c4ccccc4[N-]3)OC
Actelion Java MolfileCreator 2.0

  0  0  0  0  0  0              0 V3000
M  V30 BEGIN CTAB
M  V30 COUNTS 30 33 0 0 0
M  V30 BEGIN ATOM
M  V30 1 S 6.4951 6.0 0.0 0
M  V30 2 O 5.7452 7.299 0.0 0
M  V30 3 O 4.9952 5.9999 0.0 0
M  V30 4 N 6.4951 4.5 0.0 0
M  V30 5 C 7.7942 6.75 0.0 0
M  V30 6 C 7.7942 3.75 0.0 0
M  V30 7 C 9.0932 6.0 0.0 0
M  V30 8 C 7.7942 8.25 0.0 0
M  V30 9 N 9.0932 4.5 0.0 0 CHG=-1
M  V30 10 C 7.7942 2.25 0.0 0
M  V30 11 C 10.3923 6.75 0.0 0
M  V30 12 C 9.0932 9.0 0.0 0
M  V30 13 C 6.4951 1.5 0.0 0
M  V30 14 C 9.0932 1.5 0.0 0
M  V30 15 C 10.3923 8.25 0.0 0
M  V30 16 O 5.1961 2.25 0.0 0 CHG=-1
M  V30 17 N 6.4951 0.0 0.0 0
M  V30 18 O 10.3923 2.25 0.0 0
M  V30 19 C 9.0932 0.0 0.0 0
M  V30 20 C 7.7942 -0.75 0.0 0
M  V30 21 C 5.1961 -0.75 0.0 0
M  V30 22 C 10.3923 -0.75 0.0 0
M  V30 23 C 7.7942 -2.25 0.0 0
M  V30 24 C 3.8971 0.0 0.0 0
M  V30 25 C 10.3923 -2.25 0.0 0
M  V30 26 C 9.0932 -3.0 0.0 0
M  V30 27 C 2.598 -0.75 0.0 0 CFG=1
M  V30 28 O 1.299 0.0 0.0 0
M  V30 29 C 2.598 -2.25 0.0 0
M  V30 30 C 0.0 -0.75 0.0 0
M  V30 END ATOM
M  V30 BEGIN BOND
M  V30 1 2 1 2
M  V30 2 2 1 3
M  V30 3 1 1 4
M  V30 4 1 1 5
M  V30 5 2 4 6
M  V30 6 2 5 7
M  V30 7 1 5 8
M  V30 8 1 6 9
M  V30 9 1 6 10
M  V30 10 1 7 11
M  V30 11 2 8 12
M  V30 12 2 10 13
M  V30 13 1 10 14
M  V30 14 2 11 15
M  V30 15 1 13 16
M  V30 16 1 13 17
M  V30 17 2 14 18
M  V30 18 1 14 19
M  V30 19 1 17 20
M  V30 20 1 17 21
M  V30 21 1 19 22
M  V30 22 1 20 23
M  V30 23 1 21 24
M  V30 24 2 22 25
M  V30 25 2 23 26
M  V30 26 1 27 24
M  V30 27 1 27 28 CFG=3
M  V30 28 1 27 29
M  V30 29 1 28 30
M  V30 30 1 7 9
M  V30 31 1 12 15
M  V30 32 2 19 20
M  V30 33 1 25 26
M  V30 END BOND
M  V30 BEGIN COLLECTION
M  V30 MDLV30/STEABS ATOMS=(1 27)
M  V30 END COLLECTION
M  V30 END CTAB
M  END
>  <ligand SMILES>
C[C@@H](CCn1c2ccccc2c(=O)c(c1[O-])C3=NS(=O)(=O)c4ccccc4[N-]3)OC

>  <input_id>
49

>  <protonation_id>
P10000005

>  <Column 1>
425.466

>  <Column 2>
1.19

>  <Column 3>
5

>  <Column 4>
8

>  <Column 5>
0

>  <Column 6>
-2

$$$$
c1ccc(cc1)Cn2c3ccccc3c(=O)c(c2[O-])C4=NS(=O)(=O)c5ccccc5[N-]4
Actelion Java MolfileCreator 2.0

  0  0  0  0  0  0              0 V3000
M  V30 BEGIN CTAB
M  V30 COUNTS 31 35 0 0 0
M  V30 BEGIN ATOM
M  V30 1 S 7.7942 2.25 0.0 0
M  V30 2 O 8.5442 3.549 0.0 0
M  V30 3 O 7.0442 3.549 0.0 0
M  V30 4 N 6.4951 1.5 0.0 0
M  V30 5 C 9.0932 1.5 0.0 0
M  V30 6 C 6.4951 0.0 0.0 0
M  V30 7 C 9.0932 0.0 0.0 0
M  V30 8 C 10.3923 2.25 0.0 0
M  V30 9 N 7.7942 -0.75 0.0 0 CHG=-1
M  V30 10 C 5.1961 -0.75 0.0 0
M  V30 11 C 10.3923 -0.75 0.0 0
M  V30 12 C 11.6913 1.5 0.0 0
M  V30 13 C 3.8971 0.0 0.0 0
M  V30 14 C 5.1961 -2.25 0.0 0
M  V30 15 C 11.6913 0.0 0.0 0
M  V30 16 O 3.8971 1.5 0.0 0 CHG=-1
M  V30 17 N 2.598 -0.75 0.0 0
M  V30 18 O 6.4951 -3.0 0.0 0
M  V30 19 C 3.8971 -3.0 0.0 0
M  V30 20 C 2.598 -2.25 0.0 0
M  V30 21 C 1.299 0.0 0.0 0
M  V30 22 C 3.8971 -4.5 0.0 0
M  V30 23 C 1.299 -3.0 0.0 0
M  V30 24 C 0.0 -0.75 0.0 0
M  V30 25 C 2.598 -5.25 0.0 0
M  V30 26 C 1.299 -4.5 0.0 0
M  V30 27 C -1.299 0.0 0.0 0
M  V30 28 C 0.0 -2.25 0.0 0
M  V30 29 C -2.598 -0.75 0.0 0
M  V30 30 C -1.299 -3.0 0.0 0
M  V30 31 C -2.598 -2.25 0.0 0
M  V30 END ATOM
M  V30 BEGIN BOND
M  V30 1 2 1 2
M  V30 2 2 1 3
M  V30 3 1 1 4
M  V30 4 1 1 5
M  V30 5 2 4 6
M  V30 6 2 5 7
M  V30 7 1 5 8
M  V30 8 1 6 9
M  V30 9 1 6 10
M  V30 10 1 7 11
M  V30 11 2 8 12
M  V30 12 2 10 13
M  V30 13 1 10 14
M  V30 14 2 11 15
M  V30 15 1 13 16
M  V30 16 1 13 17
M  V30 17 2 14 18
M  V30 18 1 14 19
M  V30 19 1 17 20
M  V30 20 1 17 21
M  V30 21 1 19 22
M  V30 22 1 20 23
M  V30 23 1 21 24
M  V30 24 2 22 25
M  V30 25 2 23 26
M  V30 26 2 24 27
M  V30 27 1 24 28
M  V30 28 1 27 29
M  V30 29 2 28 30
M  V30 30 2 29 31
M  V30 31 1 7 9
M  V30 32 1 12 15
M  V30 33 2 19 20
M  V30 34 1 25 26
M  V30 35 1 30 31
M  V30 END BOND
M  V30 END CTAB
M  END
>  <ligand SMILES>
c1ccc(cc1)Cn2c3ccccc3c(=O)c(c2[O-])C4=NS(=O)(=O)c5ccccc5[N-]4

>  <input_id>
50

>  <protonation_id>
P10000079

>  <Column 1>
429.457

>  <Column 2>
2.166

>  <Column 3>
3

>  <Column 4>
7

>  <Column 5>
0

>  <Column 6>
-2

$$$$
