REMARK  Name = 
REMARK  8 active torsions:
REMARK  status: ('A' for Active; 'I' for Inactive)
REMARK    1  A    between atoms: C_1  and  C_2
REMARK    2  A    between atoms: C_2  and  C_3
REMARK    3  A    between atoms: C_2  and  C_4
REMARK    4  A    between atoms: C_7  and  C_8
REMARK    5  A    between atoms: C_10  and  S_11
REMARK    6  A    between atoms: S_11  and  C_12
REMARK    7  A    between atoms: C_12  and  C_13
REMARK    8  A    between atoms: C_23  and  C_24
REMARK                            x       y       z     vdW  Elec       q    Type
REMARK                         _______ _______ _______ _____ _____    ______ ____
ROOT
ATOM      1  C   UNL     1      -5.435   1.279   0.838  0.00  0.00    +0.096 A 
ATOM      2  N   UNL     1      -6.110   1.959  -0.157  0.00  0.00    -0.222 NA
ATOM      3  C   UNL     1      -7.391   2.019  -0.050  0.00  0.00    +0.170 A 
ATOM      4  N   UNL     1      -8.106   1.463   0.958  0.00  0.00    -0.301 N 
ATOM      5  C   UNL     1      -7.507   0.753   1.955  0.00  0.00    +0.270 A 
ATOM      6  O   UNL     1      -8.158   0.225   2.849  0.00  0.00    -0.266 OA
ATOM      7  C   UNL     1      -6.034   0.673   1.880  0.00  0.00    +0.142 A 
ATOM      8  H   UNL     1      -9.111   1.545   0.968  0.00  0.00    +0.171 HD
ENDROOT
BRANCH   1  12
ATOM      9  C   UNL     1      -1.154   1.268   0.464  0.00  0.00    -0.045 A 
ATOM     10  C   UNL     1      -1.821   2.347   1.063  0.00  0.00    +0.004 A 
ATOM     11  C   UNL     1      -3.214   2.350   1.185  0.00  0.00    +0.010 A 
ATOM     12  C   UNL     1      -3.965   1.268   0.714  0.00  0.00    +0.002 A 
ATOM     13  C   UNL     1      -3.309   0.192   0.109  0.00  0.00    +0.010 A 
ATOM     14  C   UNL     1      -1.917   0.195  -0.018  0.00  0.00    +0.004 A 
BRANCH   9  16
ATOM     15  C   UNL     1       1.037   0.019   0.781  0.00  0.00    +0.012 C 
ATOM     16  C   UNL     1       0.357   1.310   0.317  0.00  0.00    +0.013 C 
ATOM     17  C   UNL     1       0.749   1.642  -1.124  0.00  0.00    +0.012 C 
ENDBRANCH   9  16
ENDBRANCH   1  12
BRANCH   7  18
ATOM     18  C   UNL     1      -5.301  -0.023   3.015  0.00  0.00    +0.107 C 
ATOM     19  N   UNL     1      -4.693  -0.600   3.957  0.00  0.00    -0.191 NA
ENDBRANCH   7  18
BRANCH   3  20
ATOM     20  S   UNL     1      -8.376   2.847  -1.208  0.00  0.00    -0.083 S 
BRANCH  20  21
ATOM     21  C   UNL     1      -8.409   1.571  -2.507  0.00  0.00    +0.113 C 
BRANCH  21  22
ATOM     22  C   UNL     1      -9.093   0.300  -2.055  0.00  0.00    -0.023 A 
ATOM     23  C   UNL     1     -10.479   0.342  -1.798  0.00  0.00    +0.005 A 
ATOM     24  C   UNL     1     -11.163  -0.780  -1.326  0.00  0.00    +0.000 A 
ATOM     25  C   UNL     1     -10.477  -1.970  -1.110  0.00  0.00    +0.001 A 
ATOM     26  C   UNL     1      -9.111  -2.040  -1.375  0.00  0.00    +0.015 A 
ATOM     27  C   UNL     1      -8.421  -0.917  -1.847  0.00  0.00    +0.022 A 
ATOM     28 BR   UNL     1      -6.564  -1.141  -2.175  0.00  0.00    -0.050 Br
ENDBRANCH  21  22
ENDBRANCH  20  21
ENDBRANCH   3  20
TORSDOF 6
