REMARK  Name = 
REMARK  7 active torsions:
REMARK  status: ('A' for Active; 'I' for Inactive)
REMARK    1  A    between atoms: C_1  and  C_2
REMARK    2  A    between atoms: C_6  and  C_7
REMARK    3  A    between atoms: C_7  and  S_8
REMARK    4  A    between atoms: S_8  and  C_9
REMARK    5  A    between atoms: C_11  and  C_12
REMARK    6  A    between atoms: C_16  and  C_17
REMARK    7  A    between atoms: C_19  and  C_20
REMARK                            x       y       z     vdW  Elec       q    Type
REMARK                         _______ _______ _______ _____ _____    ______ ____
ROOT
ATOM      1  C   UNL     1      -1.950   2.498  -3.020  0.00  0.00    +0.170 A 
ATOM      2  N   UNL     1      -1.498   3.636  -3.419  0.00  0.00    -0.222 NA
ATOM      3  C   UNL     1      -0.674   3.624  -4.526  0.00  0.00    +0.096 A 
ATOM      4  C   UNL     1      -0.278   2.506  -5.162  0.00  0.00    +0.142 A 
ATOM      5  C   UNL     1      -0.784   1.217  -4.645  0.00  0.00    +0.270 A 
ATOM      6  O   UNL     1      -0.468   0.138  -5.132  0.00  0.00    -0.266 OA
ATOM      7  N   UNL     1      -1.639   1.307  -3.587  0.00  0.00    -0.301 N 
ATOM      8  H   UNL     1      -2.011   0.453  -3.197  0.00  0.00    +0.171 HD
ENDROOT
BRANCH   3   9
ATOM      9  C   UNL     1      -0.245   4.950  -5.013  0.00  0.00    +0.002 A 
ATOM     10  C   UNL     1      -0.852   5.526  -6.137  0.00  0.00    +0.010 A 
ATOM     11  C   UNL     1      -0.442   6.779  -6.592  0.00  0.00    +0.001 A 
ATOM     12  C   UNL     1       0.575   7.465  -5.928  0.00  0.00    +0.003 A 
ATOM     13  C   UNL     1       1.194   6.904  -4.805  0.00  0.00    -0.050 A 
ATOM     14  C   UNL     1       2.256   7.664  -4.066  0.00  0.00    +0.044 C 
ATOM     15  C   UNL     1       0.767   5.651  -4.343  0.00  0.00    +0.013 A 
ENDBRANCH   3   9
BRANCH   4  16
ATOM     16  C   UNL     1       0.604   2.494  -6.400  0.00  0.00    +0.107 C 
ATOM     17  N   UNL     1       1.335   2.484  -7.427  0.00  0.00    -0.191 NA
ENDBRANCH   4  16
BRANCH   1  18
ATOM     18  S   UNL     1      -3.044   2.366  -1.686  0.00  0.00    -0.083 S 
BRANCH  18  19
ATOM     19  C   UNL     1      -1.852   2.594  -0.334  0.00  0.00    +0.112 C 
BRANCH  19  25
ATOM     20  C   UNL     1       2.610   0.374  -1.127  0.00  0.00    +0.044 C 
ATOM     21  C   UNL     1       1.216   0.328  -0.574  0.00  0.00    -0.050 A 
ATOM     22  C   UNL     1       0.717  -0.854  -0.015  0.00  0.00    +0.003 A 
ATOM     23  C   UNL     1      -0.589  -0.910   0.470  0.00  0.00    +0.001 A 
ATOM     24  C   UNL     1      -1.413   0.211   0.386  0.00  0.00    +0.004 A 
ATOM     25  C   UNL     1      -0.940   1.400  -0.187  0.00  0.00    -0.037 A 
ATOM     26  C   UNL     1       0.378   1.447  -0.666  0.00  0.00    +0.007 A 
ENDBRANCH  19  25
ENDBRANCH  18  19
ENDBRANCH   1  18
TORSDOF 5
