
 OpenBabel09122222393D

 26 28  0  0  0  0  0  0  0  0999 V2000
   -2.2510    4.6370   -7.6680 C   0  0  0  0  0  0  0  0  0  0  0  0
   -2.6940    5.6800   -8.2800 N   0  0  0  0  0  0  0  0  0  0  0  0
   -1.7520    6.5760   -8.7440 C   0  0  0  0  0  0  0  0  0  0  0  0
   -0.4270    6.4510   -8.5440 C   0  0  0  0  0  0  0  0  0  0  0  0
    0.0370    5.2620   -7.7980 C   0  0  0  0  0  0  0  0  0  0  0  0
    1.2180    5.0620   -7.5390 O   0  0  0  0  0  0  0  0  0  0  0  0
   -0.9410    4.3900   -7.4210 N   0  0  0  0  0  0  0  0  0  0  0  0
   -0.6740    3.5630   -6.9080 H   0  0  0  0  0  0  0  0  0  0  0  0
   -2.2850    7.7140   -9.5190 C   0  0  0  0  0  0  0  0  0  0  0  0
   -3.1300    7.4950  -10.6140 C   0  0  0  0  0  3  0  0  0  0  0  0
   -3.6300    8.5740  -11.3420 C   0  0  0  0  0  3  0  0  0  0  0  0
   -3.2910    9.8780  -10.9810 C   0  0  0  0  0  3  0  0  0  0  0  0
   -2.4460   10.1150   -9.8910 C   0  0  0  0  0  0  0  0  0  0  0  0
   -2.1190   11.5200   -9.4760 C   0  0  0  0  0  1  0  0  0  0  0  0
   -1.9590    9.0270   -9.1530 C   0  0  0  0  0  3  0  0  0  0  0  0
    0.6130    7.4200   -9.0820 C   0  0  0  0  0  2  0  0  0  0  0  0
    1.4760    8.2250   -9.5280 N   0  0  0  0  0  1  0  0  0  0  0  0
   -3.3100    3.3980   -7.0890 S   0  0  0  0  0  0  0  0  0  0  0  0
   -2.1580    1.9950   -7.1720 C   0  0  0  0  0  2  0  0  0  0  0  0
   -3.5000   -1.4050   -3.6920 C   0  0  0  0  0  1  0  0  0  0  0  0
   -2.6080   -0.2830   -4.1370 C   0  0  0  0  0  0  0  0  0  0  0  0
   -1.6560    0.2510   -3.2610 C   0  0  0  0  0  3  0  0  0  0  0  0
   -0.8480    1.3150   -3.6590 C   0  0  0  0  0  3  0  0  0  0  0  0
   -0.9960    1.8650   -4.9310 C   0  0  0  0  0  3  0  0  0  0  0  0
   -1.9560    1.3590   -5.8180 C   0  0  0  0  0  0  0  0  0  0  0  0
   -2.7600    0.2830   -5.4090 C   0  0  0  0  0  3  0  0  0  0  0  0
  1  7  1  0  0  0  0
  1 18  1  0  0  0  0
  2  1  2  0  0  0  0
  3  4  2  0  0  0  0
  3  2  1  0  0  0  0
  4  5  1  0  0  0  0
  5  6  2  0  0  0  0
  5  7  1  0  0  0  0
  7  8  1  0  0  0  0
  9 15  1  0  0  0  0
  9  3  1  0  0  0  0
 10  9  2  0  0  0  0
 11 12  2  0  0  0  0
 11 10  1  0  0  0  0
 12 13  1  0  0  0  0
 13 14  1  0  0  0  0
 13 15  2  0  0  0  0
 16  4  1  0  0  0  0
 17 16  1  0  0  0  0
 19 18  1  0  0  0  0
 19 25  1  0  0  0  0
 21 20  1  0  0  0  0
 21 22  1  0  0  0  0
 23 22  2  0  0  0  0
 24 23  1  0  0  0  0
 25 26  1  0  0  0  0
 25 24  2  0  0  0  0
 26 21  2  0  0  0  0
M  END
>  <minimizedAffinity>
48.6017494

$$$$
