
 OpenBabel09122222393D

 26 28  0  0  0  0  0  0  0  0999 V2000
   -2.4890    4.7760   -7.6460 C   0  0  0  0  0  0  0  0  0  0  0  0
   -2.8820    5.8250   -8.2820 N   0  0  0  0  0  0  0  0  0  0  0  0
   -1.8970    6.6580   -8.7740 C   0  0  0  0  0  0  0  0  0  0  0  0
   -0.5790    6.4690   -8.5780 C   0  0  0  0  0  0  0  0  0  0  0  0
   -0.1730    5.2770   -7.8040 C   0  0  0  0  0  0  0  0  0  0  0  0
    0.9970    5.0220   -7.5460 O   0  0  0  0  0  0  0  0  0  0  0  0
   -1.1930    4.4680   -7.4000 N   0  0  0  0  0  0  0  0  0  0  0  0
   -0.9660    3.6410   -6.8670 H   0  0  0  0  0  0  0  0  0  0  0  0
   -2.3750    7.8020   -9.5750 C   0  0  0  0  0  0  0  0  0  0  0  0
   -3.1740    7.5940  -10.7080 C   0  0  0  0  0  3  0  0  0  0  0  0
   -3.6220    8.6800  -11.4600 C   0  0  0  0  0  3  0  0  0  0  0  0
   -3.2770    9.9780  -11.0870 C   0  0  0  0  0  3  0  0  0  0  0  0
   -2.4780   10.2050   -9.9610 C   0  0  0  0  0  0  0  0  0  0  0  0
   -2.1450   11.6050   -9.5360 C   0  0  0  0  0  1  0  0  0  0  0  0
   -2.0430    9.1110   -9.1990 C   0  0  0  0  0  3  0  0  0  0  0  0
    0.5070    7.3690   -9.1460 C   0  0  0  0  0  2  0  0  0  0  0  0
    1.4070    8.1150   -9.6170 N   0  0  0  0  0  1  0  0  0  0  0  0
   -3.6090    3.6090   -7.0300 S   0  0  0  0  0  0  0  0  0  0  0  0
   -2.6110    2.1130   -7.2880 C   0  0  0  0  0  2  0  0  0  0  0  0
    2.2670    2.1750   -5.9960 C   0  0  0  0  0  1  0  0  0  0  0  0
    0.8250    2.0020   -5.6190 C   0  0  0  0  0  0  0  0  0  0  0  0
    0.4780    1.6060   -4.3220 C   0  0  0  0  0  3  0  0  0  0  0  0
   -0.8590    1.4110   -3.9780 C   0  0  0  0  0  3  0  0  0  0  0  0
   -1.8590    1.5960   -4.9310 C   0  0  0  0  0  3  0  0  0  0  0  0
   -1.5330    1.9740   -6.2410 C   0  0  0  0  0  0  0  0  0  0  0  0
   -0.1840    2.1730   -6.5750 C   0  0  0  0  0  3  0  0  0  0  0  0
  1  7  1  0  0  0  0
  1 18  1  0  0  0  0
  2  1  2  0  0  0  0
  3  4  2  0  0  0  0
  3  2  1  0  0  0  0
  4  5  1  0  0  0  0
  5  6  2  0  0  0  0
  5  7  1  0  0  0  0
  7  8  1  0  0  0  0
  9 15  1  0  0  0  0
  9  3  1  0  0  0  0
 10  9  2  0  0  0  0
 11 12  2  0  0  0  0
 11 10  1  0  0  0  0
 12 13  1  0  0  0  0
 13 14  1  0  0  0  0
 13 15  2  0  0  0  0
 16  4  1  0  0  0  0
 17 16  1  0  0  0  0
 19 18  1  0  0  0  0
 19 25  1  0  0  0  0
 20 21  1  0  0  0  0
 21 22  1  0  0  0  0
 22 23  2  0  0  0  0
 24 23  1  0  0  0  0
 25 24  2  0  0  0  0
 26 25  1  0  0  0  0
 26 21  2  0  0  0  0
M  END
>  <minimizedAffinity>
46.96241

$$$$
