
 OpenBabel09122222393D

 26 28  0  0  0  0  0  0  0  0999 V2000
    1.4200    5.7380   -8.0870 C   0  0  0  0  0  0  0  0  0  0  0  0
    1.0650    5.2070   -6.9690 N   0  0  0  0  0  0  0  0  0  0  0  0
    1.6750    4.0180   -6.6240 C   0  0  0  0  0  0  0  0  0  0  0  0
    2.5580    3.3670   -7.4040 C   0  0  0  0  0  0  0  0  0  0  0  0
    2.9050    3.9890   -8.6990 C   0  0  0  0  0  0  0  0  0  0  0  0
    3.6780    3.4710   -9.4970 O   0  0  0  0  0  0  0  0  0  0  0  0
    2.3110    5.1900   -8.9490 N   0  0  0  0  0  0  0  0  0  0  0  0
    2.5150    5.6540   -9.8220 H   0  0  0  0  0  0  0  0  0  0  0  0
    1.3150    3.4810   -5.2970 C   0  0  0  0  0  0  0  0  0  0  0  0
    1.8920    4.0090   -4.1350 C   0  0  0  0  0  3  0  0  0  0  0  0
    1.5470    3.4960   -2.8840 C   0  0  0  0  0  3  0  0  0  0  0  0
    0.6240    2.4550   -2.7860 C   0  0  0  0  0  3  0  0  0  0  0  0
    0.0390    1.9140   -3.9370 C   0  0  0  0  0  0  0  0  0  0  0  0
   -0.9880    0.8260   -3.8250 C   0  0  0  0  0  1  0  0  0  0  0  0
    0.3780    2.4440   -5.1900 C   0  0  0  0  0  3  0  0  0  0  0  0
    3.2540    2.0740   -7.0110 C   0  0  0  0  0  2  0  0  0  0  0  0
    3.8310    1.0010   -6.6860 N   0  0  0  0  0  1  0  0  0  0  0  0
    0.7880    7.2590   -8.6180 S   0  0  0  0  0  0  0  0  0  0  0  0
   -0.9610    6.9830   -8.2120 C   0  0  0  0  0  2  0  0  0  0  0  0
   -2.6440   11.2970  -10.2170 C   0  0  0  0  0  1  0  0  0  0  0  0
   -2.6910    9.8000  -10.1290 C   0  0  0  0  0  0  0  0  0  0  0  0
   -3.6530    9.0810  -10.8460 C   0  0  0  0  0  3  0  0  0  0  0  0
   -3.7210    7.6920  -10.7410 C   0  0  0  0  0  3  0  0  0  0  0  0
   -2.8370    7.0120   -9.9050 C   0  0  0  0  0  3  0  0  0  0  0  0
   -1.8770    7.7140   -9.1630 C   0  0  0  0  0  0  0  0  0  0  0  0
   -1.8130    9.1110   -9.2820 C   0  0  0  0  0  3  0  0  0  0  0  0
  1  2  2  0  0  0  0
  2  3  1  0  0  0  0
  3  9  1  0  0  0  0
  4 16  1  0  0  0  0
  4  3  2  0  0  0  0
  5  4  1  0  0  0  0
  6  5  2  0  0  0  0
  7  5  1  0  0  0  0
  7  1  1  0  0  0  0
  8  7  1  0  0  0  0
  9 15  2  0  0  0  0
  9 10  1  0  0  0  0
 10 11  2  0  0  0  0
 11 12  1  0  0  0  0
 13 14  1  0  0  0  0
 13 12  2  0  0  0  0
 15 13  1  0  0  0  0
 16 17  1  0  0  0  0
 18 19  1  0  0  0  0
 18  1  1  0  0  0  0
 20 21  1  0  0  0  0
 21 26  1  0  0  0  0
 22 23  1  0  0  0  0
 22 21  2  0  0  0  0
 23 24  2  0  0  0  0
 24 25  1  0  0  0  0
 25 19  1  0  0  0  0
 26 25  2  0  0  0  0
M  END
>  <minimizedAffinity>
49.3945351

$$$$
