REMARK  Name = 
REMARK  3 active torsions:
REMARK  status: ('A' for Active; 'I' for Inactive)
REMARK    1  A    between atoms: C_1  and  C_2
REMARK    2  A    between atoms: C_2  and  N_3
REMARK    3  A    between atoms: C_7  and  C_8
REMARK                            x       y       z     vdW  Elec       q    Type
REMARK                         _______ _______ _______ _____ _____    ______ ____
ROOT
ATOM      1  N   UNL     1       0.612   2.097  -1.115  0.00  0.00    -0.256 N 
ATOM      2  C   UNL     1       0.581   3.451  -0.828  0.00  0.00    +0.258 C 
ATOM      3  O   UNL     1       0.309   3.953   0.255  0.00  0.00    -0.269 OA
ATOM      4  C   UNL     1       0.939   4.244  -2.034  0.00  0.00    +0.077 C 
ATOM      5  C   UNL     1       0.984   5.583  -2.005  0.00  0.00    +0.028 C 
ATOM      6  S   UNL     1       1.287   3.196  -3.347  0.00  0.00    -0.061 S 
ATOM      7  C   UNL     1       0.976   1.746  -2.399  0.00  0.00    +0.121 C 
ATOM      8  S   UNL     1       1.126   0.217  -3.049  0.00  0.00    -0.027 S 
ENDROOT
BRANCH   5   9
ATOM      9  C   UNL     1       1.337   6.466  -3.122  0.00  0.00    -0.024 A 
ATOM     10  C   UNL     1       0.565   6.514  -4.290  0.00  0.00    +0.009 A 
ATOM     11  C   UNL     1       0.912   7.380  -5.330  0.00  0.00    +0.020 A 
ATOM     12  C   UNL     1       2.026   8.207  -5.201  0.00  0.00    +0.041 A 
ATOM     13 CL   UNL     1       2.453   9.274  -6.481  0.00  0.00    -0.084 Cl
ATOM     14  C   UNL     1       2.795   8.177  -4.039  0.00  0.00    +0.020 A 
ATOM     15  C   UNL     1       2.448   7.310  -2.999  0.00  0.00    +0.009 A 
ENDBRANCH   5   9
BRANCH   1  17
ATOM     16  C   UNL     1       1.521   0.781   0.766  0.00  0.00    +0.025 C 
ATOM     17  C   UNL     1       0.290   1.148  -0.050  0.00  0.00    +0.111 C 
ENDBRANCH   1  17
TORSDOF 2
