
 OpenBabel09132200253D

 17 18  0  0  0  0  0  0  0  0999 V2000
   -1.7330    7.9070   -8.9460 N   0  0  0  0  0  0  0  0  0  0  0  0
   -0.5640    7.8270   -8.2100 C   0  0  0  0  0  0  0  0  0  0  0  0
    0.0580    8.7700   -7.7380 O   0  0  0  0  0  0  0  0  0  0  0  0
   -0.1480    6.4080   -8.0520 C   0  0  0  0  0  0  0  0  0  0  0  0
    0.9550    6.0720   -7.3700 C   0  0  0  0  0  3  0  0  0  0  0  0
   -1.2820    5.3730   -8.8180 S   0  0  0  0  0  0  0  0  0  0  0  0
   -2.2880    6.7120   -9.3570 C   0  0  0  0  0  0  0  0  0  0  0  0
   -3.6870    6.4690  -10.2330 S   0  0  0  0  0  0  0  0  0  0  0  0
    1.4540    4.7120   -7.1360 C   0  0  0  0  0  0  0  0  0  0  0  0
    2.6350    4.2520   -7.7320 C   0  0  0  0  0  3  0  0  0  0  0  0
    3.0980    2.9590   -7.4750 C   0  0  0  0  0  3  0  0  0  0  0  0
    2.3860    2.1270   -6.6140 C   0  0  0  0  0  0  0  0  0  0  0  0
    2.9570    0.5350   -6.2970 Cl  0  0  0  0  0  0  0  0  0  0  0  0
    1.2160    2.5770   -6.0050 C   0  0  0  0  0  3  0  0  0  0  0  0
    0.7530    3.8700   -6.2630 C   0  0  0  0  0  3  0  0  0  0  0  0
   -3.0440    9.2640  -10.5390 C   0  0  0  0  0  1  0  0  0  0  0  0
   -2.3060    9.2270   -9.2080 C   0  0  0  0  0  2  0  0  0  0  0  0
  1  2  1  0  0  0  0
  2  4  1  0  0  0  0
  2  3  2  0  0  0  0
  4  5  2  0  0  0  0
  5  9  1  0  0  0  0
  6  4  1  0  0  0  0
  7  1  1  0  0  0  0
  7  6  1  0  0  0  0
  8  7  2  0  0  0  0
  9 15  1  0  0  0  0
 10 11  1  0  0  0  0
 10  9  2  0  0  0  0
 11 12  2  0  0  0  0
 12 13  1  0  0  0  0
 12 14  1  0  0  0  0
 15 14  2  0  0  0  0
 16 17  1  0  0  0  0
 17  1  1  0  0  0  0
M  END
>  <minimizedAffinity>
38.0748253

$$$$

 OpenBabel09132200253D

 17 18  0  0  0  0  0  0  0  0999 V2000
    0.5250    2.6510   -6.3910 N   0  0  0  0  0  0  0  0  0  0  0  0
    0.9640    3.9290   -6.6950 C   0  0  0  0  0  0  0  0  0  0  0  0
    2.0720    4.3890   -6.4510 O   0  0  0  0  0  0  0  0  0  0  0  0
   -0.1090    4.6940   -7.3840 C   0  0  0  0  0  0  0  0  0  0  0  0
    0.0780    5.9580   -7.7860 C   0  0  0  0  0  3  0  0  0  0  0  0
   -1.5020    3.7110   -7.5790 S   0  0  0  0  0  0  0  0  0  0  0  0
   -0.7570    2.3280   -6.7860 C   0  0  0  0  0  0  0  0  0  0  0  0
   -1.5650    0.8820   -6.5880 S   0  0  0  0  0  0  0  0  0  0  0  0
   -0.8970    6.8030   -8.4850 C   0  0  0  0  0  0  0  0  0  0  0  0
   -1.9980    6.2510   -9.1530 C   0  0  0  0  0  3  0  0  0  0  0  0
   -2.9230    7.0800   -9.7920 C   0  0  0  0  0  3  0  0  0  0  0  0
   -2.7540    8.4630   -9.7580 C   0  0  0  0  0  0  0  0  0  0  0  0
   -3.8930    9.4840  -10.5450 Cl  0  0  0  0  0  0  0  0  0  0  0  0
   -1.6690    9.0240   -9.0870 C   0  0  0  0  0  3  0  0  0  0  0  0
   -0.7440    8.1940   -8.4470 C   0  0  0  0  0  3  0  0  0  0  0  0
    1.3410    1.8670   -4.1960 C   0  0  0  0  0  1  0  0  0  0  0  0
    1.4440    1.7400   -5.7090 C   0  0  0  0  0  2  0  0  0  0  0  0
  1 17  1  0  0  0  0
  2  3  2  0  0  0  0
  2  1  1  0  0  0  0
  4  2  1  0  0  0  0
  5  4  2  0  0  0  0
  6  4  1  0  0  0  0
  6  7  1  0  0  0  0
  7  8  2  0  0  0  0
  7  1  1  0  0  0  0
  9 15  1  0  0  0  0
  9  5  1  0  0  0  0
 10  9  2  0  0  0  0
 11 12  2  0  0  0  0
 11 10  1  0  0  0  0
 12 14  1  0  0  0  0
 13 12  1  0  0  0  0
 14 15  2  0  0  0  0
 17 16  1  0  0  0  0
M  END
>  <minimizedAffinity>
39.0464211

$$$$

 OpenBabel09132200253D

 17 18  0  0  0  0  0  0  0  0999 V2000
    2.5390    4.0960   -7.8470 N   0  0  0  0  0  0  0  0  0  0  0  0
    1.3990    4.5230   -7.1880 C   0  0  0  0  0  0  0  0  0  0  0  0
    1.0460    4.1870   -6.0650 O   0  0  0  0  0  0  0  0  0  0  0  0
    0.6360    5.4760   -8.0380 C   0  0  0  0  0  0  0  0  0  0  0  0
   -0.5060    6.0330   -7.6150 C   0  0  0  0  0  3  0  0  0  0  0  0
    1.4560    5.7260   -9.5250 S   0  0  0  0  0  0  0  0  0  0  0  0
    2.7630    4.6260   -9.1010 C   0  0  0  0  0  0  0  0  0  0  0  0
    4.0400    4.3330  -10.1340 S   0  0  0  0  0  0  0  0  0  0  0  0
   -1.3320    6.9930   -8.3550 C   0  0  0  0  0  0  0  0  0  0  0  0
   -2.4410    6.5800   -9.1060 C   0  0  0  0  0  3  0  0  0  0  0  0
   -3.2230    7.5180   -9.7840 C   0  0  0  0  0  3  0  0  0  0  0  0
   -2.9050    8.8720   -9.7060 C   0  0  0  0  0  0  0  0  0  0  0  0
   -3.8680   10.0280  -10.5400 Cl  0  0  0  0  0  0  0  0  0  0  0  0
   -1.8120    9.2970   -8.9530 C   0  0  0  0  0  3  0  0  0  0  0  0
   -1.0290    8.3580   -8.2750 C   0  0  0  0  0  3  0  0  0  0  0  0
    2.6610    1.9560   -6.6220 C   0  0  0  0  0  1  0  0  0  0  0  0
    3.4270    3.1510   -7.1700 C   0  0  0  0  0  2  0  0  0  0  0  0
  1  2  1  0  0  0  0
  1 17  1  0  0  0  0
  2  3  2  0  0  0  0
  4  5  2  0  0  0  0
  4  2  1  0  0  0  0
  6  7  1  0  0  0  0
  6  4  1  0  0  0  0
  7  1  1  0  0  0  0
  8  7  2  0  0  0  0
  9 15  1  0  0  0  0
  9  5  1  0  0  0  0
 10  9  2  0  0  0  0
 11 12  2  0  0  0  0
 11 10  1  0  0  0  0
 12 14  1  0  0  0  0
 13 12  1  0  0  0  0
 14 15  2  0  0  0  0
 17 16  1  0  0  0  0
M  END
>  <minimizedAffinity>
39.8348351

$$$$
