
 OpenBabel09132204463D

 17 18  0  0  0  0  0  0  0  0999 V2000
   -1.7330    7.9070   -8.9460 N   0  0  0  0  0  0  0  0  0  0  0  0
   -0.5640    7.8270   -8.2100 C   0  0  0  0  0  0  0  0  0  0  0  0
    0.0580    8.7700   -7.7380 O   0  0  0  0  0  0  0  0  0  0  0  0
   -0.1480    6.4080   -8.0520 C   0  0  0  0  0  0  0  0  0  0  0  0
    0.9550    6.0720   -7.3700 C   0  0  0  0  0  3  0  0  0  0  0  0
   -1.2820    5.3730   -8.8180 S   0  0  0  0  0  0  0  0  0  0  0  0
   -2.2880    6.7120   -9.3570 C   0  0  0  0  0  0  0  0  0  0  0  0
   -3.6870    6.4690  -10.2330 S   0  0  0  0  0  0  0  0  0  0  0  0
    1.4540    4.7120   -7.1360 C   0  0  0  0  0  0  0  0  0  0  0  0
    2.6350    4.2520   -7.7320 C   0  0  0  0  0  3  0  0  0  0  0  0
    3.0980    2.9590   -7.4750 C   0  0  0  0  0  3  0  0  0  0  0  0
    2.3860    2.1270   -6.6140 C   0  0  0  0  0  0  0  0  0  0  0  0
    2.9570    0.5350   -6.2970 Cl  0  0  0  0  0  0  0  0  0  0  0  0
    1.2160    2.5770   -6.0050 C   0  0  0  0  0  3  0  0  0  0  0  0
    0.7530    3.8700   -6.2630 C   0  0  0  0  0  3  0  0  0  0  0  0
   -3.0440    9.2640  -10.5390 C   0  0  0  0  0  1  0  0  0  0  0  0
   -2.3060    9.2270   -9.2080 C   0  0  0  0  0  2  0  0  0  0  0  0
  1  2  1  0  0  0  0
  2  4  1  0  0  0  0
  2  3  2  0  0  0  0
  4  5  2  0  0  0  0
  5  9  1  0  0  0  0
  6  4  1  0  0  0  0
  7  1  1  0  0  0  0
  7  6  1  0  0  0  0
  8  7  2  0  0  0  0
  9 15  1  0  0  0  0
 10 11  1  0  0  0  0
 10  9  2  0  0  0  0
 11 12  2  0  0  0  0
 12 13  1  0  0  0  0
 12 14  1  0  0  0  0
 15 14  2  0  0  0  0
 16 17  1  0  0  0  0
 17  1  1  0  0  0  0
M  END
>  <minimizedAffinity>
38.0748253

$$$$
