REMARK  Name = 
REMARK  8 active torsions:
REMARK  status: ('A' for Active; 'I' for Inactive)
REMARK    1  A    between atoms: C_2  and  O_20
REMARK    2  A    between atoms: N_3  and  C_4
REMARK    3  A    between atoms: C_8  and  C_9
REMARK    4  A    between atoms: C_11  and  O_12
REMARK    5  A    between atoms: C_13  and  O_14
REMARK    6  A    between atoms: C_15  and  C_16
REMARK    7  A    between atoms: O_20  and  C_21
REMARK    8  A    between atoms: C_21  and  C_22
REMARK                            x       y       z     vdW  Elec       q    Type
REMARK                         _______ _______ _______ _____ _____    ______ ____
ROOT
ATOM      1  C   UNK A   0       4.463   0.947   0.377  0.00  0.00    +0.054 A 
ATOM      2  C   UNK A   0       5.809  -0.255   1.156  0.00  0.00    +0.032 A 
ATOM      3  C   UNK A   0       7.259  -0.378   0.171  0.00  0.00    +0.048 A 
ATOM      4  S   UNK A   0       7.274   1.122  -1.576  0.00  0.00    -0.092 S 
ATOM      5  C   UNK A   0       5.089   1.795  -1.068  0.00  0.00    +0.078 A 
ENDROOT
BRANCH   5   6
ATOM      6  C   UNK A   0       4.566   2.918  -1.840  0.00  0.00    +0.173 A 
ATOM      7  N   UNK A   1       5.179   3.244  -2.984  0.00  0.00    -0.190 NA
ATOM      8  C   UNK A   1       4.627   4.290  -3.610  0.00  0.00    +0.259 A 
ATOM      9  C   UNK A   1       3.533   5.002  -3.161  0.00  0.00    +0.206 A 
ATOM     10  C   UNK A   1       2.971   4.582  -1.967  0.00  0.00    +0.135 A 
ATOM     11  N   UNK A   1       3.488   3.510  -1.300  0.00  0.00    -0.222 NA
BRANCH  10  12
ATOM     12  C   UNK A   1       1.776   5.341  -1.403  0.00  0.00    +0.094 C 
ATOM     13  O   UNK A   1       1.360   6.315  -2.124  0.00  0.00    -0.543 OA
ATOM     14  O   UNK A   1       1.294   4.976  -0.289  0.00  0.00    -0.543 OA
ENDBRANCH  10  12
BRANCH   8  15
ATOM     15  O   UNK A   1       5.217   4.661  -4.794  0.00  0.00    -0.490 OA
ATOM     16  H   UNK A   1       4.680   5.431  -5.069  0.00  0.00    +0.294 HD
ENDBRANCH   8  15
BRANCH   9  17
ATOM     17  O   UNK A   1       3.083   6.059  -3.908  0.00  0.00    -0.501 OA
ATOM     18  H   UNK A   1       2.299   6.421  -3.399  0.00  0.00    +0.292 HD
ENDBRANCH   9  17
ENDBRANCH   5   6
BRANCH   1  21
ATOM     19  O   UNK A   0       1.114   0.440   1.421  0.00  0.00    -0.226 OA
ATOM     20  C   UNK A   0       2.233   0.205   0.979  0.00  0.00    +0.405 C 
ATOM     21  N   UNK A   0       3.197   1.177   0.884  0.00  0.00    -0.250 N 
ATOM     22  H   UNK A   0       2.800   2.110   0.758  0.00  0.00    +0.158 HD
BRANCH  20  23
ATOM     23  O   UNK A   0       2.494  -0.991   0.377  0.00  0.00    -0.445 OA
BRANCH  23  24
ATOM     24  C   UNK A   0       3.708  -1.674   0.706  0.00  0.00    +0.272 C 
BRANCH  24  25
ATOM     25  C   UNK A   0       4.769  -1.558  -0.450  0.00  0.00    +0.026 A 
ATOM     26  C   UNK A   0       5.496  -0.217  -0.903  0.00  0.00    +0.049 A 
ATOM     27 CL   UNK A   0       6.465   1.624   0.527  0.00  0.00    -0.083 Cl
ATOM     28  C   UNK A   0       5.347  -0.242  -2.434  0.00  0.00    +0.020 A 
ATOM     29  C   UNK A   0       5.094  -1.359  -3.251  0.00  0.00    +0.003 A 
ATOM     30  C   UNK A   0       4.893  -2.597  -2.690  0.00  0.00    +0.020 A 
ATOM     31  C   UNK A   0       4.701  -2.698  -1.321  0.00  0.00    +0.049 A 
ATOM     32 CL   UNK A   0       4.378  -4.310  -0.747  0.00  0.00    -0.083 Cl
ENDBRANCH  24  25
ENDBRANCH  23  24
ENDBRANCH  20  23
ENDBRANCH   1  21
TORSDOF 8
