
 OpenBabel09122222393D

 32 31  0  0  1  0  0  0  0  0999 V2000
    8.6220   -2.6700    2.0900 C   0  0  0  0  0  0  0  0  0  0  0  0
    8.9420   -4.1750    0.8660 C   0  0  0  0  0  2  0  0  0  0  0  0
    9.7480   -3.6830   -0.6160 C   0  0  0  0  0  1  0  0  0  0  0  0
   10.4500   -1.4910   -0.5590 S   0  0  0  0  0 15  0  0  0  0  0  0
    9.3900   -1.1650    1.5040 C   0  0  0  0  0  2  0  0  0  0  0  0
    9.6190    0.1250    2.1480 C   0  0  0  0  0  0  0  0  0  0  0  0
    9.6620    0.1700    3.4850 N   0  0  0  0  0  0  0  0  0  0  0  0
    9.8690    1.3980    3.9740 C   0  0  0  0  0  0  0  0  0  0  0  0
   10.0260    2.5420    3.2180 C   0  0  0  0  0  0  0  0  0  0  0  0
    9.9670    2.3870    1.8430 C   0  0  0  0  0  0  0  0  0  0  0  0
    9.7740    1.1520    1.2960 N   0  0  0  0  0  0  0  0  0  0  0  0
   10.1070    3.6140    0.9520 C   0  0  0  0  0  0  0  0  0  0  0  0
   11.2260    4.2320    1.0490 O   0  0  0  0  0  1  0  0  0  0  0  0
    9.1360    3.9380    0.2050 O   0  0  0  0  0  0  0  0  0  0  0  0
    9.9280    1.4970    5.3430 O   0  0  0  0  0  0  0  0  0  0  0  0
   10.0690    2.4540    5.4830 H   0  0  0  0  0  0  0  0  0  0  0  0
   10.2240    3.7360    3.8620 O   0  0  0  0  0  0  0  0  0  0  0  0
   10.3070    4.4150    3.1300 H   0  0  0  0  0  0  0  0  0  0  0  0
    6.3620   -3.6930    4.6210 O   0  0  0  0  0  0  0  0  0  0  0  0
    6.9600   -3.6640    3.5520 C   0  0  0  0  0  0  0  0  0  0  0  0
    7.9390   -2.7380    3.2900 N   0  0  0  0  0  4  0  0  0  0  0  0
    7.7990   -1.8660    3.8040 H   0  0  0  0  0  0  0  0  0  0  0  0
    6.5320   -4.4290    2.5060 O   0  0  0  0  0  0  0  0  0  0  0  0
    5.2220   -5.0020    2.5670 C   0  0  0  0  0  2  0  0  0  0  0  0
    5.1410   -6.3480    1.7560 C   0  0  2  0  0  3  0  0  0  0  0  0
    5.3090   -6.4860    0.1800 C   0  0  0  0  0  2  0  0  0  0  0  0
    6.9820   -5.3640   -1.3420 Cl  0  0  0  0  0 15  0  0  0  0  0  0
    4.1140   -7.3690   -0.2200 C   0  0  0  0  0  2  0  0  0  0  0  0
    3.3710   -8.2290    0.6090 C   0  0  0  0  0  3  0  0  0  0  0  0
    3.6470   -8.3080    1.9520 C   0  0  0  0  0  3  0  0  0  0  0  0
    4.4900   -7.3700    2.5270 C   0  0  1  0  0  3  0  0  0  0  0  0
    4.6950   -7.5330    4.2490 Cl  0  0  0  0  0  0  0  0  0  0  0  0
  1 21  2  0  0  0  0
  2  1  1  0  0  0  0
  3  2  1  0  0  0  0
  5  1  1  0  0  0  0
  5  6  1  0  0  0  0
  6  7  1  0  0  0  0
  7  8  2  0  0  0  0
  8 15  1  0  0  0  0
  9 17  1  0  0  0  0
  9  8  1  0  0  0  0
 10  9  2  0  0  0  0
 11 10  1  0  0  0  0
 11  6  2  0  0  0  0
 12 13  1  0  0  0  0
 12 10  1  0  0  0  0
 14 12  2  0  0  0  0
 15 16  1  0  0  0  0
 18 17  1  0  0  0  0
 20 19  2  0  0  0  0
 21 20  1  0  0  0  0
 21 22  1  0  0  0  0
 23 24  1  0  0  0  0
 23 20  1  0  0  0  0
 25 31  1  0  0  0  0
 25 24  1  6  0  0  0
 26 25  1  0  0  0  0
 28 26  1  0  0  0  0
 28 29  1  0  0  0  0
 29 30  2  0  0  0  0
 30 31  1  0  0  0  0
 31 32  1  6  0  0  0
M  END
>  <minimizedAffinity>
-7.53190804

$$$$
