
 OpenBabel09122222393D

 32 31  0  0  1  0  0  0  0  0999 V2000
    8.4450   -3.1440    2.2660 C   0  0  0  0  0  0  0  0  0  0  0  0
    8.5600   -4.8430    1.2840 C   0  0  0  0  0  2  0  0  0  0  0  0
    9.1140   -4.6330   -0.3700 C   0  0  0  0  0  1  0  0  0  0  0  0
    9.8190   -2.4840   -0.8040 S   0  0  0  0  0 15  0  0  0  0  0  0
    9.1090   -1.7830    1.3150 C   0  0  0  0  0  2  0  0  0  0  0  0
    9.4410   -0.4100    1.6830 C   0  0  0  0  0  0  0  0  0  0  0  0
    9.5240    0.5070    0.7110 N   0  0  0  0  0  0  0  0  0  0  0  0
    9.8410    1.7300    1.1520 C   0  0  0  0  0  0  0  0  0  0  0  0
   10.0730    2.0670    2.4700 C   0  0  0  0  0  0  0  0  0  0  0  0
    9.9600    1.0460    3.3980 C   0  0  0  0  0  0  0  0  0  0  0  0
    9.6230   -0.2150    2.9990 N   0  0  0  0  0  0  0  0  0  0  0  0
   10.2280    1.3460    4.8680 C   0  0  0  0  0  0  0  0  0  0  0  0
   10.9440    0.4770    5.4790 O   0  0  0  0  0  1  0  0  0  0  0  0
    9.7330    2.3970    5.3740 O   0  0  0  0  0  0  0  0  0  0  0  0
    9.9330    2.7090    0.1920 O   0  0  0  0  0  0  0  0  0  0  0  0
   10.1790    3.4980    0.7150 H   0  0  0  0  0  0  0  0  0  0  0  0
   10.3970    3.3640    2.7710 O   0  0  0  0  0  0  0  0  0  0  0  0
   10.5220    3.3770    3.7650 H   0  0  0  0  0  0  0  0  0  0  0  0
    6.4660   -3.4970    5.1850 O   0  0  0  0  0  0  0  0  0  0  0  0
    6.8770   -3.6650    4.0430 C   0  0  0  0  0  0  0  0  0  0  0  0
    7.9660   -2.9880    3.5540 N   0  0  0  0  0  4  0  0  0  0  0  0
    8.0900   -2.0750    3.9970 H   0  0  0  0  0  0  0  0  0  0  0  0
    6.1390   -4.3850    3.1490 O   0  0  0  0  0  0  0  0  0  0  0  0
    4.8310   -3.9170    2.8050 C   0  0  0  0  0  2  0  0  0  0  0  0
    3.7100   -4.8640    3.3730 C   0  0  2  0  0  3  0  0  0  0  0  0
    2.6850   -4.4890    4.5300 C   0  0  0  0  0  2  0  0  0  0  0  0
    1.4160   -2.3360    4.8890 Cl  0  0  0  0  0 15  0  0  0  0  0  0
    2.7540   -5.7090    5.4640 C   0  0  0  0  0  2  0  0  0  0  0  0
    3.2010   -7.0050    5.1470 C   0  0  0  0  0  3  0  0  0  0  0  0
    3.6960   -7.2810    3.8950 C   0  0  0  0  0  3  0  0  0  0  0  0
    3.9790   -6.2330    3.0320 C   0  0  1  0  0  3  0  0  0  0  0  0
    4.6760   -6.7110    1.5090 Cl  0  0  0  0  0  0  0  0  0  0  0  0
  1 21  2  0  0  0  0
  2  1  1  0  0  0  0
  3  2  1  0  0  0  0
  5  6  1  0  0  0  0
  5  1  1  0  0  0  0
  6 11  2  0  0  0  0
  7  8  2  0  0  0  0
  7  6  1  0  0  0  0
  8  9  1  0  0  0  0
  9 17  1  0  0  0  0
  9 10  2  0  0  0  0
 10 12  1  0  0  0  0
 11 10  1  0  0  0  0
 12 14  2  0  0  0  0
 12 13  1  0  0  0  0
 15 16  1  0  0  0  0
 15  8  1  0  0  0  0
 17 18  1  0  0  0  0
 20 19  2  0  0  0  0
 21 22  1  0  0  0  0
 21 20  1  0  0  0  0
 23 20  1  0  0  0  0
 24 23  1  0  0  0  0
 25 24  1  1  0  0  0
 25 26  1  0  0  0  0
 26 28  1  0  0  0  0
 29 28  1  0  0  0  0
 30 29  2  0  0  0  0
 31 32  1  6  0  0  0
 31 25  1  0  0  0  0
 31 30  1  0  0  0  0
M  END
>  <minimizedAffinity>
-6.67428255

$$$$
