
 OpenBabel09122222183D

 32 31  0  0  1  0  0  0  0  0999 V2000
   10.9730    3.8300    2.3510 C   0  0  0  0  0  0  0  0  0  0  0  0
   11.3160    2.6290    3.8680 C   0  0  0  0  0  2  0  0  0  0  0  0
   11.3190    3.4700    5.4110 C   0  0  0  0  0  1  0  0  0  0  0  0
   10.6330    5.6600    5.2280 S   0  0  0  0  0 15  0  0  0  0  0  0
   10.5540    5.4810    2.8950 C   0  0  0  0  0  2  0  0  0  0  0  0
   10.0160    6.6340    2.1790 C   0  0  0  0  0  0  0  0  0  0  0  0
    9.4390    7.6110    2.8890 N   0  0  0  0  0  0  0  0  0  0  0  0
    8.9730    8.6170    2.1390 C   0  0  0  0  0  0  0  0  0  0  0  0
    9.0500    8.6880    0.7630 C   0  0  0  0  0  0  0  0  0  0  0  0
    9.6690    7.6260    0.1240 C   0  0  0  0  0  0  0  0  0  0  0  0
   10.1750    6.5860    0.8460 N   0  0  0  0  0  0  0  0  0  0  0  0
    9.7650    7.6310   -1.3970 C   0  0  0  0  0  0  0  0  0  0  0  0
    8.6890    7.3060   -2.0120 O   0  0  0  0  0  0  0  0  0  0  0  0
   10.8710    7.9380   -1.9360 O   0  0  0  0  0  1  0  0  0  0  0  0
    8.3750    9.6480    2.8220 O   0  0  0  0  0  0  0  0  0  0  0  0
    8.1030   10.2520    2.1020 H   0  0  0  0  0  0  0  0  0  0  0  0
    8.5190    9.7800    0.1280 O   0  0  0  0  0  0  0  0  0  0  0  0
    8.6840    9.6190   -0.8470 H   0  0  0  0  0  0  0  0  0  0  0  0
   10.5000    1.9940   -0.6440 O   0  0  0  0  0  0  0  0  0  0  0  0
   10.4600    2.2940    0.5440 C   0  0  0  0  0  0  0  0  0  0  0  0
   10.9900    3.4690    1.0160 N   0  0  0  0  0  4  0  0  0  0  0  0
   11.7710    3.8010    0.4470 H   0  0  0  0  0  0  0  0  0  0  0  0
   10.0610    1.3750    1.4700 O   0  0  0  0  0  0  0  0  0  0  0  0
    9.0730    0.4100    1.0960 C   0  0  0  0  0  2  0  0  0  0  0  0
    9.6840   -1.0370    1.0000 C   0  0  2  0  0  3  0  0  0  0  0  0
   10.1020   -1.7740   -0.3470 C   0  0  0  0  0  2  0  0  0  0  0  0
   11.3160   -0.8430   -2.3550 Cl  0  0  0  0  0 15  0  0  0  0  0  0
    9.4650   -3.1660   -0.1920 C   0  0  0  0  0  2  0  0  0  0  0  0
    9.0590   -3.7940    1.0000 C   0  0  0  0  0  3  0  0  0  0  0  0
    9.1630   -3.1340    2.2010 C   0  0  0  0  0  3  0  0  0  0  0  0
    9.4380   -1.7760    2.2070 C   0  0  1  0  0  3  0  0  0  0  0  0
    9.4640   -1.0440    3.7870 Cl  0  0  0  0  0  0  0  0  0  0  0  0
  1  5  1  0  0  0  0
  1  2  1  0  0  0  0
  2  3  1  0  0  0  0
  6  7  1  0  0  0  0
  6  5  1  0  0  0  0
  8 15  1  0  0  0  0
  8  7  2  0  0  0  0
  9  8  1  0  0  0  0
 10  9  2  0  0  0  0
 10 11  1  0  0  0  0
 11  6  2  0  0  0  0
 12 10  1  0  0  0  0
 13 12  2  0  0  0  0
 14 12  1  0  0  0  0
 16 15  1  0  0  0  0
 17  9  1  0  0  0  0
 18 17  1  0  0  0  0
 19 20  2  0  0  0  0
 20 21  1  0  0  0  0
 20 23  1  0  0  0  0
 21  1  2  0  0  0  0
 22 21  1  0  0  0  0
 24 23  1  0  0  0  0
 25 24  1  6  0  0  0
 25 31  1  0  0  0  0
 26 28  1  0  0  0  0
 26 25  1  0  0  0  0
 28 29  1  0  0  0  0
 29 30  2  0  0  0  0
 30 31  1  0  0  0  0
 31 32  1  1  0  0  0
M  END
>  <minimizedAffinity>
-7.938797

$$$$

 OpenBabel09122222183D

 32 31  0  0  1  0  0  0  0  0999 V2000
    8.1700   -3.1740    2.2420 C   0  0  0  0  0  0  0  0  0  0  0  0
    8.3420   -4.7820    1.1240 C   0  0  0  0  0  2  0  0  0  0  0  0
    9.1620   -4.4650   -0.3970 C   0  0  0  0  0  1  0  0  0  0  0  0
   10.0480   -2.3420   -0.5010 S   0  0  0  0  0 15  0  0  0  0  0  0
    9.0540   -1.7840    1.5440 C   0  0  0  0  0  2  0  0  0  0  0  0
    9.4010   -0.4770    2.0930 C   0  0  0  0  0  0  0  0  0  0  0  0
    9.5000   -0.3510    3.4220 N   0  0  0  0  0  0  0  0  0  0  0  0
    9.8150    0.8860    3.8220 C   0  0  0  0  0  0  0  0  0  0  0  0
   10.0250    1.9650    2.9870 C   0  0  0  0  0  0  0  0  0  0  0  0
    9.9010    1.7280    1.6290 C   0  0  0  0  0  0  0  0  0  0  0  0
    9.5970    0.4790    1.1710 N   0  0  0  0  0  0  0  0  0  0  0  0
   10.0960    2.8830    0.6540 C   0  0  0  0  0  0  0  0  0  0  0  0
   10.9750    2.6850   -0.2570 O   0  0  0  0  0  0  0  0  0  0  0  0
    9.4040    3.9340    0.8090 O   0  0  0  0  0  1  0  0  0  0  0  0
    9.9350    1.0670    5.1790 O   0  0  0  0  0  0  0  0  0  0  0  0
   10.1500    2.0180    5.2500 H   0  0  0  0  0  0  0  0  0  0  0  0
   10.3350    3.1790    3.5440 O   0  0  0  0  0  0  0  0  0  0  0  0
   10.4380    3.8020    2.7660 H   0  0  0  0  0  0  0  0  0  0  0  0
    5.6750   -3.5250    4.7350 O   0  0  0  0  0  0  0  0  0  0  0  0
    6.2490   -3.6170    3.6550 C   0  0  0  0  0  0  0  0  0  0  0  0
    7.5040   -3.1000    3.4520 N   0  0  0  0  0  4  0  0  0  0  0  0
    7.6950   -2.2930    4.0480 H   0  0  0  0  0  0  0  0  0  0  0  0
    5.5730   -4.0610    2.5570 O   0  0  0  0  0  0  0  0  0  0  0  0
    4.3390   -4.7600    2.7470 C   0  0  0  0  0  2  0  0  0  0  0  0
    4.4740   -6.2840    2.3780 C   0  0  2  0  0  3  0  0  0  0  0  0
    4.5120   -7.4850    3.4210 C   0  0  0  0  0  2  0  0  0  0  0  0
    3.1020   -7.8400    5.4850 Cl  0  0  0  0  0 15  0  0  0  0  0  0
    5.7140   -8.3190    2.9460 C   0  0  0  0  0  2  0  0  0  0  0  0
    6.3070   -8.3160    1.6700 C   0  0  0  0  0  3  0  0  0  0  0  0
    5.8520   -7.4610    0.6960 C   0  0  0  0  0  3  0  0  0  0  0  0
    4.9780   -6.4430    1.0430 C   0  0  1  0  0  3  0  0  0  0  0  0
    4.5390   -5.3820   -0.2670 Cl  0  0  0  0  0  0  0  0  0  0  0  0
  1 21  2  0  0  0  0
  2  1  1  0  0  0  0
  3  2  1  0  0  0  0
  5  6  1  0  0  0  0
  5  1  1  0  0  0  0
  6  7  1  0  0  0  0
  7  8  2  0  0  0  0
  8 15  1  0  0  0  0
  9 17  1  0  0  0  0
  9  8  1  0  0  0  0
 10  9  2  0  0  0  0
 11 10  1  0  0  0  0
 11  6  2  0  0  0  0
 12 14  1  0  0  0  0
 12 10  1  0  0  0  0
 13 12  2  0  0  0  0
 15 16  1  0  0  0  0
 18 17  1  0  0  0  0
 20 19  2  0  0  0  0
 21 20  1  0  0  0  0
 21 22  1  0  0  0  0
 23 24  1  0  0  0  0
 23 20  1  0  0  0  0
 25 24  1  1  0  0  0
 25 26  1  0  0  0  0
 28 26  1  0  0  0  0
 29 28  1  0  0  0  0
 30 31  1  0  0  0  0
 30 29  2  0  0  0  0
 31 32  1  6  0  0  0
 31 25  1  0  0  0  0
M  END
>  <minimizedAffinity>
-7.83239555

$$$$

 OpenBabel09122222183D

 32 31  0  0  1  0  0  0  0  0999 V2000
    9.4210   -1.8110    1.5880 C   0  0  0  0  0  0  0  0  0  0  0  0
    9.8360   -3.0900    0.1540 C   0  0  0  0  0  2  0  0  0  0  0  0
   10.3300   -2.3020   -1.3360 C   0  0  0  0  0  1  0  0  0  0  0  0
   10.6280   -0.0330   -1.0820 S   0  0  0  0  0 15  0  0  0  0  0  0
    9.8190   -0.1330    1.1130 C   0  0  0  0  0  2  0  0  0  0  0  0
    9.8990    1.1040    1.8850 C   0  0  0  0  0  0  0  0  0  0  0  0
    9.8400    1.0260    3.2200 N   0  0  0  0  0  0  0  0  0  0  0  0
    9.9140    2.2140    3.8310 C   0  0  0  0  0  0  0  0  0  0  0  0
   10.0350    3.4320    3.1940 C   0  0  0  0  0  0  0  0  0  0  0  0
   10.0890    3.4030    1.8110 C   0  0  0  0  0  0  0  0  0  0  0  0
   10.0340    2.2150    1.1430 N   0  0  0  0  0  0  0  0  0  0  0  0
   10.1980    4.7160    1.0450 C   0  0  0  0  0  0  0  0  0  0  0  0
    9.3230    4.8840    0.1240 O   0  0  0  0  0  0  0  0  0  0  0  0
   11.1220    5.5260    1.3540 O   0  0  0  0  0  1  0  0  0  0  0  0
    9.8640    2.1870    5.2040 O   0  0  0  0  0  0  0  0  0  0  0  0
    9.9190    3.1350    5.4390 H   0  0  0  0  0  0  0  0  0  0  0  0
   10.0910    4.5710    3.9550 O   0  0  0  0  0  0  0  0  0  0  0  0
   10.1740    5.3200    3.2950 H   0  0  0  0  0  0  0  0  0  0  0  0
    7.5830   -3.3820    4.1790 O   0  0  0  0  0  0  0  0  0  0  0  0
    8.0100   -3.1260    3.0590 C   0  0  0  0  0  0  0  0  0  0  0  0
    8.9320   -2.1330    2.8400 N   0  0  0  0  0  4  0  0  0  0  0  0
    8.8680   -1.3820    3.5300 H   0  0  0  0  0  0  0  0  0  0  0  0
    7.4290   -3.6890    1.9600 O   0  0  0  0  0  0  0  0  0  0  0  0
    7.3990   -5.1160    1.8550 C   0  0  0  0  0  2  0  0  0  0  0  0
    6.0400   -5.6230    1.2450 C   0  0  2  0  0  3  0  0  0  0  0  0
    4.7750   -6.0990    2.0830 C   0  0  0  0  0  2  0  0  0  0  0  0
    3.7640   -5.0700    4.1550 Cl  0  0  0  0  0 15  0  0  0  0  0  0
    4.3900   -7.4260    1.4060 C   0  0  0  0  0  2  0  0  0  0  0  0
    4.7290   -7.8550    0.1100 C   0  0  0  0  0  3  0  0  0  0  0  0
    5.5380   -7.0810   -0.6870 C   0  0  0  0  0  3  0  0  0  0  0  0
    6.2090   -6.0040   -0.1290 C   0  0  1  0  0  3  0  0  0  0  0  0
    7.2610   -5.1540   -1.2260 Cl  0  0  0  0  0  0  0  0  0  0  0  0
  1 21  2  0  0  0  0
  2  1  1  0  0  0  0
  3  2  1  0  0  0  0
  5  1  1  0  0  0  0
  5  6  1  0  0  0  0
  6  7  1  0  0  0  0
  7  8  2  0  0  0  0
  8 15  1  0  0  0  0
  9  8  1  0  0  0  0
  9 17  1  0  0  0  0
 10  9  2  0  0  0  0
 11 10  1  0  0  0  0
 11  6  2  0  0  0  0
 12 14  1  0  0  0  0
 12 10  1  0  0  0  0
 13 12  2  0  0  0  0
 15 16  1  0  0  0  0
 18 17  1  0  0  0  0
 20 19  2  0  0  0  0
 21 20  1  0  0  0  0
 21 22  1  0  0  0  0
 23 20  1  0  0  0  0
 24 23  1  0  0  0  0
 25 24  1  1  0  0  0
 25 26  1  0  0  0  0
 28 26  1  0  0  0  0
 29 28  1  0  0  0  0
 30 31  1  0  0  0  0
 30 29  2  0  0  0  0
 31 32  1  6  0  0  0
 31 25  1  0  0  0  0
M  END
>  <minimizedAffinity>
-7.53710938

$$$$

 OpenBabel09122222183D

 32 31  0  0  1  0  0  0  0  0999 V2000
    8.6220   -2.6700    2.0900 C   0  0  0  0  0  0  0  0  0  0  0  0
    8.9420   -4.1750    0.8660 C   0  0  0  0  0  2  0  0  0  0  0  0
    9.7480   -3.6830   -0.6160 C   0  0  0  0  0  1  0  0  0  0  0  0
   10.4500   -1.4910   -0.5590 S   0  0  0  0  0 15  0  0  0  0  0  0
    9.3900   -1.1650    1.5040 C   0  0  0  0  0  2  0  0  0  0  0  0
    9.6190    0.1250    2.1480 C   0  0  0  0  0  0  0  0  0  0  0  0
    9.6620    0.1700    3.4850 N   0  0  0  0  0  0  0  0  0  0  0  0
    9.8690    1.3980    3.9740 C   0  0  0  0  0  0  0  0  0  0  0  0
   10.0260    2.5420    3.2180 C   0  0  0  0  0  0  0  0  0  0  0  0
    9.9670    2.3870    1.8430 C   0  0  0  0  0  0  0  0  0  0  0  0
    9.7740    1.1520    1.2960 N   0  0  0  0  0  0  0  0  0  0  0  0
   10.1070    3.6140    0.9520 C   0  0  0  0  0  0  0  0  0  0  0  0
   11.2260    4.2320    1.0490 O   0  0  0  0  0  1  0  0  0  0  0  0
    9.1360    3.9380    0.2050 O   0  0  0  0  0  0  0  0  0  0  0  0
    9.9280    1.4970    5.3430 O   0  0  0  0  0  0  0  0  0  0  0  0
   10.0690    2.4540    5.4830 H   0  0  0  0  0  0  0  0  0  0  0  0
   10.2240    3.7360    3.8620 O   0  0  0  0  0  0  0  0  0  0  0  0
   10.3070    4.4150    3.1300 H   0  0  0  0  0  0  0  0  0  0  0  0
    6.3620   -3.6930    4.6210 O   0  0  0  0  0  0  0  0  0  0  0  0
    6.9600   -3.6640    3.5520 C   0  0  0  0  0  0  0  0  0  0  0  0
    7.9390   -2.7380    3.2900 N   0  0  0  0  0  4  0  0  0  0  0  0
    7.7990   -1.8660    3.8040 H   0  0  0  0  0  0  0  0  0  0  0  0
    6.5320   -4.4290    2.5060 O   0  0  0  0  0  0  0  0  0  0  0  0
    5.2220   -5.0020    2.5670 C   0  0  0  0  0  2  0  0  0  0  0  0
    5.1410   -6.3480    1.7560 C   0  0  2  0  0  3  0  0  0  0  0  0
    5.3090   -6.4860    0.1800 C   0  0  0  0  0  2  0  0  0  0  0  0
    6.9820   -5.3640   -1.3420 Cl  0  0  0  0  0 15  0  0  0  0  0  0
    4.1140   -7.3690   -0.2200 C   0  0  0  0  0  2  0  0  0  0  0  0
    3.3710   -8.2290    0.6090 C   0  0  0  0  0  3  0  0  0  0  0  0
    3.6470   -8.3080    1.9520 C   0  0  0  0  0  3  0  0  0  0  0  0
    4.4900   -7.3700    2.5270 C   0  0  1  0  0  3  0  0  0  0  0  0
    4.6950   -7.5330    4.2490 Cl  0  0  0  0  0  0  0  0  0  0  0  0
  1 21  2  0  0  0  0
  2  1  1  0  0  0  0
  3  2  1  0  0  0  0
  5  1  1  0  0  0  0
  5  6  1  0  0  0  0
  6  7  1  0  0  0  0
  7  8  2  0  0  0  0
  8 15  1  0  0  0  0
  9 17  1  0  0  0  0
  9  8  1  0  0  0  0
 10  9  2  0  0  0  0
 11 10  1  0  0  0  0
 11  6  2  0  0  0  0
 12 13  1  0  0  0  0
 12 10  1  0  0  0  0
 14 12  2  0  0  0  0
 15 16  1  0  0  0  0
 18 17  1  0  0  0  0
 20 19  2  0  0  0  0
 21 20  1  0  0  0  0
 21 22  1  0  0  0  0
 23 24  1  0  0  0  0
 23 20  1  0  0  0  0
 25 31  1  0  0  0  0
 25 24  1  6  0  0  0
 26 25  1  0  0  0  0
 28 26  1  0  0  0  0
 28 29  1  0  0  0  0
 29 30  2  0  0  0  0
 30 31  1  0  0  0  0
 31 32  1  6  0  0  0
M  END
>  <minimizedAffinity>
-7.53190804

$$$$

 OpenBabel09122222183D

 32 31  0  0  1  0  0  0  0  0999 V2000
    9.1780   -2.9140    2.0430 C   0  0  0  0  0  0  0  0  0  0  0  0
   10.3410   -2.6960    0.4740 C   0  0  0  0  0  2  0  0  0  0  0  0
    9.9870   -3.8550   -0.7980 C   0  0  0  0  0  1  0  0  0  0  0  0
    8.0850   -5.0830   -0.3750 S   0  0  0  0  0 15  0  0  0  0  0  0
    7.8920   -4.1220    1.7520 C   0  0  0  0  0  2  0  0  0  0  0  0
    6.6890   -4.4630    2.5050 C   0  0  0  0  0  0  0  0  0  0  0  0
    6.3100   -3.6530    3.5000 N   0  0  0  0  0  0  0  0  0  0  0  0
    5.2010   -4.0580    4.1300 C   0  0  0  0  0  0  0  0  0  0  0  0
    4.4810   -5.1960    3.8260 C   0  0  0  0  0  0  0  0  0  0  0  0
    4.9570   -5.9650    2.7780 C   0  0  0  0  0  0  0  0  0  0  0  0
    6.0740   -5.5850    2.0940 N   0  0  0  0  0  0  0  0  0  0  0  0
    4.2230   -7.2480    2.4070 C   0  0  0  0  0  0  0  0  0  0  0  0
    4.1250   -7.4760    1.1500 O   0  0  0  0  0  0  0  0  0  0  0  0
    3.7630   -7.9770    3.3370 O   0  0  0  0  0  1  0  0  0  0  0  0
    4.7660   -3.2550    5.1570 O   0  0  0  0  0  0  0  0  0  0  0  0
    3.9730   -3.7290    5.4790 H   0  0  0  0  0  0  0  0  0  0  0  0
    3.3660   -5.4880    4.5670 O   0  0  0  0  0  0  0  0  0  0  0  0
    3.0130   -6.3420    4.1790 H   0  0  0  0  0  0  0  0  0  0  0  0
    9.5230   -0.2330    4.3370 O   0  0  0  0  0  0  0  0  0  0  0  0
    9.4260   -0.8380    3.2750 C   0  0  0  0  0  0  0  0  0  0  0  0
    9.2750   -2.2010    3.2250 N   0  0  0  0  0  4  0  0  0  0  0  0
    9.7010   -2.6710    4.0260 H   0  0  0  0  0  0  0  0  0  0  0  0
    9.6680   -0.1950    2.0960 O   0  0  0  0  0  0  0  0  0  0  0  0
    9.1250    1.1150    1.9060 C   0  0  0  0  0  2  0  0  0  0  0  0
   10.2580    2.2020    1.7990 C   0  0  2  0  0  3  0  0  0  0  0  0
   10.6770    3.2130    2.9540 C   0  0  0  0  0  2  0  0  0  0  0  0
   10.9700    2.7710    5.4220 Cl  0  0  0  0  0 15  0  0  0  0  0  0
   10.7310    4.5670    2.2260 C   0  0  0  0  0  2  0  0  0  0  0  0
   10.8680    4.7910    0.8440 C   0  0  0  0  0  3  0  0  0  0  0  0
   10.9150    3.7310   -0.0290 C   0  0  0  0  0  3  0  0  0  0  0  0
   10.5860    2.4630    0.4260 C   0  0  1  0  0  3  0  0  0  0  0  0
   10.6070    1.2220   -0.7960 Cl  0  0  0  0  0  0  0  0  0  0  0  0
  1 21  2  0  0  0  0
  2  1  1  0  0  0  0
  3  2  1  0  0  0  0
  5  1  1  0  0  0  0
  5  6  1  0  0  0  0
  6  7  1  0  0  0  0
  7  8  2  0  0  0  0
  8 15  1  0  0  0  0
  9  8  1  0  0  0  0
  9 17  1  0  0  0  0
 10  9  2  0  0  0  0
 11  6  2  0  0  0  0
 11 10  1  0  0  0  0
 12 10  1  0  0  0  0
 12 14  1  0  0  0  0
 13 12  2  0  0  0  0
 15 16  1  0  0  0  0
 18 17  1  0  0  0  0
 20 19  2  0  0  0  0
 21 20  1  0  0  0  0
 21 22  1  0  0  0  0
 23 20  1  0  0  0  0
 24 23  1  0  0  0  0
 25 24  1  6  0  0  0
 25 26  1  0  0  0  0
 28 26  1  0  0  0  0
 29 28  1  0  0  0  0
 30 31  1  0  0  0  0
 30 29  2  0  0  0  0
 31 32  1  1  0  0  0
 31 25  1  0  0  0  0
M  END
>  <minimizedAffinity>
-7.44931507

$$$$

 OpenBabel09122222183D

 32 31  0  0  1  0  0  0  0  0999 V2000
    8.5590   -3.2910    2.6630 C   0  0  0  0  0  0  0  0  0  0  0  0
    9.4730   -2.2110    4.0270 C   0  0  0  0  0  2  0  0  0  0  0  0
    8.5170   -2.0130    5.4880 C   0  0  0  0  0  1  0  0  0  0  0  0
    6.6160   -3.3120    5.4870 S   0  0  0  0  0 15  0  0  0  0  0  0
    7.0330   -3.9890    3.2840 C   0  0  0  0  0  2  0  0  0  0  0  0
    6.1390   -5.0090    2.7440 C   0  0  0  0  0  0  0  0  0  0  0  0
    5.2330   -5.5580    3.5620 N   0  0  0  0  0  0  0  0  0  0  0  0
    4.4700   -6.4860    2.9730 C   0  0  0  0  0  0  0  0  0  0  0  0
    4.5680   -6.8790    1.6530 C   0  0  0  0  0  0  0  0  0  0  0  0
    5.5370   -6.2470    0.8910 C   0  0  0  0  0  0  0  0  0  0  0  0
    6.3290   -5.2830    1.4430 N   0  0  0  0  0  0  0  0  0  0  0  0
    5.7140   -6.6530   -0.5670 C   0  0  0  0  0  0  0  0  0  0  0  0
    6.3050   -5.7880   -1.3040 O   0  0  0  0  0  0  0  0  0  0  0  0
    5.2710   -7.7790   -0.9430 O   0  0  0  0  0  1  0  0  0  0  0  0
    3.5190   -7.0760    3.7690 O   0  0  0  0  0  0  0  0  0  0  0  0
    3.0940   -7.7130    3.1610 H   0  0  0  0  0  0  0  0  0  0  0  0
    3.7200   -7.8500    1.1900 O   0  0  0  0  0  0  0  0  0  0  0  0
    3.9690   -7.9740    0.2270 H   0  0  0  0  0  0  0  0  0  0  0  0
   10.2440   -2.9390   -0.4350 O   0  0  0  0  0  0  0  0  0  0  0  0
    9.8520   -2.6920    0.7000 C   0  0  0  0  0  0  0  0  0  0  0  0
    9.0290   -3.5480    1.3880 N   0  0  0  0  0  4  0  0  0  0  0  0
    8.4350   -4.1020    0.7680 H   0  0  0  0  0  0  0  0  0  0  0  0
   10.0600   -1.4580    1.2430 O   0  0  0  0  0  0  0  0  0  0  0  0
    9.3960   -0.3320    0.6600 C   0  0  0  0  0  2  0  0  0  0  0  0
   10.2210    0.9930    0.8600 C   0  0  2  0  0  3  0  0  0  0  0  0
   10.2190    1.8910    2.1740 C   0  0  0  0  0  2  0  0  0  0  0  0
   10.3000    1.1660    4.5910 Cl  0  0  0  0  0 15  0  0  0  0  0  0
   10.0190    3.3130    1.6220 C   0  0  0  0  0  2  0  0  0  0  0  0
   10.2690    3.7660    0.3140 C   0  0  0  0  0  3  0  0  0  0  0  0
   10.6940    2.8890   -0.6550 C   0  0  0  0  0  3  0  0  0  0  0  0
   10.6430    1.5270   -0.4050 C   0  0  1  0  0  3  0  0  0  0  0  0
   11.1330    0.5220   -1.7400 Cl  0  0  0  0  0  0  0  0  0  0  0  0
  1  5  1  0  0  0  0
  1  2  1  0  0  0  0
  2  3  1  0  0  0  0
  6  5  1  0  0  0  0
  6  7  1  0  0  0  0
  8  7  2  0  0  0  0
  8 15  1  0  0  0  0
  9  8  1  0  0  0  0
 10 11  1  0  0  0  0
 10  9  2  0  0  0  0
 11  6  2  0  0  0  0
 12 10  1  0  0  0  0
 13 12  2  0  0  0  0
 14 12  1  0  0  0  0
 16 15  1  0  0  0  0
 17  9  1  0  0  0  0
 18 17  1  0  0  0  0
 19 20  2  0  0  0  0
 20 23  1  0  0  0  0
 20 21  1  0  0  0  0
 21  1  2  0  0  0  0
 22 21  1  0  0  0  0
 24 23  1  0  0  0  0
 25 24  1  6  0  0  0
 25 26  1  0  0  0  0
 28 26  1  0  0  0  0
 29 28  1  0  0  0  0
 30 31  1  0  0  0  0
 30 29  2  0  0  0  0
 31 32  1  1  0  0  0
 31 25  1  0  0  0  0
M  END
>  <minimizedAffinity>
-6.97352695

$$$$

 OpenBabel09122222183D

 32 31  0  0  1  0  0  0  0  0999 V2000
    7.8610   -4.4190    1.6660 C   0  0  0  0  0  0  0  0  0  0  0  0
    8.6080   -4.2070   -0.1400 C   0  0  0  0  0  2  0  0  0  0  0  0
    7.7720   -5.1840   -1.3380 C   0  0  0  0  0  1  0  0  0  0  0  0
    5.8780   -6.1880   -0.4980 S   0  0  0  0  0 15  0  0  0  0  0  0
    6.3760   -5.4170    1.6560 C   0  0  0  0  0  2  0  0  0  0  0  0
    5.3660   -5.6680    2.6790 C   0  0  0  0  0  0  0  0  0  0  0  0
    5.2270   -6.9160    3.1430 N   0  0  0  0  0  0  0  0  0  0  0  0
    4.2700   -7.0400    4.0700 C   0  0  0  0  0  0  0  0  0  0  0  0
    3.4730   -6.0140    4.5370 C   0  0  0  0  0  0  0  0  0  0  0  0
    3.6990   -4.7610    3.9940 C   0  0  0  0  0  0  0  0  0  0  0  0
    4.6750   -4.5800    3.0570 N   0  0  0  0  0  0  0  0  0  0  0  0
    2.8360   -3.5900    4.4480 C   0  0  0  0  0  0  0  0  0  0  0  0
    3.4810   -2.5270    4.7590 O   0  0  0  0  0  1  0  0  0  0  0  0
    1.5790   -3.7430    4.4950 O   0  0  0  0  0  0  0  0  0  0  0  0
    4.0910   -8.3020    4.5830 O   0  0  0  0  0  0  0  0  0  0  0  0
    3.3570   -8.1740    5.2160 H   0  0  0  0  0  0  0  0  0  0  0  0
    2.5260   -6.2960    5.4870 O   0  0  0  0  0  0  0  0  0  0  0  0
    2.0740   -5.4200    5.6690 H   0  0  0  0  0  0  0  0  0  0  0  0
    9.6800   -2.3050    3.8530 O   0  0  0  0  0  0  0  0  0  0  0  0
    9.2430   -2.7900    2.8160 C   0  0  0  0  0  0  0  0  0  0  0  0
    8.3610   -3.8410    2.8190 N   0  0  0  0  0  4  0  0  0  0  0  0
    8.4700   -4.4410    3.6390 H   0  0  0  0  0  0  0  0  0  0  0  0
    9.7770   -2.4290    1.6140 O   0  0  0  0  0  0  0  0  0  0  0  0
    9.2040   -1.3190    0.9140 C   0  0  0  0  0  2  0  0  0  0  0  0
   10.2980   -0.4970    0.1380 C   0  0  2  0  0  3  0  0  0  0  0  0
   10.4760    1.0830    0.1940 C   0  0  0  0  0  2  0  0  0  0  0  0
   10.3570    2.6240    2.1900 Cl  0  0  0  0  0 15  0  0  0  0  0  0
   10.6030    1.4700   -1.2890 C   0  0  0  0  0  2  0  0  0  0  0  0
   10.9680    0.6370   -2.3630 C   0  0  0  0  0  3  0  0  0  0  0  0
   11.2020   -0.7000   -2.1540 C   0  0  0  0  0  3  0  0  0  0  0  0
   10.8470   -1.2700   -0.9410 C   0  0  1  0  0  3  0  0  0  0  0  0
   11.1230   -2.9860   -0.8330 Cl  0  0  0  0  0  0  0  0  0  0  0  0
  1 21  2  0  0  0  0
  2  1  1  0  0  0  0
  3  2  1  0  0  0  0
  5  1  1  0  0  0  0
  5  6  1  0  0  0  0
  6 11  2  0  0  0  0
  6  7  1  0  0  0  0
  7  8  2  0  0  0  0
  8  9  1  0  0  0  0
  8 15  1  0  0  0  0
  9 17  1  0  0  0  0
 10 12  1  0  0  0  0
 10  9  2  0  0  0  0
 11 10  1  0  0  0  0
 12 14  2  0  0  0  0
 12 13  1  0  0  0  0
 15 16  1  0  0  0  0
 17 18  1  0  0  0  0
 20 21  1  0  0  0  0
 20 19  2  0  0  0  0
 21 22  1  0  0  0  0
 23 20  1  0  0  0  0
 24 23  1  0  0  0  0
 25 26  1  0  0  0  0
 25 24  1  6  0  0  0
 28 26  1  0  0  0  0
 29 30  2  0  0  0  0
 29 28  1  0  0  0  0
 30 31  1  0  0  0  0
 31 32  1  1  0  0  0
 31 25  1  0  0  0  0
M  END
>  <minimizedAffinity>
-6.76432228

$$$$

 OpenBabel09122222183D

 32 31  0  0  1  0  0  0  0  0999 V2000
    8.7200   -3.2390    2.5350 C   0  0  0  0  0  0  0  0  0  0  0  0
    8.1250   -3.4290    4.3990 C   0  0  0  0  0  2  0  0  0  0  0  0
    8.6230   -2.0820    5.4110 C   0  0  0  0  0  1  0  0  0  0  0  0
    9.5620   -0.3630    4.2000 S   0  0  0  0  0 15  0  0  0  0  0  0
    9.4760   -1.6440    2.2410 C   0  0  0  0  0  2  0  0  0  0  0  0
    9.8620   -0.9630    1.0090 C   0  0  0  0  0  0  0  0  0  0  0  0
   10.1690   -1.7070   -0.0600 N   0  0  0  0  0  0  0  0  0  0  0  0
   10.5160   -0.9870   -1.1330 C   0  0  0  0  0  0  0  0  0  0  0  0
   10.5720    0.3910   -1.1860 C   0  0  0  0  0  0  0  0  0  0  0  0
   10.2330    1.0670   -0.0250 C   0  0  0  0  0  0  0  0  0  0  0  0
    9.8570    0.3780    1.0900 N   0  0  0  0  0  0  0  0  0  0  0  0
   10.2990    2.5900   -0.0080 C   0  0  0  0  0  0  0  0  0  0  0  0
   11.3170    3.0970   -0.5980 O   0  0  0  0  0  0  0  0  0  0  0  0
    9.3760    3.2320    0.5770 O   0  0  0  0  0  1  0  0  0  0  0  0
   10.8340   -1.7050   -2.2610 O   0  0  0  0  0  0  0  0  0  0  0  0
   11.0640   -1.0040   -2.9030 H   0  0  0  0  0  0  0  0  0  0  0  0
   10.9540    0.9910   -2.3570 O   0  0  0  0  0  0  0  0  0  0  0  0
   10.9260    1.9750   -2.1650 H   0  0  0  0  0  0  0  0  0  0  0  0
    7.3130   -5.8060    0.5370 O   0  0  0  0  0  0  0  0  0  0  0  0
    7.4350   -4.9740    1.4300 C   0  0  0  0  0  0  0  0  0  0  0  0
    8.5460   -4.1760    1.5330 N   0  0  0  0  0  4  0  0  0  0  0  0
    9.3840   -4.6190    1.1510 H   0  0  0  0  0  0  0  0  0  0  0  0
    6.5560   -4.9540    2.4720 O   0  0  0  0  0  0  0  0  0  0  0  0
    5.2160   -4.5130    2.2300 C   0  0  0  0  0  2  0  0  0  0  0  0
    4.1630   -5.4460    2.9350 C   0  0  2  0  0  3  0  0  0  0  0  0
    3.5050   -5.1820    4.3600 C   0  0  0  0  0  2  0  0  0  0  0  0
    2.6280   -3.0210    5.3270 Cl  0  0  0  0  0 15  0  0  0  0  0  0
    3.6540   -6.5390    5.0680 C   0  0  0  0  0  2  0  0  0  0  0  0
    3.8510   -7.7980    4.4720 C   0  0  0  0  0  3  0  0  0  0  0  0
    3.9890   -7.9060    3.1090 C   0  0  0  0  0  3  0  0  0  0  0  0
    4.1750   -6.7590    2.3530 C   0  0  1  0  0  3  0  0  0  0  0  0
    4.4160   -7.0380    0.6510 Cl  0  0  0  0  0  0  0  0  0  0  0  0
  1  2  1  0  0  0  0
  2  3  1  0  0  0  0
  5  1  1  0  0  0  0
  6 11  2  0  0  0  0
  6  5  1  0  0  0  0
  7  6  1  0  0  0  0
  8  7  2  0  0  0  0
  9  8  1  0  0  0  0
  9 10  2  0  0  0  0
 10 12  1  0  0  0  0
 10 11  1  0  0  0  0
 12 14  1  0  0  0  0
 13 12  2  0  0  0  0
 15  8  1  0  0  0  0
 16 15  1  0  0  0  0
 17 18  1  0  0  0  0
 17  9  1  0  0  0  0
 19 20  2  0  0  0  0
 20 21  1  0  0  0  0
 20 23  1  0  0  0  0
 21  1  2  0  0  0  0
 22 21  1  0  0  0  0
 24 23  1  0  0  0  0
 25 24  1  1  0  0  0
 25 26  1  0  0  0  0
 26 28  1  0  0  0  0
 29 28  1  0  0  0  0
 30 29  2  0  0  0  0
 31 32  1  6  0  0  0
 31 25  1  0  0  0  0
 31 30  1  0  0  0  0
M  END
>  <minimizedAffinity>
-6.68875599

$$$$

 OpenBabel09122222183D

 32 31  0  0  1  0  0  0  0  0999 V2000
    8.4450   -3.1440    2.2660 C   0  0  0  0  0  0  0  0  0  0  0  0
    8.5600   -4.8430    1.2840 C   0  0  0  0  0  2  0  0  0  0  0  0
    9.1140   -4.6330   -0.3700 C   0  0  0  0  0  1  0  0  0  0  0  0
    9.8190   -2.4840   -0.8040 S   0  0  0  0  0 15  0  0  0  0  0  0
    9.1090   -1.7830    1.3150 C   0  0  0  0  0  2  0  0  0  0  0  0
    9.4410   -0.4100    1.6830 C   0  0  0  0  0  0  0  0  0  0  0  0
    9.5240    0.5070    0.7110 N   0  0  0  0  0  0  0  0  0  0  0  0
    9.8410    1.7300    1.1520 C   0  0  0  0  0  0  0  0  0  0  0  0
   10.0730    2.0670    2.4700 C   0  0  0  0  0  0  0  0  0  0  0  0
    9.9600    1.0460    3.3980 C   0  0  0  0  0  0  0  0  0  0  0  0
    9.6230   -0.2150    2.9990 N   0  0  0  0  0  0  0  0  0  0  0  0
   10.2280    1.3460    4.8680 C   0  0  0  0  0  0  0  0  0  0  0  0
   10.9440    0.4770    5.4790 O   0  0  0  0  0  1  0  0  0  0  0  0
    9.7330    2.3970    5.3740 O   0  0  0  0  0  0  0  0  0  0  0  0
    9.9330    2.7090    0.1920 O   0  0  0  0  0  0  0  0  0  0  0  0
   10.1790    3.4980    0.7150 H   0  0  0  0  0  0  0  0  0  0  0  0
   10.3970    3.3640    2.7710 O   0  0  0  0  0  0  0  0  0  0  0  0
   10.5220    3.3770    3.7650 H   0  0  0  0  0  0  0  0  0  0  0  0
    6.4660   -3.4970    5.1850 O   0  0  0  0  0  0  0  0  0  0  0  0
    6.8770   -3.6650    4.0430 C   0  0  0  0  0  0  0  0  0  0  0  0
    7.9660   -2.9880    3.5540 N   0  0  0  0  0  4  0  0  0  0  0  0
    8.0900   -2.0750    3.9970 H   0  0  0  0  0  0  0  0  0  0  0  0
    6.1390   -4.3850    3.1490 O   0  0  0  0  0  0  0  0  0  0  0  0
    4.8310   -3.9170    2.8050 C   0  0  0  0  0  2  0  0  0  0  0  0
    3.7100   -4.8640    3.3730 C   0  0  2  0  0  3  0  0  0  0  0  0
    2.6850   -4.4890    4.5300 C   0  0  0  0  0  2  0  0  0  0  0  0
    1.4160   -2.3360    4.8890 Cl  0  0  0  0  0 15  0  0  0  0  0  0
    2.7540   -5.7090    5.4640 C   0  0  0  0  0  2  0  0  0  0  0  0
    3.2010   -7.0050    5.1470 C   0  0  0  0  0  3  0  0  0  0  0  0
    3.6960   -7.2810    3.8950 C   0  0  0  0  0  3  0  0  0  0  0  0
    3.9790   -6.2330    3.0320 C   0  0  1  0  0  3  0  0  0  0  0  0
    4.6760   -6.7110    1.5090 Cl  0  0  0  0  0  0  0  0  0  0  0  0
  1 21  2  0  0  0  0
  2  1  1  0  0  0  0
  3  2  1  0  0  0  0
  5  6  1  0  0  0  0
  5  1  1  0  0  0  0
  6 11  2  0  0  0  0
  7  8  2  0  0  0  0
  7  6  1  0  0  0  0
  8  9  1  0  0  0  0
  9 17  1  0  0  0  0
  9 10  2  0  0  0  0
 10 12  1  0  0  0  0
 11 10  1  0  0  0  0
 12 14  2  0  0  0  0
 12 13  1  0  0  0  0
 15 16  1  0  0  0  0
 15  8  1  0  0  0  0
 17 18  1  0  0  0  0
 20 19  2  0  0  0  0
 21 22  1  0  0  0  0
 21 20  1  0  0  0  0
 23 20  1  0  0  0  0
 24 23  1  0  0  0  0
 25 24  1  1  0  0  0
 25 26  1  0  0  0  0
 26 28  1  0  0  0  0
 29 28  1  0  0  0  0
 30 29  2  0  0  0  0
 31 32  1  6  0  0  0
 31 25  1  0  0  0  0
 31 30  1  0  0  0  0
M  END
>  <minimizedAffinity>
-6.67428255

$$$$

 OpenBabel09122222183D

 32 31  0  0  1  0  0  0  0  0999 V2000
    9.9540   -0.6370    1.2620 C   0  0  0  0  0  0  0  0  0  0  0  0
   10.3340   -2.1340    0.0470 C   0  0  0  0  0  2  0  0  0  0  0  0
   10.6300   -1.6090   -1.6040 C   0  0  0  0  0  1  0  0  0  0  0  0
   10.7750    0.6810   -1.7930 S   0  0  0  0  0 15  0  0  0  0  0  0
   10.1770    0.9440    0.4560 C   0  0  0  0  0  2  0  0  0  0  0  0
   10.2310    2.3050    0.9810 C   0  0  0  0  0  0  0  0  0  0  0  0
   10.1630    3.3240    0.1160 N   0  0  0  0  0  0  0  0  0  0  0  0
   10.2280    4.5270    0.6980 C   0  0  0  0  0  0  0  0  0  0  0  0
   10.3560    4.7530    2.0530 C   0  0  0  0  0  0  0  0  0  0  0  0
   10.4160    3.6300    2.8630 C   0  0  0  0  0  0  0  0  0  0  0  0
   10.3370    2.3820    2.3180 N   0  0  0  0  0  0  0  0  0  0  0  0
   10.5820    3.8090    4.3670 C   0  0  0  0  0  0  0  0  0  0  0  0
   11.3170    2.9310    4.9410 O   0  0  0  0  0  1  0  0  0  0  0  0
    9.9940    4.7780    4.9330 O   0  0  0  0  0  0  0  0  0  0  0  0
   10.1570    5.6080   -0.1490 O   0  0  0  0  0  0  0  0  0  0  0  0
   10.2340    6.3660    0.4650 H   0  0  0  0  0  0  0  0  0  0  0  0
   10.4180    6.0450    2.5040 O   0  0  0  0  0  0  0  0  0  0  0  0
   10.5120    5.9690    3.4990 H   0  0  0  0  0  0  0  0  0  0  0  0
    8.5200   -1.8300    4.2760 O   0  0  0  0  0  0  0  0  0  0  0  0
    8.8230   -1.7620    3.0900 C   0  0  0  0  0  0  0  0  0  0  0  0
    9.6060   -0.7490    2.5960 N   0  0  0  0  0  4  0  0  0  0  0  0
    9.5130    0.1150    3.1340 H   0  0  0  0  0  0  0  0  0  0  0  0
    8.2240   -2.5850    2.1820 O   0  0  0  0  0  0  0  0  0  0  0  0
    8.1780   -3.9890    2.4550 C   0  0  0  0  0  2  0  0  0  0  0  0
    6.8490   -4.6390    1.9200 C   0  0  2  0  0  3  0  0  0  0  0  0
    5.5180   -4.8470    2.7670 C   0  0  0  0  0  2  0  0  0  0  0  0
    4.4020   -3.2620    4.3830 Cl  0  0  0  0  0 15  0  0  0  0  0  0
    5.1430   -6.3090    2.4690 C   0  0  0  0  0  2  0  0  0  0  0  0
    5.5550   -7.0930    1.3760 C   0  0  0  0  0  3  0  0  0  0  0  0
    6.4350   -6.5850    0.4520 C   0  0  0  0  0  3  0  0  0  0  0  0
    7.0970   -5.3990    0.7260 C   0  0  1  0  0  3  0  0  0  0  0  0
    8.2420   -4.9050   -0.4890 Cl  0  0  0  0  0  0  0  0  0  0  0  0
  1 21  2  0  0  0  0
  2  1  1  0  0  0  0
  3  2  1  0  0  0  0
  5  6  1  0  0  0  0
  5  1  1  0  0  0  0
  6 11  2  0  0  0  0
  7  8  2  0  0  0  0
  7  6  1  0  0  0  0
  8  9  1  0  0  0  0
  9 17  1  0  0  0  0
  9 10  2  0  0  0  0
 10 12  1  0  0  0  0
 11 10  1  0  0  0  0
 12 14  2  0  0  0  0
 12 13  1  0  0  0  0
 15 16  1  0  0  0  0
 15  8  1  0  0  0  0
 17 18  1  0  0  0  0
 20 19  2  0  0  0  0
 21 20  1  0  0  0  0
 21 22  1  0  0  0  0
 23 24  1  0  0  0  0
 23 20  1  0  0  0  0
 25 24  1  1  0  0  0
 25 26  1  0  0  0  0
 28 26  1  0  0  0  0
 29 28  1  0  0  0  0
 30 31  1  0  0  0  0
 30 29  2  0  0  0  0
 31 32  1  6  0  0  0
 31 25  1  0  0  0  0
M  END
>  <minimizedAffinity>
-6.60919094

$$$$
