
 OpenBabel09122221293D

 50 56  0  0  1  0  0  0  0  0999 V2000
    7.1700   -2.2840    7.1420 C   0  0  0  0  0  0  0  0  0  0  0  0
    6.0660   -1.4360    7.2800 C   0  0  0  0  0  3  0  0  0  0  0  0
    5.4600   -1.2610    8.5280 C   0  0  0  0  0  3  0  0  0  0  0  0
    5.9260   -1.9440    9.6550 C   0  0  0  0  0  0  0  0  0  0  0  0
    7.0100   -2.8050    9.5210 C   0  0  0  0  0  3  0  0  0  0  0  0
    7.6150   -2.9730    8.2730 C   0  0  0  0  0  0  0  0  0  0  0  0
    8.6630   -3.8070    8.1930 F   0  0  0  0  0  0  0  0  0  0  0  0
    8.9710   -3.5320    1.5660 C   0  0  0  0  0  0  0  0  0  0  0  0
   10.0190   -2.6440    1.8580 C   0  0  0  0  0  3  0  0  0  0  0  0
   10.1260   -1.9950    3.0940 C   0  0  0  0  0  3  0  0  0  0  0  0
    9.1400   -2.2610    4.0550 C   0  0  0  0  0  0  0  0  0  0  0  0
    8.0900   -3.1390    3.8020 C   0  0  0  0  0  0  0  0  0  0  0  0
    7.9990   -3.7800    2.5560 C   0  0  0  0  0  3  0  0  0  0  0  0
    7.2570   -3.2270    4.8870 N   0  0  0  0  0  0  0  0  0  0  0  0
    7.7790   -2.4570    5.8230 C   0  0  0  0  0  0  0  0  0  0  0  0
    8.9060   -1.8060    5.3390 N   0  0  0  0  0  0  0  0  0  0  0  0
    9.6500   -0.7520    6.0250 C   0  0  0  0  0  3  0  0  0  0  0  0
   10.7880   -1.2930    6.9050 C   0  0  0  0  0  2  0  0  0  0  0  0
   11.4940   -0.1650    7.6540 C   0  0  0  0  0  2  0  0  0  0  0  0
   11.9850    0.9230    6.7010 C   0  0  0  0  0  2  0  0  0  0  0  0
   10.8520    1.4680    5.8360 C   0  0  0  0  0  2  0  0  0  0  0  0
   10.1390    0.3540    5.0720 C   0  0  0  0  0  2  0  0  0  0  0  0
    9.6510   -3.7620   -0.7030 O   0  0  0  0  0  0  0  0  0  0  0  0
    8.8880   -4.2080    0.2120 C   0  0  0  0  0  0  0  0  0  0  0  0
    8.0600   -5.1650    0.0870 O   0  0  0  0  0  1  0  0  0  0  0  0
    5.2480   -1.6620   10.8050 O   0  0  0  0  0  0  0  0  0  0  0  0
    3.9550   -1.0650   10.7390 C   0  0  0  0  0  2  0  0  0  0  0  0
    2.8520   -2.0000   11.1960 C   0  0  0  0  0  0  0  0  0  0  0  0
    2.5740   -2.1030   12.5730 C   0  0  0  0  0  3  0  0  0  0  0  0
    1.5490   -2.9370   13.0350 C   0  0  0  0  0  0  0  0  0  0  0  0
    0.8220   -3.7170   12.1390 C   0  0  0  0  0  3  0  0  0  0  0  0
    1.0850   -3.6230   10.7730 C   0  0  0  0  0  3  0  0  0  0  0  0
    2.0890   -2.7640   10.2800 C   0  0  0  0  0  0  0  0  0  0  0  0
    1.2740   -3.0710   14.4840 C   0  0  0  0  0  0  0  0  0  0  0  0
    0.8220   -4.1440   14.8770 O   0  0  0  0  0  0  0  0  0  0  0  0
    1.5330   -1.9940   15.3310 N   0  0  0  0  0  0  0  0  0  0  0  0
    1.7260   -0.6070   14.9090 C   0  0  0  0  0  2  0  0  0  0  0  0
    0.6220    0.2820   15.4770 C   0  0  0  0  0  2  0  0  0  0  0  0
    0.4640    0.1130   16.9880 C   0  0  1  0  0  3  0  0  0  0  0  0
    0.3530   -1.3580   17.3950 C   0  0  0  0  0  2  0  0  0  0  0  0
    1.4580   -2.2070   16.7740 C   0  0  0  0  0  2  0  0  0  0  0  0
    1.5430    0.7520   17.6680 O   0  0  0  0  0  0  0  0  0  0  0  0
    2.3570    0.2370   17.5350 H   0  0  0  0  0  0  0  0  0  0  0  0
    2.3030   -2.7050    8.8280 C   0  0  0  0  0  0  0  0  0  0  0  0
    2.8590   -3.7970    8.1410 C   0  0  0  0  0  3  0  0  0  0  0  0
    3.0590   -3.7450    6.7590 C   0  0  0  0  0  3  0  0  0  0  0  0
    2.6980   -2.6020    6.0510 C   0  0  0  0  0  0  0  0  0  0  0  0
    2.9420   -2.5340    4.3510 Cl  0  0  0  0  0  0  0  0  0  0  0  0
    2.1370   -1.5110    6.7130 C   0  0  0  0  0  3  0  0  0  0  0  0
    1.9380   -1.5640    8.0960 C   0  0  0  0  0  3  0  0  0  0  0  0
  1  2  2  0  0  0  0
  1  6  1  0  0  0  0
  2  3  1  0  0  0  0
  3  4  2  0  0  0  0
  4 26  1  0  0  0  0
  5  4  1  0  0  0  0
  6  5  2  0  0  0  0
  7  6  1  0  0  0  0
  8  9  2  0  0  0  0
  8 13  1  0  0  0  0
  9 10  1  0  0  0  0
 10 11  2  0  0  0  0
 11 16  1  0  0  0  0
 12 11  1  0  0  0  0
 12 14  1  0  0  0  0
 13 12  2  0  0  0  0
 14 15  2  0  0  0  0
 15  1  1  0  0  0  0
 16 15  1  0  0  0  0
 16 17  1  0  0  0  0
 17 18  1  0  0  0  0
 18 19  1  0  0  0  0
 20 19  1  0  0  0  0
 21 20  1  0  0  0  0
 22 21  1  0  0  0  0
 22 17  1  0  0  0  0
 23 24  2  0  0  0  0
 24  8  1  0  0  0  0
 25 24  1  0  0  0  0
 27 26  1  0  0  0  0
 27 28  1  0  0  0  0
 28 29  1  0  0  0  0
 29 30  2  0  0  0  0
 30 34  1  0  0  0  0
 31 30  1  0  0  0  0
 32 31  2  0  0  0  0
 33 32  1  0  0  0  0
 33 28  2  0  0  0  0
 34 35  2  0  0  0  0
 34 36  1  0  0  0  0
 36 41  1  0  0  0  0
 37 36  1  0  0  0  0
 37 38  1  0  0  0  0
 38 39  1  0  0  0  0
 39 40  1  0  0  0  0
 39 42  1  1  0  0  0
 41 40  1  0  0  0  0
 43 42  1  0  0  0  0
 44 33  1  0  0  0  0
 45 44  1  0  0  0  0
 46 45  2  0  0  0  0
 47 49  2  0  0  0  0
 47 46  1  0  0  0  0
 48 47  1  0  0  0  0
 49 50  1  0  0  0  0
 50 44  2  0  0  0  0
M  END
>  <minimizedAffinity>
-10.1547556

$$$$

 OpenBabel09122221293D

 50 56  0  0  1  0  0  0  0  0999 V2000
    9.7430   -5.1460   11.1590 C   0  0  0  0  0  0  0  0  0  0  0  0
    8.7360   -5.7320   11.9330 C   0  0  0  0  0  3  0  0  0  0  0  0
    7.3890   -5.4810   11.6510 C   0  0  0  0  0  3  0  0  0  0  0  0
    7.0210   -4.6260   10.6090 C   0  0  0  0  0  0  0  0  0  0  0  0
    8.0170   -4.0230    9.8480 C   0  0  0  0  0  3  0  0  0  0  0  0
    9.3610   -4.2810   10.1300 C   0  0  0  0  0  0  0  0  0  0  0  0
   10.2870   -3.6840    9.3640 F   0  0  0  0  0  0  0  0  0  0  0  0
   15.5050   -6.6930   11.6950 C   0  0  0  0  0  0  0  0  0  0  0  0
   15.4390   -5.9740   12.8990 C   0  0  0  0  0  3  0  0  0  0  0  0
   14.2660   -5.3400   13.3280 C   0  0  0  0  0  3  0  0  0  0  0  0
   13.1340   -5.4450   12.5070 C   0  0  0  0  0  0  0  0  0  0  0  0
   13.1620   -6.1540   11.3100 C   0  0  0  0  0  0  0  0  0  0  0  0
   14.3470   -6.7820   10.8960 C   0  0  0  0  0  3  0  0  0  0  0  0
   11.9410   -6.1060   10.6870 N   0  0  0  0  0  0  0  0  0  0  0  0
   11.1430   -5.4180   11.4810 C   0  0  0  0  0  0  0  0  0  0  0  0
   11.8450   -4.9510   12.5850 N   0  0  0  0  0  0  0  0  0  0  0  0
   11.3430   -4.0190   13.5910 C   0  0  0  0  0  3  0  0  0  0  0  0
   11.4040   -4.5850   15.0200 C   0  0  0  0  0  2  0  0  0  0  0  0
   10.8080   -3.6060   16.0290 C   0  0  0  0  0  2  0  0  0  0  0  0
   11.4650   -2.2300   15.9360 C   0  0  0  0  0  2  0  0  0  0  0  0
   11.3920   -1.6650   14.5210 C   0  0  0  0  0  2  0  0  0  0  0  0
   11.9920   -2.6270   13.4970 C   0  0  0  0  0  2  0  0  0  0  0  0
   17.8810   -6.8130   11.6490 O   0  0  0  0  0  1  0  0  0  0  0  0
   16.7980   -7.3570   11.2630 C   0  0  0  0  0  0  0  0  0  0  0  0
   16.7050   -8.4010   10.5460 O   0  0  0  0  0  0  0  0  0  0  0  0
    5.6740   -4.4880   10.4420 O   0  0  0  0  0  0  0  0  0  0  0  0
    5.0840   -3.1910   10.4630 C   0  0  0  0  0  2  0  0  0  0  0  0
    3.6580   -3.2020   10.9780 C   0  0  0  0  0  0  0  0  0  0  0  0
    3.4360   -3.2390   12.3690 C   0  0  0  0  0  3  0  0  0  0  0  0
    2.1350   -3.2280   12.8860 C   0  0  0  0  0  0  0  0  0  0  0  0
    1.0390   -3.2310   12.0270 C   0  0  0  0  0  3  0  0  0  0  0  0
    1.2440   -3.1920   10.6480 C   0  0  0  0  0  3  0  0  0  0  0  0
    2.5440   -3.1680   10.1030 C   0  0  0  0  0  0  0  0  0  0  0  0
    1.8970   -3.2970   14.3460 C   0  0  0  0  0  0  0  0  0  0  0  0
    1.5940   -4.3900   14.8180 O   0  0  0  0  0  0  0  0  0  0  0  0
    2.0240   -2.1410   15.1140 N   0  0  0  0  0  0  0  0  0  0  0  0
    2.0300   -0.7720   14.5970 C   0  0  0  0  0  2  0  0  0  0  0  0
    0.8260    0.0030   15.1280 C   0  0  0  0  0  2  0  0  0  0  0  0
    0.7100   -0.0810   16.6500 C   0  0  1  0  0  3  0  0  0  0  0  0
    0.7970   -1.5230   17.1550 C   0  0  0  0  0  2  0  0  0  0  0  0
    1.9950   -2.2620   16.5690 C   0  0  0  0  0  2  0  0  0  0  0  0
    1.7050    0.7370   17.2630 O   0  0  0  0  0  0  0  0  0  0  0  0
    2.5770    0.3240   17.1470 H   0  0  0  0  0  0  0  0  0  0  0  0
    2.6870   -3.1120    8.6420 C   0  0  0  0  0  0  0  0  0  0  0  0
    2.8710   -4.2890    7.8970 C   0  0  0  0  0  3  0  0  0  0  0  0
    3.0020   -4.2400    6.5060 C   0  0  0  0  0  3  0  0  0  0  0  0
    2.9420   -3.0130    5.8490 C   0  0  0  0  0  0  0  0  0  0  0  0
    3.1020   -2.9490    4.1380 Cl  0  0  0  0  0  0  0  0  0  0  0  0
    2.7510   -1.8370    6.5710 C   0  0  0  0  0  3  0  0  0  0  0  0
    2.6210   -1.8870    7.9610 C   0  0  0  0  0  3  0  0  0  0  0  0
  1 15  1  0  0  0  0
  1  2  1  0  0  0  0
  3  2  2  0  0  0  0
  4  3  1  0  0  0  0
  5  6  1  0  0  0  0
  5  4  2  0  0  0  0
  6  1  2  0  0  0  0
  7  6  1  0  0  0  0
  8  9  1  0  0  0  0
  9 10  2  0  0  0  0
 11 16  1  0  0  0  0
 11 10  1  0  0  0  0
 12 11  2  0  0  0  0
 13 12  1  0  0  0  0
 13  8  2  0  0  0  0
 14 12  1  0  0  0  0
 14 15  2  0  0  0  0
 15 16  1  0  0  0  0
 16 17  1  0  0  0  0
 17 18  1  0  0  0  0
 18 19  1  0  0  0  0
 20 19  1  0  0  0  0
 21 20  1  0  0  0  0
 22 17  1  0  0  0  0
 22 21  1  0  0  0  0
 24 23  1  0  0  0  0
 24  8  1  0  0  0  0
 25 24  2  0  0  0  0
 26 27  1  0  0  0  0
 26  4  1  0  0  0  0
 27 28  1  0  0  0  0
 28 29  1  0  0  0  0
 29 30  2  0  0  0  0
 30 34  1  0  0  0  0
 31 30  1  0  0  0  0
 32 31  2  0  0  0  0
 33 32  1  0  0  0  0
 33 28  2  0  0  0  0
 34 35  2  0  0  0  0
 34 36  1  0  0  0  0
 36 41  1  0  0  0  0
 37 36  1  0  0  0  0
 37 38  1  0  0  0  0
 38 39  1  0  0  0  0
 39 40  1  0  0  0  0
 39 42  1  1  0  0  0
 41 40  1  0  0  0  0
 43 42  1  0  0  0  0
 44 33  1  0  0  0  0
 45 44  2  0  0  0  0
 46 45  1  0  0  0  0
 47 46  2  0  0  0  0
 47 49  1  0  0  0  0
 48 47  1  0  0  0  0
 49 50  2  0  0  0  0
 50 44  1  0  0  0  0
M  END
>  <minimizedAffinity>
-10.1066904

$$$$

 OpenBabel09122221293D

 50 56  0  0  1  0  0  0  0  0999 V2000
    3.6950   -3.0500    5.5040 C   0  0  0  0  0  0  0  0  0  0  0  0
    4.7430   -2.6460    6.3370 C   0  0  0  0  0  3  0  0  0  0  0  0
    4.5290   -1.6790    7.3260 C   0  0  0  0  0  3  0  0  0  0  0  0
    3.2760   -1.0820    7.4860 C   0  0  0  0  0  0  0  0  0  0  0  0
    2.2340   -1.4630    6.6460 C   0  0  0  0  0  3  0  0  0  0  0  0
    2.4520   -2.4330    5.6650 C   0  0  0  0  0  0  0  0  0  0  0  0
    1.4160   -2.7750    4.8840 F   0  0  0  0  0  0  0  0  0  0  0  0
    5.1140   -6.5030    0.8190 C   0  0  0  0  0  0  0  0  0  0  0  0
    4.5480   -7.5330    1.5880 C   0  0  0  0  0  3  0  0  0  0  0  0
    4.0190   -7.3080    2.8650 C   0  0  0  0  0  3  0  0  0  0  0  0
    4.0680   -6.0010    3.3660 C   0  0  0  0  0  0  0  0  0  0  0  0
    4.6160   -4.9540    2.6300 C   0  0  0  0  0  0  0  0  0  0  0  0
    5.1420   -5.1990    1.3520 C   0  0  0  0  0  3  0  0  0  0  0  0
    4.5540   -3.7790    3.3340 N   0  0  0  0  0  0  0  0  0  0  0  0
    3.9480   -4.0560    4.4730 C   0  0  0  0  0  0  0  0  0  0  0  0
    3.6770   -5.4160    4.5570 N   0  0  0  0  0  0  0  0  0  0  0  0
    3.1690   -6.1200    5.7320 C   0  0  0  0  0  3  0  0  0  0  0  0
    3.8760   -5.7070    7.0330 C   0  0  0  0  0  2  0  0  0  0  0  0
    3.3610   -6.5150    8.2240 C   0  0  0  0  0  2  0  0  0  0  0  0
    1.8420   -6.4230    8.3510 C   0  0  0  0  0  2  0  0  0  0  0  0
    1.1400   -6.8440    7.0630 C   0  0  0  0  0  2  0  0  0  0  0  0
    1.6370   -6.0410    5.8620 C   0  0  0  0  0  2  0  0  0  0  0  0
    6.4440   -5.9050   -1.0620 O   0  0  0  0  0  1  0  0  0  0  0  0
    5.6840   -6.7910   -0.5560 C   0  0  0  0  0  0  0  0  0  0  0  0
    5.3570   -7.8900   -1.1050 O   0  0  0  0  0  0  0  0  0  0  0  0
    3.2130   -0.1690    8.4980 O   0  0  0  0  0  0  0  0  0  0  0  0
    3.0320   -0.6100    9.8410 C   0  0  0  0  0  2  0  0  0  0  0  0
    4.2910   -0.4830   10.6770 C   0  0  0  0  0  0  0  0  0  0  0  0
    5.1350    0.6260   10.4720 C   0  0  0  0  0  3  0  0  0  0  0  0
    6.2950    0.7920   11.2370 C   0  0  0  0  0  0  0  0  0  0  0  0
    6.6580   -0.1660   12.1800 C   0  0  0  0  0  3  0  0  0  0  0  0
    5.8300   -1.2680   12.3940 C   0  0  0  0  0  3  0  0  0  0  0  0
    4.6380   -1.4410   11.6610 C   0  0  0  0  0  0  0  0  0  0  0  0
    7.2010    1.9410   11.0040 C   0  0  0  0  0  0  0  0  0  0  0  0
    8.1430    1.7720   10.2340 O   0  0  0  0  0  0  0  0  0  0  0  0
    6.9530    3.1490   11.6550 N   0  0  0  0  0  0  0  0  0  0  0  0
    6.0920    3.3240   12.8250 C   0  0  0  0  0  2  0  0  0  0  0  0
    6.9110    3.8000   14.0240 C   0  0  0  0  0  2  0  0  0  0  0  0
    7.7590    5.0270   13.6930 C   0  0  1  0  0  3  0  0  0  0  0  0
    8.5780    4.8340   12.4140 C   0  0  0  0  0  2  0  0  0  0  0  0
    7.7200    4.3260   11.2590 C   0  0  0  0  0  2  0  0  0  0  0  0
    6.9310    6.1850   13.6010 O   0  0  0  0  0  0  0  0  0  0  0  0
    6.4000    6.1360   12.7890 H   0  0  0  0  0  0  0  0  0  0  0  0
    3.8070   -2.6170   11.9490 C   0  0  0  0  0  0  0  0  0  0  0  0
    4.0140   -3.8250   11.2610 C   0  0  0  0  0  3  0  0  0  0  0  0
    3.2290   -4.9470   11.5360 C   0  0  0  0  0  3  0  0  0  0  0  0
    2.2330   -4.8730   12.5080 C   0  0  0  0  0  0  0  0  0  0  0  0
    1.2650   -6.2510   12.8500 Cl  0  0  0  0  0  0  0  0  0  0  0  0
    2.0190   -3.6860   13.2070 C   0  0  0  0  0  3  0  0  0  0  0  0
    2.8040   -2.5640   12.9300 C   0  0  0  0  0  3  0  0  0  0  0  0
  1  6  2  0  0  0  0
  1  2  1  0  0  0  0
  2  3  2  0  0  0  0
  3  4  1  0  0  0  0
  4 26  1  0  0  0  0
  5  4  2  0  0  0  0
  6  5  1  0  0  0  0
  7  6  1  0  0  0  0
  8 13  2  0  0  0  0
  8  9  1  0  0  0  0
  9 10  2  0  0  0  0
 10 11  1  0  0  0  0
 11 16  1  0  0  0  0
 12 14  1  0  0  0  0
 12 11  2  0  0  0  0
 13 12  1  0  0  0  0
 14 15  2  0  0  0  0
 15 16  1  0  0  0  0
 15  1  1  0  0  0  0
 16 17  1  0  0  0  0
 17 22  1  0  0  0  0
 17 18  1  0  0  0  0
 18 19  1  0  0  0  0
 19 20  1  0  0  0  0
 21 20  1  0  0  0  0
 22 21  1  0  0  0  0
 23 24  1  0  0  0  0
 24  8  1  0  0  0  0
 25 24  2  0  0  0  0
 26 27  1  0  0  0  0
 27 28  1  0  0  0  0
 28 33  1  0  0  0  0
 29 28  2  0  0  0  0
 29 30  1  0  0  0  0
 30 31  2  0  0  0  0
 31 32  1  0  0  0  0
 33 44  1  0  0  0  0
 33 32  2  0  0  0  0
 34 30  1  0  0  0  0
 34 36  1  0  0  0  0
 35 34  2  0  0  0  0
 36 37  1  0  0  0  0
 37 38  1  0  0  0  0
 39 42  1  6  0  0  0
 39 38  1  0  0  0  0
 40 39  1  0  0  0  0
 41 36  1  0  0  0  0
 41 40  1  0  0  0  0
 43 42  1  0  0  0  0
 44 50  1  0  0  0  0
 45 46  1  0  0  0  0
 45 44  2  0  0  0  0
 46 47  2  0  0  0  0
 47 48  1  0  0  0  0
 47 49  1  0  0  0  0
 50 49  2  0  0  0  0
M  END
>  <minimizedAffinity>
-10.0794325

$$$$

 OpenBabel09122221293D

 50 56  0  0  1  0  0  0  0  0999 V2000
    7.1850   -3.2400   11.5370 C   0  0  0  0  0  0  0  0  0  0  0  0
    7.4050   -4.6200   11.5970 C   0  0  0  0  0  3  0  0  0  0  0  0
    8.5880   -5.1720   11.0950 C   0  0  0  0  0  3  0  0  0  0  0  0
    9.5620   -4.3640   10.5030 C   0  0  0  0  0  0  0  0  0  0  0  0
    9.3410   -2.9930   10.4200 C   0  0  0  0  0  3  0  0  0  0  0  0
    8.1600   -2.4460   10.9280 C   0  0  0  0  0  0  0  0  0  0  0  0
    7.9940   -1.1180   10.8330 F   0  0  0  0  0  0  0  0  0  0  0  0
    2.4630   -1.0330   14.4890 C   0  0  0  0  0  0  0  0  0  0  0  0
    1.8870   -0.9430   13.2120 C   0  0  0  0  0  3  0  0  0  0  0  0
    2.5700   -1.3350   12.0540 C   0  0  0  0  0  3  0  0  0  0  0  0
    3.8710   -1.8330   12.2050 C   0  0  0  0  0  0  0  0  0  0  0  0
    4.4720   -1.9420   13.4560 C   0  0  0  0  0  0  0  0  0  0  0  0
    3.7720   -1.5420   14.6050 C   0  0  0  0  0  3  0  0  0  0  0  0
    5.7420   -2.4470   13.3440 N   0  0  0  0  0  0  0  0  0  0  0  0
    5.9350   -2.6910   12.0610 C   0  0  0  0  0  0  0  0  0  0  0  0
    4.8340   -2.2830   11.3210 N   0  0  0  0  0  0  0  0  0  0  0  0
    4.7470   -2.2390    9.8630 C   0  0  0  0  0  3  0  0  0  0  0  0
    3.5260   -2.9910    9.3100 C   0  0  0  0  0  2  0  0  0  0  0  0
    3.5120   -2.9770    7.7820 C   0  0  0  0  0  2  0  0  0  0  0  0
    3.5990   -1.5560    7.2310 C   0  0  0  0  0  2  0  0  0  0  0  0
    4.8180   -0.8140    7.7720 C   0  0  0  0  0  2  0  0  0  0  0  0
    4.8440   -0.8110    9.3000 C   0  0  0  0  0  2  0  0  0  0  0  0
    2.3740   -0.1620   16.7020 O   0  0  0  0  0  1  0  0  0  0  0  0
    1.6930   -0.5890   15.7170 C   0  0  0  0  0  0  0  0  0  0  0  0
    0.4260   -0.6810   15.6750 O   0  0  0  0  0  0  0  0  0  0  0  0
   10.6670   -5.0370   10.0730 O   0  0  0  0  0  0  0  0  0  0  0  0
   11.9530   -4.4270   10.1680 C   0  0  0  0  0  2  0  0  0  0  0  0
   12.8210   -5.0490   11.2450 C   0  0  0  0  0  0  0  0  0  0  0  0
   13.7240   -6.0690   10.8860 C   0  0  0  0  0  3  0  0  0  0  0  0
   14.5590   -6.6550   11.8450 C   0  0  0  0  0  0  0  0  0  0  0  0
   14.4710   -6.2700   13.1800 C   0  0  0  0  0  3  0  0  0  0  0  0
   13.5830   -5.2600   13.5490 C   0  0  0  0  0  3  0  0  0  0  0  0
   12.7560   -4.6310   12.5960 C   0  0  0  0  0  0  0  0  0  0  0  0
   15.4880   -7.7470   11.4780 C   0  0  0  0  0  0  0  0  0  0  0  0
   15.0490   -8.8940   11.4970 O   0  0  0  0  0  0  0  0  0  0  0  0
   16.8030   -7.4380   11.1290 N   0  0  0  0  0  0  0  0  0  0  0  0
   17.4850   -6.1760   11.4180 C   0  0  0  0  0  2  0  0  0  0  0  0
   18.6660   -6.4110   12.3580 C   0  0  0  0  0  2  0  0  0  0  0  0
   19.5950   -7.5140   11.8530 C   0  0  1  0  0  3  0  0  0  0  0  0
   18.8310   -8.7860   11.4810 C   0  0  0  0  0  2  0  0  0  0  0  0
   17.6440   -8.4920   10.5690 C   0  0  0  0  0  2  0  0  0  0  0  0
   20.3660   -7.0380   10.7500 O   0  0  0  0  0  0  0  0  0  0  0  0
   19.7920   -6.9460    9.9730 H   0  0  0  0  0  0  0  0  0  0  0  0
   11.8540   -3.5640   13.0530 C   0  0  0  0  0  0  0  0  0  0  0  0
   10.7100   -3.8700   13.8090 C   0  0  0  0  0  3  0  0  0  0  0  0
    9.8530   -2.8580   14.2480 C   0  0  0  0  0  3  0  0  0  0  0  0
   10.1370   -1.5300   13.9400 C   0  0  0  0  0  0  0  0  0  0  0  0
    9.0850   -0.2810   14.4800 Cl  0  0  0  0  0  0  0  0  0  0  0  0
   11.2710   -1.2060   13.1990 C   0  0  0  0  0  3  0  0  0  0  0  0
   12.1270   -2.2190   12.7580 C   0  0  0  0  0  3  0  0  0  0  0  0
  1  2  1  0  0  0  0
  1 15  1  0  0  0  0
  3  2  2  0  0  0  0
  4  3  1  0  0  0  0
  5  4  2  0  0  0  0
  5  6  1  0  0  0  0
  6  1  2  0  0  0  0
  7  6  1  0  0  0  0
  8 13  1  0  0  0  0
  8 24  1  0  0  0  0
  9  8  2  0  0  0  0
 10 11  2  0  0  0  0
 10  9  1  0  0  0  0
 11 12  1  0  0  0  0
 12 13  2  0  0  0  0
 14 12  1  0  0  0  0
 15 14  2  0  0  0  0
 16 15  1  0  0  0  0
 16 11  1  0  0  0  0
 17 16  1  0  0  0  0
 18 17  1  0  0  0  0
 19 18  1  0  0  0  0
 20 21  1  0  0  0  0
 20 19  1  0  0  0  0
 21 22  1  0  0  0  0
 22 17  1  0  0  0  0
 24 23  1  0  0  0  0
 25 24  2  0  0  0  0
 26 27  1  0  0  0  0
 26  4  1  0  0  0  0
 27 28  1  0  0  0  0
 28 33  1  0  0  0  0
 29 28  2  0  0  0  0
 29 30  1  0  0  0  0
 30 31  2  0  0  0  0
 31 32  1  0  0  0  0
 33 44  1  0  0  0  0
 33 32  2  0  0  0  0
 34 35  2  0  0  0  0
 34 30  1  0  0  0  0
 36 37  1  0  0  0  0
 36 34  1  0  0  0  0
 37 38  1  0  0  0  0
 39 42  1  6  0  0  0
 39 38  1  0  0  0  0
 40 39  1  0  0  0  0
 41 36  1  0  0  0  0
 41 40  1  0  0  0  0
 43 42  1  0  0  0  0
 44 45  1  0  0  0  0
 45 46  2  0  0  0  0
 47 46  1  0  0  0  0
 47 48  1  0  0  0  0
 49 47  2  0  0  0  0
 50 44  2  0  0  0  0
 50 49  1  0  0  0  0
M  END
>  <minimizedAffinity>
-10.0537996

$$$$

 OpenBabel09122221293D

 50 56  0  0  1  0  0  0  0  0999 V2000
    9.3930   -2.4230    3.5450 C   0  0  0  0  0  0  0  0  0  0  0  0
   10.0380   -3.0310    4.6270 C   0  0  0  0  0  3  0  0  0  0  0  0
   10.6410   -2.2520    5.6200 C   0  0  0  0  0  3  0  0  0  0  0  0
   10.6340   -0.8570    5.5420 C   0  0  0  0  0  0  0  0  0  0  0  0
   10.0120   -0.2450    4.4570 C   0  0  0  0  0  3  0  0  0  0  0  0
    9.4070   -1.0280    3.4710 C   0  0  0  0  0  0  0  0  0  0  0  0
    8.8120   -0.3950    2.4480 F   0  0  0  0  0  0  0  0  0  0  0  0
    6.2390   -6.0210   -0.0590 C   0  0  0  0  0  0  0  0  0  0  0  0
    7.2300   -5.7090   -1.0030 C   0  0  0  0  0  3  0  0  0  0  0  0
    8.2960   -4.8490   -0.7110 C   0  0  0  0  0  3  0  0  0  0  0  0
    8.3520   -4.2980    0.5770 C   0  0  0  0  0  0  0  0  0  0  0  0
    7.3890   -4.5900    1.5400 C   0  0  0  0  0  0  0  0  0  0  0  0
    6.3270   -5.4520    1.2270 C   0  0  0  0  0  3  0  0  0  0  0  0
    7.6560   -3.9280    2.7100 N   0  0  0  0  0  0  0  0  0  0  0  0
    8.7780   -3.2610    2.5160 C   0  0  0  0  0  0  0  0  0  0  0  0
    9.2130   -3.4190    1.2060 N   0  0  0  0  0  0  0  0  0  0  0  0
   10.3200   -2.7040    0.5770 C   0  0  0  0  0  3  0  0  0  0  0  0
   11.3990   -3.6420    0.0110 C   0  0  0  0  0  2  0  0  0  0  0  0
   12.5680   -2.8520   -0.5760 C   0  0  0  0  0  2  0  0  0  0  0  0
   12.0960   -1.8390   -1.6170 C   0  0  0  0  0  2  0  0  0  0  0  0
   11.0340   -0.9010   -1.0510 C   0  0  0  0  0  2  0  0  0  0  0  0
    9.8520   -1.6730   -0.4660 C   0  0  0  0  0  2  0  0  0  0  0  0
    3.9390   -6.6310    0.0040 O   0  0  0  0  0  1  0  0  0  0  0  0
    5.0960   -6.9500   -0.4190 C   0  0  0  0  0  0  0  0  0  0  0  0
    5.3750   -7.9790   -1.1100 O   0  0  0  0  0  0  0  0  0  0  0  0
   11.2460   -0.2300    6.5880 O   0  0  0  0  0  0  0  0  0  0  0  0
   10.5990   -0.1710    7.8570 C   0  0  0  0  0  2  0  0  0  0  0  0
   11.4690   -0.6890    8.9860 C   0  0  0  0  0  0  0  0  0  0  0  0
   11.1540   -1.9300    9.5740 C   0  0  0  0  0  3  0  0  0  0  0  0
   11.9440   -2.4550   10.6030 C   0  0  0  0  0  0  0  0  0  0  0  0
   13.0270   -1.7310   11.0950 C   0  0  0  0  0  3  0  0  0  0  0  0
   13.3520   -0.5020   10.5200 C   0  0  0  0  0  3  0  0  0  0  0  0
   12.5920    0.0320    9.4590 C   0  0  0  0  0  0  0  0  0  0  0  0
   11.5980   -3.7440   11.2440 C   0  0  0  0  0  0  0  0  0  0  0  0
   10.6100   -3.7660   11.9740 O   0  0  0  0  0  0  0  0  0  0  0  0
   12.3930   -4.8640   10.9990 N   0  0  0  0  0  0  0  0  0  0  0  0
   13.7480   -4.8400   10.4490 C   0  0  0  0  0  2  0  0  0  0  0  0
   14.7470   -5.3830   11.4690 C   0  0  0  0  0  2  0  0  0  0  0  0
   14.3280   -6.7460   12.0190 C   0  0  1  0  0  3  0  0  0  0  0  0
   12.8760   -6.7500   12.5040 C   0  0  0  0  0  2  0  0  0  0  0  0
   11.9260   -6.1670   11.4630 C   0  0  0  0  0  2  0  0  0  0  0  0
   14.5420   -7.7590   11.0370 O   0  0  0  0  0  0  0  0  0  0  0  0
   13.8840   -7.6640   10.3290 H   0  0  0  0  0  0  0  0  0  0  0  0
   13.0000    1.3240    8.8920 C   0  0  0  0  0  0  0  0  0  0  0  0
   12.4070    2.5180    9.3350 C   0  0  0  0  0  3  0  0  0  0  0  0
   12.7960    3.7500    8.8010 C   0  0  0  0  0  3  0  0  0  0  0  0
   13.7880    3.7970    7.8240 C   0  0  0  0  0  0  0  0  0  0  0  0
   14.2700    5.3100    7.1640 Cl  0  0  0  0  0  0  0  0  0  0  0  0
   14.3940    2.6240    7.3780 C   0  0  0  0  0  3  0  0  0  0  0  0
   14.0030    1.3930    7.9120 C   0  0  0  0  0  3  0  0  0  0  0  0
  1  2  1  0  0  0  0
  2  3  2  0  0  0  0
  4  3  1  0  0  0  0
  4 26  1  0  0  0  0
  5  4  2  0  0  0  0
  6  1  2  0  0  0  0
  6  5  1  0  0  0  0
  7  6  1  0  0  0  0
  8 13  1  0  0  0  0
  9 10  1  0  0  0  0
  9  8  2  0  0  0  0
 10 11  2  0  0  0  0
 11 16  1  0  0  0  0
 11 12  1  0  0  0  0
 12 14  1  0  0  0  0
 13 12  2  0  0  0  0
 15 14  2  0  0  0  0
 15  1  1  0  0  0  0
 16 15  1  0  0  0  0
 17 16  1  0  0  0  0
 18 17  1  0  0  0  0
 19 18  1  0  0  0  0
 20 21  1  0  0  0  0
 20 19  1  0  0  0  0
 21 22  1  0  0  0  0
 22 17  1  0  0  0  0
 24  8  1  0  0  0  0
 24 23  1  0  0  0  0
 25 24  2  0  0  0  0
 26 27  1  0  0  0  0
 27 28  1  0  0  0  0
 28 33  2  0  0  0  0
 28 29  1  0  0  0  0
 29 30  2  0  0  0  0
 30 31  1  0  0  0  0
 30 34  1  0  0  0  0
 32 31  2  0  0  0  0
 33 32  1  0  0  0  0
 34 35  2  0  0  0  0
 36 34  1  0  0  0  0
 36 41  1  0  0  0  0
 37 36  1  0  0  0  0
 37 38  1  0  0  0  0
 38 39  1  0  0  0  0
 39 42  1  6  0  0  0
 39 40  1  0  0  0  0
 41 40  1  0  0  0  0
 43 42  1  0  0  0  0
 44 45  1  0  0  0  0
 44 33  1  0  0  0  0
 46 45  2  0  0  0  0
 47 46  1  0  0  0  0
 48 47  1  0  0  0  0
 49 47  2  0  0  0  0
 49 50  1  0  0  0  0
 50 44  2  0  0  0  0
M  END
>  <minimizedAffinity>
-9.90569687

$$$$

 OpenBabel09122221293D

 50 56  0  0  1  0  0  0  0  0999 V2000
    9.3960   -1.7980    3.2920 C   0  0  0  0  0  0  0  0  0  0  0  0
   10.0620   -2.1860    4.4600 C   0  0  0  0  0  3  0  0  0  0  0  0
   10.6240   -1.2250    5.3070 C   0  0  0  0  0  3  0  0  0  0  0  0
   10.5540    0.1350    4.9960 C   0  0  0  0  0  0  0  0  0  0  0  0
    9.9120    0.5270    3.8250 C   0  0  0  0  0  3  0  0  0  0  0  0
    9.3480   -0.4360    2.9860 C   0  0  0  0  0  0  0  0  0  0  0  0
    8.7310   -0.0120    1.8720 F   0  0  0  0  0  0  0  0  0  0  0  0
    6.4180   -6.0750    0.3390 C   0  0  0  0  0  0  0  0  0  0  0  0
    7.4180   -5.9040   -0.6310 C   0  0  0  0  0  3  0  0  0  0  0  0
    8.4540   -4.9730   -0.4800 C   0  0  0  0  0  3  0  0  0  0  0  0
    8.4680   -4.2010    0.6900 C   0  0  0  0  0  0  0  0  0  0  0  0
    7.4950   -4.3480    1.6750 C   0  0  0  0  0  0  0  0  0  0  0  0
    6.4640   -5.2850    1.5050 C   0  0  0  0  0  3  0  0  0  0  0  0
    7.7200   -3.4810    2.7130 N   0  0  0  0  0  0  0  0  0  0  0  0
    8.8260   -2.8250    2.4200 C   0  0  0  0  0  0  0  0  0  0  0  0
    9.2920   -3.1980    1.1660 N   0  0  0  0  0  0  0  0  0  0  0  0
   10.3900   -2.5720    0.4350 C   0  0  0  0  0  3  0  0  0  0  0  0
   11.4570   -3.5770   -0.0270 C   0  0  0  0  0  2  0  0  0  0  0  0
   12.6180   -2.8720   -0.7250 C   0  0  0  0  0  2  0  0  0  0  0  0
   12.1330   -1.9930   -1.8760 C   0  0  0  0  0  2  0  0  0  0  0  0
   11.0820   -0.9870   -1.4140 C   0  0  0  0  0  2  0  0  0  0  0  0
    9.9090   -1.6760   -0.7200 C   0  0  0  0  0  2  0  0  0  0  0  0
    5.4130   -7.8610   -0.8720 O   0  0  0  0  0  0  0  0  0  0  0  0
    5.3090   -7.0880    0.1330 C   0  0  0  0  0  0  0  0  0  0  0  0
    4.3550   -7.0880    0.9740 O   0  0  0  0  0  1  0  0  0  0  0  0
   11.1310    0.9550    5.9210 O   0  0  0  0  0  0  0  0  0  0  0  0
   11.0320    2.3700    5.7750 C   0  0  0  0  0  2  0  0  0  0  0  0
   12.3850    3.0540    5.7430 C   0  0  0  0  0  0  0  0  0  0  0  0
   13.2620    2.8790    6.8320 C   0  0  0  0  0  3  0  0  0  0  0  0
   14.5290    3.4750    6.8320 C   0  0  0  0  0  0  0  0  0  0  0  0
   14.9200    4.2920    5.7750 C   0  0  0  0  0  3  0  0  0  0  0  0
   14.0620    4.4730    4.6900 C   0  0  0  0  0  3  0  0  0  0  0  0
   12.7950    3.8560    4.6500 C   0  0  0  0  0  0  0  0  0  0  0  0
   15.4420    3.3170    7.9870 C   0  0  0  0  0  0  0  0  0  0  0  0
   15.1300    3.8760    9.0360 O   0  0  0  0  0  0  0  0  0  0  0  0
   16.6010    2.5540    7.8430 N   0  0  0  0  0  0  0  0  0  0  0  0
   17.2100    2.1650    6.5710 C   0  0  0  0  0  2  0  0  0  0  0  0
   18.5980    2.7880    6.4320 C   0  0  0  0  0  2  0  0  0  0  0  0
   19.4800    2.5120    7.6490 C   0  0  1  0  0  3  0  0  0  0  0  0
   18.7720    2.8510    8.9630 C   0  0  0  0  0  2  0  0  0  0  0  0
   17.3790    2.2330    9.0360 C   0  0  0  0  0  2  0  0  0  0  0  0
   19.9170    1.1540    7.6390 O   0  0  0  0  0  0  0  0  0  0  0  0
   19.1680    0.5730    7.8510 H   0  0  0  0  0  0  0  0  0  0  0  0
   11.9490    4.0780    3.4700 C   0  0  0  0  0  0  0  0  0  0  0  0
   11.9340    3.1500    2.4160 C   0  0  0  0  0  3  0  0  0  0  0  0
   11.1270    3.3560    1.2940 C   0  0  0  0  0  3  0  0  0  0  0  0
   10.3220    4.4900    1.2210 C   0  0  0  0  0  0  0  0  0  0  0  0
    9.3270    4.7480   -0.1580 Cl  0  0  0  0  0  0  0  0  0  0  0  0
   10.3170    5.4180    2.2600 C   0  0  0  0  0  3  0  0  0  0  0  0
   11.1260    5.2120    3.3810 C   0  0  0  0  0  3  0  0  0  0  0  0
  1  2  1  0  0  0  0
  2  3  2  0  0  0  0
  4  3  1  0  0  0  0
  4 26  1  0  0  0  0
  5  4  2  0  0  0  0
  6  1  2  0  0  0  0
  6  5  1  0  0  0  0
  7  6  1  0  0  0  0
  8 13  1  0  0  0  0
  9 10  1  0  0  0  0
  9  8  2  0  0  0  0
 10 11  2  0  0  0  0
 11 16  1  0  0  0  0
 11 12  1  0  0  0  0
 12 14  1  0  0  0  0
 13 12  2  0  0  0  0
 15 14  2  0  0  0  0
 15  1  1  0  0  0  0
 16 15  1  0  0  0  0
 17 16  1  0  0  0  0
 18 17  1  0  0  0  0
 19 18  1  0  0  0  0
 20 21  1  0  0  0  0
 20 19  1  0  0  0  0
 21 22  1  0  0  0  0
 22 17  1  0  0  0  0
 23 24  2  0  0  0  0
 24  8  1  0  0  0  0
 24 25  1  0  0  0  0
 27 26  1  0  0  0  0
 28 27  1  0  0  0  0
 28 29  1  0  0  0  0
 30 29  2  0  0  0  0
 30 34  1  0  0  0  0
 31 30  1  0  0  0  0
 32 31  2  0  0  0  0
 33 32  1  0  0  0  0
 33 28  2  0  0  0  0
 34 35  2  0  0  0  0
 36 34  1  0  0  0  0
 36 41  1  0  0  0  0
 37 36  1  0  0  0  0
 38 37  1  0  0  0  0
 38 39  1  0  0  0  0
 39 42  1  1  0  0  0
 39 40  1  0  0  0  0
 40 41  1  0  0  0  0
 42 43  1  0  0  0  0
 44 33  1  0  0  0  0
 45 44  2  0  0  0  0
 46 45  1  0  0  0  0
 47 46  2  0  0  0  0
 47 49  1  0  0  0  0
 48 47  1  0  0  0  0
 49 50  2  0  0  0  0
 50 44  1  0  0  0  0
M  END
>  <minimizedAffinity>
-9.89413929

$$$$

 OpenBabel09122221293D

 50 56  0  0  1  0  0  0  0  0999 V2000
    7.1820   -4.3530   11.5610 C   0  0  0  0  0  0  0  0  0  0  0  0
    6.1660   -4.8940   10.7660 C   0  0  0  0  0  3  0  0  0  0  0  0
    4.8570   -4.4100   10.8630 C   0  0  0  0  0  3  0  0  0  0  0  0
    4.5320   -3.3970   11.7690 C   0  0  0  0  0  0  0  0  0  0  0  0
    5.5320   -2.8690   12.5780 C   0  0  0  0  0  3  0  0  0  0  0  0
    6.8390   -3.3520   12.4730 C   0  0  0  0  0  0  0  0  0  0  0  0
    7.7730   -2.8070   13.2670 F   0  0  0  0  0  0  0  0  0  0  0  0
   12.4660   -7.1740   11.6430 C   0  0  0  0  0  0  0  0  0  0  0  0
   12.8550   -6.1700   10.7420 C   0  0  0  0  0  3  0  0  0  0  0  0
   11.9770   -5.1650   10.3180 C   0  0  0  0  0  3  0  0  0  0  0  0
   10.6720   -5.1850   10.8290 C   0  0  0  0  0  0  0  0  0  0  0  0
   10.2530   -6.1610   11.7280 C   0  0  0  0  0  0  0  0  0  0  0  0
   11.1470   -7.1610   12.1400 C   0  0  0  0  0  3  0  0  0  0  0  0
    8.9400   -5.9720   12.0740 N   0  0  0  0  0  0  0  0  0  0  0  0
    8.5400   -4.8840   11.4450 C   0  0  0  0  0  0  0  0  0  0  0  0
    9.5540   -4.3960   10.6310 N   0  0  0  0  0  0  0  0  0  0  0  0
    9.4300   -3.3100    9.6620 C   0  0  0  0  0  3  0  0  0  0  0  0
    8.2630   -3.5090    8.6810 C   0  0  0  0  0  2  0  0  0  0  0  0
    8.2130   -2.3870    7.6450 C   0  0  0  0  0  2  0  0  0  0  0  0
    8.1680   -1.0110    8.3070 C   0  0  0  0  0  2  0  0  0  0  0  0
    9.3330   -0.8110    9.2710 C   0  0  0  0  0  2  0  0  0  0  0  0
    9.3950   -1.9200   10.3200 C   0  0  0  0  0  2  0  0  0  0  0  0
   12.9890   -9.1870   12.7990 O   0  0  0  0  0  1  0  0  0  0  0  0
   13.4450   -8.2490   12.0700 C   0  0  0  0  0  0  0  0  0  0  0  0
   14.6470   -8.1340   11.6750 O   0  0  0  0  0  0  0  0  0  0  0  0
    3.2220   -3.0170   11.7420 O   0  0  0  0  0  0  0  0  0  0  0  0
    2.8600   -1.7570   11.1800 C   0  0  0  0  0  2  0  0  0  0  0  0
    3.3820   -1.5700    9.7680 C   0  0  0  0  0  0  0  0  0  0  0  0
    2.8580   -2.3750    8.7370 C   0  0  0  0  0  3  0  0  0  0  0  0
    3.2960   -2.2200    7.4170 C   0  0  0  0  0  0  0  0  0  0  0  0
    4.2960   -1.2990    7.1130 C   0  0  0  0  0  3  0  0  0  0  0  0
    4.8220   -0.4950    8.1240 C   0  0  0  0  0  3  0  0  0  0  0  0
    4.3720   -0.6080    9.4560 C   0  0  0  0  0  0  0  0  0  0  0  0
    2.7700   -3.0830    6.3350 C   0  0  0  0  0  0  0  0  0  0  0  0
    1.8950   -2.6130    5.6120 O   0  0  0  0  0  0  0  0  0  0  0  0
    3.2790   -4.3720    6.1810 N   0  0  0  0  0  0  0  0  0  0  0  0
    4.0390   -5.1120    7.1880 C   0  0  0  0  0  2  0  0  0  0  0  0
    3.2730   -6.3600    7.6240 C   0  0  0  0  0  2  0  0  0  0  0  0
    2.8320   -7.2120    6.4340 C   0  0  1  0  0  3  0  0  0  0  0  0
    2.1180   -6.3820    5.3650 C   0  0  0  0  0  2  0  0  0  0  0  0
    2.9070   -5.1320    4.9910 C   0  0  0  0  0  2  0  0  0  0  0  0
    3.9530   -7.9020    5.8820 O   0  0  0  0  0  0  0  0  0  0  0  0
    4.5250   -7.2670    5.4200 H   0  0  0  0  0  0  0  0  0  0  0  0
    4.9600    0.2810   10.4670 C   0  0  0  0  0  0  0  0  0  0  0  0
    6.1990   -0.0250   11.0540 C   0  0  0  0  0  3  0  0  0  0  0  0
    6.7630    0.8210   12.0130 C   0  0  0  0  0  3  0  0  0  0  0  0
    6.0950    1.9840   12.3880 C   0  0  0  0  0  0  0  0  0  0  0  0
    6.7850    3.0280   13.5670 Cl  0  0  0  0  0  0  0  0  0  0  0  0
    4.8690    2.3080   11.8100 C   0  0  0  0  0  3  0  0  0  0  0  0
    4.3050    1.4610   10.8530 C   0  0  0  0  0  3  0  0  0  0  0  0
  1  6  1  0  0  0  0
  2  3  1  0  0  0  0
  2  1  2  0  0  0  0
  3  4  2  0  0  0  0
  4  5  1  0  0  0  0
  6  5  2  0  0  0  0
  6  7  1  0  0  0  0
  8 24  1  0  0  0  0
  8 13  1  0  0  0  0
  9  8  2  0  0  0  0
 10  9  1  0  0  0  0
 10 11  2  0  0  0  0
 11 12  1  0  0  0  0
 12 14  1  0  0  0  0
 12 13  2  0  0  0  0
 15  1  1  0  0  0  0
 15 14  2  0  0  0  0
 16 11  1  0  0  0  0
 16 15  1  0  0  0  0
 17 22  1  0  0  0  0
 17 16  1  0  0  0  0
 18 17  1  0  0  0  0
 19 20  1  0  0  0  0
 19 18  1  0  0  0  0
 20 21  1  0  0  0  0
 21 22  1  0  0  0  0
 24 23  1  0  0  0  0
 25 24  2  0  0  0  0
 26  4  1  0  0  0  0
 27 26  1  0  0  0  0
 28 27  1  0  0  0  0
 29 28  2  0  0  0  0
 30 29  1  0  0  0  0
 31 30  2  0  0  0  0
 31 32  1  0  0  0  0
 32 33  2  0  0  0  0
 33 28  1  0  0  0  0
 33 44  1  0  0  0  0
 34 30  1  0  0  0  0
 35 34  2  0  0  0  0
 36 34  1  0  0  0  0
 36 37  1  0  0  0  0
 37 38  1  0  0  0  0
 39 42  1  6  0  0  0
 39 38  1  0  0  0  0
 40 39  1  0  0  0  0
 41 40  1  0  0  0  0
 41 36  1  0  0  0  0
 43 42  1  0  0  0  0
 44 50  2  0  0  0  0
 44 45  1  0  0  0  0
 45 46  2  0  0  0  0
 46 47  1  0  0  0  0
 47 48  1  0  0  0  0
 49 47  2  0  0  0  0
 50 49  1  0  0  0  0
M  END
>  <minimizedAffinity>
-9.88958645

$$$$

 OpenBabel09122221293D

 50 56  0  0  1  0  0  0  0  0999 V2000
   13.0550   -6.9210   11.8130 C   0  0  0  0  0  0  0  0  0  0  0  0
   12.4040   -7.2110   13.0170 C   0  0  0  0  0  3  0  0  0  0  0  0
   11.0130   -7.0970   13.1150 C   0  0  0  0  0  3  0  0  0  0  0  0
   10.2500   -6.6700   12.0260 C   0  0  0  0  0  0  0  0  0  0  0  0
   10.8920   -6.3600   10.8310 C   0  0  0  0  0  3  0  0  0  0  0  0
   12.2800   -6.4810   10.7370 C   0  0  0  0  0  0  0  0  0  0  0  0
   12.8560   -6.1790    9.5630 F   0  0  0  0  0  0  0  0  0  0  0  0
   18.8660   -8.1700   11.0670 C   0  0  0  0  0  0  0  0  0  0  0  0
   19.0680   -6.9530   11.7360 C   0  0  0  0  0  3  0  0  0  0  0  0
   18.0030   -6.1570   12.1780 C   0  0  0  0  0  3  0  0  0  0  0  0
   16.7020   -6.6180   11.9320 C   0  0  0  0  0  0  0  0  0  0  0  0
   16.4650   -7.8230   11.2760 C   0  0  0  0  0  0  0  0  0  0  0  0
   17.5450   -8.6060   10.8390 C   0  0  0  0  0  3  0  0  0  0  0  0
   15.1190   -8.0510   11.1490 N   0  0  0  0  0  0  0  0  0  0  0  0
   14.5110   -7.0400   11.7400 C   0  0  0  0  0  0  0  0  0  0  0  0
   15.4420   -6.1130   12.1910 N   0  0  0  0  0  0  0  0  0  0  0  0
   15.1430   -4.7940   12.7430 C   0  0  0  0  0  3  0  0  0  0  0  0
   14.0050   -4.0750   12.0010 C   0  0  0  0  0  2  0  0  0  0  0  0
   13.7720   -2.6750   12.5680 C   0  0  0  0  0  2  0  0  0  0  0  0
   13.5310   -2.7110   14.0750 C   0  0  0  0  0  2  0  0  0  0  0  0
   14.6680   -3.4150   14.8120 C   0  0  0  0  0  2  0  0  0  0  0  0
   14.9100   -4.8200   14.2640 C   0  0  0  0  0  2  0  0  0  0  0  0
   20.3410  -10.0250   11.2860 O   0  0  0  0  0  1  0  0  0  0  0  0
   20.0460   -8.9970   10.5970 C   0  0  0  0  0  0  0  0  0  0  0  0
   20.6580   -8.6020    9.5550 O   0  0  0  0  0  0  0  0  0  0  0  0
    8.9070   -6.6220   12.2640 O   0  0  0  0  0  0  0  0  0  0  0  0
    8.2660   -5.3640   12.4640 C   0  0  0  0  0  2  0  0  0  0  0  0
    7.1700   -5.0940   11.4510 C   0  0  0  0  0  0  0  0  0  0  0  0
    5.9670   -5.8220   11.5390 C   0  0  0  0  0  3  0  0  0  0  0  0
    4.9230   -5.5890   10.6370 C   0  0  0  0  0  0  0  0  0  0  0  0
    5.0790   -4.6650    9.6070 C   0  0  0  0  0  3  0  0  0  0  0  0
    6.2640   -3.9360    9.5090 C   0  0  0  0  0  3  0  0  0  0  0  0
    7.3170   -4.1280   10.4260 C   0  0  0  0  0  0  0  0  0  0  0  0
    3.6680   -6.3720   10.7080 C   0  0  0  0  0  0  0  0  0  0  0  0
    3.5870   -7.3750   10.0020 O   0  0  0  0  0  0  0  0  0  0  0  0
    2.6460   -5.9510   11.5580 N   0  0  0  0  0  0  0  0  0  0  0  0
    2.5240   -4.6160   12.1430 C   0  0  0  0  0  2  0  0  0  0  0  0
    1.2590   -3.9250   11.6360 C   0  0  0  0  0  2  0  0  0  0  0  0
    0.0150   -4.7950   11.8150 C   0  0  1  0  0  3  0  0  0  0  0  0
    0.2160   -6.2090   11.2660 C   0  0  0  0  0  2  0  0  0  0  0  0
    1.5080   -6.8390   11.7760 C   0  0  0  0  0  2  0  0  0  0  0  0
   -0.3670   -4.8280   13.1890 O   0  0  0  0  0  0  0  0  0  0  0  0
    0.2730   -5.3620   13.6870 H   0  0  0  0  0  0  0  0  0  0  0  0
    8.5320   -3.3150   10.2720 C   0  0  0  0  0  0  0  0  0  0  0  0
    8.7280   -2.1680   11.0570 C   0  0  0  0  0  3  0  0  0  0  0  0
    9.8840   -1.3950   10.9170 C   0  0  0  0  0  3  0  0  0  0  0  0
   10.8560   -1.7690    9.9930 C   0  0  0  0  0  0  0  0  0  0  0  0
   12.2800   -0.8210    9.8170 Cl  0  0  0  0  0  0  0  0  0  0  0  0
   10.6840   -2.9090    9.2110 C   0  0  0  0  0  3  0  0  0  0  0  0
    9.5260   -3.6800    9.3510 C   0  0  0  0  0  3  0  0  0  0  0  0
  1  2  1  0  0  0  0
  2  3  2  0  0  0  0
  4 26  1  0  0  0  0
  4  3  1  0  0  0  0
  5  4  2  0  0  0  0
  6  5  1  0  0  0  0
  6  1  2  0  0  0  0
  7  6  1  0  0  0  0
  8  9  1  0  0  0  0
  9 10  2  0  0  0  0
 11 10  1  0  0  0  0
 11 16  1  0  0  0  0
 12 11  2  0  0  0  0
 13  8  2  0  0  0  0
 13 12  1  0  0  0  0
 14 12  1  0  0  0  0
 14 15  2  0  0  0  0
 15  1  1  0  0  0  0
 15 16  1  0  0  0  0
 16 17  1  0  0  0  0
 17 22  1  0  0  0  0
 18 19  1  0  0  0  0
 18 17  1  0  0  0  0
 19 20  1  0  0  0  0
 20 21  1  0  0  0  0
 22 21  1  0  0  0  0
 24  8  1  0  0  0  0
 24 23  1  0  0  0  0
 25 24  2  0  0  0  0
 26 27  1  0  0  0  0
 28 29  1  0  0  0  0
 28 27  1  0  0  0  0
 30 34  1  0  0  0  0
 30 29  2  0  0  0  0
 31 30  1  0  0  0  0
 32 31  2  0  0  0  0
 32 33  1  0  0  0  0
 33 28  2  0  0  0  0
 34 36  1  0  0  0  0
 35 34  2  0  0  0  0
 36 41  1  0  0  0  0
 36 37  1  0  0  0  0
 38 39  1  0  0  0  0
 38 37  1  0  0  0  0
 39 42  1  1  0  0  0
 40 41  1  0  0  0  0
 40 39  1  0  0  0  0
 42 43  1  0  0  0  0
 44 33  1  0  0  0  0
 44 45  1  0  0  0  0
 46 45  2  0  0  0  0
 47 46  1  0  0  0  0
 48 47  1  0  0  0  0
 49 50  1  0  0  0  0
 49 47  2  0  0  0  0
 50 44  2  0  0  0  0
M  END
>  <minimizedAffinity>
-9.80578232

$$$$

 OpenBabel09122221293D

 50 56  0  0  1  0  0  0  0  0999 V2000
    9.3380   -2.3100    3.4670 C   0  0  0  0  0  0  0  0  0  0  0  0
    9.9660   -2.8750    4.5820 C   0  0  0  0  0  3  0  0  0  0  0  0
   10.5510   -2.0580    5.5550 C   0  0  0  0  0  3  0  0  0  0  0  0
   10.5440   -0.6670    5.4230 C   0  0  0  0  0  0  0  0  0  0  0  0
    9.9400   -0.0980    4.3050 C   0  0  0  0  0  3  0  0  0  0  0  0
    9.3520   -0.9190    3.3400 C   0  0  0  0  0  0  0  0  0  0  0  0
    8.7740   -0.3260    2.2840 F   0  0  0  0  0  0  0  0  0  0  0  0
    6.2550   -6.0580   -0.0450 C   0  0  0  0  0  0  0  0  0  0  0  0
    7.2510   -5.7650   -0.9900 C   0  0  0  0  0  3  0  0  0  0  0  0
    8.3050   -4.8850   -0.7170 C   0  0  0  0  0  3  0  0  0  0  0  0
    8.3430   -4.2920    0.5520 C   0  0  0  0  0  0  0  0  0  0  0  0
    7.3760   -4.5630    1.5160 C   0  0  0  0  0  0  0  0  0  0  0  0
    6.3260   -5.4470    1.2230 C   0  0  0  0  0  3  0  0  0  0  0  0
    7.6250   -3.8600    2.6670 N   0  0  0  0  0  0  0  0  0  0  0  0
    8.7420   -3.1880    2.4600 C   0  0  0  0  0  0  0  0  0  0  0  0
    9.1900   -3.3830    1.1600 N   0  0  0  0  0  0  0  0  0  0  0  0
   10.2950   -2.6760    0.5170 C   0  0  0  0  0  3  0  0  0  0  0  0
   11.3700   -3.6220   -0.0420 C   0  0  0  0  0  2  0  0  0  0  0  0
   12.5360   -2.8400   -0.6440 C   0  0  0  0  0  2  0  0  0  0  0  0
   12.0610   -1.8390   -1.6950 C   0  0  0  0  0  2  0  0  0  0  0  0
   11.0020   -0.8940   -1.1350 C   0  0  0  0  0  2  0  0  0  0  0  0
    9.8230   -1.6580   -0.5360 C   0  0  0  0  0  2  0  0  0  0  0  0
    5.4300   -8.0530   -1.0460 O   0  0  0  0  0  0  0  0  0  0  0  0
    5.1250   -7.0100   -0.3840 C   0  0  0  0  0  0  0  0  0  0  0  0
    3.9590   -6.6960    0.0110 O   0  0  0  0  0  1  0  0  0  0  0  0
   11.1370   -0.0000    6.4540 O   0  0  0  0  0  0  0  0  0  0  0  0
   10.4970    1.1380    7.0270 C   0  0  0  0  0  2  0  0  0  0  0  0
   11.1660    2.4440    6.6440 C   0  0  0  0  0  0  0  0  0  0  0  0
   10.7300    3.1190    5.4860 C   0  0  0  0  0  3  0  0  0  0  0  0
   11.3060    4.3370    5.1100 C   0  0  0  0  0  0  0  0  0  0  0  0
   12.3560    4.8760    5.8490 C   0  0  0  0  0  3  0  0  0  0  0  0
   12.7960    4.2190    6.9990 C   0  0  0  0  0  3  0  0  0  0  0  0
   12.2090    3.0080    7.4180 C   0  0  0  0  0  0  0  0  0  0  0  0
   10.8710    5.0350    3.8780 C   0  0  0  0  0  0  0  0  0  0  0  0
   10.2140    6.0650    4.0130 O   0  0  0  0  0  0  0  0  0  0  0  0
   11.2170    4.5060    2.6350 N   0  0  0  0  0  0  0  0  0  0  0  0
   11.6730    3.1380    2.3890 C   0  0  0  0  0  2  0  0  0  0  0  0
   10.6770    2.3950    1.5010 C   0  0  0  0  0  2  0  0  0  0  0  0
   10.3460    3.1730    0.2280 C   0  0  1  0  0  3  0  0  0  0  0  0
    9.9580    4.6240    0.5240 C   0  0  0  0  0  2  0  0  0  0  0  0
   10.9670    5.3080    1.4400 C   0  0  0  0  0  2  0  0  0  0  0  0
   11.4430    3.1120   -0.6830 O   0  0  0  0  0  0  0  0  0  0  0  0
   12.1710    3.6600   -0.3470 H   0  0  0  0  0  0  0  0  0  0  0  0
   12.7130    2.3780    8.6460 C   0  0  0  0  0  0  0  0  0  0  0  0
   12.1460    2.6880    9.8930 C   0  0  0  0  0  3  0  0  0  0  0  0
   12.6200    2.0880   11.0620 C   0  0  0  0  0  3  0  0  0  0  0  0
   13.6630    1.1660   10.9920 C   0  0  0  0  0  0  0  0  0  0  0  0
   14.2490    0.4240   12.4280 Cl  0  0  0  0  0  0  0  0  0  0  0  0
   14.2320    0.8390    9.7630 C   0  0  0  0  0  3  0  0  0  0  0  0
   13.7580    1.4420    8.5950 C   0  0  0  0  0  3  0  0  0  0  0  0
  1  2  1  0  0  0  0
  2  3  2  0  0  0  0
  4  3  1  0  0  0  0
  4 26  1  0  0  0  0
  5  4  2  0  0  0  0
  6  1  2  0  0  0  0
  6  5  1  0  0  0  0
  7  6  1  0  0  0  0
  8 13  1  0  0  0  0
  9 10  1  0  0  0  0
  9  8  2  0  0  0  0
 10 11  2  0  0  0  0
 11 16  1  0  0  0  0
 11 12  1  0  0  0  0
 12 14  1  0  0  0  0
 13 12  2  0  0  0  0
 15 14  2  0  0  0  0
 15  1  1  0  0  0  0
 16 15  1  0  0  0  0
 17 16  1  0  0  0  0
 18 17  1  0  0  0  0
 19 18  1  0  0  0  0
 20 21  1  0  0  0  0
 20 19  1  0  0  0  0
 21 22  1  0  0  0  0
 22 17  1  0  0  0  0
 23 24  2  0  0  0  0
 24  8  1  0  0  0  0
 24 25  1  0  0  0  0
 26 27  1  0  0  0  0
 28 27  1  0  0  0  0
 28 33  1  0  0  0  0
 29 28  2  0  0  0  0
 30 29  1  0  0  0  0
 30 31  2  0  0  0  0
 31 32  1  0  0  0  0
 32 33  2  0  0  0  0
 33 44  1  0  0  0  0
 34 35  2  0  0  0  0
 34 30  1  0  0  0  0
 36 34  1  0  0  0  0
 37 36  1  0  0  0  0
 38 37  1  0  0  0  0
 39 42  1  6  0  0  0
 39 40  1  0  0  0  0
 39 38  1  0  0  0  0
 40 41  1  0  0  0  0
 41 36  1  0  0  0  0
 42 43  1  0  0  0  0
 44 45  1  0  0  0  0
 45 46  2  0  0  0  0
 47 46  1  0  0  0  0
 47 48  1  0  0  0  0
 49 47  2  0  0  0  0
 50 44  2  0  0  0  0
 50 49  1  0  0  0  0
M  END
>  <minimizedAffinity>
-9.79351425

$$$$

 OpenBabel09122221293D

 50 56  0  0  1  0  0  0  0  0999 V2000
    3.9920   -3.0630    5.5920 C   0  0  0  0  0  0  0  0  0  0  0  0
    2.7280   -2.5030    5.8050 C   0  0  0  0  0  3  0  0  0  0  0  0
    2.5310   -1.5690    6.8280 C   0  0  0  0  0  3  0  0  0  0  0  0
    3.5810   -1.1950    7.6700 C   0  0  0  0  0  0  0  0  0  0  0  0
    4.8360   -1.7640    7.4780 C   0  0  0  0  0  3  0  0  0  0  0  0
    5.0290   -2.6920    6.4510 C   0  0  0  0  0  0  0  0  0  0  0  0
    6.2580   -3.2080    6.2970 F   0  0  0  0  0  0  0  0  0  0  0  0
    5.1430   -6.4240    0.7690 C   0  0  0  0  0  0  0  0  0  0  0  0
    4.5010   -7.4380    1.4980 C   0  0  0  0  0  3  0  0  0  0  0  0
    3.9910   -7.2250    2.7840 C   0  0  0  0  0  3  0  0  0  0  0  0
    4.1390   -5.9450    3.3380 C   0  0  0  0  0  0  0  0  0  0  0  0
    4.7650   -4.9150    2.6420 C   0  0  0  0  0  0  0  0  0  0  0  0
    5.2720   -5.1490    1.3540 C   0  0  0  0  0  3  0  0  0  0  0  0
    4.7930   -3.7680    3.3920 N   0  0  0  0  0  0  0  0  0  0  0  0
    4.1680   -4.0440    4.5210 C   0  0  0  0  0  0  0  0  0  0  0  0
    3.7940   -5.3810    4.5520 N   0  0  0  0  0  0  0  0  0  0  0  0
    3.2330   -6.0900    5.6990 C   0  0  0  0  0  3  0  0  0  0  0  0
    3.9330   -5.7420    7.0230 C   0  0  0  0  0  2  0  0  0  0  0  0
    3.3610   -6.5550    8.1830 C   0  0  0  0  0  2  0  0  0  0  0  0
    1.8450   -6.3990    8.2860 C   0  0  0  0  0  2  0  0  0  0  0  0
    1.1510   -6.7560    6.9750 C   0  0  0  0  0  2  0  0  0  0  0  0
    1.7050   -5.9470    5.8040 C   0  0  0  0  0  2  0  0  0  0  0  0
    5.3750   -7.8110   -1.1520 O   0  0  0  0  0  0  0  0  0  0  0  0
    5.6900   -6.7000   -0.6180 C   0  0  0  0  0  0  0  0  0  0  0  0
    6.4250   -5.8060   -1.1430 O   0  0  0  0  0  1  0  0  0  0  0  0
    3.2450   -0.2660    8.6110 O   0  0  0  0  0  0  0  0  0  0  0  0
    2.8250   -0.6860    9.9070 C   0  0  0  0  0  2  0  0  0  0  0  0
    3.8600   -0.4060   10.9800 C   0  0  0  0  0  0  0  0  0  0  0  0
    4.4550    0.8700   11.0360 C   0  0  0  0  0  3  0  0  0  0  0  0
    5.3980    1.1760   12.0240 C   0  0  0  0  0  0  0  0  0  0  0  0
    5.7990    0.2030   12.9360 C   0  0  0  0  0  3  0  0  0  0  0  0
    5.2170   -1.0640   12.8930 C   0  0  0  0  0  3  0  0  0  0  0  0
    4.2400   -1.3860   11.9290 C   0  0  0  0  0  0  0  0  0  0  0  0
    6.0470    2.5060   12.0690 C   0  0  0  0  0  0  0  0  0  0  0  0
    5.5150    3.3720   12.7590 O   0  0  0  0  0  0  0  0  0  0  0  0
    7.2150    2.7210   11.3390 N   0  0  0  0  0  0  0  0  0  0  0  0
    7.7000    1.8820   10.2430 C   0  0  0  0  0  2  0  0  0  0  0  0
    7.7250    2.6730    8.9360 C   0  0  0  0  0  2  0  0  0  0  0  0
    8.4730    3.9980    9.0770 C   0  0  1  0  0  3  0  0  0  0  0  0
    7.9940    4.8050   10.2860 C   0  0  0  0  0  2  0  0  0  0  0  0
    7.9560    3.9610   11.5550 C   0  0  0  0  0  2  0  0  0  0  0  0
    9.8790    3.7630    9.1420 O   0  0  0  0  0  0  0  0  0  0  0  0
   10.0980    3.3650   10.0010 H   0  0  0  0  0  0  0  0  0  0  0  0
    3.6590   -2.7350   11.9510 C   0  0  0  0  0  0  0  0  0  0  0  0
    2.4800   -2.9950   12.6690 C   0  0  0  0  0  3  0  0  0  0  0  0
    1.9230   -4.2760   12.6880 C   0  0  0  0  0  3  0  0  0  0  0  0
    2.5380   -5.3070   11.9820 C   0  0  0  0  0  0  0  0  0  0  0  0
    1.8550   -6.8850   12.0020 Cl  0  0  0  0  0  0  0  0  0  0  0  0
    3.7030   -5.0670   11.2570 C   0  0  0  0  0  3  0  0  0  0  0  0
    4.2600   -3.7860   11.2400 C   0  0  0  0  0  3  0  0  0  0  0  0
  1  2  2  0  0  0  0
  1  6  1  0  0  0  0
  2  3  1  0  0  0  0
  3  4  2  0  0  0  0
  4 26  1  0  0  0  0
  5  4  1  0  0  0  0
  6  5  2  0  0  0  0
  7  6  1  0  0  0  0
  8 13  2  0  0  0  0
  8  9  1  0  0  0  0
  9 10  2  0  0  0  0
 10 11  1  0  0  0  0
 11 16  1  0  0  0  0
 12 11  2  0  0  0  0
 12 14  1  0  0  0  0
 13 12  1  0  0  0  0
 14 15  2  0  0  0  0
 15 16  1  0  0  0  0
 15  1  1  0  0  0  0
 16 17  1  0  0  0  0
 17 22  1  0  0  0  0
 17 18  1  0  0  0  0
 18 19  1  0  0  0  0
 19 20  1  0  0  0  0
 21 20  1  0  0  0  0
 22 21  1  0  0  0  0
 23 24  2  0  0  0  0
 24  8  1  0  0  0  0
 25 24  1  0  0  0  0
 26 27  1  0  0  0  0
 27 28  1  0  0  0  0
 28 29  2  0  0  0  0
 28 33  1  0  0  0  0
 29 30  1  0  0  0  0
 30 34  1  0  0  0  0
 30 31  2  0  0  0  0
 32 31  1  0  0  0  0
 33 44  1  0  0  0  0
 33 32  2  0  0  0  0
 34 35  2  0  0  0  0
 36 41  1  0  0  0  0
 36 34  1  0  0  0  0
 37 36  1  0  0  0  0
 38 39  1  0  0  0  0
 38 37  1  0  0  0  0
 39 42  1  1  0  0  0
 39 40  1  0  0  0  0
 40 41  1  0  0  0  0
 42 43  1  0  0  0  0
 44 45  1  0  0  0  0
 45 46  2  0  0  0  0
 47 48  1  0  0  0  0
 47 46  1  0  0  0  0
 49 47  2  0  0  0  0
 50 49  1  0  0  0  0
 50 44  2  0  0  0  0
M  END
>  <minimizedAffinity>
-9.72190857

$$$$
