
 OpenBabel09122222393D

 50 56  0  0  1  0  0  0  0  0999 V2000
   13.0550   -6.9210   11.8130 C   0  0  0  0  0  0  0  0  0  0  0  0
   12.4040   -7.2110   13.0170 C   0  0  0  0  0  3  0  0  0  0  0  0
   11.0130   -7.0970   13.1150 C   0  0  0  0  0  3  0  0  0  0  0  0
   10.2500   -6.6700   12.0260 C   0  0  0  0  0  0  0  0  0  0  0  0
   10.8920   -6.3600   10.8310 C   0  0  0  0  0  3  0  0  0  0  0  0
   12.2800   -6.4810   10.7370 C   0  0  0  0  0  0  0  0  0  0  0  0
   12.8560   -6.1790    9.5630 F   0  0  0  0  0  0  0  0  0  0  0  0
   18.8660   -8.1700   11.0670 C   0  0  0  0  0  0  0  0  0  0  0  0
   19.0680   -6.9530   11.7360 C   0  0  0  0  0  3  0  0  0  0  0  0
   18.0030   -6.1570   12.1780 C   0  0  0  0  0  3  0  0  0  0  0  0
   16.7020   -6.6180   11.9320 C   0  0  0  0  0  0  0  0  0  0  0  0
   16.4650   -7.8230   11.2760 C   0  0  0  0  0  0  0  0  0  0  0  0
   17.5450   -8.6060   10.8390 C   0  0  0  0  0  3  0  0  0  0  0  0
   15.1190   -8.0510   11.1490 N   0  0  0  0  0  0  0  0  0  0  0  0
   14.5110   -7.0400   11.7400 C   0  0  0  0  0  0  0  0  0  0  0  0
   15.4420   -6.1130   12.1910 N   0  0  0  0  0  0  0  0  0  0  0  0
   15.1430   -4.7940   12.7430 C   0  0  0  0  0  3  0  0  0  0  0  0
   14.0050   -4.0750   12.0010 C   0  0  0  0  0  2  0  0  0  0  0  0
   13.7720   -2.6750   12.5680 C   0  0  0  0  0  2  0  0  0  0  0  0
   13.5310   -2.7110   14.0750 C   0  0  0  0  0  2  0  0  0  0  0  0
   14.6680   -3.4150   14.8120 C   0  0  0  0  0  2  0  0  0  0  0  0
   14.9100   -4.8200   14.2640 C   0  0  0  0  0  2  0  0  0  0  0  0
   20.3410  -10.0250   11.2860 O   0  0  0  0  0  1  0  0  0  0  0  0
   20.0460   -8.9970   10.5970 C   0  0  0  0  0  0  0  0  0  0  0  0
   20.6580   -8.6020    9.5550 O   0  0  0  0  0  0  0  0  0  0  0  0
    8.9070   -6.6220   12.2640 O   0  0  0  0  0  0  0  0  0  0  0  0
    8.2660   -5.3640   12.4640 C   0  0  0  0  0  2  0  0  0  0  0  0
    7.1700   -5.0940   11.4510 C   0  0  0  0  0  0  0  0  0  0  0  0
    5.9670   -5.8220   11.5390 C   0  0  0  0  0  3  0  0  0  0  0  0
    4.9230   -5.5890   10.6370 C   0  0  0  0  0  0  0  0  0  0  0  0
    5.0790   -4.6650    9.6070 C   0  0  0  0  0  3  0  0  0  0  0  0
    6.2640   -3.9360    9.5090 C   0  0  0  0  0  3  0  0  0  0  0  0
    7.3170   -4.1280   10.4260 C   0  0  0  0  0  0  0  0  0  0  0  0
    3.6680   -6.3720   10.7080 C   0  0  0  0  0  0  0  0  0  0  0  0
    3.5870   -7.3750   10.0020 O   0  0  0  0  0  0  0  0  0  0  0  0
    2.6460   -5.9510   11.5580 N   0  0  0  0  0  0  0  0  0  0  0  0
    2.5240   -4.6160   12.1430 C   0  0  0  0  0  2  0  0  0  0  0  0
    1.2590   -3.9250   11.6360 C   0  0  0  0  0  2  0  0  0  0  0  0
    0.0150   -4.7950   11.8150 C   0  0  1  0  0  3  0  0  0  0  0  0
    0.2160   -6.2090   11.2660 C   0  0  0  0  0  2  0  0  0  0  0  0
    1.5080   -6.8390   11.7760 C   0  0  0  0  0  2  0  0  0  0  0  0
   -0.3670   -4.8280   13.1890 O   0  0  0  0  0  0  0  0  0  0  0  0
    0.2730   -5.3620   13.6870 H   0  0  0  0  0  0  0  0  0  0  0  0
    8.5320   -3.3150   10.2720 C   0  0  0  0  0  0  0  0  0  0  0  0
    8.7280   -2.1680   11.0570 C   0  0  0  0  0  3  0  0  0  0  0  0
    9.8840   -1.3950   10.9170 C   0  0  0  0  0  3  0  0  0  0  0  0
   10.8560   -1.7690    9.9930 C   0  0  0  0  0  0  0  0  0  0  0  0
   12.2800   -0.8210    9.8170 Cl  0  0  0  0  0  0  0  0  0  0  0  0
   10.6840   -2.9090    9.2110 C   0  0  0  0  0  3  0  0  0  0  0  0
    9.5260   -3.6800    9.3510 C   0  0  0  0  0  3  0  0  0  0  0  0
  1  2  1  0  0  0  0
  2  3  2  0  0  0  0
  4 26  1  0  0  0  0
  4  3  1  0  0  0  0
  5  4  2  0  0  0  0
  6  5  1  0  0  0  0
  6  1  2  0  0  0  0
  7  6  1  0  0  0  0
  8  9  1  0  0  0  0
  9 10  2  0  0  0  0
 11 10  1  0  0  0  0
 11 16  1  0  0  0  0
 12 11  2  0  0  0  0
 13  8  2  0  0  0  0
 13 12  1  0  0  0  0
 14 12  1  0  0  0  0
 14 15  2  0  0  0  0
 15  1  1  0  0  0  0
 15 16  1  0  0  0  0
 16 17  1  0  0  0  0
 17 22  1  0  0  0  0
 18 19  1  0  0  0  0
 18 17  1  0  0  0  0
 19 20  1  0  0  0  0
 20 21  1  0  0  0  0
 22 21  1  0  0  0  0
 24  8  1  0  0  0  0
 24 23  1  0  0  0  0
 25 24  2  0  0  0  0
 26 27  1  0  0  0  0
 28 29  1  0  0  0  0
 28 27  1  0  0  0  0
 30 34  1  0  0  0  0
 30 29  2  0  0  0  0
 31 30  1  0  0  0  0
 32 31  2  0  0  0  0
 32 33  1  0  0  0  0
 33 28  2  0  0  0  0
 34 36  1  0  0  0  0
 35 34  2  0  0  0  0
 36 41  1  0  0  0  0
 36 37  1  0  0  0  0
 38 39  1  0  0  0  0
 38 37  1  0  0  0  0
 39 42  1  1  0  0  0
 40 41  1  0  0  0  0
 40 39  1  0  0  0  0
 42 43  1  0  0  0  0
 44 33  1  0  0  0  0
 44 45  1  0  0  0  0
 46 45  2  0  0  0  0
 47 46  1  0  0  0  0
 48 47  1  0  0  0  0
 49 50  1  0  0  0  0
 49 47  2  0  0  0  0
 50 44  2  0  0  0  0
M  END
>  <minimizedAffinity>
-9.80578232

$$$$
