
 OpenBabel09122222393D

 50 56  0  0  1  0  0  0  0  0999 V2000
    7.1850   -3.2400   11.5370 C   0  0  0  0  0  0  0  0  0  0  0  0
    7.4050   -4.6200   11.5970 C   0  0  0  0  0  3  0  0  0  0  0  0
    8.5880   -5.1720   11.0950 C   0  0  0  0  0  3  0  0  0  0  0  0
    9.5620   -4.3640   10.5030 C   0  0  0  0  0  0  0  0  0  0  0  0
    9.3410   -2.9930   10.4200 C   0  0  0  0  0  3  0  0  0  0  0  0
    8.1600   -2.4460   10.9280 C   0  0  0  0  0  0  0  0  0  0  0  0
    7.9940   -1.1180   10.8330 F   0  0  0  0  0  0  0  0  0  0  0  0
    2.4630   -1.0330   14.4890 C   0  0  0  0  0  0  0  0  0  0  0  0
    1.8870   -0.9430   13.2120 C   0  0  0  0  0  3  0  0  0  0  0  0
    2.5700   -1.3350   12.0540 C   0  0  0  0  0  3  0  0  0  0  0  0
    3.8710   -1.8330   12.2050 C   0  0  0  0  0  0  0  0  0  0  0  0
    4.4720   -1.9420   13.4560 C   0  0  0  0  0  0  0  0  0  0  0  0
    3.7720   -1.5420   14.6050 C   0  0  0  0  0  3  0  0  0  0  0  0
    5.7420   -2.4470   13.3440 N   0  0  0  0  0  0  0  0  0  0  0  0
    5.9350   -2.6910   12.0610 C   0  0  0  0  0  0  0  0  0  0  0  0
    4.8340   -2.2830   11.3210 N   0  0  0  0  0  0  0  0  0  0  0  0
    4.7470   -2.2390    9.8630 C   0  0  0  0  0  3  0  0  0  0  0  0
    3.5260   -2.9910    9.3100 C   0  0  0  0  0  2  0  0  0  0  0  0
    3.5120   -2.9770    7.7820 C   0  0  0  0  0  2  0  0  0  0  0  0
    3.5990   -1.5560    7.2310 C   0  0  0  0  0  2  0  0  0  0  0  0
    4.8180   -0.8140    7.7720 C   0  0  0  0  0  2  0  0  0  0  0  0
    4.8440   -0.8110    9.3000 C   0  0  0  0  0  2  0  0  0  0  0  0
    2.3740   -0.1620   16.7020 O   0  0  0  0  0  1  0  0  0  0  0  0
    1.6930   -0.5890   15.7170 C   0  0  0  0  0  0  0  0  0  0  0  0
    0.4260   -0.6810   15.6750 O   0  0  0  0  0  0  0  0  0  0  0  0
   10.6670   -5.0370   10.0730 O   0  0  0  0  0  0  0  0  0  0  0  0
   11.9530   -4.4270   10.1680 C   0  0  0  0  0  2  0  0  0  0  0  0
   12.8210   -5.0490   11.2450 C   0  0  0  0  0  0  0  0  0  0  0  0
   13.7240   -6.0690   10.8860 C   0  0  0  0  0  3  0  0  0  0  0  0
   14.5590   -6.6550   11.8450 C   0  0  0  0  0  0  0  0  0  0  0  0
   14.4710   -6.2700   13.1800 C   0  0  0  0  0  3  0  0  0  0  0  0
   13.5830   -5.2600   13.5490 C   0  0  0  0  0  3  0  0  0  0  0  0
   12.7560   -4.6310   12.5960 C   0  0  0  0  0  0  0  0  0  0  0  0
   15.4880   -7.7470   11.4780 C   0  0  0  0  0  0  0  0  0  0  0  0
   15.0490   -8.8940   11.4970 O   0  0  0  0  0  0  0  0  0  0  0  0
   16.8030   -7.4380   11.1290 N   0  0  0  0  0  0  0  0  0  0  0  0
   17.4850   -6.1760   11.4180 C   0  0  0  0  0  2  0  0  0  0  0  0
   18.6660   -6.4110   12.3580 C   0  0  0  0  0  2  0  0  0  0  0  0
   19.5950   -7.5140   11.8530 C   0  0  1  0  0  3  0  0  0  0  0  0
   18.8310   -8.7860   11.4810 C   0  0  0  0  0  2  0  0  0  0  0  0
   17.6440   -8.4920   10.5690 C   0  0  0  0  0  2  0  0  0  0  0  0
   20.3660   -7.0380   10.7500 O   0  0  0  0  0  0  0  0  0  0  0  0
   19.7920   -6.9460    9.9730 H   0  0  0  0  0  0  0  0  0  0  0  0
   11.8540   -3.5640   13.0530 C   0  0  0  0  0  0  0  0  0  0  0  0
   10.7100   -3.8700   13.8090 C   0  0  0  0  0  3  0  0  0  0  0  0
    9.8530   -2.8580   14.2480 C   0  0  0  0  0  3  0  0  0  0  0  0
   10.1370   -1.5300   13.9400 C   0  0  0  0  0  0  0  0  0  0  0  0
    9.0850   -0.2810   14.4800 Cl  0  0  0  0  0  0  0  0  0  0  0  0
   11.2710   -1.2060   13.1990 C   0  0  0  0  0  3  0  0  0  0  0  0
   12.1270   -2.2190   12.7580 C   0  0  0  0  0  3  0  0  0  0  0  0
  1  2  1  0  0  0  0
  1 15  1  0  0  0  0
  3  2  2  0  0  0  0
  4  3  1  0  0  0  0
  5  4  2  0  0  0  0
  5  6  1  0  0  0  0
  6  1  2  0  0  0  0
  7  6  1  0  0  0  0
  8 13  1  0  0  0  0
  8 24  1  0  0  0  0
  9  8  2  0  0  0  0
 10 11  2  0  0  0  0
 10  9  1  0  0  0  0
 11 12  1  0  0  0  0
 12 13  2  0  0  0  0
 14 12  1  0  0  0  0
 15 14  2  0  0  0  0
 16 15  1  0  0  0  0
 16 11  1  0  0  0  0
 17 16  1  0  0  0  0
 18 17  1  0  0  0  0
 19 18  1  0  0  0  0
 20 21  1  0  0  0  0
 20 19  1  0  0  0  0
 21 22  1  0  0  0  0
 22 17  1  0  0  0  0
 24 23  1  0  0  0  0
 25 24  2  0  0  0  0
 26 27  1  0  0  0  0
 26  4  1  0  0  0  0
 27 28  1  0  0  0  0
 28 33  1  0  0  0  0
 29 28  2  0  0  0  0
 29 30  1  0  0  0  0
 30 31  2  0  0  0  0
 31 32  1  0  0  0  0
 33 44  1  0  0  0  0
 33 32  2  0  0  0  0
 34 35  2  0  0  0  0
 34 30  1  0  0  0  0
 36 37  1  0  0  0  0
 36 34  1  0  0  0  0
 37 38  1  0  0  0  0
 39 42  1  6  0  0  0
 39 38  1  0  0  0  0
 40 39  1  0  0  0  0
 41 36  1  0  0  0  0
 41 40  1  0  0  0  0
 43 42  1  0  0  0  0
 44 45  1  0  0  0  0
 45 46  2  0  0  0  0
 47 46  1  0  0  0  0
 47 48  1  0  0  0  0
 49 47  2  0  0  0  0
 50 44  2  0  0  0  0
 50 49  1  0  0  0  0
M  END
>  <minimizedAffinity>
-10.0537996

$$$$
