
 OpenBabel08192222473D

 28 29  0  0  1  0  0  0  0  0999 V2000
   -7.7440   32.2900   -4.6080 C   0  0  0  0  0  0  0  0  0  0  0  0
   -6.9300   31.6390   -3.9410 O   0  0  0  0  0  0  0  0  0  0  0  0
   -7.8010   33.7040   -4.5740 N   0  0  0  0  0  0  0  0  0  0  0  0
   -9.8450   28.5690   -8.5810 C   0  0  0  0  0  1  0  0  0  0  0  0
   -9.0090   29.2890   -7.5230 C   0  0  2  0  0  3  0  0  0  0  0  0
   -9.7950   29.4130   -6.2120 C   0  0  0  0  0  2  0  0  0  0  0  0
   -9.0040   30.1800   -5.1570 C   0  0  0  0  0  2  0  0  0  0  0  0
   -8.5930   31.5680   -5.6660 C   0  0  2  0  0  3  0  0  0  0  0  0
   -7.7820   31.4400   -6.9630 C   0  0  0  0  0  2  0  0  0  0  0  0
   -8.5590   30.6670   -8.0290 C   0  0  0  0  0  2  0  0  0  0  0  0
   -9.0070   34.4450   -4.7760 C   0  0  0  0  0  0  0  0  0  0  0  0
   -9.8140   34.9130   -3.6640 C   0  0  0  0  0  3  0  0  0  0  0  0
  -10.9910   35.5140   -4.0310 C   0  0  0  0  0  0  0  0  0  0  0  0
  -11.1060   35.6640   -5.7080 S   0  0  0  0  0  0  0  0  0  0  0  0
   -9.5800   34.8970   -5.9690 C   0  0  0  0  0  0  0  0  0  0  0  0
   -9.0730   34.7540   -7.3630 C   0  0  0  0  0  0  0  0  0  0  0  0
   -7.9670   35.2770   -7.6680 O   0  0  0  0  0  1  0  0  0  0  0  0
   -9.8050   34.0650   -8.1460 O   0  0  0  0  0  0  0  0  0  0  0  0
  -12.0020   35.9440   -3.1250 C   0  0  0  0  0  0  0  0  0  0  0  0
  -12.8650   36.3450   -2.3910 C   0  0  0  0  0  0  0  0  0  0  0  0
  -13.9210   36.8800   -1.5040 C   0  0  0  0  0  0  0  0  0  0  0  0
  -15.2450   36.1580   -1.7970 C   0  0  0  0  0  1  0  0  0  0  0  0
  -13.5230   36.6530   -0.0400 C   0  0  0  0  0  1  0  0  0  0  0  0
  -14.0890   38.3830   -1.7650 C   0  0  0  0  0  1  0  0  0  0  0  0
   -6.6100   34.3770   -4.1070 N   0  0  0  0  0  4  0  0  0  0  0  0
   -5.7430   34.7410   -5.2460 C   0  0  0  0  0  1  0  0  0  0  0  0
   -6.9390   35.4330   -3.1140 C   0  0  0  0  0  1  0  0  0  0  0  0
   -6.0860   33.6840   -3.5160 H   0  0  0  0  0  0  0  0  0  0  0  0
  1  3  1  0  0  0  0
  1  2  2  0  0  0  0
  3 25  1  0  0  0  0
  5  4  1  6  0  0  0
  5  6  1  0  0  0  0
  6  7  1  0  0  0  0
  8  7  1  0  0  0  0
  8  1  1  1  0  0  0
  9  8  1  0  0  0  0
 10  5  1  0  0  0  0
 10  9  1  0  0  0  0
 11  3  1  0  0  0  0
 11 12  1  0  0  0  0
 13 12  2  0  0  0  0
 13 19  1  0  0  0  0
 14 13  1  0  0  0  0
 15 14  1  0  0  0  0
 15 11  2  0  0  0  0
 16 15  1  0  0  0  0
 17 16  1  0  0  0  0
 18 16  2  0  0  0  0
 19 20  3  0  0  0  0
 20 21  1  0  0  0  0
 21 23  1  0  0  0  0
 22 21  1  0  0  0  0
 24 21  1  0  0  0  0
 25 28  1  0  0  0  0
 25 27  1  0  0  0  0
 26 25  1  0  0  0  0
M  END
>  <minimizedAffinity>
-5.68839788

$$$$
