
 OpenBabel08192222473D

 28 29  0  0  1  0  0  0  0  0999 V2000
   -7.3800   35.9870  -35.9710 C   0  0  0  0  0  0  0  0  0  0  0  0
   -7.5600   36.7860  -36.8990 O   0  0  0  0  0  0  0  0  0  0  0  0
   -6.6860   34.7640  -36.1420 N   0  0  0  0  0  0  0  0  0  0  0  0
   -9.0740   38.8850  -31.1980 C   0  0  0  0  0  1  0  0  0  0  0  0
   -8.7260   38.4530  -32.6230 C   0  0  2  0  0  3  0  0  0  0  0  0
   -9.5920   37.2600  -33.0480 C   0  0  0  0  0  2  0  0  0  0  0  0
   -9.2220   36.7730  -34.4460 C   0  0  0  0  0  2  0  0  0  0  0  0
   -7.7350   36.4120  -34.5370 C   0  0  2  0  0  3  0  0  0  0  0  0
   -6.8690   37.6150  -34.1380 C   0  0  0  0  0  2  0  0  0  0  0  0
   -7.2320   38.1200  -32.7410 C   0  0  0  0  0  2  0  0  0  0  0  0
   -6.9670   33.5910  -35.3730 C   0  0  0  0  0  0  0  0  0  0  0  0
   -8.1390   32.7740  -35.6230 C   0  0  0  0  0  3  0  0  0  0  0  0
   -8.3150   31.7470  -34.7300 C   0  0  0  0  0  0  0  0  0  0  0  0
   -7.0190   31.6400  -33.6540 S   0  0  0  0  0  0  0  0  0  0  0  0
   -6.2100   32.9950  -34.3590 C   0  0  0  0  0  0  0  0  0  0  0  0
   -4.8830   33.4040  -33.8180 C   0  0  0  0  0  0  0  0  0  0  0  0
   -3.8420   33.1140  -34.4670 O   0  0  0  0  0  0  0  0  0  0  0  0
   -4.9140   34.0630  -32.7290 O   0  0  0  0  0  1  0  0  0  0  0  0
   -9.4500   30.8870  -34.6930 C   0  0  0  0  0  0  0  0  0  0  0  0
  -10.4350   30.2000  -34.6760 C   0  0  0  0  0  0  0  0  0  0  0  0
  -11.6730   29.3900  -34.6470 C   0  0  0  0  0  0  0  0  0  0  0  0
  -11.3160   27.9240  -34.3630 C   0  0  0  0  0  1  0  0  0  0  0  0
  -12.6030   29.9170  -33.5470 C   0  0  0  0  0  1  0  0  0  0  0  0
  -12.3770   29.4910  -36.0080 C   0  0  0  0  0  1  0  0  0  0  0  0
   -5.8130   34.6840  -37.2890 N   0  0  0  0  0  4  0  0  0  0  0  0
   -4.5180   35.3310  -36.9990 C   0  0  0  0  0  1  0  0  0  0  0  0
   -5.7950   33.3110  -37.8600 C   0  0  0  0  0  1  0  0  0  0  0  0
   -6.2780   35.2290  -38.0580 H   0  0  0  0  0  0  0  0  0  0  0  0
  2  1  2  0  0  0  0
  3  1  1  0  0  0  0
  3 11  1  0  0  0  0
  5  4  1  1  0  0  0
  6  5  1  0  0  0  0
  7  6  1  0  0  0  0
  8  1  1  6  0  0  0
  8  7  1  0  0  0  0
  8  9  1  0  0  0  0
  9 10  1  0  0  0  0
 10  5  1  0  0  0  0
 11 15  2  0  0  0  0
 12 11  1  0  0  0  0
 12 13  2  0  0  0  0
 13 19  1  0  0  0  0
 13 14  1  0  0  0  0
 15 16  1  0  0  0  0
 15 14  1  0  0  0  0
 16 18  1  0  0  0  0
 17 16  2  0  0  0  0
 19 20  3  0  0  0  0
 20 21  1  0  0  0  0
 21 22  1  0  0  0  0
 21 23  1  0  0  0  0
 24 21  1  0  0  0  0
 25 26  1  0  0  0  0
 25  3  1  0  0  0  0
 27 25  1  0  0  0  0
 28 25  1  0  0  0  0
M  END
>  <minimizedAffinity>
-6.55712652

$$$$
