
 OpenBabel08192222473D

 28 29  0  0  1  0  0  0  0  0999 V2000
  -11.9080   33.3540   -9.2420 C   0  0  0  0  0  0  0  0  0  0  0  0
  -12.8490   34.0990   -9.5420 O   0  0  0  0  0  0  0  0  0  0  0  0
  -11.6700   32.9240   -7.9140 N   0  0  0  0  0  0  0  0  0  0  0  0
  -10.1110   30.7290  -14.1330 C   0  0  0  0  0  1  0  0  0  0  0  0
  -10.9250   31.3860  -13.0190 C   0  0  2  0  0  3  0  0  0  0  0  0
  -10.4760   32.8370  -12.8110 C   0  0  0  0  0  2  0  0  0  0  0  0
  -11.2340   33.4980  -11.6630 C   0  0  0  0  0  2  0  0  0  0  0  0
  -11.0820   32.7010  -10.3610 C   0  0  2  0  0  3  0  0  0  0  0  0
  -11.5590   31.2550  -10.5630 C   0  0  0  0  0  2  0  0  0  0  0  0
  -10.8130   30.5820  -11.7160 C   0  0  0  0  0  2  0  0  0  0  0  0
  -10.3650   32.6300   -7.4080 C   0  0  0  0  0  0  0  0  0  0  0  0
   -9.9600   31.2780   -7.0720 C   0  0  0  0  0  3  0  0  0  0  0  0
   -8.7150   31.1840   -6.5020 C   0  0  0  0  0  0  0  0  0  0  0  0
   -7.9370   32.6810   -6.4760 S   0  0  0  0  0  0  0  0  0  0  0  0
   -9.2770   33.4880   -7.2110 C   0  0  0  0  0  0  0  0  0  0  0  0
   -9.1700   34.9450   -7.5040 C   0  0  0  0  0  0  0  0  0  0  0  0
  -10.2170   35.6470   -7.5050 O   0  0  0  0  0  1  0  0  0  0  0  0
   -7.9900   35.3800   -7.7010 O   0  0  0  0  0  0  0  0  0  0  0  0
   -8.1490   29.9860   -5.9790 C   0  0  0  0  0  0  0  0  0  0  0  0
   -7.7170   28.9540   -5.5410 C   0  0  0  0  0  0  0  0  0  0  0  0
   -7.2250   27.6740   -4.9860 C   0  0  0  0  0  0  0  0  0  0  0  0
   -5.9440   27.2580   -5.7240 C   0  0  0  0  0  1  0  0  0  0  0  0
   -6.9270   27.8450   -3.4910 C   0  0  0  0  0  1  0  0  0  0  0  0
   -8.2990   26.5930   -5.1770 C   0  0  0  0  0  1  0  0  0  0  0  0
  -12.7940   32.9990   -7.0100 N   0  0  0  0  0  4  0  0  0  0  0  0
  -13.5510   31.7310   -7.0200 C   0  0  0  0  0  1  0  0  0  0  0  0
  -12.3940   33.5620   -5.6930 C   0  0  0  0  0  1  0  0  0  0  0  0
  -13.4270   33.7520   -7.3800 H   0  0  0  0  0  0  0  0  0  0  0  0
  1  3  1  0  0  0  0
  2  1  2  0  0  0  0
  3 11  1  0  0  0  0
  3 25  1  0  0  0  0
  5  4  1  6  0  0  0
  5  6  1  0  0  0  0
  5 10  1  0  0  0  0
  6  7  1  0  0  0  0
  7  8  1  0  0  0  0
  8  1  1  1  0  0  0
  9  8  1  0  0  0  0
 10  9  1  0  0  0  0
 11 15  2  0  0  0  0
 11 12  1  0  0  0  0
 12 13  2  0  0  0  0
 13 14  1  0  0  0  0
 13 19  1  0  0  0  0
 15 14  1  0  0  0  0
 16 15  1  0  0  0  0
 17 16  1  0  0  0  0
 18 16  2  0  0  0  0
 19 20  3  0  0  0  0
 20 21  1  0  0  0  0
 21 23  1  0  0  0  0
 22 21  1  0  0  0  0
 24 21  1  0  0  0  0
 25 27  1  0  0  0  0
 26 25  1  0  0  0  0
 28 25  1  0  0  0  0
M  END
>  <minimizedAffinity>
-5.72228479

$$$$
