REMARK  Name = 
REMARK  7 active torsions:
REMARK  status: ('A' for Active; 'I' for Inactive)
REMARK    1  A    between atoms: C_2  and  C_4
REMARK    2  A    between atoms: C_11  and  C_12
REMARK    3  A    between atoms: C_15  and  O_16
REMARK    4  A    between atoms: O_16  and  C_17
REMARK    5  A    between atoms: C_17  and  C_18
REMARK    6  A    between atoms: C_23  and  C_24
REMARK    7  A    between atoms: N_33  and  C_34
REMARK                            x       y       z     vdW  Elec       q    Type
REMARK                         _______ _______ _______ _____ _____    ______ ____
ROOT
ATOM      1  C   UNL     1       6.969  -0.723   5.525  0.00  0.00    +0.018 A 
ATOM      2  C   UNL     1       7.947  -1.722   5.562  0.00  0.00    +0.015 A 
ATOM      3  C   UNL     1       9.043  -1.600   6.419  0.00  0.00    +0.046 A 
ATOM      4  C   UNL     1       9.195  -0.472   7.230  0.00  0.00    +0.121 A 
ATOM      5  C   UNL     1       8.225   0.527   7.196  0.00  0.00    +0.046 A 
ATOM      6  C   UNL     1       7.123   0.403   6.341  0.00  0.00    +0.015 A 
ENDROOT
BRANCH   1  14
ATOM      7  C   UNL     1       2.740  -0.371   1.302  0.00  0.00    -0.001 A 
ATOM      8  C   UNL     1       2.331  -1.614   1.811  0.00  0.00    +0.012 A 
ATOM      9  C   UNL     1       2.970  -2.222   2.900  0.00  0.00    +0.028 A 
ATOM     10  C   UNL     1       4.053  -1.546   3.476  0.00  0.00    +0.069 A 
ATOM     11  C   UNL     1       4.490  -0.315   2.993  0.00  0.00    +0.090 A 
ATOM     12  C   UNL     1       3.833   0.281   1.905  0.00  0.00    +0.039 A 
ATOM     13  N   UNL     1       5.567   0.137   3.711  0.00  0.00    -0.228 NA
ATOM     14  C   UNL     1       5.837  -0.798   4.601  0.00  0.00    +0.142 A 
ATOM     15  N   UNL     1       4.894  -1.814   4.539  0.00  0.00    -0.320 N 
BRANCH  15  16
ATOM     16  C   UNL     1       4.782  -2.933   5.471  0.00  0.00    +0.089 C 
ATOM     17  C   UNL     1       3.447  -2.951   6.236  0.00  0.00    +0.025 C 
ATOM     18  C   UNL     1       3.397  -4.104   7.237  0.00  0.00    +0.002 C 
ATOM     19  C   UNL     1       3.686  -5.445   6.567  0.00  0.00    +0.000 C 
ATOM     20  C   UNL     1       5.019  -5.428   5.823  0.00  0.00    +0.002 C 
ATOM     21  C   UNL     1       5.085  -4.287   4.810  0.00  0.00    +0.025 C 
ENDBRANCH  15  16
BRANCH   7  23
ATOM     22  O   UNL     1       1.045  -0.399  -0.370  0.00  0.00    -0.545 OA
ATOM     23  C   UNL     1       2.019   0.255   0.124  0.00  0.00    +0.072 C 
ATOM     24  O   UNL     1       2.437   1.384  -0.283  0.00  0.00    -0.545 OA
ENDBRANCH   7  23
ENDBRANCH   1  14
BRANCH   4  25
ATOM     25  O   UNL     1      10.344  -0.465   7.968  0.00  0.00    -0.487 OA
BRANCH  25  26
ATOM     26  C   UNL     1      10.691   0.705   8.708  0.00  0.00    +0.265 C 
BRANCH  26  27
ATOM     27  C   UNL     1      11.134   1.917   7.902  0.00  0.00    -0.003 A 
ATOM     28  C   UNL     1      10.743   3.186   8.383  0.00  0.00    +0.007 A 
ATOM     29  C   UNL     1      11.104   4.357   7.719  0.00  0.00    +0.000 A 
ATOM     30  C   UNL     1      11.875   4.286   6.567  0.00  0.00    +0.001 A 
ATOM     31  C   UNL     1      12.290   3.044   6.087  0.00  0.00    +0.009 A 
ATOM     32  C   UNL     1      11.940   1.845   6.742  0.00  0.00    -0.011 A 
BRANCH  32  33
ATOM     33  C   UNL     1      12.429   0.581   6.170  0.00  0.00    -0.017 A 
ATOM     34  C   UNL     1      11.905   0.099   4.958  0.00  0.00    +0.010 A 
ATOM     35  C   UNL     1      12.358  -1.103   4.406  0.00  0.00    +0.020 A 
ATOM     36  C   UNL     1      13.347  -1.830   5.061  0.00  0.00    +0.041 A 
ATOM     37 CL   UNL     1      13.903  -3.315   4.392  0.00  0.00    -0.084 Cl
ATOM     38  C   UNL     1      13.890  -1.365   6.257  0.00  0.00    +0.020 A 
ATOM     39  C   UNL     1      13.434  -0.164   6.807  0.00  0.00    +0.010 A 
ENDBRANCH  32  33
ENDBRANCH  26  27
ENDBRANCH  25  26
ENDBRANCH   4  25
TORSDOF 7
