
 OpenBabel09122222393D

 39 44  0  0  0  0  0  0  0  0999 V2000
    3.6960   -3.2230    5.5180 C   0  0  0  0  0  0  0  0  0  0  0  0
    4.7080   -2.8360    6.4030 C   0  0  0  0  0  3  0  0  0  0  0  0
    4.4610   -1.8580    7.3680 C   0  0  0  0  0  3  0  0  0  0  0  0
    3.2130   -1.2330    7.4500 C   0  0  0  0  0  0  0  0  0  0  0  0
    2.2020   -1.6130    6.5710 C   0  0  0  0  0  3  0  0  0  0  0  0
    2.4480   -2.5980    5.6060 C   0  0  0  0  0  3  0  0  0  0  0  0
    5.1330   -6.5980    0.7860 C   0  0  0  0  0  0  0  0  0  0  0  0
    4.7550   -7.6660    1.6150 C   0  0  0  0  0  3  0  0  0  0  0  0
    4.2690   -7.4680    2.9140 C   0  0  0  0  0  3  0  0  0  0  0  0
    4.1730   -6.1500    3.3760 C   0  0  0  0  0  0  0  0  0  0  0  0
    4.5450   -5.0660    2.5850 C   0  0  0  0  0  0  0  0  0  0  0  0
    5.0240   -5.2840    1.2830 C   0  0  0  0  0  3  0  0  0  0  0  0
    4.3720   -3.8850    3.2600 N   0  0  0  0  0  0  0  0  0  0  0  0
    3.9410   -4.2080    4.4640 C   0  0  0  0  0  0  0  0  0  0  0  0
    3.7390   -5.5770    4.5570 N   0  0  0  0  0  0  0  0  0  0  0  0
    3.1220   -6.2750    5.6820 C   0  0  0  0  0  3  0  0  0  0  0  0
    3.7180   -5.8730    7.0420 C   0  0  0  0  0  2  0  0  0  0  0  0
    3.0820   -6.6660    8.1820 C   0  0  0  0  0  2  0  0  0  0  0  0
    1.5600   -6.5480    8.1720 C   0  0  0  0  0  2  0  0  0  0  0  0
    0.9720   -6.9640    6.8260 C   0  0  0  0  0  2  0  0  0  0  0  0
    1.5880   -6.1740    5.6730 C   0  0  0  0  0  2  0  0  0  0  0  0
    5.3320   -7.9620   -1.1540 O   0  0  0  0  0  0  0  0  0  0  0  0
    5.6510   -6.8540   -0.6150 C   0  0  0  0  0  0  0  0  0  0  0  0
    6.3630   -5.9470   -1.1500 O   0  0  0  0  0  1  0  0  0  0  0  0
    3.1390   -0.2560    8.4010 O   0  0  0  0  0  0  0  0  0  0  0  0
    2.7770   -0.6090    9.7360 C   0  0  0  0  0  2  0  0  0  0  0  0
    3.7880   -0.2860   10.8260 C   0  0  0  0  0  0  0  0  0  0  0  0
    4.2200    1.0550   10.9250 C   0  0  0  0  0  3  0  0  0  0  0  0
    5.1400    1.4530   11.8940 C   0  0  0  0  0  3  0  0  0  0  0  0
    5.6380    0.5210   12.7940 C   0  0  0  0  0  3  0  0  0  0  0  0
    5.2080   -0.8040   12.7280 C   0  0  0  0  0  3  0  0  0  0  0  0
    4.2770   -1.2300   11.7590 C   0  0  0  0  0  0  0  0  0  0  0  0
    3.8730   -2.6450   11.7680 C   0  0  0  0  0  0  0  0  0  0  0  0
    4.6690   -3.6160   11.1370 C   0  0  0  0  0  3  0  0  0  0  0  0
    4.2950   -4.9630   11.1350 C   0  0  0  0  0  3  0  0  0  0  0  0
    3.1210   -5.3510   11.7740 C   0  0  0  0  0  0  0  0  0  0  0  0
    2.6490   -7.0060   11.7680 Cl  0  0  0  0  0  0  0  0  0  0  0  0
    2.3230   -4.4070   12.4170 C   0  0  0  0  0  3  0  0  0  0  0  0
    2.6990   -3.0610   12.4160 C   0  0  0  0  0  3  0  0  0  0  0  0
  1  6  2  0  0  0  0
  1  2  1  0  0  0  0
  2  3  2  0  0  0  0
  3  4  1  0  0  0  0
  4 25  1  0  0  0  0
  5  4  2  0  0  0  0
  6  5  1  0  0  0  0
  7 12  2  0  0  0  0
  7  8  1  0  0  0  0
  8  9  2  0  0  0  0
  9 10  1  0  0  0  0
 10 15  1  0  0  0  0
 11 13  1  0  0  0  0
 11 10  2  0  0  0  0
 12 11  1  0  0  0  0
 13 14  2  0  0  0  0
 14 15  1  0  0  0  0
 14  1  1  0  0  0  0
 15 16  1  0  0  0  0
 16 17  1  0  0  0  0
 17 18  1  0  0  0  0
 19 18  1  0  0  0  0
 20 19  1  0  0  0  0
 21 16  1  0  0  0  0
 21 20  1  0  0  0  0
 22 23  2  0  0  0  0
 23  7  1  0  0  0  0
 24 23  1  0  0  0  0
 25 26  1  0  0  0  0
 26 27  1  0  0  0  0
 27 28  2  0  0  0  0
 27 32  1  0  0  0  0
 28 29  1  0  0  0  0
 29 30  2  0  0  0  0
 31 30  1  0  0  0  0
 32 33  1  0  0  0  0
 32 31  2  0  0  0  0
 33 39  1  0  0  0  0
 34 33  2  0  0  0  0
 35 34  1  0  0  0  0
 35 36  2  0  0  0  0
 36 38  1  0  0  0  0
 37 36  1  0  0  0  0
 39 38  2  0  0  0  0
M  END
>  <minimizedAffinity>
-8.51013565

$$$$
