
 OpenBabel09122222393D

 39 44  0  0  0  0  0  0  0  0999 V2000
    9.3450   -2.3330    3.4310 C   0  0  0  0  0  0  0  0  0  0  0  0
    9.9960   -2.8380    4.5610 C   0  0  0  0  0  3  0  0  0  0  0  0
   10.5910   -1.9670    5.4760 C   0  0  0  0  0  3  0  0  0  0  0  0
   10.5690   -0.5860    5.2670 C   0  0  0  0  0  0  0  0  0  0  0  0
    9.9230   -0.0770    4.1430 C   0  0  0  0  0  3  0  0  0  0  0  0
    9.3220   -0.9490    3.2270 C   0  0  0  0  0  3  0  0  0  0  0  0
    6.2600   -6.0500   -0.1070 C   0  0  0  0  0  0  0  0  0  0  0  0
    7.1640   -5.6280   -1.0950 C   0  0  0  0  0  3  0  0  0  0  0  0
    8.2010   -4.7260   -0.8230 C   0  0  0  0  0  3  0  0  0  0  0  0
    8.3120   -4.2420    0.4860 C   0  0  0  0  0  0  0  0  0  0  0  0
    7.4300   -4.6330    1.4900 C   0  0  0  0  0  0  0  0  0  0  0  0
    6.4010   -5.5430    1.1990 C   0  0  0  0  0  3  0  0  0  0  0  0
    7.7350   -4.0170    2.6760 N   0  0  0  0  0  0  0  0  0  0  0  0
    8.7580   -3.2230    2.4280 C   0  0  0  0  0  0  0  0  0  0  0  0
    9.1880   -3.3800    1.1180 N   0  0  0  0  0  0  0  0  0  0  0  0
   10.3860   -2.7820    0.5350 C   0  0  0  0  0  3  0  0  0  0  0  0
   11.4340   -3.8250    0.1060 C   0  0  0  0  0  2  0  0  0  0  0  0
   12.6900   -3.1540   -0.4450 C   0  0  0  0  0  2  0  0  0  0  0  0
   12.3600   -2.1820   -1.5750 C   0  0  0  0  0  2  0  0  0  0  0  0
   11.3330   -1.1390   -1.1410 C   0  0  0  0  0  2  0  0  0  0  0  0
   10.0650   -1.7910   -0.5940 C   0  0  0  0  0  2  0  0  0  0  0  0
    3.9860   -6.7480   -0.0220 O   0  0  0  0  0  1  0  0  0  0  0  0
    5.1540   -7.0310   -0.4420 C   0  0  0  0  0  0  0  0  0  0  0  0
    5.4710   -8.0610   -1.1160 O   0  0  0  0  0  0  0  0  0  0  0  0
   11.2420    0.1340    6.2130 O   0  0  0  0  0  0  0  0  0  0  0  0
   10.8270    0.0540    7.5760 C   0  0  0  0  0  2  0  0  0  0  0  0
   11.9180   -0.1830    8.6100 C   0  0  0  0  0  0  0  0  0  0  0  0
   13.0980    0.5830    8.4850 C   0  0  0  0  0  3  0  0  0  0  0  0
   14.1520    0.4430    9.3860 C   0  0  0  0  0  3  0  0  0  0  0  0
   14.0450   -0.4550   10.4380 C   0  0  0  0  0  3  0  0  0  0  0  0
   12.8800   -1.2060   10.5920 C   0  0  0  0  0  3  0  0  0  0  0  0
   11.7980   -1.0810    9.6960 C   0  0  0  0  0  0  0  0  0  0  0  0
   10.6050   -1.9060    9.9400 C   0  0  0  0  0  0  0  0  0  0  0  0
   10.5060   -3.1950    9.3880 C   0  0  0  0  0  3  0  0  0  0  0  0
    9.3760   -3.9880    9.6090 C   0  0  0  0  0  3  0  0  0  0  0  0
    8.3350   -3.4970   10.3920 C   0  0  0  0  0  0  0  0  0  0  0  0
    6.9370   -4.4630   10.6600 Cl  0  0  0  0  0  0  0  0  0  0  0  0
    8.4170   -2.2270   10.9590 C   0  0  0  0  0  3  0  0  0  0  0  0
    9.5470   -1.4370   10.7360 C   0  0  0  0  0  3  0  0  0  0  0  0
  1  2  1  0  0  0  0
  2  3  2  0  0  0  0
  4  3  1  0  0  0  0
  4 25  1  0  0  0  0
  5  4  2  0  0  0  0
  6  1  2  0  0  0  0
  6  5  1  0  0  0  0
  7 12  1  0  0  0  0
  8  9  1  0  0  0  0
  8  7  2  0  0  0  0
  9 10  2  0  0  0  0
 10 15  1  0  0  0  0
 10 11  1  0  0  0  0
 11 13  1  0  0  0  0
 12 11  2  0  0  0  0
 14 13  2  0  0  0  0
 14  1  1  0  0  0  0
 15 14  1  0  0  0  0
 16 15  1  0  0  0  0
 17 16  1  0  0  0  0
 18 17  1  0  0  0  0
 19 20  1  0  0  0  0
 19 18  1  0  0  0  0
 20 21  1  0  0  0  0
 21 16  1  0  0  0  0
 23  7  1  0  0  0  0
 23 22  1  0  0  0  0
 24 23  2  0  0  0  0
 25 26  1  0  0  0  0
 26 27  1  0  0  0  0
 27 32  1  0  0  0  0
 28 27  2  0  0  0  0
 28 29  1  0  0  0  0
 29 30  2  0  0  0  0
 30 31  1  0  0  0  0
 32 33  1  0  0  0  0
 32 31  2  0  0  0  0
 33 39  1  0  0  0  0
 34 35  1  0  0  0  0
 34 33  2  0  0  0  0
 35 36  2  0  0  0  0
 36 37  1  0  0  0  0
 36 38  1  0  0  0  0
 39 38  2  0  0  0  0
M  END
>  <minimizedAffinity>
-8.13762474

$$$$
