
 OpenBabel09122222393D

 39 44  0  0  0  0  0  0  0  0999 V2000
    3.5560   -5.6150    6.8140 C   0  0  0  0  0  0  0  0  0  0  0  0
    4.6370   -5.4360    7.6830 C   0  0  0  0  0  3  0  0  0  0  0  0
    4.4300   -4.9150    8.9620 C   0  0  0  0  0  3  0  0  0  0  0  0
    3.1510   -4.5400    9.3840 C   0  0  0  0  0  0  0  0  0  0  0  0
    2.0710   -4.7150    8.5210 C   0  0  0  0  0  3  0  0  0  0  0  0
    2.2770   -5.2420    7.2410 C   0  0  0  0  0  3  0  0  0  0  0  0
    4.9770   -7.0210    1.1700 C   0  0  0  0  0  0  0  0  0  0  0  0
    4.2400   -8.1880    1.4270 C   0  0  0  0  0  3  0  0  0  0  0  0
    3.6010   -8.4130    2.6540 C   0  0  0  0  0  3  0  0  0  0  0  0
    3.7230   -7.4250    3.6390 C   0  0  0  0  0  0  0  0  0  0  0  0
    4.4520   -6.2580    3.4220 C   0  0  0  0  0  0  0  0  0  0  0  0
    5.0800   -6.0480    2.1840 C   0  0  0  0  0  3  0  0  0  0  0  0
    4.4340   -5.4560    4.5330 N   0  0  0  0  0  0  0  0  0  0  0  0
    3.7480   -6.1100    5.4500 C   0  0  0  0  0  0  0  0  0  0  0  0
    3.2360   -7.2880    4.9250 N   0  0  0  0  0  0  0  0  0  0  0  0
    2.3030   -8.1880    5.5980 C   0  0  0  0  0  3  0  0  0  0  0  0
    2.7430   -8.5600    7.0240 C   0  0  0  0  0  2  0  0  0  0  0  0
    1.7680   -9.5440    7.6670 C   0  0  0  0  0  2  0  0  0  0  0  0
    0.3340   -9.0200    7.6340 C   0  0  0  0  0  2  0  0  0  0  0  0
   -0.1040   -8.6680    6.2140 C   0  0  0  0  0  2  0  0  0  0  0  0
    0.8540   -7.6770    5.5570 C   0  0  0  0  0  2  0  0  0  0  0  0
    6.4040   -5.7950   -0.2890 O   0  0  0  0  0  1  0  0  0  0  0  0
    5.6510   -6.8140   -0.1720 C   0  0  0  0  0  0  0  0  0  0  0  0
    5.4160   -7.6710   -1.0810 O   0  0  0  0  0  0  0  0  0  0  0  0
    3.1130   -3.9910   10.6340 O   0  0  0  0  0  0  0  0  0  0  0  0
    2.2860   -2.8520   10.8710 C   0  0  0  0  0  2  0  0  0  0  0  0
    2.9910   -1.5080   10.9840 C   0  0  0  0  0  0  0  0  0  0  0  0
    3.2280   -1.0150   12.2850 C   0  0  0  0  0  3  0  0  0  0  0  0
    3.8720    0.2040   12.4940 C   0  0  0  0  0  3  0  0  0  0  0  0
    4.3040    0.9490   11.4060 C   0  0  0  0  0  3  0  0  0  0  0  0
    4.0990    0.4700   10.1120 C   0  0  0  0  0  3  0  0  0  0  0  0
    3.4530   -0.7610    9.8750 C   0  0  0  0  0  0  0  0  0  0  0  0
    3.2870   -1.1930    8.4790 C   0  0  0  0  0  0  0  0  0  0  0  0
    2.0210   -1.1590    7.8690 C   0  0  0  0  0  3  0  0  0  0  0  0
    1.8490   -1.5710    6.5440 C   0  0  0  0  0  3  0  0  0  0  0  0
    2.9480   -2.0130    5.8150 C   0  0  0  0  0  0  0  0  0  0  0  0
    2.7420   -2.5300    4.1860 Cl  0  0  0  0  0  0  0  0  0  0  0  0
    4.2150   -2.0430    6.3940 C   0  0  0  0  0  3  0  0  0  0  0  0
    4.3830   -1.6320    7.7190 C   0  0  0  0  0  3  0  0  0  0  0  0
  1  6  2  0  0  0  0
  1  2  1  0  0  0  0
  2  3  2  0  0  0  0
  3  4  1  0  0  0  0
  4 25  1  0  0  0  0
  5  4  2  0  0  0  0
  6  5  1  0  0  0  0
  7  8  2  0  0  0  0
  7 12  1  0  0  0  0
  8  9  1  0  0  0  0
  9 10  2  0  0  0  0
 10 15  1  0  0  0  0
 11 10  1  0  0  0  0
 11 13  1  0  0  0  0
 12 11  2  0  0  0  0
 13 14  2  0  0  0  0
 14  1  1  0  0  0  0
 15 14  1  0  0  0  0
 15 16  1  0  0  0  0
 16 17  1  0  0  0  0
 17 18  1  0  0  0  0
 19 18  1  0  0  0  0
 20 19  1  0  0  0  0
 21 16  1  0  0  0  0
 21 20  1  0  0  0  0
 22 23  1  0  0  0  0
 23  7  1  0  0  0  0
 24 23  2  0  0  0  0
 25 26  1  0  0  0  0
 26 27  1  0  0  0  0
 27 28  1  0  0  0  0
 28 29  2  0  0  0  0
 30 29  1  0  0  0  0
 31 30  2  0  0  0  0
 32 31  1  0  0  0  0
 32 27  2  0  0  0  0
 33 32  1  0  0  0  0
 34 33  1  0  0  0  0
 35 34  2  0  0  0  0
 36 38  2  0  0  0  0
 36 35  1  0  0  0  0
 37 36  1  0  0  0  0
 38 39  1  0  0  0  0
 39 33  2  0  0  0  0
M  END
>  <minimizedAffinity>
-8.54866886

$$$$
