MODEL 1
REMARK VINA RESULT:      -7.0      0.000      0.000
REMARK  Name = 
REMARK  9 active torsions:
REMARK  status: ('A' for Active; 'I' for Inactive)
REMARK    1  A    between atoms: C_2  and  C_5
REMARK    2  A    between atoms: C_10  and  C_11
REMARK    3  A    between atoms: C_14  and  C_16
REMARK    4  A    between atoms: C_14  and  C_18
REMARK    5  A    between atoms: C_15  and  C_19
REMARK    6  A    between atoms: C_18  and  C_23
REMARK    7  A    between atoms: C_20  and  C_26
REMARK    8  A    between atoms: C_23  and  C_27
REMARK    9  A    between atoms: C_23  and  C_28
REMARK                            x       y       z     vdW  Elec       q    Type
REMARK                         _______ _______ _______ _____ _____    ______ ____
ROOT
ATOM      1  C   UNL     1       7.650  30.657  78.763  0.00  0.00    +0.000 C 
ATOM      2  O   UNL     1       7.858  29.476  79.040  0.00  0.00    +0.000 OA
ATOM      3  N   UNL     1       6.463  31.289  79.145  0.00  0.00    +0.000 N 
ATOM      4  C   UNL     1       5.478  30.675  80.097  0.00  0.00    +0.000 C 
ATOM      5  C   UNL     1       6.093  32.714  78.885  0.00  0.00    +0.000 C 
ATOM      6  C   UNL     1       4.193  31.486  79.697  0.00  0.00    +0.000 C 
ATOM      7  C   UNL     1       4.689  32.901  79.451  0.00  0.00    +0.000 C 
ENDROOT
BRANCH   1  13
ATOM      8  C   UNL     1      10.487  32.798  76.329  0.00  0.00    +0.000 A 
ATOM      9  C   UNL     1       9.752  31.730  75.792  0.00  0.00    +0.000 A 
ATOM     10  C   UNL     1      10.377  33.067  77.696  0.00  0.00    +0.000 A 
ATOM     11  C   UNL     1       8.854  31.017  76.604  0.00  0.00    +0.000 A 
ATOM     12  C   UNL     1       9.558  32.294  78.515  0.00  0.00    +0.000 A 
ATOM     13  C   UNL     1       8.704  31.343  77.955  0.00  0.00    +0.000 A 
BRANCH   8  15
ATOM     14  F   UNL     1      12.524  34.062  76.096  0.00  0.00    +0.000 F 
ATOM     15  C   UNL     1      11.372  33.681  75.481  0.00  0.00    +0.000 C 
ATOM     16  F   UNL     1      10.745  34.832  75.109  0.00  0.00    +0.000 F 
ATOM     17  F   UNL     1      11.745  33.072  74.320  0.00  0.00    +0.000 F 
ENDBRANCH   8  15
ENDBRANCH   1  13
BRANCH   5  18
ATOM     18  C   UNL     1       6.237  33.141  77.466  0.00  0.00    +0.000 A 
ATOM     19  O   UNL     1       5.673  32.375  76.491  0.00  0.00    +0.000 OA
ATOM     20  C   UNL     1       6.887  34.223  76.901  0.00  0.00    +0.000 A 
ATOM     21  C   UNL     1       6.057  32.914  75.302  0.00  0.00    +0.000 A 
ATOM     22  C   UNL     1       6.810  34.048  75.504  0.00  0.00    +0.000 A 
ENDBRANCH   5  18
BRANCH   4  23
ATOM     23  C   UNL     1       5.011  29.184  80.016  0.00  0.00    +0.000 C 
ATOM     24  O   UNL     1       4.433  28.726  79.036  0.00  0.00    +0.000 OA
ATOM     25  O   UNL     1       5.116  28.447  81.136  0.00  0.00    +0.000 OA
ENDBRANCH   4  23
BRANCH   7  26
ATOM     26  C   UNL     1       3.761  33.805  78.675  0.00  0.00    +0.000 C 
ATOM     27  O   UNL     1       2.892  33.357  77.940  0.00  0.00    +0.000 OA
ATOM     28  O   UNL     1       3.919  35.128  78.859  0.00  0.00    +0.000 OA
ENDBRANCH   7  26
BRANCH   4  29
ATOM     29  C   UNL     1       5.764  31.005  81.607  0.00  0.00    +0.000 C 
BRANCH  29  30
ATOM     30  C   UNL     1       7.185  30.968  82.215  0.00  0.00    +0.000 C 
ATOM     31  C   UNL     1       7.913  32.310  82.217  0.00  0.00    +0.000 C 
ATOM     32  C   UNL     1       7.054  30.517  83.681  0.00  0.00    +0.000 C 
ENDBRANCH  29  30
ENDBRANCH   4  29
TORSDOF 7
ENDMDL
MODEL 2
REMARK VINA RESULT:      -6.8      2.204      4.500
REMARK  Name = 
REMARK  9 active torsions:
REMARK  status: ('A' for Active; 'I' for Inactive)
REMARK    1  A    between atoms: C_2  and  C_5
REMARK    2  A    between atoms: C_10  and  C_11
REMARK    3  A    between atoms: C_14  and  C_16
REMARK    4  A    between atoms: C_14  and  C_18
REMARK    5  A    between atoms: C_15  and  C_19
REMARK    6  A    between atoms: C_18  and  C_23
REMARK    7  A    between atoms: C_20  and  C_26
REMARK    8  A    between atoms: C_23  and  C_27
REMARK    9  A    between atoms: C_23  and  C_28
REMARK                            x       y       z     vdW  Elec       q    Type
REMARK                         _______ _______ _______ _____ _____    ______ ____
ROOT
ATOM      1  C   UNL     1       6.883  33.946  76.551  0.00  0.00    +0.000 C 
ATOM      2  O   UNL     1       6.392  34.634  75.656  0.00  0.00    +0.000 OA
ATOM      3  N   UNL     1       6.144  33.612  77.690  0.00  0.00    +0.000 N 
ATOM      4  C   UNL     1       4.666  33.852  77.807  0.00  0.00    +0.000 C 
ATOM      5  C   UNL     1       6.612  32.776  78.837  0.00  0.00    +0.000 C 
ATOM      6  C   UNL     1       4.529  33.849  79.373  0.00  0.00    +0.000 C 
ATOM      7  C   UNL     1       5.464  32.746  79.841  0.00  0.00    +0.000 C 
ENDROOT
BRANCH   1  13
ATOM      8  C   UNL     1      10.958  32.796  75.759  0.00  0.00    +0.000 A 
ATOM      9  C   UNL     1       9.945  31.826  75.828  0.00  0.00    +0.000 A 
ATOM     10  C   UNL     1      10.641  34.119  76.079  0.00  0.00    +0.000 A 
ATOM     11  C   UNL     1       8.625  32.209  76.121  0.00  0.00    +0.000 A 
ATOM     12  C   UNL     1       9.351  34.475  76.463  0.00  0.00    +0.000 A 
ATOM     13  C   UNL     1       8.312  33.548  76.372  0.00  0.00    +0.000 A 
BRANCH   8  15
ATOM     14  F   UNL     1      13.329  33.092  76.058  0.00  0.00    +0.000 F 
ATOM     15  C   UNL     1      12.367  32.466  75.327  0.00  0.00    +0.000 C 
ATOM     16  F   UNL     1      12.599  32.807  74.028  0.00  0.00    +0.000 F 
ATOM     17  F   UNL     1      12.632  31.133  75.412  0.00  0.00    +0.000 F 
ENDBRANCH   8  15
ENDBRANCH   1  13
BRANCH   5  18
ATOM     18  C   UNL     1       7.916  33.200  79.419  0.00  0.00    +0.000 A 
ATOM     19  O   UNL     1       8.103  34.516  79.716  0.00  0.00    +0.000 OA
ATOM     20  C   UNL     1       9.057  32.479  79.720  0.00  0.00    +0.000 A 
ATOM     21  C   UNL     1       9.401  34.645  80.107  0.00  0.00    +0.000 A 
ATOM     22  C   UNL     1      10.028  33.421  80.120  0.00  0.00    +0.000 A 
ENDBRANCH   5  18
BRANCH   4  23
ATOM     23  C   UNL     1       3.971  35.186  77.381  0.00  0.00    +0.000 C 
ATOM     24  O   UNL     1       3.157  35.243  76.465  0.00  0.00    +0.000 OA
ATOM     25  O   UNL     1       4.420  36.320  77.946  0.00  0.00    +0.000 OA
ENDBRANCH   4  23
BRANCH   7  26
ATOM     26  C   UNL     1       5.842  32.773  81.303  0.00  0.00    +0.000 C 
ATOM     27  O   UNL     1       6.233  31.771  81.886  0.00  0.00    +0.000 OA
ATOM     28  O   UNL     1       5.755  33.964  81.924  0.00  0.00    +0.000 OA
ENDBRANCH   7  26
BRANCH   4  29
ATOM     29  C   UNL     1       3.785  32.663  77.278  0.00  0.00    +0.000 C 
BRANCH  29  30
ATOM     30  C   UNL     1       4.369  31.265  76.969  0.00  0.00    +0.000 C 
ATOM     31  C   UNL     1       3.417  30.102  77.235  0.00  0.00    +0.000 C 
ATOM     32  C   UNL     1       4.727  31.229  75.472  0.00  0.00    +0.000 C 
ENDBRANCH  29  30
ENDBRANCH   4  29
TORSDOF 7
ENDMDL
MODEL 3
REMARK VINA RESULT:      -6.8      4.080      6.492
REMARK  Name = 
REMARK  9 active torsions:
REMARK  status: ('A' for Active; 'I' for Inactive)
REMARK    1  A    between atoms: C_2  and  C_5
REMARK    2  A    between atoms: C_10  and  C_11
REMARK    3  A    between atoms: C_14  and  C_16
REMARK    4  A    between atoms: C_14  and  C_18
REMARK    5  A    between atoms: C_15  and  C_19
REMARK    6  A    between atoms: C_18  and  C_23
REMARK    7  A    between atoms: C_20  and  C_26
REMARK    8  A    between atoms: C_23  and  C_27
REMARK    9  A    between atoms: C_23  and  C_28
REMARK                            x       y       z     vdW  Elec       q    Type
REMARK                         _______ _______ _______ _____ _____    ______ ____
ROOT
ATOM      1  C   UNL     1       5.303  33.484  79.672  0.00  0.00    +0.000 C 
ATOM      2  O   UNL     1       4.177  33.970  79.786  0.00  0.00    +0.000 OA
ATOM      3  N   UNL     1       6.328  34.183  79.029  0.00  0.00    +0.000 N 
ATOM      4  C   UNL     1       6.217  35.631  78.645  0.00  0.00    +0.000 C 
ATOM      5  C   UNL     1       7.735  33.717  78.837  0.00  0.00    +0.000 C 
ATOM      6  C   UNL     1       7.314  35.684  77.521  0.00  0.00    +0.000 C 
ATOM      7  C   UNL     1       8.443  34.808  78.040  0.00  0.00    +0.000 C 
ENDROOT
BRANCH   1  13
ATOM      8  C   UNL     1       6.017  29.453  81.012  0.00  0.00    +0.000 A 
ATOM      9  C   UNL     1       5.144  29.703  79.942  0.00  0.00    +0.000 A 
ATOM     10  C   UNL     1       6.545  30.540  81.714  0.00  0.00    +0.000 A 
ATOM     11  C   UNL     1       4.892  31.024  79.535  0.00  0.00    +0.000 A 
ATOM     12  C   UNL     1       6.214  31.847  81.366  0.00  0.00    +0.000 A 
ATOM     13  C   UNL     1       5.483  32.099  80.205  0.00  0.00    +0.000 A 
BRANCH   8  15
ATOM     14  F   UNL     1       7.417  27.528  80.648  0.00  0.00    +0.000 F 
ATOM     15  C   UNL     1       6.425  28.056  81.415  0.00  0.00    +0.000 C 
ATOM     16  F   UNL     1       5.387  27.176  81.345  0.00  0.00    +0.000 F 
ATOM     17  F   UNL     1       6.870  28.000  82.701  0.00  0.00    +0.000 F 
ENDBRANCH   8  15
ENDBRANCH   1  13
BRANCH   5  18
ATOM     18  C   UNL     1       7.859  32.355  78.245  0.00  0.00    +0.000 A 
ATOM     19  O   UNL     1       7.148  32.063  77.120  0.00  0.00    +0.000 OA
ATOM     20  C   UNL     1       8.588  31.251  78.646  0.00  0.00    +0.000 A 
ATOM     21  C   UNL     1       7.344  30.740  76.870  0.00  0.00    +0.000 A 
ATOM     22  C   UNL     1       8.216  30.197  77.784  0.00  0.00    +0.000 A 
ENDBRANCH   5  18
BRANCH   4  23
ATOM     23  C   UNL     1       4.956  36.248  77.956  0.00  0.00    +0.000 C 
ATOM     24  O   UNL     1       4.356  37.212  78.420  0.00  0.00    +0.000 OA
ATOM     25  O   UNL     1       4.440  35.580  76.910  0.00  0.00    +0.000 OA
ENDBRANCH   4  23
BRANCH   7  26
ATOM     26  C   UNL     1       9.454  34.352  77.016  0.00  0.00    +0.000 C 
ATOM     27  O   UNL     1      10.584  34.011  77.333  0.00  0.00    +0.000 OA
ATOM     28  O   UNL     1       9.035  34.310  75.737  0.00  0.00    +0.000 OA
ENDBRANCH   7  26
BRANCH   4  29
ATOM     29  C   UNL     1       6.682  36.624  79.771  0.00  0.00    +0.000 C 
BRANCH  29  30
ATOM     30  C   UNL     1       7.616  37.824  79.492  0.00  0.00    +0.000 C 
ATOM     31  C   UNL     1       7.017  39.189  79.820  0.00  0.00    +0.000 C 
ATOM     32  C   UNL     1       8.870  37.652  80.368  0.00  0.00    +0.000 C 
ENDBRANCH  29  30
ENDBRANCH   4  29
TORSDOF 7
ENDMDL
MODEL 4
REMARK VINA RESULT:      -6.8      1.784      2.401
REMARK  Name = 
REMARK  9 active torsions:
REMARK  status: ('A' for Active; 'I' for Inactive)
REMARK    1  A    between atoms: C_2  and  C_5
REMARK    2  A    between atoms: C_10  and  C_11
REMARK    3  A    between atoms: C_14  and  C_16
REMARK    4  A    between atoms: C_14  and  C_18
REMARK    5  A    between atoms: C_15  and  C_19
REMARK    6  A    between atoms: C_18  and  C_23
REMARK    7  A    between atoms: C_20  and  C_26
REMARK    8  A    between atoms: C_23  and  C_27
REMARK    9  A    between atoms: C_23  and  C_28
REMARK                            x       y       z     vdW  Elec       q    Type
REMARK                         _______ _______ _______ _____ _____    ______ ____
ROOT
ATOM      1  C   UNL     1       7.453  32.019  79.326  0.00  0.00    +0.000 C 
ATOM      2  O   UNL     1       7.502  31.038  80.070  0.00  0.00    +0.000 OA
ATOM      3  N   UNL     1       6.524  33.041  79.540  0.00  0.00    +0.000 N 
ATOM      4  C   UNL     1       5.695  33.145  80.788  0.00  0.00    +0.000 C 
ATOM      5  C   UNL     1       6.370  34.284  78.726  0.00  0.00    +0.000 C 
ATOM      6  C   UNL     1       4.521  34.037  80.242  0.00  0.00    +0.000 C 
ATOM      7  C   UNL     1       5.196  35.048  79.330  0.00  0.00    +0.000 C 
ENDROOT
BRANCH   1  13
ATOM      8  C   UNL     1      10.344  31.856  76.136  0.00  0.00    +0.000 A 
ATOM      9  C   UNL     1      10.466  32.809  77.160  0.00  0.00    +0.000 A 
ATOM     10  C   UNL     1       9.201  31.052  76.103  0.00  0.00    +0.000 A 
ATOM     11  C   UNL     1       9.499  32.875  78.176  0.00  0.00    +0.000 A 
ATOM     12  C   UNL     1       8.199  31.189  77.060  0.00  0.00    +0.000 A 
ATOM     13  C   UNL     1       8.396  32.016  78.166  0.00  0.00    +0.000 A 
BRANCH   8  15
ATOM     14  F   UNL     1      11.487  32.656  74.174  0.00  0.00    +0.000 F 
ATOM     15  C   UNL     1      11.412  31.651  75.088  0.00  0.00    +0.000 C 
ATOM     16  F   UNL     1      11.220  30.507  74.374  0.00  0.00    +0.000 F 
ATOM     17  F   UNL     1      12.655  31.541  75.635  0.00  0.00    +0.000 F 
ENDBRANCH   8  15
ENDBRANCH   1  13
BRANCH   5  18
ATOM     18  C   UNL     1       6.253  34.052  77.259  0.00  0.00    +0.000 A 
ATOM     19  O   UNL     1       5.359  33.126  76.812  0.00  0.00    +0.000 OA
ATOM     20  C   UNL     1       6.927  34.614  76.191  0.00  0.00    +0.000 A 
ATOM     21  C   UNL     1       5.544  33.025  75.468  0.00  0.00    +0.000 A 
ATOM     22  C   UNL     1       6.502  33.916  75.042  0.00  0.00    +0.000 A 
ENDBRANCH   5  18
BRANCH   4  23
ATOM     23  C   UNL     1       4.959  31.929  81.441  0.00  0.00    +0.000 C 
ATOM     24  O   UNL     1       5.248  31.504  82.554  0.00  0.00    +0.000 OA
ATOM     25  O   UNL     1       4.096  31.248  80.668  0.00  0.00    +0.000 OA
ENDBRANCH   4  23
BRANCH   7  26
ATOM     26  C   UNL     1       4.292  35.776  78.364  0.00  0.00    +0.000 C 
ATOM     27  O   UNL     1       3.252  35.278  77.954  0.00  0.00    +0.000 OA
ATOM     28  O   UNL     1       4.674  37.014  78.000  0.00  0.00    +0.000 OA
ENDBRANCH   7  26
BRANCH   4  29
ATOM     29  C   UNL     1       6.381  33.964  81.941  0.00  0.00    +0.000 C 
BRANCH  29  30
ATOM     30  C   UNL     1       7.894  33.867  82.246  0.00  0.00    +0.000 C 
ATOM     31  C   UNL     1       8.744  34.968  81.619  0.00  0.00    +0.000 C 
ATOM     32  C   UNL     1       8.068  33.967  83.773  0.00  0.00    +0.000 C 
ENDBRANCH  29  30
ENDBRANCH   4  29
TORSDOF 7
ENDMDL
MODEL 5
REMARK VINA RESULT:      -6.7      2.941      4.380
REMARK  Name = 
REMARK  9 active torsions:
REMARK  status: ('A' for Active; 'I' for Inactive)
REMARK    1  A    between atoms: C_2  and  C_5
REMARK    2  A    between atoms: C_10  and  C_11
REMARK    3  A    between atoms: C_14  and  C_16
REMARK    4  A    between atoms: C_14  and  C_18
REMARK    5  A    between atoms: C_15  and  C_19
REMARK    6  A    between atoms: C_18  and  C_23
REMARK    7  A    between atoms: C_20  and  C_26
REMARK    8  A    between atoms: C_23  and  C_27
REMARK    9  A    between atoms: C_23  and  C_28
REMARK                            x       y       z     vdW  Elec       q    Type
REMARK                         _______ _______ _______ _____ _____    ______ ____
ROOT
ATOM      1  C   UNL     1       8.610  34.410  79.129  0.00  0.00    +0.000 C 
ATOM      2  O   UNL     1       9.271  34.443  80.168  0.00  0.00    +0.000 OA
ATOM      3  N   UNL     1       7.332  34.971  79.069  0.00  0.00    +0.000 N 
ATOM      4  C   UNL     1       6.768  35.841  80.155  0.00  0.00    +0.000 C 
ATOM      5  C   UNL     1       6.436  35.011  77.873  0.00  0.00    +0.000 C 
ATOM      6  C   UNL     1       5.235  35.675  79.847  0.00  0.00    +0.000 C 
ATOM      7  C   UNL     1       5.143  35.680  78.330  0.00  0.00    +0.000 C 
ENDROOT
BRANCH   1  13
ATOM      8  C   UNL     1      10.648  32.399  75.909  0.00  0.00    +0.000 A 
ATOM      9  C   UNL     1      10.455  33.789  75.872  0.00  0.00    +0.000 A 
ATOM     10  C   UNL     1      10.054  31.668  76.942  0.00  0.00    +0.000 A 
ATOM     11  C   UNL     1       9.760  34.430  76.910  0.00  0.00    +0.000 A 
ATOM     12  C   UNL     1       9.284  32.298  77.916  0.00  0.00    +0.000 A 
ATOM     13  C   UNL     1       9.230  33.691  77.973  0.00  0.00    +0.000 A 
BRANCH   8  15
ATOM     14  F   UNL     1      11.564  32.296  73.685  0.00  0.00    +0.000 F 
ATOM     15  C   UNL     1      11.492  31.670  74.891  0.00  0.00    +0.000 C 
ATOM     16  F   UNL     1      11.024  30.416  74.637  0.00  0.00    +0.000 F 
ATOM     17  F   UNL     1      12.778  31.506  75.311  0.00  0.00    +0.000 F 
ENDBRANCH   8  15
ENDBRANCH   1  13
BRANCH   5  18
ATOM     18  C   UNL     1       6.236  33.694  77.207  0.00  0.00    +0.000 A 
ATOM     19  O   UNL     1       5.883  32.621  77.969  0.00  0.00    +0.000 OA
ATOM     20  C   UNL     1       6.361  33.315  75.883  0.00  0.00    +0.000 A 
ATOM     21  C   UNL     1       5.890  31.540  77.143  0.00  0.00    +0.000 A 
ATOM     22  C   UNL     1       6.184  31.915  75.853  0.00  0.00    +0.000 A 
ENDBRANCH   5  18
BRANCH   4  23
ATOM     23  C   UNL     1       6.875  35.501  81.678  0.00  0.00    +0.000 C 
ATOM     24  O   UNL     1       6.617  34.388  82.125  0.00  0.00    +0.000 OA
ATOM     25  O   UNL     1       7.102  36.524  82.520  0.00  0.00    +0.000 OA
ENDBRANCH   4  23
BRANCH   7  26
ATOM     26  C   UNL     1       3.859  35.144  77.742  0.00  0.00    +0.000 C 
ATOM     27  O   UNL     1       3.499  35.433  76.610  0.00  0.00    +0.000 OA
ATOM     28  O   UNL     1       3.147  34.308  78.519  0.00  0.00    +0.000 OA
ENDBRANCH   7  26
BRANCH   4  29
ATOM     29  C   UNL     1       7.097  37.368  79.981  0.00  0.00    +0.000 C 
BRANCH  29  30
ATOM     30  C   UNL     1       8.540  37.895  79.807  0.00  0.00    +0.000 C 
ATOM     31  C   UNL     1       9.034  37.937  78.363  0.00  0.00    +0.000 C 
ATOM     32  C   UNL     1       8.577  39.338  80.344  0.00  0.00    +0.000 C 
ENDBRANCH  29  30
ENDBRANCH   4  29
TORSDOF 7
ENDMDL
MODEL 6
REMARK VINA RESULT:      -6.7      1.831      4.512
REMARK  Name = 
REMARK  9 active torsions:
REMARK  status: ('A' for Active; 'I' for Inactive)
REMARK    1  A    between atoms: C_2  and  C_5
REMARK    2  A    between atoms: C_10  and  C_11
REMARK    3  A    between atoms: C_14  and  C_16
REMARK    4  A    between atoms: C_14  and  C_18
REMARK    5  A    between atoms: C_15  and  C_19
REMARK    6  A    between atoms: C_18  and  C_23
REMARK    7  A    between atoms: C_20  and  C_26
REMARK    8  A    between atoms: C_23  and  C_27
REMARK    9  A    between atoms: C_23  and  C_28
REMARK                            x       y       z     vdW  Elec       q    Type
REMARK                         _______ _______ _______ _____ _____    ______ ____
ROOT
ATOM      1  C   UNL     1       5.759  32.985  77.867  0.00  0.00    +0.000 C 
ATOM      2  O   UNL     1       4.988  33.859  77.468  0.00  0.00    +0.000 OA
ATOM      3  N   UNL     1       5.420  32.162  78.945  0.00  0.00    +0.000 N 
ATOM      4  C   UNL     1       4.040  32.114  79.536  0.00  0.00    +0.000 C 
ATOM      5  C   UNL     1       6.253  31.061  79.517  0.00  0.00    +0.000 C 
ATOM      6  C   UNL     1       4.389  31.541  80.957  0.00  0.00    +0.000 C 
ATOM      7  C   UNL     1       5.470  30.503  80.701  0.00  0.00    +0.000 C 
ENDROOT
BRANCH   1  13
ATOM      8  C   UNL     1       9.681  32.669  76.115  0.00  0.00    +0.000 A 
ATOM      9  C   UNL     1       9.294  33.839  76.785  0.00  0.00    +0.000 A 
ATOM     10  C   UNL     1       8.730  31.664  75.916  0.00  0.00    +0.000 A 
ATOM     11  C   UNL     1       8.000  33.945  77.323  0.00  0.00    +0.000 A 
ATOM     12  C   UNL     1       7.422  31.816  76.367  0.00  0.00    +0.000 A 
ATOM     13  C   UNL     1       7.081  32.902  77.174  0.00  0.00    +0.000 A 
BRANCH   8  15
ATOM     14  F   UNL     1      11.424  33.191  74.538  0.00  0.00    +0.000 F 
ATOM     15  C   UNL     1      11.093  32.445  75.626  0.00  0.00    +0.000 C 
ATOM     16  F   UNL     1      11.316  31.147  75.274  0.00  0.00    +0.000 F 
ATOM     17  F   UNL     1      12.020  32.733  76.581  0.00  0.00    +0.000 F 
ENDBRANCH   8  15
ENDBRANCH   1  13
BRANCH   5  18
ATOM     18  C   UNL     1       7.653  31.451  79.843  0.00  0.00    +0.000 A 
ATOM     19  O   UNL     1       7.864  32.584  80.571  0.00  0.00    +0.000 OA
ATOM     20  C   UNL     1       8.861  30.863  79.520  0.00  0.00    +0.000 A 
ATOM     21  C   UNL     1       9.211  32.770  80.616  0.00  0.00    +0.000 A 
ATOM     22  C   UNL     1       9.865  31.742  79.979  0.00  0.00    +0.000 A 
ENDBRANCH   5  18
BRANCH   4  23
ATOM     23  C   UNL     1       3.190  33.388  79.853  0.00  0.00    +0.000 C 
ATOM     24  O   UNL     1       3.521  34.207  80.703  0.00  0.00    +0.000 OA
ATOM     25  O   UNL     1       1.981  33.478  79.273  0.00  0.00    +0.000 OA
ENDBRANCH   4  23
BRANCH   7  26
ATOM     26  C   UNL     1       6.276  30.074  81.904  0.00  0.00    +0.000 C 
ATOM     27  O   UNL     1       6.310  30.742  82.928  0.00  0.00    +0.000 OA
ATOM     28  O   UNL     1       6.930  28.903  81.801  0.00  0.00    +0.000 OA
ENDBRANCH   7  26
BRANCH   4  29
ATOM     29  C   UNL     1       3.092  31.064  78.850  0.00  0.00    +0.000 C 
BRANCH  29  30
ATOM     30  C   UNL     1       3.242  30.646  77.370  0.00  0.00    +0.000 C 
ATOM     31  C   UNL     1       4.052  29.372  77.145  0.00  0.00    +0.000 C 
ATOM     32  C   UNL     1       1.830  30.395  76.810  0.00  0.00    +0.000 C 
ENDBRANCH  29  30
ENDBRANCH   4  29
TORSDOF 7
ENDMDL
MODEL 7
REMARK VINA RESULT:      -6.4      2.239      4.202
REMARK  Name = 
REMARK  9 active torsions:
REMARK  status: ('A' for Active; 'I' for Inactive)
REMARK    1  A    between atoms: C_2  and  C_5
REMARK    2  A    between atoms: C_10  and  C_11
REMARK    3  A    between atoms: C_14  and  C_16
REMARK    4  A    between atoms: C_14  and  C_18
REMARK    5  A    between atoms: C_15  and  C_19
REMARK    6  A    between atoms: C_18  and  C_23
REMARK    7  A    between atoms: C_20  and  C_26
REMARK    8  A    between atoms: C_23  and  C_27
REMARK    9  A    between atoms: C_23  and  C_28
REMARK                            x       y       z     vdW  Elec       q    Type
REMARK                         _______ _______ _______ _____ _____    ______ ____
ROOT
ATOM      1  C   UNL     1       5.848  33.863  79.988  0.00  0.00    +0.000 C 
ATOM      2  O   UNL     1       5.710  34.556  80.996  0.00  0.00    +0.000 OA
ATOM      3  N   UNL     1       4.965  32.816  79.707  0.00  0.00    +0.000 N 
ATOM      4  C   UNL     1       3.680  32.606  80.455  0.00  0.00    +0.000 C 
ATOM      5  C   UNL     1       5.010  31.912  78.518  0.00  0.00    +0.000 C 
ATOM      6  C   UNL     1       3.449  31.082  80.146  0.00  0.00    +0.000 C 
ATOM      7  C   UNL     1       3.872  30.913  78.696  0.00  0.00    +0.000 C 
ENDROOT
BRANCH   1  13
ATOM      8  C   UNL     1       9.270  34.475  77.445  0.00  0.00    +0.000 A 
ATOM      9  C   UNL     1       9.434  34.013  78.760  0.00  0.00    +0.000 A 
ATOM     10  C   UNL     1       7.993  34.855  77.022  0.00  0.00    +0.000 A 
ATOM     11  C   UNL     1       8.314  33.849  79.592  0.00  0.00    +0.000 A 
ATOM     12  C   UNL     1       6.902  34.781  77.884  0.00  0.00    +0.000 A 
ATOM     13  C   UNL     1       7.033  34.169  79.131  0.00  0.00    +0.000 A 
BRANCH   8  15
ATOM     14  F   UNL     1      11.591  34.067  76.949  0.00  0.00    +0.000 F 
ATOM     15  C   UNL     1      10.416  34.552  76.464  0.00  0.00    +0.000 C 
ATOM     16  F   UNL     1      10.672  35.832  76.071  0.00  0.00    +0.000 F 
ATOM     17  F   UNL     1      10.162  33.858  75.320  0.00  0.00    +0.000 F 
ENDBRANCH   8  15
ENDBRANCH   1  13
BRANCH   5  18
ATOM     18  C   UNL     1       6.338  31.282  78.271  0.00  0.00    +0.000 A 
ATOM     19  O   UNL     1       6.971  30.663  79.307  0.00  0.00    +0.000 OA
ATOM     20  C   UNL     1       7.114  31.210  77.130  0.00  0.00    +0.000 A 
ATOM     21  C   UNL     1       8.197  30.293  78.846  0.00  0.00    +0.000 A 
ATOM     22  C   UNL     1       8.333  30.613  77.516  0.00  0.00    +0.000 A 
ENDBRANCH   5  18
BRANCH   4  23
ATOM     23  C   UNL     1       3.563  32.686  82.012  0.00  0.00    +0.000 C 
ATOM     24  O   UNL     1       2.909  33.554  82.581  0.00  0.00    +0.000 OA
ATOM     25  O   UNL     1       4.346  31.861  82.729  0.00  0.00    +0.000 OA
ENDBRANCH   4  23
BRANCH   7  26
ATOM     26  C   UNL     1       4.135  29.497  78.242  0.00  0.00    +0.000 C 
ATOM     27  O   UNL     1       4.329  28.591  79.040  0.00  0.00    +0.000 OA
ATOM     28  O   UNL     1       4.115  29.278  76.915  0.00  0.00    +0.000 OA
ENDBRANCH   7  26
BRANCH   4  29
ATOM     29  C   UNL     1       2.455  33.377  79.843  0.00  0.00    +0.000 C 
BRANCH  29  30
ATOM     30  C   UNL     1       2.531  34.862  79.421  0.00  0.00    +0.000 C 
ATOM     31  C   UNL     1       2.938  35.093  77.968  0.00  0.00    +0.000 C 
ATOM     32  C   UNL     1       1.129  35.472  79.604  0.00  0.00    +0.000 C 
ENDBRANCH  29  30
ENDBRANCH   4  29
TORSDOF 7
ENDMDL
MODEL 8
REMARK VINA RESULT:      -6.3      3.836      6.256
REMARK  Name = 
REMARK  9 active torsions:
REMARK  status: ('A' for Active; 'I' for Inactive)
REMARK    1  A    between atoms: C_2  and  C_5
REMARK    2  A    between atoms: C_10  and  C_11
REMARK    3  A    between atoms: C_14  and  C_16
REMARK    4  A    between atoms: C_14  and  C_18
REMARK    5  A    between atoms: C_15  and  C_19
REMARK    6  A    between atoms: C_18  and  C_23
REMARK    7  A    between atoms: C_20  and  C_26
REMARK    8  A    between atoms: C_23  and  C_27
REMARK    9  A    between atoms: C_23  and  C_28
REMARK                            x       y       z     vdW  Elec       q    Type
REMARK                         _______ _______ _______ _____ _____    ______ ____
ROOT
ATOM      1  C   UNL     1       6.753  35.275  77.474  0.00  0.00    +0.000 C 
ATOM      2  O   UNL     1       6.050  35.499  76.488  0.00  0.00    +0.000 OA
ATOM      3  N   UNL     1       7.081  33.968  77.843  0.00  0.00    +0.000 N 
ATOM      4  C   UNL     1       6.813  32.778  76.968  0.00  0.00    +0.000 C 
ATOM      5  C   UNL     1       7.933  33.561  79.002  0.00  0.00    +0.000 C 
ATOM      6  C   UNL     1       6.823  31.647  78.061  0.00  0.00    +0.000 C 
ATOM      7  C   UNL     1       7.947  32.035  79.008  0.00  0.00    +0.000 C 
ENDROOT
BRANCH   1  13
ATOM      8  C   UNL     1       7.991  38.547  79.988  0.00  0.00    +0.000 A 
ATOM      9  C   UNL     1       6.641  38.170  79.924  0.00  0.00    +0.000 A 
ATOM     10  C   UNL     1       8.901  37.928  79.126  0.00  0.00    +0.000 A 
ATOM     11  C   UNL     1       6.243  37.124  79.075  0.00  0.00    +0.000 A 
ATOM     12  C   UNL     1       8.483  36.959  78.218  0.00  0.00    +0.000 A 
ATOM     13  C   UNL     1       7.178  36.468  78.268  0.00  0.00    +0.000 A 
BRANCH   8  15
ATOM     14  F   UNL     1       7.729  39.701  82.085  0.00  0.00    +0.000 F 
ATOM     15  C   UNL     1       8.500  39.575  80.970  0.00  0.00    +0.000 C 
ATOM     16  F   UNL     1       8.573  40.820  80.420  0.00  0.00    +0.000 F 
ATOM     17  F   UNL     1       9.758  39.291  81.409  0.00  0.00    +0.000 F 
ENDBRANCH   8  15
ENDBRANCH   1  13
BRANCH   5  18
ATOM     18  C   UNL     1       7.538  34.169  80.303  0.00  0.00    +0.000 A 
ATOM     19  O   UNL     1       6.234  34.097  80.691  0.00  0.00    +0.000 OA
ATOM     20  C   UNL     1       8.278  34.853  81.250  0.00  0.00    +0.000 A 
ATOM     21  C   UNL     1       6.128  34.828  81.833  0.00  0.00    +0.000 A 
ATOM     22  C   UNL     1       7.356  35.317  82.213  0.00  0.00    +0.000 A 
ENDBRANCH   5  18
BRANCH   4  23
ATOM     23  C   UNL     1       5.462  32.546  76.214  0.00  0.00    +0.000 C 
ATOM     24  O   UNL     1       5.365  32.628  74.994  0.00  0.00    +0.000 OA
ATOM     25  O   UNL     1       4.355  32.414  76.965  0.00  0.00    +0.000 OA
ENDBRANCH   4  23
BRANCH   7  26
ATOM     26  C   UNL     1       7.938  31.363  80.359  0.00  0.00    +0.000 C 
ATOM     27  O   UNL     1       6.927  30.845  80.814  0.00  0.00    +0.000 OA
ATOM     28  O   UNL     1       9.107  31.335  81.024  0.00  0.00    +0.000 OA
ENDBRANCH   7  26
BRANCH   4  29
ATOM     29  C   UNL     1       7.981  32.446  75.970  0.00  0.00    +0.000 C 
BRANCH  29  30
ATOM     30  C   UNL     1       9.467  32.706  76.310  0.00  0.00    +0.000 C 
ATOM     31  C   UNL     1      10.444  31.702  75.704  0.00  0.00    +0.000 C 
ATOM     32  C   UNL     1       9.836  34.095  75.757  0.00  0.00    +0.000 C 
ENDBRANCH  29  30
ENDBRANCH   4  29
TORSDOF 7
ENDMDL
MODEL 9
REMARK VINA RESULT:      -6.2      1.365      1.870
REMARK  Name = 
REMARK  9 active torsions:
REMARK  status: ('A' for Active; 'I' for Inactive)
REMARK    1  A    between atoms: C_2  and  C_5
REMARK    2  A    between atoms: C_10  and  C_11
REMARK    3  A    between atoms: C_14  and  C_16
REMARK    4  A    between atoms: C_14  and  C_18
REMARK    5  A    between atoms: C_15  and  C_19
REMARK    6  A    between atoms: C_18  and  C_23
REMARK    7  A    between atoms: C_20  and  C_26
REMARK    8  A    between atoms: C_23  and  C_27
REMARK    9  A    between atoms: C_23  and  C_28
REMARK                            x       y       z     vdW  Elec       q    Type
REMARK                         _______ _______ _______ _____ _____    ______ ____
ROOT
ATOM      1  C   UNL     1       6.954  30.972  77.700  0.00  0.00    +0.000 C 
ATOM      2  O   UNL     1       6.839  29.857  77.191  0.00  0.00    +0.000 OA
ATOM      3  N   UNL     1       5.955  31.494  78.527  0.00  0.00    +0.000 N 
ATOM      4  C   UNL     1       4.806  30.674  79.041  0.00  0.00    +0.000 C 
ATOM      5  C   UNL     1       5.976  32.820  79.215  0.00  0.00    +0.000 C 
ATOM      6  C   UNL     1       3.791  31.829  79.365  0.00  0.00    +0.000 C 
ATOM      7  C   UNL     1       4.645  32.941  79.951  0.00  0.00    +0.000 C 
ENDROOT
BRANCH   1  13
ATOM      8  C   UNL     1      10.625  32.947  76.615  0.00  0.00    +0.000 A 
ATOM      9  C   UNL     1      10.410  32.521  77.935  0.00  0.00    +0.000 A 
ATOM     10  C   UNL     1       9.579  32.835  75.695  0.00  0.00    +0.000 A 
ATOM     11  C   UNL     1       9.195  31.909  78.285  0.00  0.00    +0.000 A 
ATOM     12  C   UNL     1       8.344  32.316  76.074  0.00  0.00    +0.000 A 
ATOM     13  C   UNL     1       8.182  31.742  77.336  0.00  0.00    +0.000 A 
BRANCH   8  15
ATOM     14  F   UNL     1      12.913  33.511  77.111  0.00  0.00    +0.000 F 
ATOM     15  C   UNL     1      11.953  33.496  76.148  0.00  0.00    +0.000 C 
ATOM     16  F   UNL     1      11.850  34.778  75.699  0.00  0.00    +0.000 F 
ATOM     17  F   UNL     1      12.468  32.781  75.109  0.00  0.00    +0.000 F 
ENDBRANCH   8  15
ENDBRANCH   1  13
BRANCH   5  18
ATOM     18  C   UNL     1       6.285  33.973  78.324  0.00  0.00    +0.000 A 
ATOM     19  O   UNL     1       5.602  34.095  77.151  0.00  0.00    +0.000 OA
ATOM     20  C   UNL     1       7.198  35.004  78.451  0.00  0.00    +0.000 A 
ATOM     21  C   UNL     1       6.160  35.144  76.486  0.00  0.00    +0.000 A 
ATOM     22  C   UNL     1       7.148  35.729  77.242  0.00  0.00    +0.000 A 
ENDBRANCH   5  18
BRANCH   4  23
ATOM     23  C   UNL     1       3.975  29.696  78.147  0.00  0.00    +0.000 C 
ATOM     24  O   UNL     1       3.297  30.081  77.201  0.00  0.00    +0.000 OA
ATOM     25  O   UNL     1       3.891  28.417  78.552  0.00  0.00    +0.000 OA
ENDBRANCH   4  23
BRANCH   7  26
ATOM     26  C   UNL     1       4.014  34.313  79.988  0.00  0.00    +0.000 C 
ATOM     27  O   UNL     1       3.089  34.617  79.248  0.00  0.00    +0.000 OA
ATOM     28  O   UNL     1       4.502  35.173  80.900  0.00  0.00    +0.000 OA
ENDBRANCH   7  26
BRANCH   4  29
ATOM     29  C   UNL     1       5.104  29.944  80.400  0.00  0.00    +0.000 C 
BRANCH  29  30
ATOM     30  C   UNL     1       6.540  29.663  80.899  0.00  0.00    +0.000 C 
ATOM     31  C   UNL     1       6.861  30.234  82.278  0.00  0.00    +0.000 C 
ATOM     32  C   UNL     1       6.713  28.135  80.986  0.00  0.00    +0.000 C 
ENDBRANCH  29  30
ENDBRANCH   4  29
TORSDOF 7
ENDMDL
