MODEL 1
REMARK VINA RESULT:      -8.2      0.000      0.000
REMARK  Name = 
REMARK  8 active torsions:
REMARK  status: ('A' for Active; 'I' for Inactive)
REMARK    1  A    between atoms: C_2  and  C_5
REMARK    2  A    between atoms: C_10  and  C_11
REMARK    3  A    between atoms: C_14  and  C_16
REMARK    4  A    between atoms: C_14  and  C_18
REMARK    5  A    between atoms: C_15  and  C_19
REMARK    6  A    between atoms: C_18  and  C_23
REMARK    7  A    between atoms: C_20  and  C_26
REMARK    8  A    between atoms: C_23  and  C_27
REMARK                            x       y       z     vdW  Elec       q    Type
REMARK                         _______ _______ _______ _____ _____    ______ ____
ROOT
ATOM      1  C   UNL     1       7.208  32.224  76.865  0.00  0.00    +0.000 C 
ATOM      2  O   UNL     1       6.321  32.459  76.039  0.00  0.00    +0.000 OA
ATOM      3  N   UNL     1       6.839  31.829  78.187  0.00  0.00    +0.000 N 
ATOM      4  C   UNL     1       7.727  31.767  79.398  0.00  0.00    +0.000 C 
ATOM      5  C   UNL     1       5.471  32.261  78.637  0.00  0.00    +0.000 C 
ATOM      6  C   UNL     1       6.735  31.395  80.511  0.00  0.00    +0.000 C 
ATOM      7  C   UNL     1       5.469  32.150  80.178  0.00  0.00    +0.000 C 
ENDROOT
BRANCH   1  13
ATOM      8  C   UNL     1      11.343  32.907  75.615  0.00  0.00    +0.000 A 
ATOM      9  C   UNL     1      10.463  33.968  75.854  0.00  0.00    +0.000 A 
ATOM     10  C   UNL     1      10.858  31.615  75.743  0.00  0.00    +0.000 A 
ATOM     11  C   UNL     1       9.126  33.724  76.239  0.00  0.00    +0.000 A 
ATOM     12  C   UNL     1       9.531  31.394  76.089  0.00  0.00    +0.000 A 
ATOM     13  C   UNL     1       8.634  32.415  76.388  0.00  0.00    +0.000 A 
BRANCH   8  15
ATOM     14  F   UNL     1      12.966  33.477  73.933  0.00  0.00    +0.000 F 
ATOM     15  C   UNL     1      12.785  33.065  75.213  0.00  0.00    +0.000 C 
ATOM     16  F   UNL     1      13.478  31.894  75.340  0.00  0.00    +0.000 F 
ATOM     17  F   UNL     1      13.439  33.961  76.005  0.00  0.00    +0.000 F 
ENDBRANCH   8  15
ENDBRANCH   1  13
BRANCH   5  18
ATOM     18  C   UNL     1       4.254  31.606  78.027  0.00  0.00    +0.000 A 
ATOM     19  C   UNL     1       4.216  30.265  77.637  0.00  0.00    +0.000 A 
ATOM     20  C   UNL     1       3.054  32.349  78.024  0.00  0.00    +0.000 A 
ATOM     21  C   UNL     1       2.990  29.659  77.349  0.00  0.00    +0.000 A 
ATOM     22  C   UNL     1       1.834  31.743  77.730  0.00  0.00    +0.000 A 
ATOM     23  C   UNL     1       1.801  30.390  77.419  0.00  0.00    +0.000 A 
ENDBRANCH   5  18
BRANCH   4  24
ATOM     24  C   UNL     1       8.664  30.525  79.518  0.00  0.00    +0.000 C 
ATOM     25  O   UNL     1       9.886  30.582  79.521  0.00  0.00    +0.000 OA
ATOM     26  O   UNL     1       8.008  29.350  79.681  0.00  0.00    +0.000 OA
ENDBRANCH   4  24
BRANCH   7  27
ATOM     27  C   UNL     1       4.301  31.530  80.922  0.00  0.00    +0.000 C 
ATOM     28  O   UNL     1       3.418  32.215  81.419  0.00  0.00    +0.000 OA
ATOM     29  O   UNL     1       4.334  30.194  81.104  0.00  0.00    +0.000 OA
ENDBRANCH   7  27
BRANCH   4  30
ATOM     30  C   UNL     1       8.355  33.169  79.656  0.00  0.00    +0.000 C 
BRANCH  30  31
ATOM     31  C   UNL     1       8.780  33.436  81.095  0.00  0.00    +0.000 C 
BRANCH  31  32
ATOM     32  C   UNL     1       9.571  34.709  81.261  0.00  0.00    +0.000 C 
ATOM     33  O   UNL     1      10.469  34.886  82.068  0.00  0.00    +0.000 OA
ATOM     34  O   UNL     1       9.152  35.665  80.399  0.00  0.00    +0.000 OA
ENDBRANCH  31  32
ENDBRANCH  30  31
ENDBRANCH   4  30
TORSDOF 8
ENDMDL
MODEL 2
REMARK VINA RESULT:      -7.6      2.696      5.456
REMARK  Name = 
REMARK  8 active torsions:
REMARK  status: ('A' for Active; 'I' for Inactive)
REMARK    1  A    between atoms: C_2  and  C_5
REMARK    2  A    between atoms: C_10  and  C_11
REMARK    3  A    between atoms: C_14  and  C_16
REMARK    4  A    between atoms: C_14  and  C_18
REMARK    5  A    between atoms: C_15  and  C_19
REMARK    6  A    between atoms: C_18  and  C_23
REMARK    7  A    between atoms: C_20  and  C_26
REMARK    8  A    between atoms: C_23  and  C_27
REMARK                            x       y       z     vdW  Elec       q    Type
REMARK                         _______ _______ _______ _____ _____    ______ ____
ROOT
ATOM      1  C   UNL     1       8.670  34.677  78.326  0.00  0.00    +0.000 C 
ATOM      2  O   UNL     1       9.333  35.306  79.155  0.00  0.00    +0.000 OA
ATOM      3  N   UNL     1       7.244  34.759  78.369  0.00  0.00    +0.000 N 
ATOM      4  C   UNL     1       6.261  33.878  77.652  0.00  0.00    +0.000 C 
ATOM      5  C   UNL     1       6.655  35.122  79.704  0.00  0.00    +0.000 C 
ATOM      6  C   UNL     1       4.915  34.386  78.190  0.00  0.00    +0.000 C 
ATOM      7  C   UNL     1       5.167  34.706  79.646  0.00  0.00    +0.000 C 
ENDROOT
BRANCH   1  13
ATOM      8  C   UNL     1      11.066  32.367  75.489  0.00  0.00    +0.000 A 
ATOM      9  C   UNL     1      10.904  33.751  75.357  0.00  0.00    +0.000 A 
ATOM     10  C   UNL     1      10.407  31.728  76.526  0.00  0.00    +0.000 A 
ATOM     11  C   UNL     1      10.111  34.474  76.275  0.00  0.00    +0.000 A 
ATOM     12  C   UNL     1       9.603  32.451  77.399  0.00  0.00    +0.000 A 
ATOM     13  C   UNL     1       9.455  33.833  77.342  0.00  0.00    +0.000 A 
BRANCH   8  15
ATOM     14  F   UNL     1      12.123  32.059  73.349  0.00  0.00    +0.000 F 
ATOM     15  C   UNL     1      11.899  31.512  74.570  0.00  0.00    +0.000 C 
ATOM     16  F   UNL     1      11.318  30.297  74.345  0.00  0.00    +0.000 F 
ATOM     17  F   UNL     1      13.123  31.237  75.102  0.00  0.00    +0.000 F 
ENDBRANCH   8  15
ENDBRANCH   1  13
BRANCH   5  18
ATOM     18  C   UNL     1       6.821  36.530  80.225  0.00  0.00    +0.000 A 
ATOM     19  C   UNL     1       7.150  36.827  81.551  0.00  0.00    +0.000 A 
ATOM     20  C   UNL     1       6.816  37.575  79.277  0.00  0.00    +0.000 A 
ATOM     21  C   UNL     1       7.562  38.117  81.893  0.00  0.00    +0.000 A 
ATOM     22  C   UNL     1       7.221  38.862  79.624  0.00  0.00    +0.000 A 
ATOM     23  C   UNL     1       7.620  39.124  80.927  0.00  0.00    +0.000 A 
ENDBRANCH   5  18
BRANCH   4  24
ATOM     24  C   UNL     1       6.019  34.182  76.141  0.00  0.00    +0.000 C 
ATOM     25  O   UNL     1       6.876  34.082  75.273  0.00  0.00    +0.000 OA
ATOM     26  O   UNL     1       4.741  34.518  75.841  0.00  0.00    +0.000 OA
ENDBRANCH   4  24
BRANCH   7  27
ATOM     27  C   UNL     1       4.072  35.620  80.160  0.00  0.00    +0.000 C 
ATOM     28  O   UNL     1       3.628  35.518  81.295  0.00  0.00    +0.000 OA
ATOM     29  O   UNL     1       3.534  36.485  79.276  0.00  0.00    +0.000 OA
ENDBRANCH   7  27
BRANCH   4  30
ATOM     30  C   UNL     1       6.498  32.393  78.058  0.00  0.00    +0.000 C 
BRANCH  30  31
ATOM     31  C   UNL     1       5.376  31.430  77.690  0.00  0.00    +0.000 C 
BRANCH  31  32
ATOM     32  C   UNL     1       5.673  30.600  76.468  0.00  0.00    +0.000 C 
ATOM     33  O   UNL     1       6.530  29.734  76.390  0.00  0.00    +0.000 OA
ATOM     34  O   UNL     1       4.870  30.940  75.433  0.00  0.00    +0.000 OA
ENDBRANCH  31  32
ENDBRANCH  30  31
ENDBRANCH   4  30
TORSDOF 8
ENDMDL
MODEL 3
REMARK VINA RESULT:      -7.3      2.113      5.003
REMARK  Name = 
REMARK  8 active torsions:
REMARK  status: ('A' for Active; 'I' for Inactive)
REMARK    1  A    between atoms: C_2  and  C_5
REMARK    2  A    between atoms: C_10  and  C_11
REMARK    3  A    between atoms: C_14  and  C_16
REMARK    4  A    between atoms: C_14  and  C_18
REMARK    5  A    between atoms: C_15  and  C_19
REMARK    6  A    between atoms: C_18  and  C_23
REMARK    7  A    between atoms: C_20  and  C_26
REMARK    8  A    between atoms: C_23  and  C_27
REMARK                            x       y       z     vdW  Elec       q    Type
REMARK                         _______ _______ _______ _____ _____    ______ ____
ROOT
ATOM      1  C   UNL     1       8.505  33.395  78.290  0.00  0.00    +0.000 C 
ATOM      2  O   UNL     1       9.072  33.528  79.378  0.00  0.00    +0.000 OA
ATOM      3  N   UNL     1       7.086  33.539  78.222  0.00  0.00    +0.000 N 
ATOM      4  C   UNL     1       6.186  33.151  77.083  0.00  0.00    +0.000 C 
ATOM      5  C   UNL     1       6.345  33.284  79.506  0.00  0.00    +0.000 C 
ATOM      6  C   UNL     1       4.790  33.440  77.656  0.00  0.00    +0.000 C 
ATOM      7  C   UNL     1       4.871  33.038  79.111  0.00  0.00    +0.000 C 
ENDROOT
BRANCH   1  13
ATOM      8  C   UNL     1      11.185  32.526  74.944  0.00  0.00    +0.000 A 
ATOM      9  C   UNL     1      10.874  33.839  75.314  0.00  0.00    +0.000 A 
ATOM     10  C   UNL     1      10.585  31.491  75.642  0.00  0.00    +0.000 A 
ATOM     11  C   UNL     1       9.992  34.096  76.386  0.00  0.00    +0.000 A 
ATOM     12  C   UNL     1       9.692  31.763  76.672  0.00  0.00    +0.000 A 
ATOM     13  C   UNL     1       9.393  33.049  77.111  0.00  0.00    +0.000 A 
BRANCH   8  15
ATOM     14  F   UNL     1      13.241  31.500  74.229  0.00  0.00    +0.000 F 
ATOM     15  C   UNL     1      12.121  32.152  73.826  0.00  0.00    +0.000 C 
ATOM     16  F   UNL     1      12.546  33.249  73.132  0.00  0.00    +0.000 F 
ATOM     17  F   UNL     1      11.518  31.351  72.903  0.00  0.00    +0.000 F 
ENDBRANCH   8  15
ENDBRANCH   1  13
BRANCH   5  18
ATOM     18  C   UNL     1       6.462  34.281  80.635  0.00  0.00    +0.000 A 
ATOM     19  C   UNL     1       6.686  33.915  81.965  0.00  0.00    +0.000 A 
ATOM     20  C   UNL     1       6.523  35.647  80.286  0.00  0.00    +0.000 A 
ATOM     21  C   UNL     1       7.062  34.884  82.898  0.00  0.00    +0.000 A 
ATOM     22  C   UNL     1       6.892  36.612  81.222  0.00  0.00    +0.000 A 
ATOM     23  C   UNL     1       7.188  36.224  82.521  0.00  0.00    +0.000 A 
ENDBRANCH   5  18
BRANCH   4  24
ATOM     24  C   UNL     1       6.129  34.130  75.870  0.00  0.00    +0.000 C 
ATOM     25  O   UNL     1       5.854  33.794  74.726  0.00  0.00    +0.000 OA
ATOM     26  O   UNL     1       6.356  35.426  76.193  0.00  0.00    +0.000 OA
ENDBRANCH   4  24
BRANCH   7  27
ATOM     27  C   UNL     1       3.732  33.681  79.878  0.00  0.00    +0.000 C 
ATOM     28  O   UNL     1       3.243  33.154  80.867  0.00  0.00    +0.000 OA
ATOM     29  O   UNL     1       3.208  34.811  79.358  0.00  0.00    +0.000 OA
ENDBRANCH   7  27
BRANCH   4  30
ATOM     30  C   UNL     1       6.359  31.633  76.775  0.00  0.00    +0.000 C 
BRANCH  30  31
ATOM     31  C   UNL     1       5.078  30.894  76.409  0.00  0.00    +0.000 C 
BRANCH  31  32
ATOM     32  C   UNL     1       4.797  29.706  77.294  0.00  0.00    +0.000 C 
ATOM     33  O   UNL     1       3.966  28.839  77.075  0.00  0.00    +0.000 OA
ATOM     34  O   UNL     1       5.583  29.715  78.395  0.00  0.00    +0.000 OA
ENDBRANCH  31  32
ENDBRANCH  30  31
ENDBRANCH   4  30
TORSDOF 8
ENDMDL
MODEL 4
REMARK VINA RESULT:      -7.2      3.390      5.548
REMARK  Name = 
REMARK  8 active torsions:
REMARK  status: ('A' for Active; 'I' for Inactive)
REMARK    1  A    between atoms: C_2  and  C_5
REMARK    2  A    between atoms: C_10  and  C_11
REMARK    3  A    between atoms: C_14  and  C_16
REMARK    4  A    between atoms: C_14  and  C_18
REMARK    5  A    between atoms: C_15  and  C_19
REMARK    6  A    between atoms: C_18  and  C_23
REMARK    7  A    between atoms: C_20  and  C_26
REMARK    8  A    between atoms: C_23  and  C_27
REMARK                            x       y       z     vdW  Elec       q    Type
REMARK                         _______ _______ _______ _____ _____    ______ ____
ROOT
ATOM      1  C   UNL     1       5.718  34.285  79.677  0.00  0.00    +0.000 C 
ATOM      2  O   UNL     1       4.971  33.944  80.598  0.00  0.00    +0.000 OA
ATOM      3  N   UNL     1       5.740  33.509  78.477  0.00  0.00    +0.000 N 
ATOM      4  C   UNL     1       6.751  33.580  77.368  0.00  0.00    +0.000 C 
ATOM      5  C   UNL     1       5.308  32.076  78.621  0.00  0.00    +0.000 C 
ATOM      6  C   UNL     1       6.301  32.438  76.443  0.00  0.00    +0.000 C 
ATOM      7  C   UNL     1       5.839  31.338  77.371  0.00  0.00    +0.000 C 
ENDROOT
BRANCH   1  13
ATOM      8  C   UNL     1       8.357  37.706  80.352  0.00  0.00    +0.000 A 
ATOM      9  C   UNL     1       8.719  36.412  80.742  0.00  0.00    +0.000 A 
ATOM     10  C   UNL     1       7.110  37.891  79.778  0.00  0.00    +0.000 A 
ATOM     11  C   UNL     1       7.843  35.324  80.530  0.00  0.00    +0.000 A 
ATOM     12  C   UNL     1       6.247  36.815  79.610  0.00  0.00    +0.000 A 
ATOM     13  C   UNL     1       6.582  35.503  79.931  0.00  0.00    +0.000 A 
BRANCH   8  15
ATOM     14  F   UNL     1      10.168  38.807  81.491  0.00  0.00    +0.000 F 
ATOM     15  C   UNL     1       9.225  38.925  80.523  0.00  0.00    +0.000 C 
ATOM     16  F   UNL     1       8.487  40.030  80.840  0.00  0.00    +0.000 F 
ATOM     17  F   UNL     1       9.885  39.246  79.376  0.00  0.00    +0.000 F 
ENDBRANCH   8  15
ENDBRANCH   1  13
BRANCH   5  18
ATOM     18  C   UNL     1       3.852  31.767  78.877  0.00  0.00    +0.000 A 
ATOM     19  C   UNL     1       2.809  32.275  78.097  0.00  0.00    +0.000 A 
ATOM     20  C   UNL     1       3.560  30.778  79.840  0.00  0.00    +0.000 A 
ATOM     21  C   UNL     1       1.527  31.731  78.211  0.00  0.00    +0.000 A 
ATOM     22  C   UNL     1       2.279  30.242  79.955  0.00  0.00    +0.000 A 
ATOM     23  C   UNL     1       1.270  30.701  79.120  0.00  0.00    +0.000 A 
ENDBRANCH   5  18
BRANCH   4  24
ATOM     24  C   UNL     1       6.599  34.754  76.353  0.00  0.00    +0.000 C 
ATOM     25  O   UNL     1       6.958  35.903  76.570  0.00  0.00    +0.000 OA
ATOM     26  O   UNL     1       6.078  34.388  75.156  0.00  0.00    +0.000 OA
ENDBRANCH   4  24
BRANCH   7  27
ATOM     27  C   UNL     1       4.969  30.362  76.604  0.00  0.00    +0.000 C 
ATOM     28  O   UNL     1       4.831  29.201  76.964  0.00  0.00    +0.000 OA
ATOM     29  O   UNL     1       4.435  30.800  75.445  0.00  0.00    +0.000 OA
ENDBRANCH   7  27
BRANCH   4  30
ATOM     30  C   UNL     1       8.174  33.305  77.941  0.00  0.00    +0.000 C 
BRANCH  30  31
ATOM     31  C   UNL     1       9.315  33.439  76.941  0.00  0.00    +0.000 C 
BRANCH  31  32
ATOM     32  C   UNL     1      10.038  32.143  76.676  0.00  0.00    +0.000 C 
ATOM     33  O   UNL     1       9.579  31.186  76.073  0.00  0.00    +0.000 OA
ATOM     34  O   UNL     1      11.282  32.154  77.208  0.00  0.00    +0.000 OA
ENDBRANCH  31  32
ENDBRANCH  30  31
ENDBRANCH   4  30
TORSDOF 8
ENDMDL
MODEL 5
REMARK VINA RESULT:      -7.1      2.135      2.823
REMARK  Name = 
REMARK  8 active torsions:
REMARK  status: ('A' for Active; 'I' for Inactive)
REMARK    1  A    between atoms: C_2  and  C_5
REMARK    2  A    between atoms: C_10  and  C_11
REMARK    3  A    between atoms: C_14  and  C_16
REMARK    4  A    between atoms: C_14  and  C_18
REMARK    5  A    between atoms: C_15  and  C_19
REMARK    6  A    between atoms: C_18  and  C_23
REMARK    7  A    between atoms: C_20  and  C_26
REMARK    8  A    between atoms: C_23  and  C_27
REMARK                            x       y       z     vdW  Elec       q    Type
REMARK                         _______ _______ _______ _____ _____    ______ ____
ROOT
ATOM      1  C   UNL     1       7.137  32.727  76.979  0.00  0.00    +0.000 C 
ATOM      2  O   UNL     1       6.344  32.044  76.326  0.00  0.00    +0.000 OA
ATOM      3  N   UNL     1       6.683  33.373  78.170  0.00  0.00    +0.000 N 
ATOM      4  C   UNL     1       7.387  34.451  78.945  0.00  0.00    +0.000 C 
ATOM      5  C   UNL     1       5.205  33.641  78.240  0.00  0.00    +0.000 C 
ATOM      6  C   UNL     1       6.354  34.803  80.026  0.00  0.00    +0.000 C 
ATOM      7  C   UNL     1       5.014  34.716  79.334  0.00  0.00    +0.000 C 
ENDROOT
BRANCH   1  13
ATOM      8  C   UNL     1      11.156  32.907  75.264  0.00  0.00    +0.000 A 
ATOM      9  C   UNL     1      10.610  31.706  75.729  0.00  0.00    +0.000 A 
ATOM     10  C   UNL     1      10.405  34.063  75.399  0.00  0.00    +0.000 A 
ATOM     11  C   UNL     1       9.316  31.674  76.296  0.00  0.00    +0.000 A 
ATOM     12  C   UNL     1       9.148  34.018  75.992  0.00  0.00    +0.000 A 
ATOM     13  C   UNL     1       8.541  32.842  76.419  0.00  0.00    +0.000 A 
BRANCH   8  15
ATOM     14  F   UNL     1      12.570  33.907  73.593  0.00  0.00    +0.000 F 
ATOM     15  C   UNL     1      12.518  33.040  74.635  0.00  0.00    +0.000 C 
ATOM     16  F   UNL     1      12.975  31.843  74.161  0.00  0.00    +0.000 F 
ATOM     17  F   UNL     1      13.455  33.457  75.532  0.00  0.00    +0.000 F 
ENDBRANCH   8  15
ENDBRANCH   1  13
BRANCH   5  18
ATOM     18  C   UNL     1       4.253  32.482  78.422  0.00  0.00    +0.000 A 
ATOM     19  C   UNL     1       4.499  31.414  79.289  0.00  0.00    +0.000 A 
ATOM     20  C   UNL     1       2.983  32.588  77.817  0.00  0.00    +0.000 A 
ATOM     21  C   UNL     1       3.464  30.534  79.618  0.00  0.00    +0.000 A 
ATOM     22  C   UNL     1       1.956  31.704  78.142  0.00  0.00    +0.000 A 
ATOM     23  C   UNL     1       2.191  30.694  79.064  0.00  0.00    +0.000 A 
ENDBRANCH   5  18
BRANCH   4  24
ATOM     24  C   UNL     1       8.543  33.995  79.888  0.00  0.00    +0.000 C 
ATOM     25  O   UNL     1       9.706  33.857  79.535  0.00  0.00    +0.000 OA
ATOM     26  O   UNL     1       8.167  33.814  81.177  0.00  0.00    +0.000 OA
ENDBRANCH   4  24
BRANCH   7  27
ATOM     27  C   UNL     1       3.915  34.597  80.373  0.00  0.00    +0.000 C 
ATOM     28  O   UNL     1       2.803  35.072  80.192  0.00  0.00    +0.000 OA
ATOM     29  O   UNL     1       4.250  34.034  81.552  0.00  0.00    +0.000 OA
ENDBRANCH   7  27
BRANCH   4  30
ATOM     30  C   UNL     1       7.657  35.671  78.014  0.00  0.00    +0.000 C 
BRANCH  30  31
ATOM     31  C   UNL     1       7.924  36.989  78.730  0.00  0.00    +0.000 C 
BRANCH  31  32
ATOM     32  C   UNL     1       6.773  37.959  78.648  0.00  0.00    +0.000 C 
ATOM     33  O   UNL     1       5.872  37.924  77.825  0.00  0.00    +0.000 OA
ATOM     34  O   UNL     1       6.860  38.908  79.609  0.00  0.00    +0.000 OA
ENDBRANCH  31  32
ENDBRANCH  30  31
ENDBRANCH   4  30
TORSDOF 8
ENDMDL
MODEL 6
REMARK VINA RESULT:      -7.0      4.328      7.705
REMARK  Name = 
REMARK  8 active torsions:
REMARK  status: ('A' for Active; 'I' for Inactive)
REMARK    1  A    between atoms: C_2  and  C_5
REMARK    2  A    between atoms: C_10  and  C_11
REMARK    3  A    between atoms: C_14  and  C_16
REMARK    4  A    between atoms: C_14  and  C_18
REMARK    5  A    between atoms: C_15  and  C_19
REMARK    6  A    between atoms: C_18  and  C_23
REMARK    7  A    between atoms: C_20  and  C_26
REMARK    8  A    between atoms: C_23  and  C_27
REMARK                            x       y       z     vdW  Elec       q    Type
REMARK                         _______ _______ _______ _____ _____    ______ ____
ROOT
ATOM      1  C   UNL     1       8.441  32.015  77.905  0.00  0.00    +0.000 C 
ATOM      2  O   UNL     1       9.215  31.060  78.016  0.00  0.00    +0.000 OA
ATOM      3  N   UNL     1       8.839  33.146  77.128  0.00  0.00    +0.000 N 
ATOM      4  C   UNL     1       8.186  34.499  77.091  0.00  0.00    +0.000 C 
ATOM      5  C   UNL     1      10.322  33.343  76.979  0.00  0.00    +0.000 C 
ATOM      6  C   UNL     1       9.133  35.293  76.179  0.00  0.00    +0.000 C 
ATOM      7  C   UNL     1      10.520  34.809  76.533  0.00  0.00    +0.000 C 
ENDROOT
BRANCH   1  13
ATOM      8  C   UNL     1       4.609  31.540  79.959  0.00  0.00    +0.000 A 
ATOM      9  C   UNL     1       4.718  31.416  78.570  0.00  0.00    +0.000 A 
ATOM     10  C   UNL     1       5.749  31.864  80.677  0.00  0.00    +0.000 A 
ATOM     11  C   UNL     1       5.963  31.591  77.925  0.00  0.00    +0.000 A 
ATOM     12  C   UNL     1       6.958  32.067  80.022  0.00  0.00    +0.000 A 
ATOM     13  C   UNL     1       7.127  31.902  78.651  0.00  0.00    +0.000 A 
BRANCH   8  15
ATOM     14  F   UNL     1       2.859  30.089  80.747  0.00  0.00    +0.000 F 
ATOM     15  C   UNL     1       3.332  31.360  80.737  0.00  0.00    +0.000 C 
ATOM     16  F   UNL     1       2.325  32.139  80.242  0.00  0.00    +0.000 F 
ATOM     17  F   UNL     1       3.473  31.732  82.040  0.00  0.00    +0.000 F 
ENDBRANCH   8  15
ENDBRANCH   1  13
BRANCH   5  18
ATOM     18  C   UNL     1      11.110  32.385  76.116  0.00  0.00    +0.000 A 
ATOM     19  C   UNL     1      10.543  31.638  75.080  0.00  0.00    +0.000 A 
ATOM     20  C   UNL     1      12.514  32.391  76.260  0.00  0.00    +0.000 A 
ATOM     21  C   UNL     1      11.368  30.997  74.152  0.00  0.00    +0.000 A 
ATOM     22  C   UNL     1      13.333  31.745  75.336  0.00  0.00    +0.000 A 
ATOM     23  C   UNL     1      12.759  31.072  74.268  0.00  0.00    +0.000 A 
ENDBRANCH   5  18
BRANCH   4  24
ATOM     24  C   UNL     1       6.892  34.630  76.229  0.00  0.00    +0.000 C 
ATOM     25  O   UNL     1       5.956  35.368  76.500  0.00  0.00    +0.000 OA
ATOM     26  O   UNL     1       6.906  33.889  75.094  0.00  0.00    +0.000 OA
ENDBRANCH   4  24
BRANCH   7  27
ATOM     27  C   UNL     1      11.482  35.171  75.418  0.00  0.00    +0.000 C 
ATOM     28  O   UNL     1      11.269  34.855  74.256  0.00  0.00    +0.000 OA
ATOM     29  O   UNL     1      12.637  35.767  75.779  0.00  0.00    +0.000 OA
ENDBRANCH   7  27
BRANCH   4  30
ATOM     30  C   UNL     1       8.157  35.103  78.527  0.00  0.00    +0.000 C 
BRANCH  30  31
ATOM     31  C   UNL     1       8.258  36.622  78.595  0.00  0.00    +0.000 C 
BRANCH  31  32
ATOM     32  C   UNL     1       7.059  37.276  79.235  0.00  0.00    +0.000 C 
ATOM     33  O   UNL     1       6.682  37.098  80.381  0.00  0.00    +0.000 OA
ATOM     34  O   UNL     1       6.423  38.095  78.366  0.00  0.00    +0.000 OA
ENDBRANCH  31  32
ENDBRANCH  30  31
ENDBRANCH   4  30
TORSDOF 8
ENDMDL
MODEL 7
REMARK VINA RESULT:      -7.0      4.172      6.851
REMARK  Name = 
REMARK  8 active torsions:
REMARK  status: ('A' for Active; 'I' for Inactive)
REMARK    1  A    between atoms: C_2  and  C_5
REMARK    2  A    between atoms: C_10  and  C_11
REMARK    3  A    between atoms: C_14  and  C_16
REMARK    4  A    between atoms: C_14  and  C_18
REMARK    5  A    between atoms: C_15  and  C_19
REMARK    6  A    between atoms: C_18  and  C_23
REMARK    7  A    between atoms: C_20  and  C_26
REMARK    8  A    between atoms: C_23  and  C_27
REMARK                            x       y       z     vdW  Elec       q    Type
REMARK                         _______ _______ _______ _____ _____    ______ ____
ROOT
ATOM      1  C   UNL     1       8.600  35.530  78.332  0.00  0.00    +0.000 C 
ATOM      2  O   UNL     1       8.827  35.452  77.122  0.00  0.00    +0.000 OA
ATOM      3  N   UNL     1       8.662  34.346  79.129  0.00  0.00    +0.000 N 
ATOM      4  C   UNL     1       8.160  34.169  80.535  0.00  0.00    +0.000 C 
ATOM      5  C   UNL     1       8.444  33.054  78.392  0.00  0.00    +0.000 C 
ATOM      6  C   UNL     1       8.406  32.673  80.782  0.00  0.00    +0.000 C 
ATOM      7  C   UNL     1       8.095  31.999  79.466  0.00  0.00    +0.000 C 
ENDROOT
BRANCH   1  13
ATOM      8  C   UNL     1       7.377  39.433  79.884  0.00  0.00    +0.000 A 
ATOM      9  C   UNL     1       6.559  38.697  79.018  0.00  0.00    +0.000 A 
ATOM     10  C   UNL     1       8.618  38.911  80.209  0.00  0.00    +0.000 A 
ATOM     11  C   UNL     1       6.982  37.447  78.515  0.00  0.00    +0.000 A 
ATOM     12  C   UNL     1       9.032  37.696  79.677  0.00  0.00    +0.000 A 
ATOM     13  C   UNL     1       8.234  36.904  78.857  0.00  0.00    +0.000 A 
BRANCH   8  15
ATOM     14  F   UNL     1       6.319  41.581  79.645  0.00  0.00    +0.000 F 
ATOM     15  C   UNL     1       7.010  40.766  80.480  0.00  0.00    +0.000 C 
ATOM     16  F   UNL     1       8.116  41.466  80.871  0.00  0.00    +0.000 F 
ATOM     17  F   UNL     1       6.252  40.629  81.604  0.00  0.00    +0.000 F 
ENDBRANCH   8  15
ENDBRANCH   1  13
BRANCH   5  18
ATOM     18  C   UNL     1       9.511  32.557  77.445  0.00  0.00    +0.000 A 
ATOM     19  C   UNL     1       9.234  31.809  76.297  0.00  0.00    +0.000 A 
ATOM     20  C   UNL     1      10.826  33.028  77.647  0.00  0.00    +0.000 A 
ATOM     21  C   UNL     1      10.225  31.628  75.329  0.00  0.00    +0.000 A 
ATOM     22  C   UNL     1      11.813  32.839  76.683  0.00  0.00    +0.000 A 
ATOM     23  C   UNL     1      11.503  32.162  75.512  0.00  0.00    +0.000 A 
ENDBRANCH   5  18
BRANCH   4  24
ATOM     24  C   UNL     1       9.061  34.730  81.678  0.00  0.00    +0.000 C 
ATOM     25  O   UNL     1      10.227  34.406  81.857  0.00  0.00    +0.000 OA
ATOM     26  O   UNL     1       8.461  35.673  82.444  0.00  0.00    +0.000 OA
ENDBRANCH   4  24
BRANCH   7  27
ATOM     27  C   UNL     1       8.720  30.617  79.445  0.00  0.00    +0.000 C 
ATOM     28  O   UNL     1       9.851  30.416  79.865  0.00  0.00    +0.000 OA
ATOM     29  O   UNL     1       8.014  29.637  78.846  0.00  0.00    +0.000 OA
ENDBRANCH   7  27
BRANCH   4  30
ATOM     30  C   UNL     1       6.639  34.500  80.590  0.00  0.00    +0.000 C 
BRANCH  30  31
ATOM     31  C   UNL     1       5.842  33.724  81.631  0.00  0.00    +0.000 C 
BRANCH  31  32
ATOM     32  C   UNL     1       4.791  32.823  81.033  0.00  0.00    +0.000 C 
ATOM     33  O   UNL     1       4.162  31.969  81.637  0.00  0.00    +0.000 OA
ATOM     34  O   UNL     1       4.627  33.066  79.712  0.00  0.00    +0.000 OA
ENDBRANCH  31  32
ENDBRANCH  30  31
ENDBRANCH   4  30
TORSDOF 8
ENDMDL
MODEL 8
REMARK VINA RESULT:      -6.8      3.789      6.019
REMARK  Name = 
REMARK  8 active torsions:
REMARK  status: ('A' for Active; 'I' for Inactive)
REMARK    1  A    between atoms: C_2  and  C_5
REMARK    2  A    between atoms: C_10  and  C_11
REMARK    3  A    between atoms: C_14  and  C_16
REMARK    4  A    between atoms: C_14  and  C_18
REMARK    5  A    between atoms: C_15  and  C_19
REMARK    6  A    between atoms: C_18  and  C_23
REMARK    7  A    between atoms: C_20  and  C_26
REMARK    8  A    between atoms: C_23  and  C_27
REMARK                            x       y       z     vdW  Elec       q    Type
REMARK                         _______ _______ _______ _____ _____    ______ ____
ROOT
ATOM      1  C   UNL     1       7.014  33.994  80.043  0.00  0.00    +0.000 C 
ATOM      2  O   UNL     1       6.806  33.248  81.003  0.00  0.00    +0.000 OA
ATOM      3  N   UNL     1       6.854  33.484  78.718  0.00  0.00    +0.000 N 
ATOM      4  C   UNL     1       7.314  34.121  77.437  0.00  0.00    +0.000 C 
ATOM      5  C   UNL     1       6.997  31.995  78.574  0.00  0.00    +0.000 C 
ATOM      6  C   UNL     1       6.961  33.049  76.395  0.00  0.00    +0.000 C 
ATOM      7  C   UNL     1       7.251  31.730  77.072  0.00  0.00    +0.000 C 
ENDROOT
BRANCH   1  13
ATOM      8  C   UNL     1       8.155  38.083  81.098  0.00  0.00    +0.000 A 
ATOM      9  C   UNL     1       6.859  37.768  80.675  0.00  0.00    +0.000 A 
ATOM     10  C   UNL     1       9.095  37.066  81.134  0.00  0.00    +0.000 A 
ATOM     11  C   UNL     1       6.517  36.444  80.322  0.00  0.00    +0.000 A 
ATOM     12  C   UNL     1       8.750  35.776  80.750  0.00  0.00    +0.000 A 
ATOM     13  C   UNL     1       7.463  35.403  80.375  0.00  0.00    +0.000 A 
BRANCH   8  15
ATOM     14  F   UNL     1       7.723  40.137  82.273  0.00  0.00    +0.000 F 
ATOM     15  C   UNL     1       8.612  39.459  81.505  0.00  0.00    +0.000 C 
ATOM     16  F   UNL     1       8.863  40.250  80.421  0.00  0.00    +0.000 F 
ATOM     17  F   UNL     1       9.780  39.421  82.205  0.00  0.00    +0.000 F 
ENDBRANCH   8  15
ENDBRANCH   1  13
BRANCH   5  18
ATOM     18  C   UNL     1       5.918  31.093  79.126  0.00  0.00    +0.000 A 
ATOM     19  C   UNL     1       4.553  31.313  78.922  0.00  0.00    +0.000 A 
ATOM     20  C   UNL     1       6.329  29.882  79.721  0.00  0.00    +0.000 A 
ATOM     21  C   UNL     1       3.634  30.301  79.213  0.00  0.00    +0.000 A 
ATOM     22  C   UNL     1       5.410  28.878  80.016  0.00  0.00    +0.000 A 
ATOM     23  C   UNL     1       4.066  29.079  79.736  0.00  0.00    +0.000 A 
ENDBRANCH   5  18
BRANCH   4  24
ATOM     24  C   UNL     1       6.431  35.275  76.870  0.00  0.00    +0.000 C 
ATOM     25  O   UNL     1       5.296  35.126  76.439  0.00  0.00    +0.000 OA
ATOM     26  O   UNL     1       7.006  36.500  76.946  0.00  0.00    +0.000 OA
ENDBRANCH   4  24
BRANCH   7  27
ATOM     27  C   UNL     1       6.533  30.615  76.336  0.00  0.00    +0.000 C 
ATOM     28  O   UNL     1       5.434  30.783  75.826  0.00  0.00    +0.000 OA
ATOM     29  O   UNL     1       7.112  29.397  76.359  0.00  0.00    +0.000 OA
ENDBRANCH   7  27
BRANCH   4  30
ATOM     30  C   UNL     1       8.854  34.356  77.495  0.00  0.00    +0.000 C 
BRANCH  30  31
ATOM     31  C   UNL     1       9.628  33.903  76.263  0.00  0.00    +0.000 C 
BRANCH  31  32
ATOM     32  C   UNL     1      10.920  33.199  76.591  0.00  0.00    +0.000 C 
ATOM     33  O   UNL     1      11.966  33.745  76.904  0.00  0.00    +0.000 OA
ATOM     34  O   UNL     1      10.790  31.856  76.485  0.00  0.00    +0.000 OA
ENDBRANCH  31  32
ENDBRANCH  30  31
ENDBRANCH   4  30
TORSDOF 8
ENDMDL
MODEL 9
REMARK VINA RESULT:      -6.5      4.023      6.870
REMARK  Name = 
REMARK  8 active torsions:
REMARK  status: ('A' for Active; 'I' for Inactive)
REMARK    1  A    between atoms: C_2  and  C_5
REMARK    2  A    between atoms: C_10  and  C_11
REMARK    3  A    between atoms: C_14  and  C_16
REMARK    4  A    between atoms: C_14  and  C_18
REMARK    5  A    between atoms: C_15  and  C_19
REMARK    6  A    between atoms: C_18  and  C_23
REMARK    7  A    between atoms: C_20  and  C_26
REMARK    8  A    between atoms: C_23  and  C_27
REMARK                            x       y       z     vdW  Elec       q    Type
REMARK                         _______ _______ _______ _____ _____    ______ ____
ROOT
ATOM      1  C   UNL     1       6.717  35.777  78.778  0.00  0.00    +0.000 C 
ATOM      2  O   UNL     1       6.588  36.889  78.258  0.00  0.00    +0.000 OA
ATOM      3  N   UNL     1       7.337  35.677  80.061  0.00  0.00    +0.000 N 
ATOM      4  C   UNL     1       7.834  34.429  80.736  0.00  0.00    +0.000 C 
ATOM      5  C   UNL     1       8.265  36.803  80.424  0.00  0.00    +0.000 C 
ATOM      6  C   UNL     1       8.489  34.986  82.009  0.00  0.00    +0.000 C 
ATOM      7  C   UNL     1       9.145  36.280  81.582  0.00  0.00    +0.000 C 
ENDROOT
BRANCH   1  13
ATOM      8  C   UNL     1       5.446  32.286  76.470  0.00  0.00    +0.000 A 
ATOM      9  C   UNL     1       6.735  32.817  76.348  0.00  0.00    +0.000 A 
ATOM     10  C   UNL     1       4.554  32.923  77.317  0.00  0.00    +0.000 A 
ATOM     11  C   UNL     1       7.118  33.956  77.090  0.00  0.00    +0.000 A 
ATOM     12  C   UNL     1       4.938  34.064  78.012  0.00  0.00    +0.000 A 
ATOM     13  C   UNL     1       6.222  34.597  77.966  0.00  0.00    +0.000 A 
BRANCH   8  15
ATOM     14  F   UNL     1       4.647  31.294  74.429  0.00  0.00    +0.000 F 
ATOM     15  C   UNL     1       4.949  31.071  75.733  0.00  0.00    +0.000 C 
ATOM     16  F   UNL     1       3.819  30.559  76.305  0.00  0.00    +0.000 F 
ATOM     17  F   UNL     1       5.857  30.056  75.752  0.00  0.00    +0.000 F 
ENDBRANCH   8  15
ENDBRANCH   1  13
BRANCH   5  18
ATOM     18  C   UNL     1       7.687  38.164  80.732  0.00  0.00    +0.000 A 
ATOM     19  C   UNL     1       6.561  38.359  81.537  0.00  0.00    +0.000 A 
ATOM     20  C   UNL     1       8.435  39.290  80.328  0.00  0.00    +0.000 A 
ATOM     21  C   UNL     1       6.254  39.638  82.006  0.00  0.00    +0.000 A 
ATOM     22  C   UNL     1       8.122  40.566  80.792  0.00  0.00    +0.000 A 
ATOM     23  C   UNL     1       7.047  40.734  81.654  0.00  0.00    +0.000 A 
ENDBRANCH   5  18
BRANCH   4  24
ATOM     24  C   UNL     1       6.762  33.526  81.419  0.00  0.00    +0.000 C 
ATOM     25  O   UNL     1       6.307  33.724  82.537  0.00  0.00    +0.000 OA
ATOM     26  O   UNL     1       6.316  32.511  80.641  0.00  0.00    +0.000 OA
ENDBRANCH   4  24
BRANCH   7  27
ATOM     27  C   UNL     1       9.426  37.131  82.805  0.00  0.00    +0.000 C 
ATOM     28  O   UNL     1       8.701  37.104  83.790  0.00  0.00    +0.000 OA
ATOM     29  O   UNL     1      10.454  38.001  82.720  0.00  0.00    +0.000 OA
ENDBRANCH   7  27
BRANCH   4  30
ATOM     30  C   UNL     1       8.890  33.731  79.826  0.00  0.00    +0.000 C 
BRANCH  30  31
ATOM     31  C   UNL     1       9.424  32.404  80.351  0.00  0.00    +0.000 C 
BRANCH  31  32
ATOM     32  C   UNL     1       9.577  31.353  79.281  0.00  0.00    +0.000 C 
ATOM     33  O   UNL     1       9.744  31.570  78.093  0.00  0.00    +0.000 OA
ATOM     34  O   UNL     1       9.492  30.106  79.801  0.00  0.00    +0.000 OA
ENDBRANCH  31  32
ENDBRANCH  30  31
ENDBRANCH   4  30
TORSDOF 8
ENDMDL
