MODEL 1
REMARK VINA RESULT:      -7.5      0.000      0.000
REMARK  Name = 
REMARK  9 active torsions:
REMARK  status: ('A' for Active; 'I' for Inactive)
REMARK    1  A    between atoms: C_2  and  C_5
REMARK    2  A    between atoms: C_8  and  C_11
REMARK    3  A    between atoms: C_9  and  C_14
REMARK    4  A    between atoms: C_10  and  C_15
REMARK    5  A    between atoms: C_10  and  C_16
REMARK    6  A    between atoms: C_16  and  C_23
REMARK    7  A    between atoms: C_23  and  C_26
REMARK    8  A    between atoms: C_23  and  C_27
REMARK    9  A    between atoms: C_28  and  C_29
REMARK                            x       y       z     vdW  Elec       q    Type
REMARK                         _______ _______ _______ _____ _____    ______ ____
ROOT
ATOM      1  C   UNL     1       7.153  33.273  78.846  0.00  0.00    +0.000 C 
ATOM      2  N   UNL     1       6.509  33.061  77.536  0.00  0.00    +0.000 N 
ATOM      3  C   UNL     1       6.238  32.510  79.784  0.00  0.00    +0.000 C 
ATOM      4  C   UNL     1       7.100  33.041  76.273  0.00  0.00    +0.000 C 
ATOM      5  C   UNL     1       5.019  32.914  77.712  0.00  0.00    +0.000 C 
ATOM      6  C   UNL     1       4.837  32.788  79.263  0.00  0.00    +0.000 C 
ATOM      7  O   UNL     1       6.395  33.051  75.267  0.00  0.00    +0.000 OA
ENDROOT
BRANCH   4   8
ATOM      8  C   UNL     1       8.584  33.040  76.075  0.00  0.00    +0.000 A 
ATOM      9  C   UNL     1       9.358  34.198  75.969  0.00  0.00    +0.000 A 
ATOM     10  C   UNL     1       9.244  31.803  76.042  0.00  0.00    +0.000 A 
ATOM     11  C   UNL     1      10.706  34.132  75.617  0.00  0.00    +0.000 A 
ATOM     12  C   UNL     1      10.619  31.733  75.788  0.00  0.00    +0.000 A 
ATOM     13  C   UNL     1      11.353  32.898  75.522  0.00  0.00    +0.000 A 
BRANCH  13  14
ATOM     14  C   UNL     1      12.825  32.832  75.194  0.00  0.00    +0.000 C 
ATOM     15  F   UNL     1      13.592  33.603  76.016  0.00  0.00    +0.000 F 
ATOM     16  F   UNL     1      13.320  31.569  75.298  0.00  0.00    +0.000 F 
ATOM     17  F   UNL     1      13.100  33.248  73.929  0.00  0.00    +0.000 F 
ENDBRANCH  13  14
ENDBRANCH   4   8
BRANCH   1  19
ATOM     18  S   UNL     1       8.844  35.400  79.538  0.00  0.00    +0.000 S 
ATOM     19  C   UNL     1       7.295  34.751  79.140  0.00  0.00    +0.000 A 
ATOM     20  C   UNL     1       8.132  36.929  79.803  0.00  0.00    +0.000 A 
ATOM     21  N   UNL     1       6.294  35.610  79.199  0.00  0.00    +0.000 NA
ATOM     22  C   UNL     1       6.779  36.857  79.563  0.00  0.00    +0.000 A 
ENDBRANCH   1  19
BRANCH   3  23
ATOM     23  C   UNL     1       6.561  32.716  81.238  0.00  0.00    +0.000 C 
ATOM     24  O   UNL     1       5.782  33.280  81.994  0.00  0.00    +0.000 OA
ATOM     25  O   UNL     1       7.728  32.204  81.678  0.00  0.00    +0.000 OA
ENDBRANCH   3  23
BRANCH   5  26
ATOM     26  C   UNL     1       4.285  34.210  77.232  0.00  0.00    +0.000 C 
ATOM     27  O   UNL     1       4.702  34.955  76.355  0.00  0.00    +0.000 OA
ATOM     28  O   UNL     1       3.158  34.518  77.917  0.00  0.00    +0.000 OA
ENDBRANCH   5  26
BRANCH   5  29
ATOM     29  C   UNL     1       4.359  31.696  76.980  0.00  0.00    +0.000 C 
BRANCH  29  30
ATOM     30  C   UNL     1       4.807  30.258  77.344  0.00  0.00    +0.000 C 
ATOM     31  C   UNL     1       3.615  29.292  77.257  0.00  0.00    +0.000 C 
ATOM     32  C   UNL     1       5.908  29.707  76.441  0.00  0.00    +0.000 C 
ENDBRANCH  29  30
ENDBRANCH   5  29
TORSDOF 7
ENDMDL
MODEL 2
REMARK VINA RESULT:      -7.4      1.551      2.037
REMARK  Name = 
REMARK  9 active torsions:
REMARK  status: ('A' for Active; 'I' for Inactive)
REMARK    1  A    between atoms: C_2  and  C_5
REMARK    2  A    between atoms: C_8  and  C_11
REMARK    3  A    between atoms: C_9  and  C_14
REMARK    4  A    between atoms: C_10  and  C_15
REMARK    5  A    between atoms: C_10  and  C_16
REMARK    6  A    between atoms: C_16  and  C_23
REMARK    7  A    between atoms: C_23  and  C_26
REMARK    8  A    between atoms: C_23  and  C_27
REMARK    9  A    between atoms: C_28  and  C_29
REMARK                            x       y       z     vdW  Elec       q    Type
REMARK                         _______ _______ _______ _____ _____    ______ ____
ROOT
ATOM      1  C   UNL     1       7.283  32.110  79.122  0.00  0.00    +0.000 C 
ATOM      2  N   UNL     1       6.541  32.796  78.048  0.00  0.00    +0.000 N 
ATOM      3  C   UNL     1       6.219  31.219  79.735  0.00  0.00    +0.000 C 
ATOM      4  C   UNL     1       7.031  33.305  76.845  0.00  0.00    +0.000 C 
ATOM      5  C   UNL     1       5.094  32.952  78.440  0.00  0.00    +0.000 C 
ATOM      6  C   UNL     1       4.958  32.069  79.727  0.00  0.00    +0.000 C 
ATOM      7  O   UNL     1       6.317  34.023  76.149  0.00  0.00    +0.000 OA
ENDROOT
BRANCH   4   8
ATOM      8  C   UNL     1       8.423  33.042  76.363  0.00  0.00    +0.000 A 
ATOM      9  C   UNL     1       8.931  31.767  76.106  0.00  0.00    +0.000 A 
ATOM     10  C   UNL     1       9.251  34.144  76.107  0.00  0.00    +0.000 A 
ATOM     11  C   UNL     1      10.283  31.575  75.822  0.00  0.00    +0.000 A 
ATOM     12  C   UNL     1      10.585  33.961  75.724  0.00  0.00    +0.000 A 
ATOM     13  C   UNL     1      11.128  32.671  75.628  0.00  0.00    +0.000 A 
BRANCH  13  14
ATOM     14  C   UNL     1      12.578  32.460  75.267  0.00  0.00    +0.000 C 
ATOM     15  F   UNL     1      12.880  32.865  74.001  0.00  0.00    +0.000 F 
ATOM     16  F   UNL     1      13.418  33.146  76.089  0.00  0.00    +0.000 F 
ATOM     17  F   UNL     1      12.953  31.155  75.340  0.00  0.00    +0.000 F 
ENDBRANCH  13  14
ENDBRANCH   4   8
BRANCH   1  19
ATOM     18  S   UNL     1       9.533  33.637  79.807  0.00  0.00    +0.000 S 
ATOM     19  C   UNL     1       7.908  33.114  80.067  0.00  0.00    +0.000 A 
ATOM     20  C   UNL     1       9.461  34.559  81.242  0.00  0.00    +0.000 A 
ATOM     21  N   UNL     1       7.332  33.588  81.156  0.00  0.00    +0.000 NA
ATOM     22  C   UNL     1       8.218  34.425  81.817  0.00  0.00    +0.000 A 
ENDBRANCH   1  19
BRANCH   3  23
ATOM     23  C   UNL     1       6.663  30.532  80.995  0.00  0.00    +0.000 C 
ATOM     24  O   UNL     1       7.702  29.887  81.042  0.00  0.00    +0.000 OA
ATOM     25  O   UNL     1       5.889  30.705  82.085  0.00  0.00    +0.000 OA
ENDBRANCH   3  23
BRANCH   5  26
ATOM     26  C   UNL     1       4.793  34.439  78.826  0.00  0.00    +0.000 C 
ATOM     27  O   UNL     1       5.653  35.282  79.045  0.00  0.00    +0.000 OA
ATOM     28  O   UNL     1       3.482  34.735  78.988  0.00  0.00    +0.000 OA
ENDBRANCH   5  26
BRANCH   5  29
ATOM     29  C   UNL     1       4.041  32.519  77.363  0.00  0.00    +0.000 C 
BRANCH  29  30
ATOM     30  C   UNL     1       4.080  31.075  76.801  0.00  0.00    +0.000 C 
ATOM     31  C   UNL     1       2.661  30.486  76.754  0.00  0.00    +0.000 C 
ATOM     32  C   UNL     1       4.662  30.978  75.393  0.00  0.00    +0.000 C 
ENDBRANCH  29  30
ENDBRANCH   5  29
TORSDOF 7
ENDMDL
MODEL 3
REMARK VINA RESULT:      -7.4      1.792      4.845
REMARK  Name = 
REMARK  9 active torsions:
REMARK  status: ('A' for Active; 'I' for Inactive)
REMARK    1  A    between atoms: C_2  and  C_5
REMARK    2  A    between atoms: C_8  and  C_11
REMARK    3  A    between atoms: C_9  and  C_14
REMARK    4  A    between atoms: C_10  and  C_15
REMARK    5  A    between atoms: C_10  and  C_16
REMARK    6  A    between atoms: C_16  and  C_23
REMARK    7  A    between atoms: C_23  and  C_26
REMARK    8  A    between atoms: C_23  and  C_27
REMARK    9  A    between atoms: C_28  and  C_29
REMARK                            x       y       z     vdW  Elec       q    Type
REMARK                         _______ _______ _______ _____ _____    ______ ____
ROOT
ATOM      1  C   UNL     1       6.957  34.031  77.331  0.00  0.00    +0.000 C 
ATOM      2  N   UNL     1       7.883  34.389  78.423  0.00  0.00    +0.000 N 
ATOM      3  C   UNL     1       5.845  35.048  77.502  0.00  0.00    +0.000 C 
ATOM      4  C   UNL     1       9.264  34.207  78.482  0.00  0.00    +0.000 C 
ATOM      5  C   UNL     1       7.112  34.965  79.583  0.00  0.00    +0.000 C 
ATOM      6  C   UNL     1       5.670  35.175  79.007  0.00  0.00    +0.000 C 
ATOM      7  O   UNL     1       9.859  34.378  79.543  0.00  0.00    +0.000 OA
ENDROOT
BRANCH   4   8
ATOM      8  C   UNL     1      10.075  33.775  77.300  0.00  0.00    +0.000 A 
ATOM      9  C   UNL     1      10.449  34.626  76.258  0.00  0.00    +0.000 A 
ATOM     10  C   UNL     1      10.526  32.448  77.260  0.00  0.00    +0.000 A 
ATOM     11  C   UNL     1      11.057  34.128  75.106  0.00  0.00    +0.000 A 
ATOM     12  C   UNL     1      11.225  31.964  76.148  0.00  0.00    +0.000 A 
ATOM     13  C   UNL     1      11.452  32.790  75.036  0.00  0.00    +0.000 A 
BRANCH  13  14
ATOM     14  C   UNL     1      12.159  32.267  73.809  0.00  0.00    +0.000 C 
ATOM     15  F   UNL     1      13.282  31.552  74.101  0.00  0.00    +0.000 F 
ATOM     16  F   UNL     1      11.369  31.438  73.074  0.00  0.00    +0.000 F 
ATOM     17  F   UNL     1      12.557  33.260  72.970  0.00  0.00    +0.000 F 
ENDBRANCH  13  14
ENDBRANCH   4   8
BRANCH   1  19
ATOM     18  S   UNL     1       7.241  31.400  76.403  0.00  0.00    +0.000 S 
ATOM     19  C   UNL     1       6.533  32.582  77.443  0.00  0.00    +0.000 A 
ATOM     20  C   UNL     1       6.208  30.210  77.060  0.00  0.00    +0.000 A 
ATOM     21  N   UNL     1       5.579  32.133  78.237  0.00  0.00    +0.000 NA
ATOM     22  C   UNL     1       5.407  30.774  78.027  0.00  0.00    +0.000 A 
ENDBRANCH   1  19
BRANCH   3  23
ATOM     23  C   UNL     1       4.657  34.792  76.619  0.00  0.00    +0.000 C 
ATOM     24  O   UNL     1       3.547  35.230  76.893  0.00  0.00    +0.000 OA
ATOM     25  O   UNL     1       4.882  34.100  75.483  0.00  0.00    +0.000 OA
ENDBRANCH   3  23
BRANCH   5  26
ATOM     26  C   UNL     1       7.031  33.925  80.751  0.00  0.00    +0.000 C 
ATOM     27  O   UNL     1       7.517  32.802  80.710  0.00  0.00    +0.000 OA
ATOM     28  O   UNL     1       6.301  34.320  81.820  0.00  0.00    +0.000 OA
ENDBRANCH   5  26
BRANCH   5  29
ATOM     29  C   UNL     1       7.667  36.304  80.178  0.00  0.00    +0.000 C 
BRANCH  29  30
ATOM     30  C   UNL     1       7.609  37.595  79.323  0.00  0.00    +0.000 C 
ATOM     31  C   UNL     1       7.473  38.827  80.232  0.00  0.00    +0.000 C 
ATOM     32  C   UNL     1       8.839  37.809  78.445  0.00  0.00    +0.000 C 
ENDBRANCH  29  30
ENDBRANCH   5  29
TORSDOF 7
ENDMDL
MODEL 4
REMARK VINA RESULT:      -7.1      2.248      4.788
REMARK  Name = 
REMARK  9 active torsions:
REMARK  status: ('A' for Active; 'I' for Inactive)
REMARK    1  A    between atoms: C_2  and  C_5
REMARK    2  A    between atoms: C_8  and  C_11
REMARK    3  A    between atoms: C_9  and  C_14
REMARK    4  A    between atoms: C_10  and  C_15
REMARK    5  A    between atoms: C_10  and  C_16
REMARK    6  A    between atoms: C_16  and  C_23
REMARK    7  A    between atoms: C_23  and  C_26
REMARK    8  A    between atoms: C_23  and  C_27
REMARK    9  A    between atoms: C_28  and  C_29
REMARK                            x       y       z     vdW  Elec       q    Type
REMARK                         _______ _______ _______ _____ _____    ______ ____
ROOT
ATOM      1  C   UNL     1       6.796  32.757  78.499  0.00  0.00    +0.000 C 
ATOM      2  N   UNL     1       7.785  32.060  79.344  0.00  0.00    +0.000 N 
ATOM      3  C   UNL     1       5.990  33.537  79.519  0.00  0.00    +0.000 C 
ATOM      4  C   UNL     1       9.070  31.639  79.006  0.00  0.00    +0.000 C 
ATOM      5  C   UNL     1       7.193  31.778  80.701  0.00  0.00    +0.000 C 
ATOM      6  C   UNL     1       5.856  32.594  80.704  0.00  0.00    +0.000 C 
ATOM      7  O   UNL     1       9.690  30.897  79.764  0.00  0.00    +0.000 OA
ENDROOT
BRANCH   4   8
ATOM      8  C   UNL     1       9.738  32.028  77.723  0.00  0.00    +0.000 A 
ATOM      9  C   UNL     1       9.557  31.353  76.515  0.00  0.00    +0.000 A 
ATOM     10  C   UNL     1      10.554  33.168  77.725  0.00  0.00    +0.000 A 
ATOM     11  C   UNL     1      10.335  31.658  75.398  0.00  0.00    +0.000 A 
ATOM     12  C   UNL     1      11.262  33.541  76.576  0.00  0.00    +0.000 A 
ATOM     13  C   UNL     1      11.197  32.757  75.414  0.00  0.00    +0.000 A 
BRANCH  13  14
ATOM     14  C   UNL     1      11.996  33.118  74.186  0.00  0.00    +0.000 C 
ATOM     15  F   UNL     1      13.336  33.193  74.420  0.00  0.00    +0.000 F 
ATOM     16  F   UNL     1      11.843  32.208  73.186  0.00  0.00    +0.000 F 
ATOM     17  F   UNL     1      11.640  34.322  73.664  0.00  0.00    +0.000 F 
ENDBRANCH  13  14
ENDBRANCH   4   8
BRANCH   1  19
ATOM     18  S   UNL     1       5.761  32.061  75.988  0.00  0.00    +0.000 S 
ATOM     19  C   UNL     1       6.007  31.766  77.670  0.00  0.00    +0.000 A 
ATOM     20  C   UNL     1       4.783  30.665  75.890  0.00  0.00    +0.000 A 
ATOM     21  N   UNL     1       5.401  30.695  78.148  0.00  0.00    +0.000 NA
ATOM     22  C   UNL     1       4.714  30.060  77.124  0.00  0.00    +0.000 A 
ENDBRANCH   1  19
BRANCH   3  23
ATOM     23  C   UNL     1       4.774  34.205  78.939  0.00  0.00    +0.000 C 
ATOM     24  O   UNL     1       4.868  35.120  78.133  0.00  0.00    +0.000 OA
ATOM     25  O   UNL     1       3.576  33.711  79.311  0.00  0.00    +0.000 OA
ENDBRANCH   3  23
BRANCH   5  26
ATOM     26  C   UNL     1       6.844  30.258  80.836  0.00  0.00    +0.000 C 
ATOM     27  O   UNL     1       7.515  29.351  80.360  0.00  0.00    +0.000 OA
ATOM     28  O   UNL     1       5.675  29.991  81.464  0.00  0.00    +0.000 OA
ENDBRANCH   5  26
BRANCH   5  29
ATOM     29  C   UNL     1       8.080  32.172  81.931  0.00  0.00    +0.000 C 
BRANCH  29  30
ATOM     30  C   UNL     1       8.263  33.669  82.286  0.00  0.00    +0.000 C 
ATOM     31  C   UNL     1       8.421  33.839  83.806  0.00  0.00    +0.000 C 
ATOM     32  C   UNL     1       9.478  34.315  81.626  0.00  0.00    +0.000 C 
ENDBRANCH  29  30
ENDBRANCH   5  29
TORSDOF 7
ENDMDL
MODEL 5
REMARK VINA RESULT:      -7.1      4.343      6.691
REMARK  Name = 
REMARK  9 active torsions:
REMARK  status: ('A' for Active; 'I' for Inactive)
REMARK    1  A    between atoms: C_2  and  C_5
REMARK    2  A    between atoms: C_8  and  C_11
REMARK    3  A    between atoms: C_9  and  C_14
REMARK    4  A    between atoms: C_10  and  C_15
REMARK    5  A    between atoms: C_10  and  C_16
REMARK    6  A    between atoms: C_16  and  C_23
REMARK    7  A    between atoms: C_23  and  C_26
REMARK    8  A    between atoms: C_23  and  C_27
REMARK    9  A    between atoms: C_28  and  C_29
REMARK                            x       y       z     vdW  Elec       q    Type
REMARK                         _______ _______ _______ _____ _____    ______ ____
ROOT
ATOM      1  C   UNL     1       8.151  34.208  77.332  0.00  0.00    +0.000 C 
ATOM      2  N   UNL     1       8.845  33.123  76.613  0.00  0.00    +0.000 N 
ATOM      3  C   UNL     1       8.719  35.450  76.672  0.00  0.00    +0.000 C 
ATOM      4  C   UNL     1       8.406  31.820  76.377  0.00  0.00    +0.000 C 
ATOM      5  C   UNL     1      10.211  33.586  76.175  0.00  0.00    +0.000 C 
ATOM      6  C   UNL     1      10.189  35.128  76.453  0.00  0.00    +0.000 C 
ATOM      7  O   UNL     1       9.187  30.982  75.935  0.00  0.00    +0.000 OA
ENDROOT
BRANCH   4   8
ATOM      8  C   UNL     1       7.007  31.373  76.669  0.00  0.00    +0.000 A 
ATOM      9  C   UNL     1       5.887  31.796  75.950  0.00  0.00    +0.000 A 
ATOM     10  C   UNL     1       6.815  30.437  77.694  0.00  0.00    +0.000 A 
ATOM     11  C   UNL     1       4.598  31.478  76.376  0.00  0.00    +0.000 A 
ATOM     12  C   UNL     1       5.526  30.034  78.063  0.00  0.00    +0.000 A 
ATOM     13  C   UNL     1       4.401  30.593  77.438  0.00  0.00    +0.000 A 
BRANCH  13  14
ATOM     14  C   UNL     1       3.004  30.209  77.861  0.00  0.00    +0.000 C 
ATOM     15  F   UNL     1       2.969  29.526  79.040  0.00  0.00    +0.000 F 
ATOM     16  F   UNL     1       2.200  31.293  78.033  0.00  0.00    +0.000 F 
ATOM     17  F   UNL     1       2.381  29.412  76.951  0.00  0.00    +0.000 F 
ENDBRANCH  13  14
ENDBRANCH   4   8
BRANCH   1  19
ATOM     18  S   UNL     1       7.113  33.570  79.857  0.00  0.00    +0.000 S 
ATOM     19  C   UNL     1       8.389  34.101  78.823  0.00  0.00    +0.000 A 
ATOM     20  C   UNL     1       8.110  33.837  81.218  0.00  0.00    +0.000 A 
ATOM     21  N   UNL     1       9.499  34.462  79.439  0.00  0.00    +0.000 NA
ATOM     22  C   UNL     1       9.341  34.296  80.806  0.00  0.00    +0.000 A 
ENDBRANCH   1  19
BRANCH   3  23
ATOM     23  C   UNL     1       8.315  36.728  77.351  0.00  0.00    +0.000 C 
ATOM     24  O   UNL     1       7.139  37.020  77.522  0.00  0.00    +0.000 OA
ATOM     25  O   UNL     1       9.311  37.514  77.807  0.00  0.00    +0.000 OA
ENDBRANCH   3  23
BRANCH   5  26
ATOM     26  C   UNL     1      11.318  32.938  77.072  0.00  0.00    +0.000 C 
ATOM     27  O   UNL     1      11.122  32.014  77.850  0.00  0.00    +0.000 OA
ATOM     28  O   UNL     1      12.535  33.526  76.995  0.00  0.00    +0.000 OA
ENDBRANCH   5  26
BRANCH   5  29
ATOM     29  C   UNL     1      10.584  33.303  74.680  0.00  0.00    +0.000 C 
BRANCH  29  30
ATOM     30  C   UNL     1      11.974  32.704  74.345  0.00  0.00    +0.000 C 
ATOM     31  C   UNL     1      11.826  31.244  73.891  0.00  0.00    +0.000 C 
ATOM     32  C   UNL     1      12.718  33.453  73.243  0.00  0.00    +0.000 C 
ENDBRANCH  29  30
ENDBRANCH   5  29
TORSDOF 7
ENDMDL
MODEL 6
REMARK VINA RESULT:      -7.0      3.728      5.658
REMARK  Name = 
REMARK  9 active torsions:
REMARK  status: ('A' for Active; 'I' for Inactive)
REMARK    1  A    between atoms: C_2  and  C_5
REMARK    2  A    between atoms: C_8  and  C_11
REMARK    3  A    between atoms: C_9  and  C_14
REMARK    4  A    between atoms: C_10  and  C_15
REMARK    5  A    between atoms: C_10  and  C_16
REMARK    6  A    between atoms: C_16  and  C_23
REMARK    7  A    between atoms: C_23  and  C_26
REMARK    8  A    between atoms: C_23  and  C_27
REMARK    9  A    between atoms: C_28  and  C_29
REMARK                            x       y       z     vdW  Elec       q    Type
REMARK                         _______ _______ _______ _____ _____    ______ ____
ROOT
ATOM      1  C   UNL     1       7.553  33.047  79.124  0.00  0.00    +0.000 C 
ATOM      2  N   UNL     1       7.618  33.324  77.677  0.00  0.00    +0.000 N 
ATOM      3  C   UNL     1       8.393  31.791  79.252  0.00  0.00    +0.000 C 
ATOM      4  C   UNL     1       7.518  34.553  77.024  0.00  0.00    +0.000 C 
ATOM      5  C   UNL     1       7.756  32.033  76.911  0.00  0.00    +0.000 C 
ATOM      6  C   UNL     1       8.038  30.967  78.024  0.00  0.00    +0.000 C 
ATOM      7  O   UNL     1       7.393  34.589  75.803  0.00  0.00    +0.000 OA
ENDROOT
BRANCH   4   8
ATOM      8  C   UNL     1       7.526  35.860  77.755  0.00  0.00    +0.000 A 
ATOM      9  C   UNL     1       8.686  36.572  78.067  0.00  0.00    +0.000 A 
ATOM     10  C   UNL     1       6.292  36.426  78.105  0.00  0.00    +0.000 A 
ATOM     11  C   UNL     1       8.640  37.693  78.894  0.00  0.00    +0.000 A 
ATOM     12  C   UNL     1       6.235  37.609  78.852  0.00  0.00    +0.000 A 
ATOM     13  C   UNL     1       7.413  38.226  79.298  0.00  0.00    +0.000 A 
BRANCH  13  14
ATOM     14  C   UNL     1       7.366  39.472  80.148  0.00  0.00    +0.000 C 
ATOM     15  F   UNL     1       6.626  40.473  79.593  0.00  0.00    +0.000 F 
ATOM     16  F   UNL     1       6.819  39.240  81.373  0.00  0.00    +0.000 F 
ATOM     17  F   UNL     1       8.598  40.000  80.374  0.00  0.00    +0.000 F 
ENDBRANCH  13  14
ENDBRANCH   4   8
BRANCH   1  19
ATOM     18  S   UNL     1       5.517  33.946  80.829  0.00  0.00    +0.000 S 
ATOM     19  C   UNL     1       6.116  32.915  79.581  0.00  0.00    +0.000 A 
ATOM     20  C   UNL     1       4.025  33.116  80.791  0.00  0.00    +0.000 A 
ATOM     21  N   UNL     1       5.268  31.999  79.152  0.00  0.00    +0.000 NA
ATOM     22  C   UNL     1       4.069  32.127  79.836  0.00  0.00    +0.000 A 
ENDBRANCH   1  19
BRANCH   3  23
ATOM     23  C   UNL     1       8.343  31.172  80.621  0.00  0.00    +0.000 C 
ATOM     24  O   UNL     1       8.816  31.737  81.598  0.00  0.00    +0.000 OA
ATOM     25  O   UNL     1       7.706  29.989  80.729  0.00  0.00    +0.000 OA
ENDBRANCH   3  23
BRANCH   5  26
ATOM     26  C   UNL     1       6.404  31.670  76.210  0.00  0.00    +0.000 C 
ATOM     27  O   UNL     1       5.605  32.494  75.784  0.00  0.00    +0.000 OA
ATOM     28  O   UNL     1       6.118  30.348  76.166  0.00  0.00    +0.000 OA
ENDBRANCH   5  26
BRANCH   5  29
ATOM     29  C   UNL     1       8.880  32.000  75.820  0.00  0.00    +0.000 C 
BRANCH  29  30
ATOM     30  C   UNL     1      10.357  31.829  76.258  0.00  0.00    +0.000 C 
ATOM     31  C   UNL     1      11.210  31.353  75.072  0.00  0.00    +0.000 C 
ATOM     32  C   UNL     1      10.993  33.109  76.793  0.00  0.00    +0.000 C 
ENDBRANCH  29  30
ENDBRANCH   5  29
TORSDOF 7
ENDMDL
MODEL 7
REMARK VINA RESULT:      -7.0      2.329      4.953
REMARK  Name = 
REMARK  9 active torsions:
REMARK  status: ('A' for Active; 'I' for Inactive)
REMARK    1  A    between atoms: C_2  and  C_5
REMARK    2  A    between atoms: C_8  and  C_11
REMARK    3  A    between atoms: C_9  and  C_14
REMARK    4  A    between atoms: C_10  and  C_15
REMARK    5  A    between atoms: C_10  and  C_16
REMARK    6  A    between atoms: C_16  and  C_23
REMARK    7  A    between atoms: C_23  and  C_26
REMARK    8  A    between atoms: C_23  and  C_27
REMARK    9  A    between atoms: C_28  and  C_29
REMARK                            x       y       z     vdW  Elec       q    Type
REMARK                         _______ _______ _______ _____ _____    ______ ____
ROOT
ATOM      1  C   UNL     1       8.007  34.705  78.250  0.00  0.00    +0.000 C 
ATOM      2  N   UNL     1       8.643  33.780  79.207  0.00  0.00    +0.000 N 
ATOM      3  C   UNL     1       7.794  35.948  79.092  0.00  0.00    +0.000 C 
ATOM      4  C   UNL     1       9.526  32.733  78.944  0.00  0.00    +0.000 C 
ATOM      5  C   UNL     1       8.156  34.070  80.604  0.00  0.00    +0.000 C 
ATOM      6  C   UNL     1       7.374  35.420  80.455  0.00  0.00    +0.000 C 
ATOM      7  O   UNL     1       9.808  31.933  79.832  0.00  0.00    +0.000 OA
ENDROOT
BRANCH   4   8
ATOM      8  C   UNL     1      10.138  32.511  77.596  0.00  0.00    +0.000 A 
ATOM      9  C   UNL     1       9.625  31.628  76.643  0.00  0.00    +0.000 A 
ATOM     10  C   UNL     1      11.265  33.270  77.251  0.00  0.00    +0.000 A 
ATOM     11  C   UNL     1      10.333  31.340  75.476  0.00  0.00    +0.000 A 
ATOM     12  C   UNL     1      11.925  33.056  76.035  0.00  0.00    +0.000 A 
ATOM     13  C   UNL     1      11.493  32.051  75.158  0.00  0.00    +0.000 A 
BRANCH  13  14
ATOM     14  C   UNL     1      12.226  31.774  73.868  0.00  0.00    +0.000 C 
ATOM     15  F   UNL     1      11.410  31.326  72.872  0.00  0.00    +0.000 F 
ATOM     16  F   UNL     1      12.840  32.884  73.376  0.00  0.00    +0.000 F 
ATOM     17  F   UNL     1      13.196  30.831  74.008  0.00  0.00    +0.000 F 
ENDBRANCH  13  14
ENDBRANCH   4   8
BRANCH   1  19
ATOM     18  S   UNL     1       6.725  33.601  76.014  0.00  0.00    +0.000 S 
ATOM     19  C   UNL     1       6.750  34.094  77.668  0.00  0.00    +0.000 A 
ATOM     20  C   UNL     1       5.074  33.190  76.167  0.00  0.00    +0.000 A 
ATOM     21  N   UNL     1       5.604  33.969  78.310  0.00  0.00    +0.000 NA
ATOM     22  C   UNL     1       4.652  33.438  77.453  0.00  0.00    +0.000 A 
ENDBRANCH   1  19
BRANCH   3  23
ATOM     23  C   UNL     1       6.978  37.007  78.405  0.00  0.00    +0.000 C 
ATOM     24  O   UNL     1       6.032  37.549  78.960  0.00  0.00    +0.000 OA
ATOM     25  O   UNL     1       7.371  37.367  77.167  0.00  0.00    +0.000 OA
ENDBRANCH   3  23
BRANCH   5  26
ATOM     26  C   UNL     1       7.149  32.965  81.068  0.00  0.00    +0.000 C 
ATOM     27  O   UNL     1       6.802  32.014  80.380  0.00  0.00    +0.000 OA
ATOM     28  O   UNL     1       6.602  33.165  82.290  0.00  0.00    +0.000 OA
ENDBRANCH   5  26
BRANCH   5  29
ATOM     29  C   UNL     1       9.264  34.195  81.704  0.00  0.00    +0.000 C 
BRANCH  29  30
ATOM     30  C   UNL     1       9.331  35.477  82.572  0.00  0.00    +0.000 C 
ATOM     31  C   UNL     1       9.078  35.132  84.048  0.00  0.00    +0.000 C 
ATOM     32  C   UNL     1      10.670  36.205  82.496  0.00  0.00    +0.000 C 
ENDBRANCH  29  30
ENDBRANCH   5  29
TORSDOF 7
ENDMDL
MODEL 8
REMARK VINA RESULT:      -6.7      2.001      5.133
REMARK  Name = 
REMARK  9 active torsions:
REMARK  status: ('A' for Active; 'I' for Inactive)
REMARK    1  A    between atoms: C_2  and  C_5
REMARK    2  A    between atoms: C_8  and  C_11
REMARK    3  A    between atoms: C_9  and  C_14
REMARK    4  A    between atoms: C_10  and  C_15
REMARK    5  A    between atoms: C_10  and  C_16
REMARK    6  A    between atoms: C_16  and  C_23
REMARK    7  A    between atoms: C_23  and  C_26
REMARK    8  A    between atoms: C_23  and  C_27
REMARK    9  A    between atoms: C_28  and  C_29
REMARK                            x       y       z     vdW  Elec       q    Type
REMARK                         _______ _______ _______ _____ _____    ______ ____
ROOT
ATOM      1  C   UNL     1       6.302  34.714  78.413  0.00  0.00    +0.000 C 
ATOM      2  N   UNL     1       7.280  35.137  79.433  0.00  0.00    +0.000 N 
ATOM      3  C   UNL     1       5.302  35.854  78.430  0.00  0.00    +0.000 C 
ATOM      4  C   UNL     1       8.637  34.825  79.514  0.00  0.00    +0.000 C 
ATOM      5  C   UNL     1       6.595  35.958  80.494  0.00  0.00    +0.000 C 
ATOM      6  C   UNL     1       5.170  36.225  79.898  0.00  0.00    +0.000 C 
ATOM      7  O   UNL     1       9.267  35.093  80.534  0.00  0.00    +0.000 OA
ENDROOT
BRANCH   4   8
ATOM      8  C   UNL     1       9.377  34.137  78.409  0.00  0.00    +0.000 A 
ATOM      9  C   UNL     1       9.680  34.735  77.184  0.00  0.00    +0.000 A 
ATOM     10  C   UNL     1       9.834  32.831  78.635  0.00  0.00    +0.000 A 
ATOM     11  C   UNL     1      10.219  33.990  76.135  0.00  0.00    +0.000 A 
ATOM     12  C   UNL     1      10.468  32.110  77.616  0.00  0.00    +0.000 A 
ATOM     13  C   UNL     1      10.620  32.668  76.338  0.00  0.00    +0.000 A 
BRANCH  13  14
ATOM     14  C   UNL     1      11.253  31.882  75.216  0.00  0.00    +0.000 C 
ATOM     15  F   UNL     1      11.255  32.550  74.028  0.00  0.00    +0.000 F 
ATOM     16  F   UNL     1      12.553  31.573  75.473  0.00  0.00    +0.000 F 
ATOM     17  F   UNL     1      10.620  30.702  74.979  0.00  0.00    +0.000 F 
ENDBRANCH  13  14
ENDBRANCH   4   8
BRANCH   1  19
ATOM     18  S   UNL     1       6.341  31.951  77.938  0.00  0.00    +0.000 S 
ATOM     19  C   UNL     1       5.736  33.351  78.746  0.00  0.00    +0.000 A 
ATOM     20  C   UNL     1       5.186  30.988  78.748  0.00  0.00    +0.000 A 
ATOM     21  N   UNL     1       4.730  33.131  79.573  0.00  0.00    +0.000 NA
ATOM     22  C   UNL     1       4.429  31.778  79.582  0.00  0.00    +0.000 A 
ENDBRANCH   1  19
BRANCH   3  23
ATOM     23  C   UNL     1       4.077  35.590  77.601  0.00  0.00    +0.000 C 
ATOM     24  O   UNL     1       4.153  35.107  76.479  0.00  0.00    +0.000 OA
ATOM     25  O   UNL     1       2.887  35.861  78.174  0.00  0.00    +0.000 OA
ENDBRANCH   3  23
BRANCH   5  26
ATOM     26  C   UNL     1       6.432  35.122  81.807  0.00  0.00    +0.000 C 
ATOM     27  O   UNL     1       6.735  33.941  81.916  0.00  0.00    +0.000 OA
ATOM     28  O   UNL     1       5.843  35.778  82.836  0.00  0.00    +0.000 OA
ENDBRANCH   5  26
BRANCH   5  29
ATOM     29  C   UNL     1       7.293  37.308  80.875  0.00  0.00    +0.000 C 
BRANCH  29  30
ATOM     30  C   UNL     1       7.546  38.369  79.773  0.00  0.00    +0.000 C 
ATOM     31  C   UNL     1       7.129  39.761  80.272  0.00  0.00    +0.000 C 
ATOM     32  C   UNL     1       9.003  38.460  79.329  0.00  0.00    +0.000 C 
ENDBRANCH  29  30
ENDBRANCH   5  29
TORSDOF 7
ENDMDL
MODEL 9
REMARK VINA RESULT:      -6.6      3.822      6.809
REMARK  Name = 
REMARK  9 active torsions:
REMARK  status: ('A' for Active; 'I' for Inactive)
REMARK    1  A    between atoms: C_2  and  C_5
REMARK    2  A    between atoms: C_8  and  C_11
REMARK    3  A    between atoms: C_9  and  C_14
REMARK    4  A    between atoms: C_10  and  C_15
REMARK    5  A    between atoms: C_10  and  C_16
REMARK    6  A    between atoms: C_16  and  C_23
REMARK    7  A    between atoms: C_23  and  C_26
REMARK    8  A    between atoms: C_23  and  C_27
REMARK    9  A    between atoms: C_28  and  C_29
REMARK                            x       y       z     vdW  Elec       q    Type
REMARK                         _______ _______ _______ _____ _____    ______ ____
ROOT
ATOM      1  C   UNL     1       7.719  34.186  78.055  0.00  0.00    +0.000 C 
ATOM      2  N   UNL     1       6.807  34.890  78.976  0.00  0.00    +0.000 N 
ATOM      3  C   UNL     1       8.781  35.233  77.785  0.00  0.00    +0.000 C 
ATOM      4  C   UNL     1       5.982  34.348  79.961  0.00  0.00    +0.000 C 
ATOM      5  C   UNL     1       6.819  36.368  78.682  0.00  0.00    +0.000 C 
ATOM      6  C   UNL     1       8.012  36.541  77.681  0.00  0.00    +0.000 C 
ATOM      7  O   UNL     1       5.137  35.053  80.508  0.00  0.00    +0.000 OA
ENDROOT
BRANCH   4   8
ATOM      8  C   UNL     1       6.052  32.911  80.375  0.00  0.00    +0.000 A 
ATOM      9  C   UNL     1       7.169  32.327  80.976  0.00  0.00    +0.000 A 
ATOM     10  C   UNL     1       4.912  32.116  80.192  0.00  0.00    +0.000 A 
ATOM     11  C   UNL     1       7.236  30.949  81.182  0.00  0.00    +0.000 A 
ATOM     12  C   UNL     1       4.939  30.748  80.491  0.00  0.00    +0.000 A 
ATOM     13  C   UNL     1       6.121  30.142  80.942  0.00  0.00    +0.000 A 
BRANCH  13  14
ATOM     14  C   UNL     1       6.179  28.660  81.219  0.00  0.00    +0.000 C 
ATOM     15  F   UNL     1       4.999  28.022  80.977  0.00  0.00    +0.000 F 
ATOM     16  F   UNL     1       7.108  28.028  80.451  0.00  0.00    +0.000 F 
ATOM     17  F   UNL     1       6.497  28.379  82.511  0.00  0.00    +0.000 F 
ENDBRANCH  13  14
ENDBRANCH   4   8
BRANCH   1  19
ATOM     18  S   UNL     1       6.400  32.065  76.780  0.00  0.00    +0.000 S 
ATOM     19  C   UNL     1       6.971  33.693  76.834  0.00  0.00    +0.000 A 
ATOM     20  C   UNL     1       5.850  32.316  75.182  0.00  0.00    +0.000 A 
ATOM     21  N   UNL     1       6.773  34.395  75.734  0.00  0.00    +0.000 NA
ATOM     22  C   UNL     1       6.119  33.609  74.798  0.00  0.00    +0.000 A 
ENDBRANCH   1  19
BRANCH   3  23
ATOM     23  C   UNL     1       9.755  34.839  76.710  0.00  0.00    +0.000 C 
ATOM     24  O   UNL     1      10.266  35.669  75.971  0.00  0.00    +0.000 OA
ATOM     25  O   UNL     1      10.077  33.532  76.634  0.00  0.00    +0.000 OA
ENDBRANCH   3  23
BRANCH   5  26
ATOM     26  C   UNL     1       5.498  36.787  77.954  0.00  0.00    +0.000 C 
ATOM     27  O   UNL     1       4.697  35.999  77.469  0.00  0.00    +0.000 OA
ATOM     28  O   UNL     1       5.319  38.122  77.814  0.00  0.00    +0.000 OA
ENDBRANCH   5  26
BRANCH   5  29
ATOM     29  C   UNL     1       6.999  37.312  79.920  0.00  0.00    +0.000 C 
BRANCH  29  30
ATOM     30  C   UNL     1       8.001  38.492  79.835  0.00  0.00    +0.000 C 
ATOM     31  C   UNL     1       7.330  39.793  80.303  0.00  0.00    +0.000 C 
ATOM     32  C   UNL     1       9.256  38.296  80.682  0.00  0.00    +0.000 C 
ENDBRANCH  29  30
ENDBRANCH   5  29
TORSDOF 7
ENDMDL
