MODEL 1
REMARK VINA RESULT:      -7.6      0.000      0.000
REMARK  Name = 
REMARK  9 active torsions:
REMARK  status: ('A' for Active; 'I' for Inactive)
REMARK    1  A    between atoms: C_2  and  C_5
REMARK    2  A    between atoms: C_10  and  C_11
REMARK    3  A    between atoms: C_14  and  C_16
REMARK    4  A    between atoms: C_14  and  C_18
REMARK    5  A    between atoms: C_15  and  C_19
REMARK    6  A    between atoms: C_18  and  C_23
REMARK    7  A    between atoms: C_20  and  C_26
REMARK    8  A    between atoms: C_23  and  C_27
REMARK    9  A    between atoms: C_23  and  C_28
REMARK                            x       y       z     vdW  Elec       q    Type
REMARK                         _______ _______ _______ _____ _____    ______ ____
ROOT
ATOM      1  C   UNL     1       8.467  30.938  78.883  0.00  0.00    +0.000 C 
ATOM      2  O   UNL     1       8.885  29.823  79.185  0.00  0.00    +0.000 OA
ATOM      3  N   UNL     1       7.236  31.361  79.407  0.00  0.00    +0.000 N 
ATOM      4  C   UNL     1       6.658  30.746  80.648  0.00  0.00    +0.000 C 
ATOM      5  C   UNL     1       6.474  32.588  79.042  0.00  0.00    +0.000 C 
ATOM      6  C   UNL     1       5.169  31.221  80.507  0.00  0.00    +0.000 C 
ATOM      7  C   UNL     1       5.270  32.646  79.999  0.00  0.00    +0.000 C 
ENDROOT
BRANCH   1  13
ATOM      8  C   UNL     1      10.938  33.010  75.999  0.00  0.00    +0.000 A 
ATOM      9  C   UNL     1      10.796  33.498  77.306  0.00  0.00    +0.000 A 
ATOM     10  C   UNL     1      10.169  31.910  75.614  0.00  0.00    +0.000 A 
ATOM     11  C   UNL     1       9.960  32.838  78.224  0.00  0.00    +0.000 A 
ATOM     12  C   UNL     1       9.256  31.336  76.496  0.00  0.00    +0.000 A 
ATOM     13  C   UNL     1       9.223  31.705  77.838  0.00  0.00    +0.000 A 
BRANCH   8  15
ATOM     14  F   UNL     1      11.830  33.021  73.765  0.00  0.00    +0.000 F 
ATOM     15  C   UNL     1      11.860  33.629  74.979  0.00  0.00    +0.000 C 
ATOM     16  F   UNL     1      13.162  33.592  75.385  0.00  0.00    +0.000 F 
ATOM     17  F   UNL     1      11.585  34.944  74.753  0.00  0.00    +0.000 F 
ENDBRANCH   8  15
ENDBRANCH   1  13
BRANCH   5  18
ATOM     18  C   UNL     1       6.152  32.710  77.566  0.00  0.00    +0.000 A 
ATOM     19  C   UNL     1       5.509  31.709  76.828  0.00  0.00    +0.000 A 
ATOM     20  C   UNL     1       6.537  33.890  76.903  0.00  0.00    +0.000 A 
ATOM     21  C   UNL     1       5.261  31.891  75.464  0.00  0.00    +0.000 A 
ATOM     22  C   UNL     1       6.284  34.072  75.547  0.00  0.00    +0.000 A 
ATOM     23  C   UNL     1       5.641  33.074  74.827  0.00  0.00    +0.000 A 
ENDBRANCH   5  18
BRANCH   4  24
ATOM     24  C   UNL     1       6.455  29.214  80.804  0.00  0.00    +0.000 C 
ATOM     25  O   UNL     1       7.111  28.531  81.584  0.00  0.00    +0.000 OA
ATOM     26  O   UNL     1       5.396  28.709  80.142  0.00  0.00    +0.000 OA
ENDBRANCH   4  24
BRANCH   7  27
ATOM     27  C   UNL     1       4.060  33.360  79.446  0.00  0.00    +0.000 C 
ATOM     28  O   UNL     1       4.017  34.583  79.363  0.00  0.00    +0.000 OA
ATOM     29  O   UNL     1       3.007  32.601  79.094  0.00  0.00    +0.000 OA
ENDBRANCH   7  27
BRANCH   4  30
ATOM     30  C   UNL     1       7.293  31.350  81.950  0.00  0.00    +0.000 C 
BRANCH  30  31
ATOM     31  C   UNL     1       6.417  31.466  83.219  0.00  0.00    +0.000 C 
ATOM     32  C   UNL     1       7.031  30.628  84.354  0.00  0.00    +0.000 C 
ATOM     33  C   UNL     1       6.239  32.893  83.732  0.00  0.00    +0.000 C 
ENDBRANCH  30  31
ENDBRANCH   4  30
TORSDOF 7
ENDMDL
MODEL 2
REMARK VINA RESULT:      -7.4      4.161      6.635
REMARK  Name = 
REMARK  9 active torsions:
REMARK  status: ('A' for Active; 'I' for Inactive)
REMARK    1  A    between atoms: C_2  and  C_5
REMARK    2  A    between atoms: C_10  and  C_11
REMARK    3  A    between atoms: C_14  and  C_16
REMARK    4  A    between atoms: C_14  and  C_18
REMARK    5  A    between atoms: C_15  and  C_19
REMARK    6  A    between atoms: C_18  and  C_23
REMARK    7  A    between atoms: C_20  and  C_26
REMARK    8  A    between atoms: C_23  and  C_27
REMARK    9  A    between atoms: C_23  and  C_28
REMARK                            x       y       z     vdW  Elec       q    Type
REMARK                         _______ _______ _______ _____ _____    ______ ____
ROOT
ATOM      1  C   UNL     1       5.019  33.379  79.978  0.00  0.00    +0.000 C 
ATOM      2  O   UNL     1       3.996  33.905  80.410  0.00  0.00    +0.000 OA
ATOM      3  N   UNL     1       5.729  34.026  78.955  0.00  0.00    +0.000 N 
ATOM      4  C   UNL     1       5.579  35.498  78.704  0.00  0.00    +0.000 C 
ATOM      5  C   UNL     1       6.884  33.490  78.181  0.00  0.00    +0.000 C 
ATOM      6  C   UNL     1       6.178  35.579  77.257  0.00  0.00    +0.000 C 
ATOM      7  C   UNL     1       7.369  34.643  77.283  0.00  0.00    +0.000 C 
ENDROOT
BRANCH   1  13
ATOM      8  C   UNL     1       6.095  29.327  81.045  0.00  0.00    +0.000 A 
ATOM      9  C   UNL     1       4.917  29.594  80.333  0.00  0.00    +0.000 A 
ATOM     10  C   UNL     1       6.850  30.406  81.507  0.00  0.00    +0.000 A 
ATOM     11  C   UNL     1       4.557  30.918  80.025  0.00  0.00    +0.000 A 
ATOM     12  C   UNL     1       6.423  31.716  81.298  0.00  0.00    +0.000 A 
ATOM     13  C   UNL     1       5.348  31.996  80.459  0.00  0.00    +0.000 A 
BRANCH   8  15
ATOM     14  F   UNL     1       7.570  27.493  80.546  0.00  0.00    +0.000 F 
ATOM     15  C   UNL     1       6.574  27.932  81.360  0.00  0.00    +0.000 C 
ATOM     16  F   UNL     1       5.571  27.015  81.253  0.00  0.00    +0.000 F 
ATOM     17  F   UNL     1       7.044  27.814  82.633  0.00  0.00    +0.000 F 
ENDBRANCH   8  15
ENDBRANCH   1  13
BRANCH   5  18
ATOM     18  C   UNL     1       6.612  32.175  77.478  0.00  0.00    +0.000 A 
ATOM     19  C   UNL     1       5.472  31.931  76.703  0.00  0.00    +0.000 A 
ATOM     20  C   UNL     1       7.554  31.140  77.632  0.00  0.00    +0.000 A 
ATOM     21  C   UNL     1       5.286  30.684  76.100  0.00  0.00    +0.000 A 
ATOM     22  C   UNL     1       7.369  29.900  77.026  0.00  0.00    +0.000 A 
ATOM     23  C   UNL     1       6.237  29.673  76.255  0.00  0.00    +0.000 A 
ENDBRANCH   5  18
BRANCH   4  24
ATOM     24  C   UNL     1       4.197  36.171  78.480  0.00  0.00    +0.000 C 
ATOM     25  O   UNL     1       3.720  36.989  79.259  0.00  0.00    +0.000 OA
ATOM     26  O   UNL     1       3.627  35.918  77.287  0.00  0.00    +0.000 OA
ENDBRANCH   4  24
BRANCH   7  27
ATOM     27  C   UNL     1       8.040  34.204  76.003  0.00  0.00    +0.000 C 
ATOM     28  O   UNL     1       9.251  34.023  75.941  0.00  0.00    +0.000 OA
ATOM     29  O   UNL     1       7.259  34.068  74.917  0.00  0.00    +0.000 OA
ENDBRANCH   7  27
BRANCH   4  30
ATOM     30  C   UNL     1       6.449  36.350  79.694  0.00  0.00    +0.000 C 
BRANCH  30  31
ATOM     31  C   UNL     1       7.081  37.666  79.183  0.00  0.00    +0.000 C 
ATOM     32  C   UNL     1       6.816  38.797  80.193  0.00  0.00    +0.000 C 
ATOM     33  C   UNL     1       8.587  37.590  78.947  0.00  0.00    +0.000 C 
ENDBRANCH  30  31
ENDBRANCH   4  30
TORSDOF 7
ENDMDL
MODEL 3
REMARK VINA RESULT:      -7.2      2.872      4.338
REMARK  Name = 
REMARK  9 active torsions:
REMARK  status: ('A' for Active; 'I' for Inactive)
REMARK    1  A    between atoms: C_2  and  C_5
REMARK    2  A    between atoms: C_10  and  C_11
REMARK    3  A    between atoms: C_14  and  C_16
REMARK    4  A    between atoms: C_14  and  C_18
REMARK    5  A    between atoms: C_15  and  C_19
REMARK    6  A    between atoms: C_18  and  C_23
REMARK    7  A    between atoms: C_20  and  C_26
REMARK    8  A    between atoms: C_23  and  C_27
REMARK    9  A    between atoms: C_23  and  C_28
REMARK                            x       y       z     vdW  Elec       q    Type
REMARK                         _______ _______ _______ _____ _____    ______ ____
ROOT
ATOM      1  C   UNL     1       8.573  34.444  79.019  0.00  0.00    +0.000 C 
ATOM      2  O   UNL     1       9.205  34.522  80.070  0.00  0.00    +0.000 OA
ATOM      3  N   UNL     1       7.253  34.921  78.988  0.00  0.00    +0.000 N 
ATOM      4  C   UNL     1       6.756  35.920  79.991  0.00  0.00    +0.000 C 
ATOM      5  C   UNL     1       6.266  34.772  77.883  0.00  0.00    +0.000 C 
ATOM      6  C   UNL     1       5.210  35.740  79.797  0.00  0.00    +0.000 C 
ATOM      7  C   UNL     1       5.029  35.588  78.300  0.00  0.00    +0.000 C 
ENDROOT
BRANCH   1  13
ATOM      8  C   UNL     1      10.691  32.370  75.867  0.00  0.00    +0.000 A 
ATOM      9  C   UNL     1      10.437  33.746  75.778  0.00  0.00    +0.000 A 
ATOM     10  C   UNL     1      10.139  31.662  76.936  0.00  0.00    +0.000 A 
ATOM     11  C   UNL     1       9.714  34.403  76.790  0.00  0.00    +0.000 A 
ATOM     12  C   UNL     1       9.325  32.301  77.870  0.00  0.00    +0.000 A 
ATOM     13  C   UNL     1       9.199  33.687  77.884  0.00  0.00    +0.000 A 
BRANCH   8  15
ATOM     14  F   UNL     1      11.584  32.218  73.639  0.00  0.00    +0.000 F 
ATOM     15  C   UNL     1      11.507  31.611  74.852  0.00  0.00    +0.000 C 
ATOM     16  F   UNL     1      10.997  30.368  74.618  0.00  0.00    +0.000 F 
ATOM     17  F   UNL     1      12.792  31.408  75.259  0.00  0.00    +0.000 F 
ENDBRANCH   8  15
ENDBRANCH   1  13
BRANCH   5  18
ATOM     18  C   UNL     1       6.003  33.339  77.466  0.00  0.00    +0.000 A 
ATOM     19  C   UNL     1       6.007  32.906  76.134  0.00  0.00    +0.000 A 
ATOM     20  C   UNL     1       5.722  32.400  78.476  0.00  0.00    +0.000 A 
ATOM     21  C   UNL     1       5.738  31.568  75.829  0.00  0.00    +0.000 A 
ATOM     22  C   UNL     1       5.461  31.068  78.171  0.00  0.00    +0.000 A 
ATOM     23  C   UNL     1       5.473  30.650  76.847  0.00  0.00    +0.000 A 
ENDBRANCH   5  18
BRANCH   4  24
ATOM     24  C   UNL     1       6.880  35.698  81.524  0.00  0.00    +0.000 C 
ATOM     25  O   UNL     1       7.275  36.567  82.294  0.00  0.00    +0.000 OA
ATOM     26  O   UNL     1       6.368  34.536  81.974  0.00  0.00    +0.000 OA
ENDBRANCH   4  24
BRANCH   7  27
ATOM     27  C   UNL     1       3.725  35.092  77.723  0.00  0.00    +0.000 C 
ATOM     28  O   UNL     1       3.387  35.357  76.574  0.00  0.00    +0.000 OA
ATOM     29  O   UNL     1       2.921  34.388  78.539  0.00  0.00    +0.000 OA
ENDBRANCH   7  27
BRANCH   4  30
ATOM     30  C   UNL     1       7.178  37.385  79.615  0.00  0.00    +0.000 C 
BRANCH  30  31
ATOM     31  C   UNL     1       8.677  37.693  79.395  0.00  0.00    +0.000 C 
ATOM     32  C   UNL     1       8.968  37.819  77.890  0.00  0.00    +0.000 C 
ATOM     33  C   UNL     1       9.163  38.970  80.076  0.00  0.00    +0.000 C 
ENDBRANCH  30  31
ENDBRANCH   4  30
TORSDOF 7
ENDMDL
MODEL 4
REMARK VINA RESULT:      -7.1      4.240      6.547
REMARK  Name = 
REMARK  9 active torsions:
REMARK  status: ('A' for Active; 'I' for Inactive)
REMARK    1  A    between atoms: C_2  and  C_5
REMARK    2  A    between atoms: C_10  and  C_11
REMARK    3  A    between atoms: C_14  and  C_16
REMARK    4  A    between atoms: C_14  and  C_18
REMARK    5  A    between atoms: C_15  and  C_19
REMARK    6  A    between atoms: C_18  and  C_23
REMARK    7  A    between atoms: C_20  and  C_26
REMARK    8  A    between atoms: C_23  and  C_27
REMARK    9  A    between atoms: C_23  and  C_28
REMARK                            x       y       z     vdW  Elec       q    Type
REMARK                         _______ _______ _______ _____ _____    ______ ____
ROOT
ATOM      1  C   UNL     1       6.091  36.036  78.283  0.00  0.00    +0.000 C 
ATOM      2  O   UNL     1       5.871  37.130  77.767  0.00  0.00    +0.000 OA
ATOM      3  N   UNL     1       6.861  35.986  79.455  0.00  0.00    +0.000 N 
ATOM      4  C   UNL     1       7.016  37.185  80.345  0.00  0.00    +0.000 C 
ATOM      5  C   UNL     1       7.383  34.771  80.140  0.00  0.00    +0.000 C 
ATOM      6  C   UNL     1       8.269  36.736  81.174  0.00  0.00    +0.000 C 
ATOM      7  C   UNL     1       8.041  35.262  81.442  0.00  0.00    +0.000 C 
ENDROOT
BRANCH   1  13
ATOM      8  C   UNL     1       5.149  32.350  76.224  0.00  0.00    +0.000 A 
ATOM      9  C   UNL     1       6.069  33.259  75.684  0.00  0.00    +0.000 A 
ATOM     10  C   UNL     1       4.453  32.715  77.378  0.00  0.00    +0.000 A 
ATOM     11  C   UNL     1       6.339  34.472  76.342  0.00  0.00    +0.000 A 
ATOM     12  C   UNL     1       4.642  33.969  77.956  0.00  0.00    +0.000 A 
ATOM     13  C   UNL     1       5.664  34.812  77.527  0.00  0.00    +0.000 A 
BRANCH   8  15
ATOM     14  F   UNL     1       5.862  30.105  75.732  0.00  0.00    +0.000 F 
ATOM     15  C   UNL     1       4.852  31.006  75.607  0.00  0.00    +0.000 C 
ATOM     16  F   UNL     1       4.603  31.106  74.270  0.00  0.00    +0.000 F 
ATOM     17  F   UNL     1       3.747  30.416  76.142  0.00  0.00    +0.000 F 
ENDBRANCH   8  15
ENDBRANCH   1  13
BRANCH   5  18
ATOM     18  C   UNL     1       8.237  33.875  79.265  0.00  0.00    +0.000 A 
ATOM     19  C   UNL     1       9.337  34.332  78.529  0.00  0.00    +0.000 A 
ATOM     20  C   UNL     1       7.888  32.514  79.176  0.00  0.00    +0.000 A 
ATOM     21  C   UNL     1      10.066  33.445  77.731  0.00  0.00    +0.000 A 
ATOM     22  C   UNL     1       8.618  31.632  78.386  0.00  0.00    +0.000 A 
ATOM     23  C   UNL     1       9.711  32.096  77.666  0.00  0.00    +0.000 A 
ENDBRANCH   5  18
BRANCH   4  24
ATOM     24  C   UNL     1       7.503  38.561  79.814  0.00  0.00    +0.000 C 
ATOM     25  O   UNL     1       6.789  39.559  79.796  0.00  0.00    +0.000 OA
ATOM     26  O   UNL     1       8.816  38.629  79.525  0.00  0.00    +0.000 OA
ENDBRANCH   4  24
BRANCH   7  27
ATOM     27  C   UNL     1       9.159  34.383  81.952  0.00  0.00    +0.000 C 
ATOM     28  O   UNL     1       8.935  33.301  82.483  0.00  0.00    +0.000 OA
ATOM     29  O   UNL     1      10.411  34.861  81.846  0.00  0.00    +0.000 OA
ENDBRANCH   7  27
BRANCH   4  30
ATOM     30  C   UNL     1       5.781  37.370  81.295  0.00  0.00    +0.000 C 
BRANCH  30  31
ATOM     31  C   UNL     1       6.023  37.878  82.736  0.00  0.00    +0.000 C 
ATOM     32  C   UNL     1       5.268  39.201  82.955  0.00  0.00    +0.000 C 
ATOM     33  C   UNL     1       5.588  36.903  83.828  0.00  0.00    +0.000 C 
ENDBRANCH  30  31
ENDBRANCH   4  30
TORSDOF 7
ENDMDL
MODEL 5
REMARK VINA RESULT:      -7.1      2.427      3.083
REMARK  Name = 
REMARK  9 active torsions:
REMARK  status: ('A' for Active; 'I' for Inactive)
REMARK    1  A    between atoms: C_2  and  C_5
REMARK    2  A    between atoms: C_10  and  C_11
REMARK    3  A    between atoms: C_14  and  C_16
REMARK    4  A    between atoms: C_14  and  C_18
REMARK    5  A    between atoms: C_15  and  C_19
REMARK    6  A    between atoms: C_18  and  C_23
REMARK    7  A    between atoms: C_20  and  C_26
REMARK    8  A    between atoms: C_23  and  C_27
REMARK    9  A    between atoms: C_23  and  C_28
REMARK                            x       y       z     vdW  Elec       q    Type
REMARK                         _______ _______ _______ _____ _____    ______ ____
ROOT
ATOM      1  C   UNL     1       8.221  32.831  79.591  0.00  0.00    +0.000 C 
ATOM      2  O   UNL     1       8.375  32.005  80.487  0.00  0.00    +0.000 OA
ATOM      3  N   UNL     1       7.223  33.807  79.737  0.00  0.00    +0.000 N 
ATOM      4  C   UNL     1       6.679  34.178  81.085  0.00  0.00    +0.000 C 
ATOM      5  C   UNL     1       6.763  34.786  78.712  0.00  0.00    +0.000 C 
ATOM      6  C   UNL     1       5.359  34.902  80.644  0.00  0.00    +0.000 C 
ATOM      7  C   UNL     1       5.755  35.707  79.423  0.00  0.00    +0.000 C 
ENDROOT
BRANCH   1  13
ATOM      8  C   UNL     1      10.715  32.110  76.130  0.00  0.00    +0.000 A 
ATOM      9  C   UNL     1      10.976  33.183  76.993  0.00  0.00    +0.000 A 
ATOM     10  C   UNL     1       9.561  31.352  76.343  0.00  0.00    +0.000 A 
ATOM     11  C   UNL     1      10.137  33.432  78.093  0.00  0.00    +0.000 A 
ATOM     12  C   UNL     1       8.674  31.680  77.366  0.00  0.00    +0.000 A 
ATOM     13  C   UNL     1       9.001  32.636  78.324  0.00  0.00    +0.000 A 
BRANCH   8  15
ATOM     14  F   UNL     1      11.699  32.718  74.021  0.00  0.00    +0.000 F 
ATOM     15  C   UNL     1      11.602  31.747  74.966  0.00  0.00    +0.000 C 
ATOM     16  F   UNL     1      11.155  30.635  74.315  0.00  0.00    +0.000 F 
ATOM     17  F   UNL     1      12.878  31.459  75.349  0.00  0.00    +0.000 F 
ENDBRANCH   8  15
ENDBRANCH   1  13
BRANCH   5  18
ATOM     18  C   UNL     1       6.286  34.160  77.417  0.00  0.00    +0.000 A 
ATOM     19  C   UNL     1       5.375  33.098  77.358  0.00  0.00    +0.000 A 
ATOM     20  C   UNL     1       6.806  34.666  76.210  0.00  0.00    +0.000 A 
ATOM     21  C   UNL     1       4.997  32.564  76.122  0.00  0.00    +0.000 A 
ATOM     22  C   UNL     1       6.424  34.137  74.981  0.00  0.00    +0.000 A 
ATOM     23  C   UNL     1       5.515  33.088  74.936  0.00  0.00    +0.000 A 
ENDBRANCH   5  18
BRANCH   4  24
ATOM     24  C   UNL     1       6.110  33.125  82.075  0.00  0.00    +0.000 C 
ATOM     25  O   UNL     1       6.489  33.031  83.238  0.00  0.00    +0.000 OA
ATOM     26  O   UNL     1       5.055  32.425  81.618  0.00  0.00    +0.000 OA
ENDBRANCH   4  24
BRANCH   7  27
ATOM     27  C   UNL     1       4.707  36.310  78.517  0.00  0.00    +0.000 C 
ATOM     28  O   UNL     1       4.938  37.305  77.839  0.00  0.00    +0.000 OA
ATOM     29  O   UNL     1       3.489  35.740  78.524  0.00  0.00    +0.000 OA
ENDBRANCH   7  27
BRANCH   4  30
ATOM     30  C   UNL     1       7.619  35.186  81.837  0.00  0.00    +0.000 C 
BRANCH  30  31
ATOM     31  C   UNL     1       8.927  35.638  81.146  0.00  0.00    +0.000 C 
ATOM     32  C   UNL     1       8.954  37.172  81.035  0.00  0.00    +0.000 C 
ATOM     33  C   UNL     1      10.201  35.196  81.863  0.00  0.00    +0.000 C 
ENDBRANCH  30  31
ENDBRANCH   4  30
TORSDOF 7
ENDMDL
MODEL 6
REMARK VINA RESULT:      -7.1      2.967      4.346
REMARK  Name = 
REMARK  9 active torsions:
REMARK  status: ('A' for Active; 'I' for Inactive)
REMARK    1  A    between atoms: C_2  and  C_5
REMARK    2  A    between atoms: C_10  and  C_11
REMARK    3  A    between atoms: C_14  and  C_16
REMARK    4  A    between atoms: C_14  and  C_18
REMARK    5  A    between atoms: C_15  and  C_19
REMARK    6  A    between atoms: C_18  and  C_23
REMARK    7  A    between atoms: C_20  and  C_26
REMARK    8  A    between atoms: C_23  and  C_27
REMARK    9  A    between atoms: C_23  and  C_28
REMARK                            x       y       z     vdW  Elec       q    Type
REMARK                         _______ _______ _______ _____ _____    ______ ____
ROOT
ATOM      1  C   UNL     1       6.829  32.448  80.719  0.00  0.00    +0.000 C 
ATOM      2  O   UNL     1       7.098  32.000  81.831  0.00  0.00    +0.000 OA
ATOM      3  N   UNL     1       6.316  31.575  79.747  0.00  0.00    +0.000 N 
ATOM      4  C   UNL     1       5.652  30.284  80.122  0.00  0.00    +0.000 C 
ATOM      5  C   UNL     1       6.085  31.869  78.304  0.00  0.00    +0.000 C 
ATOM      6  C   UNL     1       5.707  29.548  78.738  0.00  0.00    +0.000 C 
ATOM      7  C   UNL     1       5.390  30.626  77.721  0.00  0.00    +0.000 C 
ENDROOT
BRANCH   1  13
ATOM      8  C   UNL     1       8.059  36.426  79.546  0.00  0.00    +0.000 A 
ATOM      9  C   UNL     1       9.006  35.462  79.920  0.00  0.00    +0.000 A 
ATOM     10  C   UNL     1       6.705  36.113  79.679  0.00  0.00    +0.000 A 
ATOM     11  C   UNL     1       8.593  34.184  80.336  0.00  0.00    +0.000 A 
ATOM     12  C   UNL     1       6.307  34.885  80.204  0.00  0.00    +0.000 A 
ATOM     13  C   UNL     1       7.227  33.865  80.424  0.00  0.00    +0.000 A 
BRANCH   8  15
ATOM     14  F   UNL     1       9.121  37.780  77.865  0.00  0.00    +0.000 F 
ATOM     15  C   UNL     1       8.429  37.796  79.034  0.00  0.00    +0.000 C 
ATOM     16  F   UNL     1       9.209  38.476  79.923  0.00  0.00    +0.000 F 
ATOM     17  F   UNL     1       7.340  38.588  78.822  0.00  0.00    +0.000 F 
ENDBRANCH   8  15
ENDBRANCH   1  13
BRANCH   5  18
ATOM     18  C   UNL     1       7.312  32.352  77.558  0.00  0.00    +0.000 A 
ATOM     19  C   UNL     1       8.553  31.705  77.608  0.00  0.00    +0.000 A 
ATOM     20  C   UNL     1       7.196  33.524  76.788  0.00  0.00    +0.000 A 
ATOM     21  C   UNL     1       9.644  32.224  76.902  0.00  0.00    +0.000 A 
ATOM     22  C   UNL     1       8.281  34.035  76.082  0.00  0.00    +0.000 A 
ATOM     23  C   UNL     1       9.506  33.382  76.135  0.00  0.00    +0.000 A 
ENDBRANCH   5  18
BRANCH   4  24
ATOM     24  C   UNL     1       6.335  29.228  81.034  0.00  0.00    +0.000 C 
ATOM     25  O   UNL     1       5.736  28.625  81.919  0.00  0.00    +0.000 OA
ATOM     26  O   UNL     1       7.592  28.898  80.682  0.00  0.00    +0.000 OA
ENDBRANCH   4  24
BRANCH   7  27
ATOM     27  C   UNL     1       5.638  30.400  76.248  0.00  0.00    +0.000 C 
ATOM     28  O   UNL     1       4.973  30.970  75.389  0.00  0.00    +0.000 OA
ATOM     29  O   UNL     1       6.586  29.506  75.916  0.00  0.00    +0.000 OA
ENDBRANCH   7  27
BRANCH   4  30
ATOM     30  C   UNL     1       4.159  30.500  80.557  0.00  0.00    +0.000 C 
BRANCH  30  31
ATOM     31  C   UNL     1       3.614  31.944  80.651  0.00  0.00    +0.000 C 
ATOM     32  C   UNL     1       2.357  32.084  79.776  0.00  0.00    +0.000 C 
ATOM     33  C   UNL     1       3.254  32.389  82.066  0.00  0.00    +0.000 C 
ENDBRANCH  30  31
ENDBRANCH   4  30
TORSDOF 7
ENDMDL
MODEL 7
REMARK VINA RESULT:      -7.0      2.232      4.950
REMARK  Name = 
REMARK  9 active torsions:
REMARK  status: ('A' for Active; 'I' for Inactive)
REMARK    1  A    between atoms: C_2  and  C_5
REMARK    2  A    between atoms: C_10  and  C_11
REMARK    3  A    between atoms: C_14  and  C_16
REMARK    4  A    between atoms: C_14  and  C_18
REMARK    5  A    between atoms: C_15  and  C_19
REMARK    6  A    between atoms: C_18  and  C_23
REMARK    7  A    between atoms: C_20  and  C_26
REMARK    8  A    between atoms: C_23  and  C_27
REMARK    9  A    between atoms: C_23  and  C_28
REMARK                            x       y       z     vdW  Elec       q    Type
REMARK                         _______ _______ _______ _____ _____    ______ ____
ROOT
ATOM      1  C   UNL     1       6.651  34.067  76.700  0.00  0.00    +0.000 C 
ATOM      2  O   UNL     1       6.160  34.817  75.859  0.00  0.00    +0.000 OA
ATOM      3  N   UNL     1       5.911  33.772  77.855  0.00  0.00    +0.000 N 
ATOM      4  C   UNL     1       4.419  33.928  77.893  0.00  0.00    +0.000 C 
ATOM      5  C   UNL     1       6.378  33.034  79.062  0.00  0.00    +0.000 C 
ATOM      6  C   UNL     1       4.194  33.928  79.445  0.00  0.00    +0.000 C 
ATOM      7  C   UNL     1       5.145  32.870  79.968  0.00  0.00    +0.000 C 
ENDROOT
BRANCH   1  13
ATOM      8  C   UNL     1      10.708  32.849  75.818  0.00  0.00    +0.000 A 
ATOM      9  C   UNL     1       9.678  31.903  75.915  0.00  0.00    +0.000 A 
ATOM     10  C   UNL     1      10.419  34.179  76.132  0.00  0.00    +0.000 A 
ATOM     11  C   UNL     1       8.371  32.305  76.240  0.00  0.00    +0.000 A 
ATOM     12  C   UNL     1       9.148  34.547  76.568  0.00  0.00    +0.000 A 
ATOM     13  C   UNL     1       8.082  33.653  76.513  0.00  0.00    +0.000 A 
BRANCH   8  15
ATOM     14  F   UNL     1      13.071  33.033  76.226  0.00  0.00    +0.000 F 
ATOM     15  C   UNL     1      12.119  32.501  75.416  0.00  0.00    +0.000 C 
ATOM     16  F   UNL     1      12.411  32.938  74.158  0.00  0.00    +0.000 F 
ATOM     17  F   UNL     1      12.342  31.157  75.398  0.00  0.00    +0.000 F 
ENDBRANCH   8  15
ENDBRANCH   1  13
BRANCH   5  18
ATOM     18  C   UNL     1       7.609  33.624  79.721  0.00  0.00    +0.000 A 
ATOM     19  C   UNL     1       8.717  32.864  80.114  0.00  0.00    +0.000 A 
ATOM     20  C   UNL     1       7.625  35.010  79.964  0.00  0.00    +0.000 A 
ATOM     21  C   UNL     1       9.809  33.481  80.732  0.00  0.00    +0.000 A 
ATOM     22  C   UNL     1       8.715  35.624  80.574  0.00  0.00    +0.000 A 
ATOM     23  C   UNL     1       9.811  34.860  80.954  0.00  0.00    +0.000 A 
ENDBRANCH   5  18
BRANCH   4  24
ATOM     24  C   UNL     1       3.707  35.252  77.501  0.00  0.00    +0.000 C 
ATOM     25  O   UNL     1       3.076  35.386  76.458  0.00  0.00    +0.000 OA
ATOM     26  O   UNL     1       3.692  36.196  78.461  0.00  0.00    +0.000 OA
ENDBRANCH   4  24
BRANCH   7  27
ATOM     27  C   UNL     1       5.457  32.767  81.442  0.00  0.00    +0.000 C 
ATOM     28  O   UNL     1       5.882  31.729  81.939  0.00  0.00    +0.000 OA
ATOM     29  O   UNL     1       5.200  33.847  82.200  0.00  0.00    +0.000 OA
ENDBRANCH   7  27
BRANCH   4  30
ATOM     30  C   UNL     1       3.687  32.700  77.244  0.00  0.00    +0.000 C 
BRANCH  30  31
ATOM     31  C   UNL     1       4.503  31.419  76.951  0.00  0.00    +0.000 C 
ATOM     32  C   UNL     1       3.740  30.187  77.465  0.00  0.00    +0.000 C 
ATOM     33  C   UNL     1       4.815  31.197  75.473  0.00  0.00    +0.000 C 
ENDBRANCH  30  31
ENDBRANCH   4  30
TORSDOF 7
ENDMDL
MODEL 8
REMARK VINA RESULT:      -6.9      4.299      6.670
REMARK  Name = 
REMARK  9 active torsions:
REMARK  status: ('A' for Active; 'I' for Inactive)
REMARK    1  A    between atoms: C_2  and  C_5
REMARK    2  A    between atoms: C_10  and  C_11
REMARK    3  A    between atoms: C_14  and  C_16
REMARK    4  A    between atoms: C_14  and  C_18
REMARK    5  A    between atoms: C_15  and  C_19
REMARK    6  A    between atoms: C_18  and  C_23
REMARK    7  A    between atoms: C_20  and  C_26
REMARK    8  A    between atoms: C_23  and  C_27
REMARK    9  A    between atoms: C_23  and  C_28
REMARK                            x       y       z     vdW  Elec       q    Type
REMARK                         _______ _______ _______ _____ _____    ______ ____
ROOT
ATOM      1  C   UNL     1       7.496  32.530  76.860  0.00  0.00    +0.000 C 
ATOM      2  O   UNL     1       8.170  32.485  75.834  0.00  0.00    +0.000 OA
ATOM      3  N   UNL     1       8.121  32.901  78.061  0.00  0.00    +0.000 N 
ATOM      4  C   UNL     1       9.403  33.680  78.071  0.00  0.00    +0.000 C 
ATOM      5  C   UNL     1       7.538  32.857  79.431  0.00  0.00    +0.000 C 
ATOM      6  C   UNL     1       9.860  33.412  79.548  0.00  0.00    +0.000 C 
ATOM      7  C   UNL     1       8.585  33.493  80.363  0.00  0.00    +0.000 C 
ENDROOT
BRANCH   1  13
ATOM      8  C   UNL     1       3.482  30.920  76.974  0.00  0.00    +0.000 A 
ATOM      9  C   UNL     1       4.570  30.112  76.616  0.00  0.00    +0.000 A 
ATOM     10  C   UNL     1       3.705  32.284  77.173  0.00  0.00    +0.000 A 
ATOM     11  C   UNL     1       5.866  30.655  76.545  0.00  0.00    +0.000 A 
ATOM     12  C   UNL     1       4.972  32.833  76.985  0.00  0.00    +0.000 A 
ATOM     13  C   UNL     1       6.086  32.021  76.790  0.00  0.00    +0.000 A 
BRANCH   8  15
ATOM     14  F   UNL     1       1.805  29.897  78.362  0.00  0.00    +0.000 F 
ATOM     15  C   UNL     1       2.076  30.396  77.128  0.00  0.00    +0.000 C 
ATOM     16  F   UNL     1       1.813  29.387  76.249  0.00  0.00    +0.000 F 
ATOM     17  F   UNL     1       1.132  31.348  76.885  0.00  0.00    +0.000 F 
ENDBRANCH   8  15
ENDBRANCH   1  13
BRANCH   5  18
ATOM     18  C   UNL     1       7.021  31.495  79.850  0.00  0.00    +0.000 A 
ATOM     19  C   UNL     1       7.760  30.313  79.721  0.00  0.00    +0.000 A 
ATOM     20  C   UNL     1       5.719  31.419  80.381  0.00  0.00    +0.000 A 
ATOM     21  C   UNL     1       7.205  29.091  80.116  0.00  0.00    +0.000 A 
ATOM     22  C   UNL     1       5.171  30.203  80.778  0.00  0.00    +0.000 A 
ATOM     23  C   UNL     1       5.916  29.038  80.651  0.00  0.00    +0.000 A 
ENDBRANCH   5  18
BRANCH   4  24
ATOM     24  C   UNL     1      10.666  33.220  77.293  0.00  0.00    +0.000 C 
ATOM     25  O   UNL     1      11.183  32.119  77.453  0.00  0.00    +0.000 OA
ATOM     26  O   UNL     1      11.063  34.049  76.310  0.00  0.00    +0.000 OA
ENDBRANCH   4  24
BRANCH   7  27
ATOM     27  C   UNL     1       8.543  32.996  81.789  0.00  0.00    +0.000 C 
ATOM     28  O   UNL     1       9.163  31.999  82.141  0.00  0.00    +0.000 OA
ATOM     29  O   UNL     1       7.753  33.665  82.648  0.00  0.00    +0.000 OA
ENDBRANCH   7  27
BRANCH   4  30
ATOM     30  C   UNL     1       9.155  35.215  77.856  0.00  0.00    +0.000 C 
BRANCH  30  31
ATOM     31  C   UNL     1       7.800  35.817  78.294  0.00  0.00    +0.000 C 
ATOM     32  C   UNL     1       8.038  37.095  79.116  0.00  0.00    +0.000 C 
ATOM     33  C   UNL     1       6.866  36.169  77.138  0.00  0.00    +0.000 C 
ENDBRANCH  30  31
ENDBRANCH   4  30
TORSDOF 7
ENDMDL
MODEL 9
REMARK VINA RESULT:      -6.8      2.029      4.704
REMARK  Name = 
REMARK  9 active torsions:
REMARK  status: ('A' for Active; 'I' for Inactive)
REMARK    1  A    between atoms: C_2  and  C_5
REMARK    2  A    between atoms: C_10  and  C_11
REMARK    3  A    between atoms: C_14  and  C_16
REMARK    4  A    between atoms: C_14  and  C_18
REMARK    5  A    between atoms: C_15  and  C_19
REMARK    6  A    between atoms: C_18  and  C_23
REMARK    7  A    between atoms: C_20  and  C_26
REMARK    8  A    between atoms: C_23  and  C_27
REMARK    9  A    between atoms: C_23  and  C_28
REMARK                            x       y       z     vdW  Elec       q    Type
REMARK                         _______ _______ _______ _____ _____    ______ ____
ROOT
ATOM      1  C   UNL     1       5.384  32.697  77.577  0.00  0.00    +0.000 C 
ATOM      2  O   UNL     1       4.531  33.375  77.009  0.00  0.00    +0.000 OA
ATOM      3  N   UNL     1       5.112  32.212  78.865  0.00  0.00    +0.000 N 
ATOM      4  C   UNL     1       3.707  32.075  79.372  0.00  0.00    +0.000 C 
ATOM      5  C   UNL     1       6.058  31.524  79.788  0.00  0.00    +0.000 C 
ATOM      6  C   UNL     1       3.993  31.961  80.910  0.00  0.00    +0.000 C 
ATOM      7  C   UNL     1       5.225  31.084  81.005  0.00  0.00    +0.000 C 
ENDROOT
BRANCH   1  13
ATOM      8  C   UNL     1       9.402  32.396  76.000  0.00  0.00    +0.000 A 
ATOM      9  C   UNL     1       8.825  33.647  76.262  0.00  0.00    +0.000 A 
ATOM     10  C   UNL     1       8.609  31.256  76.143  0.00  0.00    +0.000 A 
ATOM     11  C   UNL     1       7.504  33.735  76.738  0.00  0.00    +0.000 A 
ATOM     12  C   UNL     1       7.267  31.363  76.502  0.00  0.00    +0.000 A 
ATOM     13  C   UNL     1       6.729  32.577  76.920  0.00  0.00    +0.000 A 
BRANCH   8  15
ATOM     14  F   UNL     1      11.231  33.136  74.624  0.00  0.00    +0.000 F 
ATOM     15  C   UNL     1      10.829  32.222  75.545  0.00  0.00    +0.000 C 
ATOM     16  F   UNL     1      11.033  31.000  74.973  0.00  0.00    +0.000 F 
ATOM     17  F   UNL     1      11.720  32.298  76.572  0.00  0.00    +0.000 F 
ENDBRANCH   8  15
ENDBRANCH   1  13
BRANCH   5  18
ATOM     18  C   UNL     1       7.316  32.310  80.098  0.00  0.00    +0.000 A 
ATOM     19  C   UNL     1       7.312  33.652  80.499  0.00  0.00    +0.000 A 
ATOM     20  C   UNL     1       8.554  31.655  79.956  0.00  0.00    +0.000 A 
ATOM     21  C   UNL     1       8.519  34.313  80.751  0.00  0.00    +0.000 A 
ATOM     22  C   UNL     1       9.753  32.314  80.213  0.00  0.00    +0.000 A 
ATOM     23  C   UNL     1       9.736  33.643  80.615  0.00  0.00    +0.000 A 
ENDBRANCH   5  18
BRANCH   4  24
ATOM     24  C   UNL     1       2.694  33.253  79.356  0.00  0.00    +0.000 C 
ATOM     25  O   UNL     1       1.503  33.105  79.103  0.00  0.00    +0.000 OA
ATOM     26  O   UNL     1       3.180  34.428  79.799  0.00  0.00    +0.000 OA
ENDBRANCH   4  24
BRANCH   7  27
ATOM     27  C   UNL     1       6.004  30.976  82.295  0.00  0.00    +0.000 C 
ATOM     28  O   UNL     1       5.980  31.867  83.137  0.00  0.00    +0.000 OA
ATOM     29  O   UNL     1       6.769  29.883  82.460  0.00  0.00    +0.000 OA
ENDBRANCH   7  27
BRANCH   4  30
ATOM     30  C   UNL     1       3.025  30.759  78.853  0.00  0.00    +0.000 C 
BRANCH  30  31
ATOM     31  C   UNL     1       3.178  30.383  77.361  0.00  0.00    +0.000 C 
ATOM     32  C   UNL     1       4.027  29.107  77.230  0.00  0.00    +0.000 C 
ATOM     33  C   UNL     1       1.857  30.144  76.634  0.00  0.00    +0.000 C 
ENDBRANCH  30  31
ENDBRANCH   4  30
TORSDOF 7
ENDMDL
