MODEL 1
REMARK VINA RESULT:      -7.0      0.000      0.000
REMARK  Name = 
REMARK  8 active torsions:
REMARK  status: ('A' for Active; 'I' for Inactive)
REMARK    1  A    between atoms: C_7  and  C_8
REMARK    2  A    between atoms: C_11  and  C_13
REMARK    3  A    between atoms: C_11  and  C_15
REMARK    4  A    between atoms: C_12  and  C_16
REMARK    5  A    between atoms: C_15  and  C_20
REMARK    6  A    between atoms: C_17  and  C_23
REMARK    7  A    between atoms: C_20  and  C_24
REMARK    8  A    between atoms: C_20  and  C_25
REMARK                            x       y       z     vdW  Elec       q    Type
REMARK                         _______ _______ _______ _____ _____    ______ ____
ROOT
ATOM      1  C   UNL     1       7.310  32.055  76.915  0.00  0.00    +0.000 C 
ATOM      2  O   UNL     1       6.338  32.160  76.170  0.00  0.00    +0.000 OA
ATOM      3  N   UNL     1       7.148  31.788  78.306  0.00  0.00    +0.000 N 
ATOM      4  C   UNL     1       8.109  32.043  79.427  0.00  0.00    +0.000 C 
ATOM      5  C   UNL     1       5.762  31.948  78.858  0.00  0.00    +0.000 C 
ATOM      6  C   UNL     1       7.323  31.351  80.595  0.00  0.00    +0.000 C 
ATOM      7  C   UNL     1       5.858  31.710  80.376  0.00  0.00    +0.000 C 
ENDROOT
BRANCH   1  14
ATOM      8 CL   UNL     1      12.749  33.353  74.690  0.00  0.00    +0.000 Cl
ATOM      9  C   UNL     1      11.170  32.986  75.252  0.00  0.00    +0.000 A 
ATOM     10  C   UNL     1      10.270  33.996  75.553  0.00  0.00    +0.000 A 
ATOM     11  C   UNL     1      10.783  31.653  75.388  0.00  0.00    +0.000 A 
ATOM     12  C   UNL     1       9.004  33.674  76.058  0.00  0.00    +0.000 A 
ATOM     13  C   UNL     1       9.492  31.343  75.806  0.00  0.00    +0.000 A 
ATOM     14  C   UNL     1       8.625  32.329  76.260  0.00  0.00    +0.000 A 
ENDBRANCH   1  14
BRANCH   5  15
ATOM     15  C   UNL     1       4.683  31.166  78.173  0.00  0.00    +0.000 A 
ATOM     16  S   UNL     1       3.179  31.950  77.852  0.00  0.00    +0.000 S 
ATOM     17  C   UNL     1       4.678  29.871  77.697  0.00  0.00    +0.000 A 
ATOM     18  C   UNL     1       2.562  30.579  77.045  0.00  0.00    +0.000 A 
ATOM     19  C   UNL     1       3.469  29.544  77.021  0.00  0.00    +0.000 A 
ENDBRANCH   5  15
BRANCH   4  20
ATOM     20  C   UNL     1       9.455  31.273  79.523  0.00  0.00    +0.000 C 
ATOM     21  O   UNL     1       9.556  30.095  79.832  0.00  0.00    +0.000 OA
ATOM     22  O   UNL     1      10.536  31.991  79.120  0.00  0.00    +0.000 OA
ENDBRANCH   4  20
BRANCH   7  23
ATOM     23  C   UNL     1       4.962  30.625  80.940  0.00  0.00    +0.000 C 
ATOM     24  O   UNL     1       5.290  29.453  81.057  0.00  0.00    +0.000 OA
ATOM     25  O   UNL     1       3.757  31.075  81.350  0.00  0.00    +0.000 OA
ENDBRANCH   7  23
BRANCH   4  26
ATOM     26  C   UNL     1       8.278  33.553  79.849  0.00  0.00    +0.000 C 
BRANCH  26  27
ATOM     27  C   UNL     1       8.661  33.938  81.295  0.00  0.00    +0.000 C 
ATOM     28  C   UNL     1       9.965  34.733  81.397  0.00  0.00    +0.000 C 
ATOM     29  C   UNL     1       7.580  34.863  81.882  0.00  0.00    +0.000 C 
ENDBRANCH  26  27
ENDBRANCH   4  26
TORSDOF 6
ENDMDL
MODEL 2
REMARK VINA RESULT:      -6.8      1.104      1.638
REMARK  Name = 
REMARK  8 active torsions:
REMARK  status: ('A' for Active; 'I' for Inactive)
REMARK    1  A    between atoms: C_7  and  C_8
REMARK    2  A    between atoms: C_11  and  C_13
REMARK    3  A    between atoms: C_11  and  C_15
REMARK    4  A    between atoms: C_12  and  C_16
REMARK    5  A    between atoms: C_15  and  C_20
REMARK    6  A    between atoms: C_17  and  C_23
REMARK    7  A    between atoms: C_20  and  C_24
REMARK    8  A    between atoms: C_20  and  C_25
REMARK                            x       y       z     vdW  Elec       q    Type
REMARK                         _______ _______ _______ _____ _____    ______ ____
ROOT
ATOM      1  C   UNL     1       6.543  31.870  77.279  0.00  0.00    +0.000 C 
ATOM      2  O   UNL     1       5.601  32.275  76.602  0.00  0.00    +0.000 OA
ATOM      3  N   UNL     1       6.325  31.185  78.512  0.00  0.00    +0.000 N 
ATOM      4  C   UNL     1       7.269  31.001  79.660  0.00  0.00    +0.000 C 
ATOM      5  C   UNL     1       4.937  31.261  79.078  0.00  0.00    +0.000 C 
ATOM      6  C   UNL     1       6.406  30.031  80.541  0.00  0.00    +0.000 C 
ATOM      7  C   UNL     1       4.974  30.545  80.441  0.00  0.00    +0.000 C 
ENDROOT
BRANCH   1  14
ATOM      8 CL   UNL     1      12.069  33.553  75.593  0.00  0.00    +0.000 Cl
ATOM      9  C   UNL     1      10.471  33.078  76.000  0.00  0.00    +0.000 A 
ATOM     10  C   UNL     1       9.495  34.024  76.268  0.00  0.00    +0.000 A 
ATOM     11  C   UNL     1      10.149  31.722  76.041  0.00  0.00    +0.000 A 
ATOM     12  C   UNL     1       8.211  33.614  76.646  0.00  0.00    +0.000 A 
ATOM     13  C   UNL     1       8.846  31.326  76.332  0.00  0.00    +0.000 A 
ATOM     14  C   UNL     1       7.891  32.243  76.753  0.00  0.00    +0.000 A 
ENDBRANCH   1  14
BRANCH   5  15
ATOM     15  C   UNL     1       3.828  30.817  78.173  0.00  0.00    +0.000 A 
ATOM     16  S   UNL     1       2.381  31.758  78.126  0.00  0.00    +0.000 S 
ATOM     17  C   UNL     1       3.756  29.753  77.298  0.00  0.00    +0.000 A 
ATOM     18  C   UNL     1       1.702  30.769  76.913  0.00  0.00    +0.000 A 
ATOM     19  C   UNL     1       2.545  29.744  76.551  0.00  0.00    +0.000 A 
ENDBRANCH   5  15
BRANCH   4  20
ATOM     20  C   UNL     1       8.557  30.145  79.512  0.00  0.00    +0.000 C 
ATOM     21  O   UNL     1       9.691  30.601  79.496  0.00  0.00    +0.000 OA
ATOM     22  O   UNL     1       8.338  28.805  79.515  0.00  0.00    +0.000 OA
ENDBRANCH   4  20
BRANCH   7  23
ATOM     23  C   UNL     1       3.993  29.404  80.623  0.00  0.00    +0.000 C 
ATOM     24  O   UNL     1       2.837  29.543  80.995  0.00  0.00    +0.000 OA
ATOM     25  O   UNL     1       4.499  28.196  80.295  0.00  0.00    +0.000 OA
ENDBRANCH   7  23
BRANCH   4  26
ATOM     26  C   UNL     1       7.526  32.281  80.544  0.00  0.00    +0.000 C 
BRANCH  26  27
ATOM     27  C   UNL     1       8.117  33.568  79.927  0.00  0.00    +0.000 C 
ATOM     28  C   UNL     1       7.220  34.798  80.088  0.00  0.00    +0.000 C 
ATOM     29  C   UNL     1       9.426  33.929  80.651  0.00  0.00    +0.000 C 
ENDBRANCH  26  27
ENDBRANCH   4  26
TORSDOF 6
ENDMDL
MODEL 3
REMARK VINA RESULT:      -6.6      3.014      5.463
REMARK  Name = 
REMARK  8 active torsions:
REMARK  status: ('A' for Active; 'I' for Inactive)
REMARK    1  A    between atoms: C_7  and  C_8
REMARK    2  A    between atoms: C_11  and  C_13
REMARK    3  A    between atoms: C_11  and  C_15
REMARK    4  A    between atoms: C_12  and  C_16
REMARK    5  A    between atoms: C_15  and  C_20
REMARK    6  A    between atoms: C_17  and  C_23
REMARK    7  A    between atoms: C_20  and  C_24
REMARK    8  A    between atoms: C_20  and  C_25
REMARK                            x       y       z     vdW  Elec       q    Type
REMARK                         _______ _______ _______ _____ _____    ______ ____
ROOT
ATOM      1  C   UNL     1       8.628  34.322  77.795  0.00  0.00    +0.000 C 
ATOM      2  O   UNL     1       9.356  34.875  78.615  0.00  0.00    +0.000 OA
ATOM      3  N   UNL     1       7.209  34.443  77.868  0.00  0.00    +0.000 N 
ATOM      4  C   UNL     1       6.160  33.549  77.279  0.00  0.00    +0.000 C 
ATOM      5  C   UNL     1       6.654  35.006  79.143  0.00  0.00    +0.000 C 
ATOM      6  C   UNL     1       4.886  34.396  77.623  0.00  0.00    +0.000 C 
ATOM      7  C   UNL     1       5.120  34.944  79.026  0.00  0.00    +0.000 C 
ENDROOT
BRANCH   1  14
ATOM      8 CL   UNL     1      11.929  30.957  74.054  0.00  0.00    +0.000 Cl
ATOM      9  C   UNL     1      10.935  31.923  75.065  0.00  0.00    +0.000 A 
ATOM     10  C   UNL     1      11.012  33.306  75.026  0.00  0.00    +0.000 A 
ATOM     11  C   UNL     1      10.023  31.305  75.921  0.00  0.00    +0.000 A 
ATOM     12  C   UNL     1      10.226  34.073  75.896  0.00  0.00    +0.000 A 
ATOM     13  C   UNL     1       9.184  32.079  76.718  0.00  0.00    +0.000 A 
ATOM     14  C   UNL     1       9.347  33.455  76.812  0.00  0.00    +0.000 A 
ENDBRANCH   1  14
BRANCH   5  15
ATOM     15  C   UNL     1       7.191  36.340  79.567  0.00  0.00    +0.000 A 
ATOM     16  S   UNL     1       7.591  36.573  81.230  0.00  0.00    +0.000 S 
ATOM     17  C   UNL     1       7.470  37.470  78.827  0.00  0.00    +0.000 A 
ATOM     18  C   UNL     1       8.172  38.150  80.936  0.00  0.00    +0.000 A 
ATOM     19  C   UNL     1       8.063  38.500  79.610  0.00  0.00    +0.000 A 
ENDBRANCH   5  15
BRANCH   4  20
ATOM     20  C   UNL     1       5.984  33.422  75.741  0.00  0.00    +0.000 C 
ATOM     21  O   UNL     1       5.506  32.448  75.179  0.00  0.00    +0.000 OA
ATOM     22  O   UNL     1       6.304  34.547  75.049  0.00  0.00    +0.000 OA
ENDBRANCH   4  20
BRANCH   7  23
ATOM     23  C   UNL     1       4.382  36.256  79.207  0.00  0.00    +0.000 C 
ATOM     24  O   UNL     1       4.024  36.701  80.288  0.00  0.00    +0.000 OA
ATOM     25  O   UNL     1       4.183  36.929  78.054  0.00  0.00    +0.000 OA
ENDBRANCH   7  23
BRANCH   4  26
ATOM     26  C   UNL     1       5.968  32.159  77.998  0.00  0.00    +0.000 C 
BRANCH  26  27
ATOM     27  C   UNL     1       4.568  31.525  78.144  0.00  0.00    +0.000 C 
ATOM     28  C   UNL     1       4.459  30.123  77.540  0.00  0.00    +0.000 C 
ATOM     29  C   UNL     1       4.241  31.345  79.638  0.00  0.00    +0.000 C 
ENDBRANCH  26  27
ENDBRANCH   4  26
TORSDOF 6
ENDMDL
MODEL 4
REMARK VINA RESULT:      -6.3      2.235      3.853
REMARK  Name = 
REMARK  8 active torsions:
REMARK  status: ('A' for Active; 'I' for Inactive)
REMARK    1  A    between atoms: C_7  and  C_8
REMARK    2  A    between atoms: C_11  and  C_13
REMARK    3  A    between atoms: C_11  and  C_15
REMARK    4  A    between atoms: C_12  and  C_16
REMARK    5  A    between atoms: C_15  and  C_20
REMARK    6  A    between atoms: C_17  and  C_23
REMARK    7  A    between atoms: C_20  and  C_24
REMARK    8  A    between atoms: C_20  and  C_25
REMARK                            x       y       z     vdW  Elec       q    Type
REMARK                         _______ _______ _______ _____ _____    ______ ____
ROOT
ATOM      1  C   UNL     1       7.760  30.919  78.582  0.00  0.00    +0.000 C 
ATOM      2  O   UNL     1       7.790  29.692  78.640  0.00  0.00    +0.000 OA
ATOM      3  N   UNL     1       6.683  31.659  79.152  0.00  0.00    +0.000 N 
ATOM      4  C   UNL     1       6.233  33.053  78.836  0.00  0.00    +0.000 C 
ATOM      5  C   UNL     1       5.466  30.872  79.540  0.00  0.00    +0.000 C 
ATOM      6  C   UNL     1       5.144  33.225  79.952  0.00  0.00    +0.000 C 
ATOM      7  C   UNL     1       4.417  31.887  80.028  0.00  0.00    +0.000 C 
ENDROOT
BRANCH   1  14
ATOM      8 CL   UNL     1      11.907  33.594  75.138  0.00  0.00    +0.000 Cl
ATOM      9  C   UNL     1      10.776  32.775  76.134  0.00  0.00    +0.000 A 
ATOM     10  C   UNL     1       9.957  31.785  75.615  0.00  0.00    +0.000 A 
ATOM     11  C   UNL     1      10.695  33.099  77.489  0.00  0.00    +0.000 A 
ATOM     12  C   UNL     1       9.007  31.164  76.435  0.00  0.00    +0.000 A 
ATOM     13  C   UNL     1       9.808  32.413  78.314  0.00  0.00    +0.000 A 
ATOM     14  C   UNL     1       8.873  31.529  77.792  0.00  0.00    +0.000 A 
ENDBRANCH   1  14
BRANCH   5  15
ATOM     15  C   UNL     1       5.693  29.718  80.469  0.00  0.00    +0.000 A 
ATOM     16  S   UNL     1       4.746  28.290  80.250  0.00  0.00    +0.000 S 
ATOM     17  C   UNL     1       6.590  29.563  81.505  0.00  0.00    +0.000 A 
ATOM     18  C   UNL     1       5.572  27.474  81.499  0.00  0.00    +0.000 A 
ATOM     19  C   UNL     1       6.541  28.261  82.077  0.00  0.00    +0.000 A 
ENDBRANCH   5  15
BRANCH   4  20
ATOM     20  C   UNL     1       7.132  34.280  79.155  0.00  0.00    +0.000 C 
ATOM     21  O   UNL     1       7.632  34.505  80.248  0.00  0.00    +0.000 OA
ATOM     22  O   UNL     1       7.427  35.049  78.075  0.00  0.00    +0.000 OA
ENDBRANCH   4  20
BRANCH   7  23
ATOM     23  C   UNL     1       3.872  31.666  81.426  0.00  0.00    +0.000 C 
ATOM     24  O   UNL     1       4.418  32.058  82.447  0.00  0.00    +0.000 OA
ATOM     25  O   UNL     1       2.687  31.020  81.450  0.00  0.00    +0.000 OA
ENDBRANCH   7  23
BRANCH   4  26
ATOM     26  C   UNL     1       5.483  33.231  77.461  0.00  0.00    +0.000 C 
BRANCH  26  27
ATOM     27  C   UNL     1       5.958  32.488  76.193  0.00  0.00    +0.000 C 
ATOM     28  C   UNL     1       5.087  31.286  75.820  0.00  0.00    +0.000 C 
ATOM     29  C   UNL     1       5.873  33.435  74.982  0.00  0.00    +0.000 C 
ENDBRANCH  26  27
ENDBRANCH   4  26
TORSDOF 6
ENDMDL
MODEL 5
REMARK VINA RESULT:      -6.3      3.671      6.106
REMARK  Name = 
REMARK  8 active torsions:
REMARK  status: ('A' for Active; 'I' for Inactive)
REMARK    1  A    between atoms: C_7  and  C_8
REMARK    2  A    between atoms: C_11  and  C_13
REMARK    3  A    between atoms: C_11  and  C_15
REMARK    4  A    between atoms: C_12  and  C_16
REMARK    5  A    between atoms: C_15  and  C_20
REMARK    6  A    between atoms: C_17  and  C_23
REMARK    7  A    between atoms: C_20  and  C_24
REMARK    8  A    between atoms: C_20  and  C_25
REMARK                            x       y       z     vdW  Elec       q    Type
REMARK                         _______ _______ _______ _____ _____    ______ ____
ROOT
ATOM      1  C   UNL     1       6.518  34.353  79.907  0.00  0.00    +0.000 C 
ATOM      2  O   UNL     1       7.146  33.575  80.621  0.00  0.00    +0.000 OA
ATOM      3  N   UNL     1       6.064  33.964  78.612  0.00  0.00    +0.000 N 
ATOM      4  C   UNL     1       5.687  34.834  77.451  0.00  0.00    +0.000 C 
ATOM      5  C   UNL     1       6.648  32.699  78.054  0.00  0.00    +0.000 C 
ATOM      6  C   UNL     1       5.146  33.730  76.476  0.00  0.00    +0.000 C 
ATOM      7  C   UNL     1       6.093  32.546  76.626  0.00  0.00    +0.000 C 
ENDROOT
BRANCH   1  14
ATOM      8 CL   UNL     1       5.943  39.700  82.607  0.00  0.00    +0.000 Cl
ATOM      9  C   UNL     1       6.070  38.205  81.775  0.00  0.00    +0.000 A 
ATOM     10  C   UNL     1       5.048  37.271  81.832  0.00  0.00    +0.000 A 
ATOM     11  C   UNL     1       7.210  37.937  81.017  0.00  0.00    +0.000 A 
ATOM     12  C   UNL     1       5.195  36.036  81.187  0.00  0.00    +0.000 A 
ATOM     13  C   UNL     1       7.307  36.743  80.307  0.00  0.00    +0.000 A 
ATOM     14  C   UNL     1       6.371  35.730  80.470  0.00  0.00    +0.000 A 
ENDBRANCH   1  14
BRANCH   5  15
ATOM     15  C   UNL     1       6.513  31.475  78.909  0.00  0.00    +0.000 A 
ATOM     16  S   UNL     1       7.874  30.423  79.056  0.00  0.00    +0.000 S 
ATOM     17  C   UNL     1       5.453  31.024  79.667  0.00  0.00    +0.000 A 
ATOM     18  C   UNL     1       7.054  29.412  80.159  0.00  0.00    +0.000 A 
ATOM     19  C   UNL     1       5.775  29.854  80.410  0.00  0.00    +0.000 A 
ENDBRANCH   5  15
BRANCH   4  20
ATOM     20  C   UNL     1       4.444  35.763  77.513  0.00  0.00    +0.000 C 
ATOM     21  O   UNL     1       4.434  36.870  78.031  0.00  0.00    +0.000 OA
ATOM     22  O   UNL     1       3.364  35.294  76.834  0.00  0.00    +0.000 OA
ENDBRANCH   4  20
BRANCH   7  23
ATOM     23  C   UNL     1       5.364  31.250  76.329  0.00  0.00    +0.000 C 
ATOM     24  O   UNL     1       5.912  30.221  75.958  0.00  0.00    +0.000 OA
ATOM     25  O   UNL     1       4.034  31.313  76.551  0.00  0.00    +0.000 OA
ENDBRANCH   7  23
BRANCH   4  26
ATOM     26  C   UNL     1       6.888  35.528  76.702  0.00  0.00    +0.000 C 
BRANCH  26  27
ATOM     27  C   UNL     1       8.321  35.475  77.275  0.00  0.00    +0.000 C 
ATOM     28  C   UNL     1       9.270  34.572  76.482  0.00  0.00    +0.000 C 
ATOM     29  C   UNL     1       8.953  36.877  77.208  0.00  0.00    +0.000 C 
ENDBRANCH  26  27
ENDBRANCH   4  26
TORSDOF 6
ENDMDL
MODEL 6
REMARK VINA RESULT:      -6.2      2.865      5.040
REMARK  Name = 
REMARK  8 active torsions:
REMARK  status: ('A' for Active; 'I' for Inactive)
REMARK    1  A    between atoms: C_7  and  C_8
REMARK    2  A    between atoms: C_11  and  C_13
REMARK    3  A    between atoms: C_11  and  C_15
REMARK    4  A    between atoms: C_12  and  C_16
REMARK    5  A    between atoms: C_15  and  C_20
REMARK    6  A    between atoms: C_17  and  C_23
REMARK    7  A    between atoms: C_20  and  C_24
REMARK    8  A    between atoms: C_20  and  C_25
REMARK                            x       y       z     vdW  Elec       q    Type
REMARK                         _______ _______ _______ _____ _____    ______ ____
ROOT
ATOM      1  C   UNL     1       5.979  33.890  79.594  0.00  0.00    +0.000 C 
ATOM      2  O   UNL     1       5.402  33.458  80.589  0.00  0.00    +0.000 OA
ATOM      3  N   UNL     1       6.056  33.124  78.394  0.00  0.00    +0.000 N 
ATOM      4  C   UNL     1       7.031  33.249  77.263  0.00  0.00    +0.000 C 
ATOM      5  C   UNL     1       5.677  31.676  78.503  0.00  0.00    +0.000 C 
ATOM      6  C   UNL     1       6.393  32.220  76.266  0.00  0.00    +0.000 C 
ATOM      7  C   UNL     1       5.935  31.044  77.122  0.00  0.00    +0.000 C 
ENDROOT
BRANCH   1  14
ATOM      8 CL   UNL     1       9.021  39.062  80.058  0.00  0.00    +0.000 Cl
ATOM      9  C   UNL     1       8.132  37.595  80.000  0.00  0.00    +0.000 A 
ATOM     10  C   UNL     1       8.709  36.398  80.394  0.00  0.00    +0.000 A 
ATOM     11  C   UNL     1       6.806  37.615  79.569  0.00  0.00    +0.000 A 
ATOM     12  C   UNL     1       7.981  35.206  80.291  0.00  0.00    +0.000 A 
ATOM     13  C   UNL     1       6.063  36.437  79.554  0.00  0.00    +0.000 A 
ATOM     14  C   UNL     1       6.659  35.206  79.795  0.00  0.00    +0.000 A 
ENDBRANCH   1  14
BRANCH   5  15
ATOM     15  C   UNL     1       4.322  31.387  79.075  0.00  0.00    +0.000 A 
ATOM     16  S   UNL     1       4.179  30.130  80.250  0.00  0.00    +0.000 S 
ATOM     17  C   UNL     1       3.105  31.995  78.848  0.00  0.00    +0.000 A 
ATOM     18  C   UNL     1       2.517  30.442  80.474  0.00  0.00    +0.000 A 
ATOM     19  C   UNL     1       2.073  31.471  79.675  0.00  0.00    +0.000 A 
ENDBRANCH   5  15
BRANCH   4  20
ATOM     20  C   UNL     1       7.056  34.511  76.358  0.00  0.00    +0.000 C 
ATOM     21  O   UNL     1       7.713  35.515  76.590  0.00  0.00    +0.000 OA
ATOM     22  O   UNL     1       6.363  34.376  75.197  0.00  0.00    +0.000 OA
ENDBRANCH   4  20
BRANCH   7  23
ATOM     23  C   UNL     1       4.752  30.352  76.473  0.00  0.00    +0.000 C 
ATOM     24  O   UNL     1       4.011  30.878  75.655  0.00  0.00    +0.000 OA
ATOM     25  O   UNL     1       4.605  29.064  76.850  0.00  0.00    +0.000 OA
ENDBRANCH   7  23
BRANCH   4  26
ATOM     26  C   UNL     1       8.488  32.724  77.560  0.00  0.00    +0.000 C 
BRANCH  26  27
ATOM     27  C   UNL     1       9.621  32.891  76.523  0.00  0.00    +0.000 C 
ATOM     28  C   UNL     1      10.927  33.426  77.116  0.00  0.00    +0.000 C 
ATOM     29  C   UNL     1       9.982  31.516  75.933  0.00  0.00    +0.000 C 
ENDBRANCH  26  27
ENDBRANCH   4  26
TORSDOF 6
ENDMDL
MODEL 7
REMARK VINA RESULT:      -6.1      3.039      5.463
REMARK  Name = 
REMARK  8 active torsions:
REMARK  status: ('A' for Active; 'I' for Inactive)
REMARK    1  A    between atoms: C_7  and  C_8
REMARK    2  A    between atoms: C_11  and  C_13
REMARK    3  A    between atoms: C_11  and  C_15
REMARK    4  A    between atoms: C_12  and  C_16
REMARK    5  A    between atoms: C_15  and  C_20
REMARK    6  A    between atoms: C_17  and  C_23
REMARK    7  A    between atoms: C_20  and  C_24
REMARK    8  A    between atoms: C_20  and  C_25
REMARK                            x       y       z     vdW  Elec       q    Type
REMARK                         _______ _______ _______ _____ _____    ______ ____
ROOT
ATOM      1  C   UNL     1       7.364  33.750  79.404  0.00  0.00    +0.000 C 
ATOM      2  O   UNL     1       7.882  33.041  80.263  0.00  0.00    +0.000 OA
ATOM      3  N   UNL     1       6.933  33.204  78.159  0.00  0.00    +0.000 N 
ATOM      4  C   UNL     1       6.694  33.910  76.859  0.00  0.00    +0.000 C 
ATOM      5  C   UNL     1       7.416  31.821  77.836  0.00  0.00    +0.000 C 
ATOM      6  C   UNL     1       6.092  32.720  76.033  0.00  0.00    +0.000 C 
ATOM      7  C   UNL     1       6.912  31.494  76.418  0.00  0.00    +0.000 C 
ENDROOT
BRANCH   1  14
ATOM      8 CL   UNL     1       7.266  39.701  80.291  0.00  0.00    +0.000 Cl
ATOM      9  C   UNL     1       7.321  37.996  80.110  0.00  0.00    +0.000 A 
ATOM     10  C   UNL     1       8.482  37.362  79.699  0.00  0.00    +0.000 A 
ATOM     11  C   UNL     1       6.186  37.239  80.400  0.00  0.00    +0.000 A 
ATOM     12  C   UNL     1       8.489  35.974  79.510  0.00  0.00    +0.000 A 
ATOM     13  C   UNL     1       6.230  35.852  80.295  0.00  0.00    +0.000 A 
ATOM     14  C   UNL     1       7.328  35.206  79.740  0.00  0.00    +0.000 A 
ENDBRANCH   1  14
BRANCH   5  15
ATOM     15  C   UNL     1       7.125  30.763  78.857  0.00  0.00    +0.000 A 
ATOM     16  S   UNL     1       5.558  30.732  79.582  0.00  0.00    +0.000 S 
ATOM     17  C   UNL     1       7.910  29.732  79.329  0.00  0.00    +0.000 A 
ATOM     18  C   UNL     1       5.928  29.326  80.475  0.00  0.00    +0.000 A 
ATOM     19  C   UNL     1       7.211  28.888  80.237  0.00  0.00    +0.000 A 
ENDBRANCH   5  15
BRANCH   4  20
ATOM     20  C   UNL     1       5.545  34.945  76.705  0.00  0.00    +0.000 C 
ATOM     21  O   UNL     1       4.368  34.652  76.550  0.00  0.00    +0.000 OA
ATOM     22  O   UNL     1       5.933  36.236  76.874  0.00  0.00    +0.000 OA
ENDBRANCH   4  20
BRANCH   7  23
ATOM     23  C   UNL     1       6.075  30.238  76.279  0.00  0.00    +0.000 C 
ATOM     24  O   UNL     1       4.853  30.219  76.306  0.00  0.00    +0.000 OA
ATOM     25  O   UNL     1       6.804  29.120  76.077  0.00  0.00    +0.000 OA
ENDBRANCH   7  23
BRANCH   4  26
ATOM     26  C   UNL     1       7.989  34.369  76.084  0.00  0.00    +0.000 C 
BRANCH  26  27
ATOM     27  C   UNL     1       9.396  34.114  76.666  0.00  0.00    +0.000 C 
ATOM     28  C   UNL     1      10.162  32.992  75.960  0.00  0.00    +0.000 C 
ATOM     29  C   UNL     1      10.264  35.371  76.478  0.00  0.00    +0.000 C 
ENDBRANCH  26  27
ENDBRANCH   4  26
TORSDOF 6
ENDMDL
MODEL 8
REMARK VINA RESULT:      -6.1      4.351      6.788
REMARK  Name = 
REMARK  8 active torsions:
REMARK  status: ('A' for Active; 'I' for Inactive)
REMARK    1  A    between atoms: C_7  and  C_8
REMARK    2  A    between atoms: C_11  and  C_13
REMARK    3  A    between atoms: C_11  and  C_15
REMARK    4  A    between atoms: C_12  and  C_16
REMARK    5  A    between atoms: C_15  and  C_20
REMARK    6  A    between atoms: C_17  and  C_23
REMARK    7  A    between atoms: C_20  and  C_24
REMARK    8  A    between atoms: C_20  and  C_25
REMARK                            x       y       z     vdW  Elec       q    Type
REMARK                         _______ _______ _______ _____ _____    ______ ____
ROOT
ATOM      1  C   UNL     1       4.396  33.571  80.628  0.00  0.00    +0.000 C 
ATOM      2  O   UNL     1       4.637  32.650  81.404  0.00  0.00    +0.000 OA
ATOM      3  N   UNL     1       4.830  33.526  79.270  0.00  0.00    +0.000 N 
ATOM      4  C   UNL     1       5.027  34.660  78.311  0.00  0.00    +0.000 C 
ATOM      5  C   UNL     1       5.840  32.470  78.930  0.00  0.00    +0.000 C 
ATOM      6  C   UNL     1       5.336  33.840  77.011  0.00  0.00    +0.000 C 
ATOM      7  C   UNL     1       6.226  32.684  77.455  0.00  0.00    +0.000 C 
ENDROOT
BRANCH   1  14
ATOM      8 CL   UNL     1       1.826  38.567  82.785  0.00  0.00    +0.000 Cl
ATOM      9  C   UNL     1       2.560  37.114  82.242  0.00  0.00    +0.000 A 
ATOM     10  C   UNL     1       3.938  36.971  82.244  0.00  0.00    +0.000 A 
ATOM     11  C   UNL     1       1.756  36.059  81.813  0.00  0.00    +0.000 A 
ATOM     12  C   UNL     1       4.518  35.796  81.749  0.00  0.00    +0.000 A 
ATOM     13  C   UNL     1       2.340  34.862  81.407  0.00  0.00    +0.000 A 
ATOM     14  C   UNL     1       3.715  34.746  81.253  0.00  0.00    +0.000 A 
ENDBRANCH   1  14
BRANCH   5  15
ATOM     15  C   UNL     1       5.466  31.060  79.276  0.00  0.00    +0.000 A 
ATOM     16  S   UNL     1       6.638  30.073  80.071  0.00  0.00    +0.000 S 
ATOM     17  C   UNL     1       4.282  30.377  79.095  0.00  0.00    +0.000 A 
ATOM     18  C   UNL     1       5.543  28.771  80.206  0.00  0.00    +0.000 A 
ATOM     19  C   UNL     1       4.317  29.070  79.658  0.00  0.00    +0.000 A 
ENDBRANCH   5  15
BRANCH   4  20
ATOM     20  C   UNL     1       3.824  35.506  77.809  0.00  0.00    +0.000 C 
ATOM     21  O   UNL     1       3.323  36.432  78.429  0.00  0.00    +0.000 OA
ATOM     22  O   UNL     1       3.426  35.209  76.544  0.00  0.00    +0.000 OA
ENDBRANCH   4  20
BRANCH   7  23
ATOM     23  C   UNL     1       6.037  31.493  76.535  0.00  0.00    +0.000 C 
ATOM     24  O   UNL     1       6.843  30.582  76.413  0.00  0.00    +0.000 OA
ATOM     25  O   UNL     1       4.858  31.500  75.876  0.00  0.00    +0.000 OA
ENDBRANCH   7  23
BRANCH   4  26
ATOM     26  C   UNL     1       6.294  35.561  78.573  0.00  0.00    +0.000 C 
BRANCH  26  27
ATOM     27  C   UNL     1       6.789  36.567  77.510  0.00  0.00    +0.000 C 
ATOM     28  C   UNL     1       6.504  38.029  77.864  0.00  0.00    +0.000 C 
ATOM     29  C   UNL     1       8.321  36.475  77.390  0.00  0.00    +0.000 C 
ENDBRANCH  26  27
ENDBRANCH   4  26
TORSDOF 6
ENDMDL
MODEL 9
REMARK VINA RESULT:      -6.0      2.139      4.697
REMARK  Name = 
REMARK  8 active torsions:
REMARK  status: ('A' for Active; 'I' for Inactive)
REMARK    1  A    between atoms: C_7  and  C_8
REMARK    2  A    between atoms: C_11  and  C_13
REMARK    3  A    between atoms: C_11  and  C_15
REMARK    4  A    between atoms: C_12  and  C_16
REMARK    5  A    between atoms: C_15  and  C_20
REMARK    6  A    between atoms: C_17  and  C_23
REMARK    7  A    between atoms: C_20  and  C_24
REMARK    8  A    between atoms: C_20  and  C_25
REMARK                            x       y       z     vdW  Elec       q    Type
REMARK                         _______ _______ _______ _____ _____    ______ ____
ROOT
ATOM      1  C   UNL     1       7.845  32.672  78.419  0.00  0.00    +0.000 C 
ATOM      2  O   UNL     1       8.311  32.264  79.480  0.00  0.00    +0.000 OA
ATOM      3  N   UNL     1       6.455  32.963  78.287  0.00  0.00    +0.000 N 
ATOM      4  C   UNL     1       5.629  33.044  77.039  0.00  0.00    +0.000 C 
ATOM      5  C   UNL     1       5.563  32.462  79.384  0.00  0.00    +0.000 C 
ATOM      6  C   UNL     1       4.285  33.560  77.660  0.00  0.00    +0.000 C 
ATOM      7  C   UNL     1       4.119  32.803  78.973  0.00  0.00    +0.000 C 
ENDROOT
BRANCH   1  14
ATOM      8 CL   UNL     1      12.118  33.068  74.200  0.00  0.00    +0.000 Cl
ATOM      9  C   UNL     1      10.847  32.964  75.347  0.00  0.00    +0.000 A 
ATOM     10  C   UNL     1      10.320  34.106  75.930  0.00  0.00    +0.000 A 
ATOM     11  C   UNL     1      10.325  31.715  75.681  0.00  0.00    +0.000 A 
ATOM     12  C   UNL     1       9.317  33.995  76.901  0.00  0.00    +0.000 A 
ATOM     13  C   UNL     1       9.267  31.622  76.582  0.00  0.00    +0.000 A 
ATOM     14  C   UNL     1       8.826  32.731  77.293  0.00  0.00    +0.000 A 
ENDBRANCH   1  14
BRANCH   5  15
ATOM     15  C   UNL     1       5.927  32.880  80.776  0.00  0.00    +0.000 A 
ATOM     16  S   UNL     1       5.885  31.691  82.028  0.00  0.00    +0.000 S 
ATOM     17  C   UNL     1       6.345  34.100  81.266  0.00  0.00    +0.000 A 
ATOM     18  C   UNL     1       6.465  32.799  83.188  0.00  0.00    +0.000 A 
ATOM     19  C   UNL     1       6.683  34.046  82.647  0.00  0.00    +0.000 A 
ENDBRANCH   5  15
BRANCH   4  20
ATOM     20  C   UNL     1       5.875  34.156  75.982  0.00  0.00    +0.000 C 
ATOM     21  O   UNL     1       6.185  35.308  76.251  0.00  0.00    +0.000 OA
ATOM     22  O   UNL     1       5.832  33.721  74.696  0.00  0.00    +0.000 OA
ENDBRANCH   4  20
BRANCH   7  23
ATOM     23  C   UNL     1       3.321  33.633  79.960  0.00  0.00    +0.000 C 
ATOM     24  O   UNL     1       2.708  33.169  80.911  0.00  0.00    +0.000 OA
ATOM     25  O   UNL     1       3.377  34.960  79.721  0.00  0.00    +0.000 OA
ENDBRANCH   7  23
BRANCH   4  26
ATOM     26  C   UNL     1       5.293  31.664  76.354  0.00  0.00    +0.000 C 
BRANCH  26  27
ATOM     27  C   UNL     1       5.620  30.327  77.055  0.00  0.00    +0.000 C 
ATOM     28  C   UNL     1       4.417  29.390  77.187  0.00  0.00    +0.000 C 
ATOM     29  C   UNL     1       6.647  29.545  76.216  0.00  0.00    +0.000 C 
ENDBRANCH  26  27
ENDBRANCH   4  26
TORSDOF 6
ENDMDL
