MODEL 1
REMARK VINA RESULT:      -6.9      0.000      0.000
REMARK  Name = 
REMARK  8 active torsions:
REMARK  status: ('A' for Active; 'I' for Inactive)
REMARK    1  A    between atoms: C_2  and  C_5
REMARK    2  A    between atoms: C_8  and  C_11
REMARK    3  A    between atoms: C_9  and  C_14
REMARK    4  A    between atoms: C_10  and  C_15
REMARK    5  A    between atoms: C_10  and  C_16
REMARK    6  A    between atoms: C_16  and  C_23
REMARK    7  A    between atoms: C_23  and  C_26
REMARK    8  A    between atoms: C_23  and  C_27
REMARK                            x       y       z     vdW  Elec       q    Type
REMARK                         _______ _______ _______ _____ _____    ______ ____
ROOT
ATOM      1  C   UNL     1       5.517  32.652  78.704  0.00  0.00    +0.000 C 
ATOM      2  N   UNL     1       5.076  33.622  77.669  0.00  0.00    +0.000 N 
ATOM      3  C   UNL     1       7.050  32.752  78.675  0.00  0.00    +0.000 C 
ATOM      4  C   UNL     1       3.914  34.398  77.671  0.00  0.00    +0.000 C 
ATOM      5  C   UNL     1       6.162  33.843  76.661  0.00  0.00    +0.000 C 
ATOM      6  C   UNL     1       7.363  33.006  77.202  0.00  0.00    +0.000 C 
ATOM      7  O   UNL     1       3.677  35.156  76.727  0.00  0.00    +0.000 OA
ENDROOT
BRANCH   4   8
ATOM      8  C   UNL     1       2.938  34.403  78.795  0.00  0.00    +0.000 A 
ATOM      9  C   UNL     1       2.853  35.530  79.622  0.00  0.00    +0.000 A 
ATOM     10  C   UNL     1       2.039  33.362  78.996  0.00  0.00    +0.000 A 
ATOM     11  C   UNL     1       1.944  35.561  80.685  0.00  0.00    +0.000 A 
ATOM     12  C   UNL     1       1.175  33.358  80.093  0.00  0.00    +0.000 A 
ATOM     13  C   UNL     1       1.129  34.458  80.941  0.00  0.00    +0.000 A 
ENDBRANCH   4   8
BRANCH   1  15
ATOM     14  S   UNL     1       4.219  30.265  79.635  0.00  0.00    +0.000 S 
ATOM     15  C   UNL     1       4.998  31.231  78.446  0.00  0.00    +0.000 A 
ATOM     16  C   UNL     1       3.814  29.046  78.515  0.00  0.00    +0.000 A 
ATOM     17  C   UNL     1       4.995  30.564  77.227  0.00  0.00    +0.000 A 
ATOM     18  C   UNL     1       4.335  29.303  77.270  0.00  0.00    +0.000 A 
ENDBRANCH   1  15
BRANCH   3  19
ATOM     19  C   UNL     1       7.725  31.591  79.373  0.00  0.00    +0.000 C 
ATOM     20  O   UNL     1       7.714  31.456  80.589  0.00  0.00    +0.000 OA
ATOM     21  O   UNL     1       8.437  30.762  78.585  0.00  0.00    +0.000 OA
ENDBRANCH   3  19
BRANCH   5  22
ATOM     22  C   UNL     1       5.741  33.296  75.260  0.00  0.00    +0.000 C 
ATOM     23  O   UNL     1       5.301  32.170  75.079  0.00  0.00    +0.000 OA
ATOM     24  O   UNL     1       6.010  34.110  74.215  0.00  0.00    +0.000 OA
ENDBRANCH   5  22
BRANCH   5  25
ATOM     25  C   UNL     1       6.614  35.320  76.402  0.00  0.00    +0.000 C 
BRANCH  25  26
ATOM     26  C   UNL     1       7.103  36.200  77.574  0.00  0.00    +0.000 C 
ATOM     27  C   UNL     1       8.538  36.672  77.288  0.00  0.00    +0.000 C 
ATOM     28  C   UNL     1       6.239  37.431  77.827  0.00  0.00    +0.000 C 
ENDBRANCH  25  26
ENDBRANCH   5  25
TORSDOF 6
ENDMDL
MODEL 2
REMARK VINA RESULT:      -6.6      2.295      4.234
REMARK  Name = 
REMARK  8 active torsions:
REMARK  status: ('A' for Active; 'I' for Inactive)
REMARK    1  A    between atoms: C_2  and  C_5
REMARK    2  A    between atoms: C_8  and  C_11
REMARK    3  A    between atoms: C_9  and  C_14
REMARK    4  A    between atoms: C_10  and  C_15
REMARK    5  A    between atoms: C_10  and  C_16
REMARK    6  A    between atoms: C_16  and  C_23
REMARK    7  A    between atoms: C_23  and  C_26
REMARK    8  A    between atoms: C_23  and  C_27
REMARK                            x       y       z     vdW  Elec       q    Type
REMARK                         _______ _______ _______ _____ _____    ______ ____
ROOT
ATOM      1  C   UNL     1       7.492  32.927  79.061  0.00  0.00    +0.000 C 
ATOM      2  N   UNL     1       7.462  32.967  77.577  0.00  0.00    +0.000 N 
ATOM      3  C   UNL     1       8.524  31.835  79.380  0.00  0.00    +0.000 C 
ATOM      4  C   UNL     1       7.241  34.080  76.760  0.00  0.00    +0.000 C 
ATOM      5  C   UNL     1       7.914  31.658  77.007  0.00  0.00    +0.000 C 
ATOM      6  C   UNL     1       8.327  30.819  78.257  0.00  0.00    +0.000 C 
ATOM      7  O   UNL     1       7.235  33.953  75.533  0.00  0.00    +0.000 OA
ENDROOT
BRANCH   4   8
ATOM      8  C   UNL     1       7.055  35.458  77.291  0.00  0.00    +0.000 A 
ATOM      9  C   UNL     1       8.183  36.245  77.562  0.00  0.00    +0.000 A 
ATOM     10  C   UNL     1       5.797  36.028  77.440  0.00  0.00    +0.000 A 
ATOM     11  C   UNL     1       8.036  37.543  78.062  0.00  0.00    +0.000 A 
ATOM     12  C   UNL     1       5.642  37.297  77.999  0.00  0.00    +0.000 A 
ATOM     13  C   UNL     1       6.763  38.057  78.313  0.00  0.00    +0.000 A 
ENDBRANCH   4   8
BRANCH   1  15
ATOM     14  S   UNL     1       5.447  33.564  80.975  0.00  0.00    +0.000 S 
ATOM     15  C   UNL     1       6.113  32.656  79.676  0.00  0.00    +0.000 A 
ATOM     16  C   UNL     1       3.933  32.789  80.865  0.00  0.00    +0.000 A 
ATOM     17  C   UNL     1       5.182  31.725  79.231  0.00  0.00    +0.000 A 
ATOM     18  C   UNL     1       3.940  31.787  79.926  0.00  0.00    +0.000 A 
ENDBRANCH   1  15
BRANCH   3  19
ATOM     19  C   UNL     1       8.446  31.358  80.815  0.00  0.00    +0.000 C 
ATOM     20  O   UNL     1       8.985  31.953  81.738  0.00  0.00    +0.000 OA
ATOM     21  O   UNL     1       7.834  30.173  81.011  0.00  0.00    +0.000 OA
ENDBRANCH   3  19
BRANCH   5  22
ATOM     22  C   UNL     1       6.742  30.938  76.268  0.00  0.00    +0.000 C 
ATOM     23  O   UNL     1       5.719  31.504  75.911  0.00  0.00    +0.000 OA
ATOM     24  O   UNL     1       6.868  29.597  76.148  0.00  0.00    +0.000 OA
ENDBRANCH   5  22
BRANCH   5  25
ATOM     25  C   UNL     1       9.090  31.689  75.973  0.00  0.00    +0.000 C 
BRANCH  25  26
ATOM     26  C   UNL     1      10.528  32.000  76.442  0.00  0.00    +0.000 C 
ATOM     27  C   UNL     1      11.518  31.594  75.338  0.00  0.00    +0.000 C 
ATOM     28  C   UNL     1      10.767  33.468  76.778  0.00  0.00    +0.000 C 
ENDBRANCH  25  26
ENDBRANCH   5  25
TORSDOF 6
ENDMDL
MODEL 3
REMARK VINA RESULT:      -6.5      2.739      6.448
REMARK  Name = 
REMARK  8 active torsions:
REMARK  status: ('A' for Active; 'I' for Inactive)
REMARK    1  A    between atoms: C_2  and  C_5
REMARK    2  A    between atoms: C_8  and  C_11
REMARK    3  A    between atoms: C_9  and  C_14
REMARK    4  A    between atoms: C_10  and  C_15
REMARK    5  A    between atoms: C_10  and  C_16
REMARK    6  A    between atoms: C_16  and  C_23
REMARK    7  A    between atoms: C_23  and  C_26
REMARK    8  A    between atoms: C_23  and  C_27
REMARK                            x       y       z     vdW  Elec       q    Type
REMARK                         _______ _______ _______ _____ _____    ______ ____
ROOT
ATOM      1  C   UNL     1       7.940  32.919  79.037  0.00  0.00    +0.000 C 
ATOM      2  N   UNL     1       7.221  33.092  77.750  0.00  0.00    +0.000 N 
ATOM      3  C   UNL     1       7.003  32.025  79.865  0.00  0.00    +0.000 C 
ATOM      4  C   UNL     1       7.780  33.234  76.476  0.00  0.00    +0.000 C 
ATOM      5  C   UNL     1       5.749  32.891  77.938  0.00  0.00    +0.000 C 
ATOM      6  C   UNL     1       5.609  32.477  79.437  0.00  0.00    +0.000 C 
ATOM      7  O   UNL     1       7.048  33.382  75.495  0.00  0.00    +0.000 OA
ENDROOT
BRANCH   4   8
ATOM      8  C   UNL     1       9.244  33.168  76.216  0.00  0.00    +0.000 A 
ATOM      9  C   UNL     1       9.822  31.941  75.863  0.00  0.00    +0.000 A 
ATOM     10  C   UNL     1      10.046  34.303  76.218  0.00  0.00    +0.000 A 
ATOM     11  C   UNL     1      11.195  31.851  75.613  0.00  0.00    +0.000 A 
ATOM     12  C   UNL     1      11.426  34.210  76.034  0.00  0.00    +0.000 A 
ATOM     13  C   UNL     1      12.003  32.982  75.732  0.00  0.00    +0.000 A 
ENDBRANCH   4   8
BRANCH   1  15
ATOM     14  S   UNL     1       9.545  34.466  80.848  0.00  0.00    +0.000 S 
ATOM     15  C   UNL     1       8.265  34.253  79.721  0.00  0.00    +0.000 A 
ATOM     16  C   UNL     1       9.334  36.155  80.913  0.00  0.00    +0.000 A 
ATOM     17  C   UNL     1       7.654  35.476  79.472  0.00  0.00    +0.000 A 
ATOM     18  C   UNL     1       8.253  36.563  80.171  0.00  0.00    +0.000 A 
ENDBRANCH   1  15
BRANCH   3  19
ATOM     19  C   UNL     1       7.347  32.025  81.339  0.00  0.00    +0.000 C 
ATOM     20  O   UNL     1       8.255  31.349  81.805  0.00  0.00    +0.000 OA
ATOM     21  O   UNL     1       6.525  32.734  82.138  0.00  0.00    +0.000 OA
ENDBRANCH   3  19
BRANCH   5  22
ATOM     22  C   UNL     1       4.969  34.221  77.696  0.00  0.00    +0.000 C 
ATOM     23  O   UNL     1       4.729  35.035  78.577  0.00  0.00    +0.000 OA
ATOM     24  O   UNL     1       4.453  34.374  76.455  0.00  0.00    +0.000 OA
ENDBRANCH   5  22
BRANCH   5  25
ATOM     25  C   UNL     1       5.043  31.833  77.025  0.00  0.00    +0.000 C 
BRANCH  25  26
ATOM     26  C   UNL     1       5.338  30.328  77.208  0.00  0.00    +0.000 C 
ATOM     27  C   UNL     1       4.042  29.529  76.989  0.00  0.00    +0.000 C 
ATOM     28  C   UNL     1       6.398  29.783  76.257  0.00  0.00    +0.000 C 
ENDBRANCH  25  26
ENDBRANCH   5  25
TORSDOF 6
ENDMDL
MODEL 4
REMARK VINA RESULT:      -6.3      2.636      6.106
REMARK  Name = 
REMARK  8 active torsions:
REMARK  status: ('A' for Active; 'I' for Inactive)
REMARK    1  A    between atoms: C_2  and  C_5
REMARK    2  A    between atoms: C_8  and  C_11
REMARK    3  A    between atoms: C_9  and  C_14
REMARK    4  A    between atoms: C_10  and  C_15
REMARK    5  A    between atoms: C_10  and  C_16
REMARK    6  A    between atoms: C_16  and  C_23
REMARK    7  A    between atoms: C_23  and  C_26
REMARK    8  A    between atoms: C_23  and  C_27
REMARK                            x       y       z     vdW  Elec       q    Type
REMARK                         _______ _______ _______ _____ _____    ______ ____
ROOT
ATOM      1  C   UNL     1       7.190  33.754  76.949  0.00  0.00    +0.000 C 
ATOM      2  N   UNL     1       8.178  33.985  78.034  0.00  0.00    +0.000 N 
ATOM      3  C   UNL     1       6.151  34.867  77.153  0.00  0.00    +0.000 C 
ATOM      4  C   UNL     1       9.554  33.746  77.995  0.00  0.00    +0.000 C 
ATOM      5  C   UNL     1       7.545  34.726  79.170  0.00  0.00    +0.000 C 
ATOM      6  C   UNL     1       6.099  35.032  78.670  0.00  0.00    +0.000 C 
ATOM      7  O   UNL     1      10.248  33.979  78.988  0.00  0.00    +0.000 OA
ENDROOT
BRANCH   4   8
ATOM      8  C   UNL     1      10.265  33.259  76.781  0.00  0.00    +0.000 A 
ATOM      9  C   UNL     1      10.922  34.182  75.957  0.00  0.00    +0.000 A 
ATOM     10  C   UNL     1      10.379  31.906  76.486  0.00  0.00    +0.000 A 
ATOM     11  C   UNL     1      11.597  33.750  74.810  0.00  0.00    +0.000 A 
ATOM     12  C   UNL     1      10.994  31.474  75.310  0.00  0.00    +0.000 A 
ATOM     13  C   UNL     1      11.603  32.398  74.469  0.00  0.00    +0.000 A 
ENDBRANCH   4   8
BRANCH   1  15
ATOM     14  S   UNL     1       5.315  31.875  78.046  0.00  0.00    +0.000 S 
ATOM     15  C   UNL     1       6.584  32.345  76.986  0.00  0.00    +0.000 A 
ATOM     16  C   UNL     1       5.136  30.350  77.308  0.00  0.00    +0.000 A 
ATOM     17  C   UNL     1       6.894  31.292  76.133  0.00  0.00    +0.000 A 
ATOM     18  C   UNL     1       6.078  30.142  76.330  0.00  0.00    +0.000 A 
ENDBRANCH   1  15
BRANCH   3  19
ATOM     19  C   UNL     1       4.861  34.607  76.403  0.00  0.00    +0.000 C 
ATOM     20  O   UNL     1       4.824  33.986  75.350  0.00  0.00    +0.000 OA
ATOM     21  O   UNL     1       3.757  35.193  76.908  0.00  0.00    +0.000 OA
ENDBRANCH   3  19
BRANCH   5  22
ATOM     22  C   UNL     1       7.470  33.831  80.447  0.00  0.00    +0.000 C 
ATOM     23  O   UNL     1       7.595  32.615  80.427  0.00  0.00    +0.000 OA
ATOM     24  O   UNL     1       7.129  34.473  81.587  0.00  0.00    +0.000 OA
ENDBRANCH   5  22
BRANCH   5  25
ATOM     25  C   UNL     1       8.237  36.050  79.642  0.00  0.00    +0.000 C 
BRANCH  25  26
ATOM     26  C   UNL     1       8.135  37.329  78.781  0.00  0.00    +0.000 C 
ATOM     27  C   UNL     1       8.624  38.532  79.605  0.00  0.00    +0.000 C 
ATOM     28  C   UNL     1       8.947  37.274  77.492  0.00  0.00    +0.000 C 
ENDBRANCH  25  26
ENDBRANCH   5  25
TORSDOF 6
ENDMDL
MODEL 5
REMARK VINA RESULT:      -6.3      2.697      5.554
REMARK  Name = 
REMARK  8 active torsions:
REMARK  status: ('A' for Active; 'I' for Inactive)
REMARK    1  A    between atoms: C_2  and  C_5
REMARK    2  A    between atoms: C_8  and  C_11
REMARK    3  A    between atoms: C_9  and  C_14
REMARK    4  A    between atoms: C_10  and  C_15
REMARK    5  A    between atoms: C_10  and  C_16
REMARK    6  A    between atoms: C_16  and  C_23
REMARK    7  A    between atoms: C_23  and  C_26
REMARK    8  A    between atoms: C_23  and  C_27
REMARK                            x       y       z     vdW  Elec       q    Type
REMARK                         _______ _______ _______ _____ _____    ______ ____
ROOT
ATOM      1  C   UNL     1       6.782  32.247  77.513  0.00  0.00    +0.000 C 
ATOM      2  N   UNL     1       8.126  32.433  78.117  0.00  0.00    +0.000 N 
ATOM      3  C   UNL     1       7.028  32.421  76.006  0.00  0.00    +0.000 C 
ATOM      4  C   UNL     1       8.638  31.812  79.260  0.00  0.00    +0.000 C 
ATOM      5  C   UNL     1       8.998  33.252  77.216  0.00  0.00    +0.000 C 
ATOM      6  C   UNL     1       8.123  33.483  75.944  0.00  0.00    +0.000 C 
ATOM      7  O   UNL     1       9.778  32.080  79.649  0.00  0.00    +0.000 OA
ENDROOT
BRANCH   4   8
ATOM      8  C   UNL     1       7.891  30.783  80.033  0.00  0.00    +0.000 A 
ATOM      9  C   UNL     1       7.875  29.459  79.574  0.00  0.00    +0.000 A 
ATOM     10  C   UNL     1       7.285  31.070  81.251  0.00  0.00    +0.000 A 
ATOM     11  C   UNL     1       7.181  28.473  80.282  0.00  0.00    +0.000 A 
ATOM     12  C   UNL     1       6.537  30.106  81.929  0.00  0.00    +0.000 A 
ATOM     13  C   UNL     1       6.482  28.805  81.442  0.00  0.00    +0.000 A 
ENDBRANCH   4   8
BRANCH   1  15
ATOM     14  S   UNL     1       4.255  32.731  78.789  0.00  0.00    +0.000 S 
ATOM     15  C   UNL     1       5.738  33.221  78.073  0.00  0.00    +0.000 A 
ATOM     16  C   UNL     1       3.863  34.311  79.289  0.00  0.00    +0.000 A 
ATOM     17  C   UNL     1       5.868  34.602  78.169  0.00  0.00    +0.000 A 
ATOM     18  C   UNL     1       4.784  35.229  78.847  0.00  0.00    +0.000 A 
ENDBRANCH   1  15
BRANCH   3  19
ATOM     19  C   UNL     1       5.749  32.647  75.228  0.00  0.00    +0.000 C 
ATOM     20  O   UNL     1       4.910  31.772  75.069  0.00  0.00    +0.000 OA
ATOM     21  O   UNL     1       5.631  33.845  74.622  0.00  0.00    +0.000 OA
ENDBRANCH   3  19
BRANCH   5  22
ATOM     22  C   UNL     1       9.335  34.630  77.867  0.00  0.00    +0.000 C 
ATOM     23  O   UNL     1       9.210  34.862  79.061  0.00  0.00    +0.000 OA
ATOM     24  O   UNL     1       9.665  35.615  77.002  0.00  0.00    +0.000 OA
ENDBRANCH   5  22
BRANCH   5  25
ATOM     25  C   UNL     1      10.383  32.645  76.807  0.00  0.00    +0.000 C 
BRANCH  25  26
ATOM     26  C   UNL     1      10.806  32.604  75.322  0.00  0.00    +0.000 C 
ATOM     27  C   UNL     1      11.902  33.655  75.080  0.00  0.00    +0.000 C 
ATOM     28  C   UNL     1      11.337  31.249  74.866  0.00  0.00    +0.000 C 
ENDBRANCH  25  26
ENDBRANCH   5  25
TORSDOF 6
ENDMDL
MODEL 6
REMARK VINA RESULT:      -6.2      2.520      6.233
REMARK  Name = 
REMARK  8 active torsions:
REMARK  status: ('A' for Active; 'I' for Inactive)
REMARK    1  A    between atoms: C_2  and  C_5
REMARK    2  A    between atoms: C_8  and  C_11
REMARK    3  A    between atoms: C_9  and  C_14
REMARK    4  A    between atoms: C_10  and  C_15
REMARK    5  A    between atoms: C_10  and  C_16
REMARK    6  A    between atoms: C_16  and  C_23
REMARK    7  A    between atoms: C_23  and  C_26
REMARK    8  A    between atoms: C_23  and  C_27
REMARK                            x       y       z     vdW  Elec       q    Type
REMARK                         _______ _______ _______ _____ _____    ______ ____
ROOT
ATOM      1  C   UNL     1       6.497  34.272  79.319  0.00  0.00    +0.000 C 
ATOM      2  N   UNL     1       5.656  34.067  78.112  0.00  0.00    +0.000 N 
ATOM      3  C   UNL     1       5.557  33.931  80.486  0.00  0.00    +0.000 C 
ATOM      4  C   UNL     1       6.069  33.620  76.854  0.00  0.00    +0.000 C 
ATOM      5  C   UNL     1       4.204  34.207  78.454  0.00  0.00    +0.000 C 
ATOM      6  C   UNL     1       4.194  34.419  80.000  0.00  0.00    +0.000 C 
ATOM      7  O   UNL     1       5.249  33.510  75.939  0.00  0.00    +0.000 OA
ENDROOT
BRANCH   4   8
ATOM      8  C   UNL     1       7.468  33.211  76.552  0.00  0.00    +0.000 A 
ATOM      9  C   UNL     1       7.809  31.853  76.597  0.00  0.00    +0.000 A 
ATOM     10  C   UNL     1       8.429  34.123  76.132  0.00  0.00    +0.000 A 
ATOM     11  C   UNL     1       9.116  31.442  76.318  0.00  0.00    +0.000 A 
ATOM     12  C   UNL     1       9.750  33.730  75.915  0.00  0.00    +0.000 A 
ATOM     13  C   UNL     1      10.096  32.386  76.010  0.00  0.00    +0.000 A 
ENDBRANCH   4   8
BRANCH   1  15
ATOM     14  S   UNL     1       8.582  36.065  80.148  0.00  0.00    +0.000 S 
ATOM     15  C   UNL     1       7.079  35.689  79.404  0.00  0.00    +0.000 A 
ATOM     16  C   UNL     1       8.544  37.685  79.625  0.00  0.00    +0.000 A 
ATOM     17  C   UNL     1       6.543  36.835  78.830  0.00  0.00    +0.000 A 
ATOM     18  C   UNL     1       7.372  37.984  78.974  0.00  0.00    +0.000 A 
ENDBRANCH   1  15
BRANCH   3  19
ATOM     19  C   UNL     1       6.076  34.428  81.818  0.00  0.00    +0.000 C 
ATOM     20  O   UNL     1       6.960  33.853  82.438  0.00  0.00    +0.000 OA
ATOM     21  O   UNL     1       5.432  35.489  82.344  0.00  0.00    +0.000 OA
ENDBRANCH   3  19
BRANCH   5  22
ATOM     22  C   UNL     1       3.586  35.460  77.757  0.00  0.00    +0.000 C 
ATOM     23  O   UNL     1       3.239  35.479  76.585  0.00  0.00    +0.000 OA
ATOM     24  O   UNL     1       3.567  36.588  78.503  0.00  0.00    +0.000 OA
ENDBRANCH   5  22
BRANCH   5  25
ATOM     25  C   UNL     1       3.257  33.020  78.072  0.00  0.00    +0.000 C 
BRANCH  25  26
ATOM     26  C   UNL     1       3.352  31.676  78.828  0.00  0.00    +0.000 C 
ATOM     27  C   UNL     1       1.963  31.017  78.864  0.00  0.00    +0.000 C 
ATOM     28  C   UNL     1       4.332  30.685  78.209  0.00  0.00    +0.000 C 
ENDBRANCH  25  26
ENDBRANCH   5  25
TORSDOF 6
ENDMDL
MODEL 7
REMARK VINA RESULT:      -6.1      2.222      4.071
REMARK  Name = 
REMARK  8 active torsions:
REMARK  status: ('A' for Active; 'I' for Inactive)
REMARK    1  A    between atoms: C_2  and  C_5
REMARK    2  A    between atoms: C_8  and  C_11
REMARK    3  A    between atoms: C_9  and  C_14
REMARK    4  A    between atoms: C_10  and  C_15
REMARK    5  A    between atoms: C_10  and  C_16
REMARK    6  A    between atoms: C_16  and  C_23
REMARK    7  A    between atoms: C_23  and  C_26
REMARK    8  A    between atoms: C_23  and  C_27
REMARK                            x       y       z     vdW  Elec       q    Type
REMARK                         _______ _______ _______ _____ _____    ______ ____
ROOT
ATOM      1  C   UNL     1       6.368  32.716  78.844  0.00  0.00    +0.000 C 
ATOM      2  N   UNL     1       6.884  33.516  77.705  0.00  0.00    +0.000 N 
ATOM      3  C   UNL     1       6.821  31.283  78.524  0.00  0.00    +0.000 C 
ATOM      4  C   UNL     1       7.329  34.841  77.729  0.00  0.00    +0.000 C 
ATOM      5  C   UNL     1       7.078  32.649  76.499  0.00  0.00    +0.000 C 
ATOM      6  C   UNL     1       6.733  31.212  77.002  0.00  0.00    +0.000 C 
ATOM      7  O   UNL     1       7.723  35.378  76.690  0.00  0.00    +0.000 OA
ENDROOT
BRANCH   4   8
ATOM      8  C   UNL     1       7.405  35.654  78.973  0.00  0.00    +0.000 A 
ATOM      9  C   UNL     1       8.596  35.666  79.711  0.00  0.00    +0.000 A 
ATOM     10  C   UNL     1       6.363  36.479  79.381  0.00  0.00    +0.000 A 
ATOM     11  C   UNL     1       8.694  36.422  80.884  0.00  0.00    +0.000 A 
ATOM     12  C   UNL     1       6.430  37.184  80.583  0.00  0.00    +0.000 A 
ATOM     13  C   UNL     1       7.597  37.154  81.338  0.00  0.00    +0.000 A 
ENDBRANCH   4   8
BRANCH   1  15
ATOM     14  S   UNL     1       4.069  32.988  80.545  0.00  0.00    +0.000 S 
ATOM     15  C   UNL     1       4.849  32.845  79.020  0.00  0.00    +0.000 A 
ATOM     16  C   UNL     1       2.545  33.285  79.845  0.00  0.00    +0.000 A 
ATOM     17  C   UNL     1       3.908  32.957  78.003  0.00  0.00    +0.000 A 
ATOM     18  C   UNL     1       2.585  33.188  78.476  0.00  0.00    +0.000 A 
ENDBRANCH   1  15
BRANCH   3  19
ATOM     19  C   UNL     1       6.091  30.242  79.346  0.00  0.00    +0.000 C 
ATOM     20  O   UNL     1       6.355  30.023  80.520  0.00  0.00    +0.000 OA
ATOM     21  O   UNL     1       5.196  29.486  78.679  0.00  0.00    +0.000 OA
ENDBRANCH   3  19
BRANCH   5  22
ATOM     22  C   UNL     1       6.087  33.049  75.361  0.00  0.00    +0.000 C 
ATOM     23  O   UNL     1       6.063  34.156  74.843  0.00  0.00    +0.000 OA
ATOM     24  O   UNL     1       5.151  32.121  75.054  0.00  0.00    +0.000 OA
ENDBRANCH   5  22
BRANCH   5  25
ATOM     25  C   UNL     1       8.492  32.653  75.827  0.00  0.00    +0.000 C 
BRANCH  25  26
ATOM     26  C   UNL     1       9.660  31.874  76.470  0.00  0.00    +0.000 C 
ATOM     27  C   UNL     1      10.717  31.569  75.395  0.00  0.00    +0.000 C 
ATOM     28  C   UNL     1      10.346  32.615  77.613  0.00  0.00    +0.000 C 
ENDBRANCH  25  26
ENDBRANCH   5  25
TORSDOF 6
ENDMDL
MODEL 8
REMARK VINA RESULT:      -6.0      2.510      4.724
REMARK  Name = 
REMARK  8 active torsions:
REMARK  status: ('A' for Active; 'I' for Inactive)
REMARK    1  A    between atoms: C_2  and  C_5
REMARK    2  A    between atoms: C_8  and  C_11
REMARK    3  A    between atoms: C_9  and  C_14
REMARK    4  A    between atoms: C_10  and  C_15
REMARK    5  A    between atoms: C_10  and  C_16
REMARK    6  A    between atoms: C_16  and  C_23
REMARK    7  A    between atoms: C_23  and  C_26
REMARK    8  A    between atoms: C_23  and  C_27
REMARK                            x       y       z     vdW  Elec       q    Type
REMARK                         _______ _______ _______ _____ _____    ______ ____
ROOT
ATOM      1  C   UNL     1       7.257  33.881  78.751  0.00  0.00    +0.000 C 
ATOM      2  N   UNL     1       6.227  34.833  78.263  0.00  0.00    +0.000 N 
ATOM      3  C   UNL     1       7.662  34.445  80.121  0.00  0.00    +0.000 C 
ATOM      4  C   UNL     1       5.115  34.548  77.466  0.00  0.00    +0.000 C 
ATOM      5  C   UNL     1       6.401  36.172  78.912  0.00  0.00    +0.000 C 
ATOM      6  C   UNL     1       7.567  35.956  79.927  0.00  0.00    +0.000 C 
ATOM      7  O   UNL     1       4.349  35.455  77.130  0.00  0.00    +0.000 OA
ENDROOT
BRANCH   4   8
ATOM      8  C   UNL     1       4.760  33.172  77.023  0.00  0.00    +0.000 A 
ATOM      9  C   UNL     1       3.754  32.472  77.703  0.00  0.00    +0.000 A 
ATOM     10  C   UNL     1       5.326  32.591  75.895  0.00  0.00    +0.000 A 
ATOM     11  C   UNL     1       3.401  31.179  77.307  0.00  0.00    +0.000 A 
ATOM     12  C   UNL     1       5.026  31.277  75.533  0.00  0.00    +0.000 A 
ATOM     13  C   UNL     1       4.063  30.568  76.241  0.00  0.00    +0.000 A 
ENDBRANCH   4   8
BRANCH   1  15
ATOM     14  S   UNL     1       9.013  32.228  77.190  0.00  0.00    +0.000 S 
ATOM     15  C   UNL     1       8.438  33.735  77.782  0.00  0.00    +0.000 A 
ATOM     16  C   UNL     1      10.097  32.961  76.100  0.00  0.00    +0.000 A 
ATOM     17  C   UNL     1       9.143  34.772  77.181  0.00  0.00    +0.000 A 
ATOM     18  C   UNL     1      10.107  34.328  76.232  0.00  0.00    +0.000 A 
ENDBRANCH   1  15
BRANCH   3  19
ATOM     19  C   UNL     1       8.959  33.857  80.635  0.00  0.00    +0.000 C 
ATOM     20  O   UNL     1       9.994  34.505  80.711  0.00  0.00    +0.000 OA
ATOM     21  O   UNL     1       8.942  32.537  80.907  0.00  0.00    +0.000 OA
ENDBRANCH   3  19
BRANCH   5  22
ATOM     22  C   UNL     1       6.821  37.249  77.864  0.00  0.00    +0.000 C 
ATOM     23  O   UNL     1       7.881  37.221  77.254  0.00  0.00    +0.000 OA
ATOM     24  O   UNL     1       5.986  38.306  77.751  0.00  0.00    +0.000 OA
ENDBRANCH   5  22
BRANCH   5  25
ATOM     25  C   UNL     1       5.160  36.782  79.648  0.00  0.00    +0.000 C 
BRANCH  25  26
ATOM     26  C   UNL     1       4.518  36.036  80.838  0.00  0.00    +0.000 C 
ATOM     27  C   UNL     1       4.342  37.014  82.012  0.00  0.00    +0.000 C 
ATOM     28  C   UNL     1       3.158  35.422  80.523  0.00  0.00    +0.000 C 
ENDBRANCH  25  26
ENDBRANCH   5  25
TORSDOF 6
ENDMDL
MODEL 9
REMARK VINA RESULT:      -5.9      2.700      6.042
REMARK  Name = 
REMARK  8 active torsions:
REMARK  status: ('A' for Active; 'I' for Inactive)
REMARK    1  A    between atoms: C_2  and  C_5
REMARK    2  A    between atoms: C_8  and  C_11
REMARK    3  A    between atoms: C_9  and  C_14
REMARK    4  A    between atoms: C_10  and  C_15
REMARK    5  A    between atoms: C_10  and  C_16
REMARK    6  A    between atoms: C_16  and  C_23
REMARK    7  A    between atoms: C_23  and  C_26
REMARK    8  A    between atoms: C_23  and  C_27
REMARK                            x       y       z     vdW  Elec       q    Type
REMARK                         _______ _______ _______ _____ _____    ______ ____
ROOT
ATOM      1  C   UNL     1       6.293  33.440  78.145  0.00  0.00    +0.000 C 
ATOM      2  N   UNL     1       7.019  32.726  79.226  0.00  0.00    +0.000 N 
ATOM      3  C   UNL     1       5.404  34.443  78.896  0.00  0.00    +0.000 C 
ATOM      4  C   UNL     1       8.317  32.211  79.182  0.00  0.00    +0.000 C 
ATOM      5  C   UNL     1       6.247  32.792  80.508  0.00  0.00    +0.000 C 
ATOM      6  C   UNL     1       5.019  33.693  80.170  0.00  0.00    +0.000 C 
ATOM      7  O   UNL     1       8.783  31.629  80.165  0.00  0.00    +0.000 OA
ENDROOT
BRANCH   4   8
ATOM      8  C   UNL     1       9.217  32.367  78.007  0.00  0.00    +0.000 A 
ATOM      9  C   UNL     1      10.163  33.401  78.000  0.00  0.00    +0.000 A 
ATOM     10  C   UNL     1       9.218  31.461  76.952  0.00  0.00    +0.000 A 
ATOM     11  C   UNL     1      11.020  33.569  76.908  0.00  0.00    +0.000 A 
ATOM     12  C   UNL     1      10.025  31.660  75.831  0.00  0.00    +0.000 A 
ATOM     13  C   UNL     1      10.927  32.718  75.808  0.00  0.00    +0.000 A 
ENDBRANCH   4   8
BRANCH   1  15
ATOM     14  S   UNL     1       5.668  32.442  75.525  0.00  0.00    +0.000 S 
ATOM     15  C   UNL     1       5.501  32.492  77.234  0.00  0.00    +0.000 A 
ATOM     16  C   UNL     1       4.671  31.069  75.372  0.00  0.00    +0.000 A 
ATOM     17  C   UNL     1       4.623  31.496  77.647  0.00  0.00    +0.000 A 
ATOM     18  C   UNL     1       4.131  30.694  76.578  0.00  0.00    +0.000 A 
ENDBRANCH   1  15
BRANCH   3  19
ATOM     19  C   UNL     1       4.304  35.014  78.027  0.00  0.00    +0.000 C 
ATOM     20  O   UNL     1       4.519  35.836  77.147  0.00  0.00    +0.000 OA
ATOM     21  O   UNL     1       3.047  34.647  78.347  0.00  0.00    +0.000 OA
ENDBRANCH   3  19
BRANCH   5  22
ATOM     22  C   UNL     1       5.747  31.375  80.930  0.00  0.00    +0.000 C 
ATOM     23  O   UNL     1       5.785  30.398  80.195  0.00  0.00    +0.000 OA
ATOM     24  O   UNL     1       5.141  31.309  82.137  0.00  0.00    +0.000 OA
ENDBRANCH   5  22
BRANCH   5  25
ATOM     25  C   UNL     1       6.989  33.353  81.768  0.00  0.00    +0.000 C 
BRANCH  25  26
ATOM     26  C   UNL     1       7.553  34.791  81.761  0.00  0.00    +0.000 C 
ATOM     27  C   UNL     1       7.151  35.498  83.066  0.00  0.00    +0.000 C 
ATOM     28  C   UNL     1       9.071  34.862  81.630  0.00  0.00    +0.000 C 
ENDBRANCH  25  26
ENDBRANCH   5  25
TORSDOF 6
ENDMDL
