MODEL 1
REMARK VINA RESULT:      -6.7      0.000      0.000
REMARK  Name = 
REMARK  8 active torsions:
REMARK  status: ('A' for Active; 'I' for Inactive)
REMARK    1  A    between atoms: C_2  and  C_5
REMARK    2  A    between atoms: C_8  and  C_11
REMARK    3  A    between atoms: C_9  and  C_14
REMARK    4  A    between atoms: C_10  and  C_15
REMARK    5  A    between atoms: C_10  and  C_16
REMARK    6  A    between atoms: C_16  and  C_23
REMARK    7  A    between atoms: C_23  and  C_26
REMARK    8  A    between atoms: C_23  and  C_27
REMARK                            x       y       z     vdW  Elec       q    Type
REMARK                         _______ _______ _______ _____ _____    ______ ____
ROOT
ATOM      1  C   UNL     1       7.376  32.823  79.045  0.00  0.00    +0.000 C 
ATOM      2  N   UNL     1       7.347  32.806  77.561  0.00  0.00    +0.000 N 
ATOM      3  C   UNL     1       8.467  31.802  79.408  0.00  0.00    +0.000 C 
ATOM      4  C   UNL     1       7.073  33.876  76.698  0.00  0.00    +0.000 C 
ATOM      5  C   UNL     1       7.866  31.503  77.042  0.00  0.00    +0.000 C 
ATOM      6  C   UNL     1       8.327  30.735  78.322  0.00  0.00    +0.000 C 
ATOM      7  O   UNL     1       7.084  33.701  75.479  0.00  0.00    +0.000 OA
ENDROOT
BRANCH   4   8
ATOM      8  C   UNL     1       6.810  35.260  77.171  0.00  0.00    +0.000 A 
ATOM      9  C   UNL     1       7.865  36.180  77.233  0.00  0.00    +0.000 A 
ATOM     10  C   UNL     1       5.529  35.708  77.475  0.00  0.00    +0.000 A 
ATOM     11  C   UNL     1       7.641  37.493  77.665  0.00  0.00    +0.000 A 
ATOM     12  C   UNL     1       5.307  36.991  77.979  0.00  0.00    +0.000 A 
ATOM     13  C   UNL     1       6.370  37.885  78.076  0.00  0.00    +0.000 A 
ENDBRANCH   4   8
BRANCH   1  15
ATOM     14  S   UNL     1       5.291  33.446  80.915  0.00  0.00    +0.000 S 
ATOM     15  C   UNL     1       6.016  32.504  79.677  0.00  0.00    +0.000 A 
ATOM     16  C   UNL     1       3.820  32.591  80.835  0.00  0.00    +0.000 A 
ATOM     17  C   UNL     1       5.145  31.494  79.287  0.00  0.00    +0.000 A 
ATOM     18  C   UNL     1       3.893  31.532  79.963  0.00  0.00    +0.000 A 
ENDBRANCH   1  15
BRANCH   3  19
ATOM     19  C   UNL     1       8.408  31.367  80.858  0.00  0.00    +0.000 C 
ATOM     20  O   UNL     1       8.951  31.991  81.759  0.00  0.00    +0.000 OA
ATOM     21  O   UNL     1       7.820  30.177  81.089  0.00  0.00    +0.000 OA
ENDBRANCH   3  19
BRANCH   5  22
ATOM     22  C   UNL     1       6.733  30.704  76.335  0.00  0.00    +0.000 C 
ATOM     23  O   UNL     1       5.623  31.168  76.099  0.00  0.00    +0.000 OA
ATOM     24  O   UNL     1       7.000  29.402  76.102  0.00  0.00    +0.000 OA
ENDBRANCH   5  22
BRANCH   5  25
ATOM     25  C   UNL     1       9.042  31.549  76.005  0.00  0.00    +0.000 C 
BRANCH  25  26
ATOM     26  C   UNL     1      10.458  31.972  76.452  0.00  0.00    +0.000 C 
ATOM     27  C   UNL     1      11.466  31.598  75.353  0.00  0.00    +0.000 C 
ATOM     28  C   UNL     1      10.597  33.462  76.742  0.00  0.00    +0.000 C 
ENDBRANCH  25  26
ENDBRANCH   5  25
TORSDOF 6
ENDMDL
MODEL 2
REMARK VINA RESULT:      -6.5      2.158      4.669
REMARK  Name = 
REMARK  8 active torsions:
REMARK  status: ('A' for Active; 'I' for Inactive)
REMARK    1  A    between atoms: C_2  and  C_5
REMARK    2  A    between atoms: C_8  and  C_11
REMARK    3  A    between atoms: C_9  and  C_14
REMARK    4  A    between atoms: C_10  and  C_15
REMARK    5  A    between atoms: C_10  and  C_16
REMARK    6  A    between atoms: C_16  and  C_23
REMARK    7  A    between atoms: C_23  and  C_26
REMARK    8  A    between atoms: C_23  and  C_27
REMARK                            x       y       z     vdW  Elec       q    Type
REMARK                         _______ _______ _______ _____ _____    ______ ____
ROOT
ATOM      1  C   UNL     1       7.688  32.870  79.003  0.00  0.00    +0.000 C 
ATOM      2  N   UNL     1       6.960  33.135  77.737  0.00  0.00    +0.000 N 
ATOM      3  C   UNL     1       6.711  32.008  79.820  0.00  0.00    +0.000 C 
ATOM      4  C   UNL     1       7.502  33.281  76.452  0.00  0.00    +0.000 C 
ATOM      5  C   UNL     1       5.484  33.027  77.948  0.00  0.00    +0.000 C 
ATOM      6  C   UNL     1       5.341  32.565  79.434  0.00  0.00    +0.000 C 
ATOM      7  O   UNL     1       6.762  33.503  75.494  0.00  0.00    +0.000 OA
ENDROOT
BRANCH   4   8
ATOM      8  C   UNL     1       8.951  33.131  76.156  0.00  0.00    +0.000 A 
ATOM      9  C   UNL     1       9.784  34.257  76.197  0.00  0.00    +0.000 A 
ATOM     10  C   UNL     1       9.535  31.890  75.921  0.00  0.00    +0.000 A 
ATOM     11  C   UNL     1      11.154  34.141  75.932  0.00  0.00    +0.000 A 
ATOM     12  C   UNL     1      10.883  31.774  75.580  0.00  0.00    +0.000 A 
ATOM     13  C   UNL     1      11.694  32.906  75.584  0.00  0.00    +0.000 A 
ENDBRANCH   4   8
BRANCH   1  15
ATOM     14  S   UNL     1       9.476  34.249  80.773  0.00  0.00    +0.000 S 
ATOM     15  C   UNL     1       8.117  34.150  79.729  0.00  0.00    +0.000 A 
ATOM     16  C   UNL     1       9.362  35.943  80.915  0.00  0.00    +0.000 A 
ATOM     17  C   UNL     1       7.548  35.410  79.581  0.00  0.00    +0.000 A 
ATOM     18  C   UNL     1       8.251  36.434  80.275  0.00  0.00    +0.000 A 
ENDBRANCH   1  15
BRANCH   3  19
ATOM     19  C   UNL     1       7.074  31.939  81.289  0.00  0.00    +0.000 C 
ATOM     20  O   UNL     1       7.936  31.190  81.724  0.00  0.00    +0.000 OA
ATOM     21  O   UNL     1       6.302  32.670  82.118  0.00  0.00    +0.000 OA
ENDBRANCH   3  19
BRANCH   5  22
ATOM     22  C   UNL     1       4.801  34.413  77.766  0.00  0.00    +0.000 C 
ATOM     23  O   UNL     1       4.652  35.220  78.678  0.00  0.00    +0.000 OA
ATOM     24  O   UNL     1       4.255  34.637  76.552  0.00  0.00    +0.000 OA
ENDBRANCH   5  22
BRANCH   5  25
ATOM     25  C   UNL     1       4.684  32.051  77.016  0.00  0.00    +0.000 C 
BRANCH  25  26
ATOM     26  C   UNL     1       4.825  30.523  77.185  0.00  0.00    +0.000 C 
ATOM     27  C   UNL     1       3.489  29.852  76.827  0.00  0.00    +0.000 C 
ATOM     28  C   UNL     1       5.918  29.903  76.322  0.00  0.00    +0.000 C 
ENDBRANCH  25  26
ENDBRANCH   5  25
TORSDOF 6
ENDMDL
MODEL 3
REMARK VINA RESULT:      -6.4      2.220      4.237
REMARK  Name = 
REMARK  8 active torsions:
REMARK  status: ('A' for Active; 'I' for Inactive)
REMARK    1  A    between atoms: C_2  and  C_5
REMARK    2  A    between atoms: C_8  and  C_11
REMARK    3  A    between atoms: C_9  and  C_14
REMARK    4  A    between atoms: C_10  and  C_15
REMARK    5  A    between atoms: C_10  and  C_16
REMARK    6  A    between atoms: C_16  and  C_23
REMARK    7  A    between atoms: C_23  and  C_26
REMARK    8  A    between atoms: C_23  and  C_27
REMARK                            x       y       z     vdW  Elec       q    Type
REMARK                         _______ _______ _______ _____ _____    ______ ____
ROOT
ATOM      1  C   UNL     1       6.667  32.020  79.473  0.00  0.00    +0.000 C 
ATOM      2  N   UNL     1       6.920  32.237  78.027  0.00  0.00    +0.000 N 
ATOM      3  C   UNL     1       7.574  33.051  80.168  0.00  0.00    +0.000 C 
ATOM      4  C   UNL     1       6.012  32.096  76.969  0.00  0.00    +0.000 C 
ATOM      5  C   UNL     1       8.266  32.853  77.816  0.00  0.00    +0.000 C 
ATOM      6  C   UNL     1       8.804  33.106  79.262  0.00  0.00    +0.000 C 
ATOM      7  O   UNL     1       6.377  32.310  75.812  0.00  0.00    +0.000 OA
ENDROOT
BRANCH   4   8
ATOM      8  C   UNL     1       4.582  31.740  77.162  0.00  0.00    +0.000 A 
ATOM      9  C   UNL     1       4.120  30.485  76.743  0.00  0.00    +0.000 A 
ATOM     10  C   UNL     1       3.694  32.578  77.829  0.00  0.00    +0.000 A 
ATOM     11  C   UNL     1       2.780  30.122  76.923  0.00  0.00    +0.000 A 
ATOM     12  C   UNL     1       2.340  32.258  77.945  0.00  0.00    +0.000 A 
ATOM     13  C   UNL     1       1.882  31.024  77.487  0.00  0.00    +0.000 A 
ENDBRANCH   4   8
BRANCH   1  15
ATOM     14  S   UNL     1       5.942  29.718  81.024  0.00  0.00    +0.000 S 
ATOM     15  C   UNL     1       6.937  30.580  79.921  0.00  0.00    +0.000 A 
ATOM     16  C   UNL     1       6.766  28.249  80.765  0.00  0.00    +0.000 A 
ATOM     17  C   UNL     1       7.938  29.743  79.443  0.00  0.00    +0.000 A 
ATOM     18  C   UNL     1       7.852  28.412  79.940  0.00  0.00    +0.000 A 
ENDBRANCH   1  15
BRANCH   3  19
ATOM     19  C   UNL     1       7.776  32.759  81.641  0.00  0.00    +0.000 C 
ATOM     20  O   UNL     1       6.914  32.970  82.482  0.00  0.00    +0.000 OA
ATOM     21  O   UNL     1       9.014  32.362  81.995  0.00  0.00    +0.000 OA
ENDBRANCH   3  19
BRANCH   5  22
ATOM     22  C   UNL     1       9.212  31.863  77.076  0.00  0.00    +0.000 C 
ATOM     23  O   UNL     1       8.813  30.951  76.361  0.00  0.00    +0.000 OA
ATOM     24  O   UNL     1      10.524  31.986  77.368  0.00  0.00    +0.000 OA
ENDBRANCH   5  22
BRANCH   5  25
ATOM     25  C   UNL     1       8.338  34.183  76.989  0.00  0.00    +0.000 C 
BRANCH  25  26
ATOM     26  C   UNL     1       7.771  35.495  77.574  0.00  0.00    +0.000 C 
ATOM     27  C   UNL     1       8.715  36.655  77.217  0.00  0.00    +0.000 C 
ATOM     28  C   UNL     1       6.375  35.844  77.071  0.00  0.00    +0.000 C 
ENDBRANCH  25  26
ENDBRANCH   5  25
TORSDOF 6
ENDMDL
MODEL 4
REMARK VINA RESULT:      -6.4      2.204      5.454
REMARK  Name = 
REMARK  8 active torsions:
REMARK  status: ('A' for Active; 'I' for Inactive)
REMARK    1  A    between atoms: C_2  and  C_5
REMARK    2  A    between atoms: C_8  and  C_11
REMARK    3  A    between atoms: C_9  and  C_14
REMARK    4  A    between atoms: C_10  and  C_15
REMARK    5  A    between atoms: C_10  and  C_16
REMARK    6  A    between atoms: C_16  and  C_23
REMARK    7  A    between atoms: C_23  and  C_26
REMARK    8  A    between atoms: C_23  and  C_27
REMARK                            x       y       z     vdW  Elec       q    Type
REMARK                         _______ _______ _______ _____ _____    ______ ____
ROOT
ATOM      1  C   UNL     1       7.165  33.597  77.104  0.00  0.00    +0.000 C 
ATOM      2  N   UNL     1       8.160  33.899  78.163  0.00  0.00    +0.000 N 
ATOM      3  C   UNL     1       6.049  34.628  77.338  0.00  0.00    +0.000 C 
ATOM      4  C   UNL     1       9.555  33.772  78.087  0.00  0.00    +0.000 C 
ATOM      5  C   UNL     1       7.505  34.582  79.320  0.00  0.00    +0.000 C 
ATOM      6  C   UNL     1       6.025  34.784  78.859  0.00  0.00    +0.000 C 
ATOM      7  O   UNL     1      10.252  34.061  79.061  0.00  0.00    +0.000 OA
ENDROOT
BRANCH   4   8
ATOM      8  C   UNL     1      10.271  33.345  76.858  0.00  0.00    +0.000 A 
ATOM      9  C   UNL     1      10.828  34.312  76.012  0.00  0.00    +0.000 A 
ATOM     10  C   UNL     1      10.488  32.004  76.555  0.00  0.00    +0.000 A 
ATOM     11  C   UNL     1      11.517  33.935  74.853  0.00  0.00    +0.000 A 
ATOM     12  C   UNL     1      11.106  31.618  75.364  0.00  0.00    +0.000 A 
ATOM     13  C   UNL     1      11.620  32.590  74.509  0.00  0.00    +0.000 A 
ENDBRANCH   4   8
BRANCH   1  15
ATOM     14  S   UNL     1       5.553  31.550  78.304  0.00  0.00    +0.000 S 
ATOM     15  C   UNL     1       6.667  32.148  77.143  0.00  0.00    +0.000 A 
ATOM     16  C   UNL     1       5.382  30.054  77.508  0.00  0.00    +0.000 A 
ATOM     17  C   UNL     1       6.954  31.154  76.215  0.00  0.00    +0.000 A 
ATOM     18  C   UNL     1       6.232  29.947  76.435  0.00  0.00    +0.000 A 
ENDBRANCH   1  15
BRANCH   3  19
ATOM     19  C   UNL     1       4.758  34.270  76.630  0.00  0.00    +0.000 C 
ATOM     20  O   UNL     1       3.685  34.191  77.209  0.00  0.00    +0.000 OA
ATOM     21  O   UNL     1       4.879  33.922  75.334  0.00  0.00    +0.000 OA
ENDBRANCH   3  19
BRANCH   5  22
ATOM     22  C   UNL     1       7.537  33.674  80.583  0.00  0.00    +0.000 C 
ATOM     23  O   UNL     1       7.785  32.474  80.548  0.00  0.00    +0.000 OA
ATOM     24  O   UNL     1       7.145  34.264  81.732  0.00  0.00    +0.000 OA
ENDBRANCH   5  22
BRANCH   5  25
ATOM     25  C   UNL     1       8.101  35.955  79.788  0.00  0.00    +0.000 C 
BRANCH  25  26
ATOM     26  C   UNL     1       7.910  37.221  78.926  0.00  0.00    +0.000 C 
ATOM     27  C   UNL     1       8.271  38.460  79.762  0.00  0.00    +0.000 C 
ATOM     28  C   UNL     1       8.754  37.239  77.656  0.00  0.00    +0.000 C 
ENDBRANCH  25  26
ENDBRANCH   5  25
TORSDOF 6
ENDMDL
MODEL 5
REMARK VINA RESULT:      -6.2      2.459      5.424
REMARK  Name = 
REMARK  8 active torsions:
REMARK  status: ('A' for Active; 'I' for Inactive)
REMARK    1  A    between atoms: C_2  and  C_5
REMARK    2  A    between atoms: C_8  and  C_11
REMARK    3  A    between atoms: C_9  and  C_14
REMARK    4  A    between atoms: C_10  and  C_15
REMARK    5  A    between atoms: C_10  and  C_16
REMARK    6  A    between atoms: C_16  and  C_23
REMARK    7  A    between atoms: C_23  and  C_26
REMARK    8  A    between atoms: C_23  and  C_27
REMARK                            x       y       z     vdW  Elec       q    Type
REMARK                         _______ _______ _______ _____ _____    ______ ____
ROOT
ATOM      1  C   UNL     1       6.470  34.216  79.231  0.00  0.00    +0.000 C 
ATOM      2  N   UNL     1       5.651  33.978  78.017  0.00  0.00    +0.000 N 
ATOM      3  C   UNL     1       5.530  33.845  80.392  0.00  0.00    +0.000 C 
ATOM      4  C   UNL     1       6.092  33.534  76.762  0.00  0.00    +0.000 C 
ATOM      5  C   UNL     1       4.194  34.070  78.339  0.00  0.00    +0.000 C 
ATOM      6  C   UNL     1       4.156  34.284  79.886  0.00  0.00    +0.000 C 
ATOM      7  O   UNL     1       5.285  33.386  75.844  0.00  0.00    +0.000 OA
ENDROOT
BRANCH   4   8
ATOM      8  C   UNL     1       7.505  33.174  76.473  0.00  0.00    +0.000 A 
ATOM      9  C   UNL     1       7.892  31.828  76.492  0.00  0.00    +0.000 A 
ATOM     10  C   UNL     1       8.448  34.123  76.093  0.00  0.00    +0.000 A 
ATOM     11  C   UNL     1       9.214  31.462  76.213  0.00  0.00    +0.000 A 
ATOM     12  C   UNL     1       9.785  33.779  75.888  0.00  0.00    +0.000 A 
ATOM     13  C   UNL     1      10.168  32.441  75.951  0.00  0.00    +0.000 A 
ENDBRANCH   4   8
BRANCH   1  15
ATOM     14  S   UNL     1       8.514  36.064  80.029  0.00  0.00    +0.000 S 
ATOM     15  C   UNL     1       7.005  35.649  79.323  0.00  0.00    +0.000 A 
ATOM     16  C   UNL     1       8.420  37.683  79.508  0.00  0.00    +0.000 A 
ATOM     17  C   UNL     1       6.417  36.784  78.777  0.00  0.00    +0.000 A 
ATOM     18  C   UNL     1       7.219  37.954  78.899  0.00  0.00    +0.000 A 
ENDBRANCH   1  15
BRANCH   3  19
ATOM     19  C   UNL     1       6.009  34.373  81.728  0.00  0.00    +0.000 C 
ATOM     20  O   UNL     1       6.901  33.838  82.370  0.00  0.00    +0.000 OA
ATOM     21  O   UNL     1       5.307  35.406  82.236  0.00  0.00    +0.000 OA
ENDBRANCH   3  19
BRANCH   5  22
ATOM     22  C   UNL     1       3.553  35.297  77.628  0.00  0.00    +0.000 C 
ATOM     23  O   UNL     1       3.347  35.350  76.421  0.00  0.00    +0.000 OA
ATOM     24  O   UNL     1       3.342  36.376  78.411  0.00  0.00    +0.000 OA
ENDBRANCH   5  22
BRANCH   5  25
ATOM     25  C   UNL     1       3.284  32.852  77.954  0.00  0.00    +0.000 C 
BRANCH  25  26
ATOM     26  C   UNL     1       3.646  31.429  78.430  0.00  0.00    +0.000 C 
ATOM     27  C   UNL     1       2.480  30.863  79.257  0.00  0.00    +0.000 C 
ATOM     28  C   UNL     1       3.946  30.454  77.297  0.00  0.00    +0.000 C 
ENDBRANCH  25  26
ENDBRANCH   5  25
TORSDOF 6
ENDMDL
MODEL 6
REMARK VINA RESULT:      -6.1      2.635      5.144
REMARK  Name = 
REMARK  8 active torsions:
REMARK  status: ('A' for Active; 'I' for Inactive)
REMARK    1  A    between atoms: C_2  and  C_5
REMARK    2  A    between atoms: C_8  and  C_11
REMARK    3  A    between atoms: C_9  and  C_14
REMARK    4  A    between atoms: C_10  and  C_15
REMARK    5  A    between atoms: C_10  and  C_16
REMARK    6  A    between atoms: C_16  and  C_23
REMARK    7  A    between atoms: C_23  and  C_26
REMARK    8  A    between atoms: C_23  and  C_27
REMARK                            x       y       z     vdW  Elec       q    Type
REMARK                         _______ _______ _______ _____ _____    ______ ____
ROOT
ATOM      1  C   UNL     1       6.697  32.860  78.483  0.00  0.00    +0.000 C 
ATOM      2  N   UNL     1       7.603  31.993  79.277  0.00  0.00    +0.000 N 
ATOM      3  C   UNL     1       5.856  33.590  79.545  0.00  0.00    +0.000 C 
ATOM      4  C   UNL     1       8.919  31.622  78.968  0.00  0.00    +0.000 C 
ATOM      5  C   UNL     1       7.009  31.700  80.617  0.00  0.00    +0.000 C 
ATOM      6  C   UNL     1       5.693  32.543  80.647  0.00  0.00    +0.000 C 
ATOM      7  O   UNL     1       9.546  30.887  79.732  0.00  0.00    +0.000 OA
ENDROOT
BRANCH   4   8
ATOM      8  C   UNL     1       9.645  32.110  77.767  0.00  0.00    +0.000 A 
ATOM      9  C   UNL     1      10.508  33.208  77.880  0.00  0.00    +0.000 A 
ATOM     10  C   UNL     1       9.568  31.459  76.539  0.00  0.00    +0.000 A 
ATOM     11  C   UNL     1      11.211  33.680  76.765  0.00  0.00    +0.000 A 
ATOM     12  C   UNL     1      10.204  31.967  75.406  0.00  0.00    +0.000 A 
ATOM     13  C   UNL     1      11.027  33.085  75.521  0.00  0.00    +0.000 A 
ENDBRANCH   4   8
BRANCH   1  15
ATOM     14  S   UNL     1       5.710  32.494  75.815  0.00  0.00    +0.000 S 
ATOM     15  C   UNL     1       5.848  32.079  77.475  0.00  0.00    +0.000 A 
ATOM     16  C   UNL     1       4.861  31.068  75.431  0.00  0.00    +0.000 A 
ATOM     17  C   UNL     1       5.162  30.895  77.719  0.00  0.00    +0.000 A 
ATOM     18  C   UNL     1       4.581  30.325  76.551  0.00  0.00    +0.000 A 
ENDBRANCH   1  15
BRANCH   3  19
ATOM     19  C   UNL     1       4.611  34.233  78.971  0.00  0.00    +0.000 C 
ATOM     20  O   UNL     1       4.644  35.244  78.284  0.00  0.00    +0.000 OA
ATOM     21  O   UNL     1       3.440  33.693  79.362  0.00  0.00    +0.000 OA
ENDBRANCH   3  19
BRANCH   5  22
ATOM     22  C   UNL     1       6.660  30.189  80.743  0.00  0.00    +0.000 C 
ATOM     23  O   UNL     1       6.707  29.402  79.804  0.00  0.00    +0.000 OA
ATOM     24  O   UNL     1       6.172  29.804  81.941  0.00  0.00    +0.000 OA
ENDBRANCH   5  22
BRANCH   5  25
ATOM     25  C   UNL     1       7.872  32.028  81.885  0.00  0.00    +0.000 C 
BRANCH  25  26
ATOM     26  C   UNL     1       8.094  33.493  82.317  0.00  0.00    +0.000 C 
ATOM     27  C   UNL     1       8.293  33.545  83.840  0.00  0.00    +0.000 C 
ATOM     28  C   UNL     1       9.297  34.158  81.656  0.00  0.00    +0.000 C 
ENDBRANCH  25  26
ENDBRANCH   5  25
TORSDOF 6
ENDMDL
MODEL 7
REMARK VINA RESULT:      -6.1      2.221      4.984
REMARK  Name = 
REMARK  8 active torsions:
REMARK  status: ('A' for Active; 'I' for Inactive)
REMARK    1  A    between atoms: C_2  and  C_5
REMARK    2  A    between atoms: C_8  and  C_11
REMARK    3  A    between atoms: C_9  and  C_14
REMARK    4  A    between atoms: C_10  and  C_15
REMARK    5  A    between atoms: C_10  and  C_16
REMARK    6  A    between atoms: C_16  and  C_23
REMARK    7  A    between atoms: C_23  and  C_26
REMARK    8  A    between atoms: C_23  and  C_27
REMARK                            x       y       z     vdW  Elec       q    Type
REMARK                         _______ _______ _______ _____ _____    ______ ____
ROOT
ATOM      1  C   UNL     1       6.435  33.362  77.820  0.00  0.00    +0.000 C 
ATOM      2  N   UNL     1       7.508  32.349  77.653  0.00  0.00    +0.000 N 
ATOM      3  C   UNL     1       6.814  34.472  76.825  0.00  0.00    +0.000 C 
ATOM      4  C   UNL     1       7.396  30.957  77.769  0.00  0.00    +0.000 C 
ATOM      5  C   UNL     1       8.751  32.985  77.118  0.00  0.00    +0.000 C 
ATOM      6  C   UNL     1       8.342  34.472  76.861  0.00  0.00    +0.000 C 
ATOM      7  O   UNL     1       8.387  30.244  77.604  0.00  0.00    +0.000 OA
ENDROOT
BRANCH   4   8
ATOM      8  C   UNL     1       6.111  30.261  78.041  0.00  0.00    +0.000 A 
ATOM      9  C   UNL     1       5.276  29.911  76.971  0.00  0.00    +0.000 A 
ATOM     10  C   UNL     1       5.742  29.860  79.321  0.00  0.00    +0.000 A 
ATOM     11  C   UNL     1       4.066  29.246  77.200  0.00  0.00    +0.000 A 
ATOM     12  C   UNL     1       4.503  29.265  79.568  0.00  0.00    +0.000 A 
ATOM     13  C   UNL     1       3.662  28.960  78.501  0.00  0.00    +0.000 A 
ENDBRANCH   4   8
BRANCH   1  15
ATOM     14  S   UNL     1       7.506  34.778  80.073  0.00  0.00    +0.000 S 
ATOM     15  C   UNL     1       6.302  33.863  79.262  0.00  0.00    +0.000 A 
ATOM     16  C   UNL     1       6.500  35.093  81.411  0.00  0.00    +0.000 A 
ATOM     17  C   UNL     1       5.180  33.742  80.074  0.00  0.00    +0.000 A 
ATOM     18  C   UNL     1       5.300  34.432  81.313  0.00  0.00    +0.000 A 
ENDBRANCH   1  15
BRANCH   3  19
ATOM     19  C   UNL     1       6.087  35.774  77.092  0.00  0.00    +0.000 C 
ATOM     20  O   UNL     1       4.869  35.870  77.066  0.00  0.00    +0.000 OA
ATOM     21  O   UNL     1       6.870  36.861  77.242  0.00  0.00    +0.000 OA
ENDBRANCH   3  19
BRANCH   5  22
ATOM     22  C   UNL     1       9.891  32.936  78.177  0.00  0.00    +0.000 C 
ATOM     23  O   UNL     1      10.214  31.917  78.777  0.00  0.00    +0.000 OA
ATOM     24  O   UNL     1      10.436  34.128  78.499  0.00  0.00    +0.000 OA
ENDBRANCH   5  22
BRANCH   5  25
ATOM     25  C   UNL     1       9.377  32.379  75.815  0.00  0.00    +0.000 C 
BRANCH  25  26
ATOM     26  C   UNL     1      10.903  32.437  75.584  0.00  0.00    +0.000 C 
ATOM     27  C   UNL     1      11.333  31.219  74.749  0.00  0.00    +0.000 C 
ATOM     28  C   UNL     1      11.373  33.698  74.867  0.00  0.00    +0.000 C 
ENDBRANCH  25  26
ENDBRANCH   5  25
TORSDOF 6
ENDMDL
MODEL 8
REMARK VINA RESULT:      -6.1      2.415      3.801
REMARK  Name = 
REMARK  8 active torsions:
REMARK  status: ('A' for Active; 'I' for Inactive)
REMARK    1  A    between atoms: C_2  and  C_5
REMARK    2  A    between atoms: C_8  and  C_11
REMARK    3  A    between atoms: C_9  and  C_14
REMARK    4  A    between atoms: C_10  and  C_15
REMARK    5  A    between atoms: C_10  and  C_16
REMARK    6  A    between atoms: C_16  and  C_23
REMARK    7  A    between atoms: C_23  and  C_26
REMARK    8  A    between atoms: C_23  and  C_27
REMARK                            x       y       z     vdW  Elec       q    Type
REMARK                         _______ _______ _______ _____ _____    ______ ____
ROOT
ATOM      1  C   UNL     1       6.592  32.145  79.436  0.00  0.00    +0.000 C 
ATOM      2  N   UNL     1       7.431  33.263  78.939  0.00  0.00    +0.000 N 
ATOM      3  C   UNL     1       7.425  31.532  80.575  0.00  0.00    +0.000 C 
ATOM      4  C   UNL     1       6.999  34.491  78.419  0.00  0.00    +0.000 C 
ATOM      5  C   UNL     1       8.872  33.018  79.253  0.00  0.00    +0.000 C 
ATOM      6  C   UNL     1       8.865  31.696  80.086  0.00  0.00    +0.000 C 
ATOM      7  O   UNL     1       7.825  35.324  78.042  0.00  0.00    +0.000 OA
ENDROOT
BRANCH   4   8
ATOM      8  C   UNL     1       5.568  34.885  78.335  0.00  0.00    +0.000 A 
ATOM      9  C   UNL     1       5.000  35.646  79.364  0.00  0.00    +0.000 A 
ATOM     10  C   UNL     1       4.786  34.599  77.221  0.00  0.00    +0.000 A 
ATOM     11  C   UNL     1       3.658  36.039  79.303  0.00  0.00    +0.000 A 
ATOM     12  C   UNL     1       3.428  34.918  77.185  0.00  0.00    +0.000 A 
ATOM     13  C   UNL     1       2.862  35.640  78.233  0.00  0.00    +0.000 A 
ENDBRANCH   4   8
BRANCH   1  15
ATOM     14  S   UNL     1       4.647  30.510  78.103  0.00  0.00    +0.000 S 
ATOM     15  C   UNL     1       6.228  31.134  78.343  0.00  0.00    +0.000 A 
ATOM     16  C   UNL     1       5.072  29.733  76.649  0.00  0.00    +0.000 A 
ATOM     17  C   UNL     1       7.074  30.660  77.347  0.00  0.00    +0.000 A 
ATOM     18  C   UNL     1       6.416  29.841  76.386  0.00  0.00    +0.000 A 
ENDBRANCH   1  15
BRANCH   3  19
ATOM     19  C   UNL     1       6.952  30.149  80.973  0.00  0.00    +0.000 C 
ATOM     20  O   UNL     1       7.530  29.128  80.632  0.00  0.00    +0.000 OA
ATOM     21  O   UNL     1       5.776  30.100  81.629  0.00  0.00    +0.000 OA
ENDBRANCH   3  19
BRANCH   5  22
ATOM     22  C   UNL     1       9.689  32.803  77.946  0.00  0.00    +0.000 C 
ATOM     23  O   UNL     1       9.318  33.192  76.843  0.00  0.00    +0.000 OA
ATOM     24  O   UNL     1      10.795  32.040  78.071  0.00  0.00    +0.000 OA
ENDBRANCH   5  22
BRANCH   5  25
ATOM     25  C   UNL     1       9.647  34.131  80.041  0.00  0.00    +0.000 C 
BRANCH  25  26
ATOM     26  C   UNL     1       9.338  34.387  81.531  0.00  0.00    +0.000 C 
ATOM     27  C   UNL     1      10.398  35.339  82.109  0.00  0.00    +0.000 C 
ATOM     28  C   UNL     1       7.962  34.993  81.784  0.00  0.00    +0.000 C 
ENDBRANCH  25  26
ENDBRANCH   5  25
TORSDOF 6
ENDMDL
MODEL 9
REMARK VINA RESULT:      -6.1      2.182      5.126
REMARK  Name = 
REMARK  8 active torsions:
REMARK  status: ('A' for Active; 'I' for Inactive)
REMARK    1  A    between atoms: C_2  and  C_5
REMARK    2  A    between atoms: C_8  and  C_11
REMARK    3  A    between atoms: C_9  and  C_14
REMARK    4  A    between atoms: C_10  and  C_15
REMARK    5  A    between atoms: C_10  and  C_16
REMARK    6  A    between atoms: C_16  and  C_23
REMARK    7  A    between atoms: C_23  and  C_26
REMARK    8  A    between atoms: C_23  and  C_27
REMARK                            x       y       z     vdW  Elec       q    Type
REMARK                         _______ _______ _______ _____ _____    ______ ____
ROOT
ATOM      1  C   UNL     1       6.070  34.012  78.541  0.00  0.00    +0.000 C 
ATOM      2  N   UNL     1       7.280  33.208  78.846  0.00  0.00    +0.000 N 
ATOM      3  C   UNL     1       6.631  35.324  77.966  0.00  0.00    +0.000 C 
ATOM      4  C   UNL     1       7.422  31.815  78.772  0.00  0.00    +0.000 C 
ATOM      5  C   UNL     1       8.462  34.099  79.058  0.00  0.00    +0.000 C 
ATOM      6  C   UNL     1       7.921  35.534  78.758  0.00  0.00    +0.000 C 
ATOM      7  O   UNL     1       8.499  31.291  79.063  0.00  0.00    +0.000 OA
ENDROOT
BRANCH   4   8
ATOM      8  C   UNL     1       6.342  30.907  78.307  0.00  0.00    +0.000 A 
ATOM      9  C   UNL     1       6.175  30.680  76.935  0.00  0.00    +0.000 A 
ATOM     10  C   UNL     1       5.538  30.198  79.193  0.00  0.00    +0.000 A 
ATOM     11  C   UNL     1       5.171  29.820  76.472  0.00  0.00    +0.000 A 
ATOM     12  C   UNL     1       4.486  29.400  78.741  0.00  0.00    +0.000 A 
ATOM     13  C   UNL     1       4.302  29.213  77.373  0.00  0.00    +0.000 A 
ENDBRANCH   4   8
BRANCH   1  15
ATOM     14  S   UNL     1       3.600  33.545  79.923  0.00  0.00    +0.000 S 
ATOM     15  C   UNL     1       5.167  34.225  79.762  0.00  0.00    +0.000 A 
ATOM     16  C   UNL     1       3.448  34.040  81.545  0.00  0.00    +0.000 A 
ATOM     17  C   UNL     1       5.508  34.897  80.930  0.00  0.00    +0.000 A 
ATOM     18  C   UNL     1       4.515  34.808  81.945  0.00  0.00    +0.000 A 
ENDBRANCH   1  15
BRANCH   3  19
ATOM     19  C   UNL     1       5.608  36.442  77.945  0.00  0.00    +0.000 C 
ATOM     20  O   UNL     1       5.753  37.484  78.566  0.00  0.00    +0.000 OA
ATOM     21  O   UNL     1       4.460  36.172  77.292  0.00  0.00    +0.000 OA
ENDBRANCH   3  19
BRANCH   5  22
ATOM     22  C   UNL     1       8.946  34.024  80.535  0.00  0.00    +0.000 C 
ATOM     23  O   UNL     1       8.309  33.480  81.431  0.00  0.00    +0.000 OA
ATOM     24  O   UNL     1      10.072  34.714  80.813  0.00  0.00    +0.000 OA
ENDBRANCH   5  22
BRANCH   5  25
ATOM     25  C   UNL     1       9.743  33.828  78.194  0.00  0.00    +0.000 C 
BRANCH  25  26
ATOM     26  C   UNL     1       9.653  33.813  76.653  0.00  0.00    +0.000 C 
ATOM     27  C   UNL     1      10.680  34.802  76.078  0.00  0.00    +0.000 C 
ATOM     28  C   UNL     1       9.907  32.444  76.032  0.00  0.00    +0.000 C 
ENDBRANCH  25  26
ENDBRANCH   5  25
TORSDOF 6
ENDMDL
