MODEL 1
REMARK VINA RESULT:      -7.4      0.000      0.000
REMARK  Name = 
REMARK  9 active torsions:
REMARK  status: ('A' for Active; 'I' for Inactive)
REMARK    1  A    between atoms: C_2  and  C_5
REMARK    2  A    between atoms: C_10  and  C_11
REMARK    3  A    between atoms: C_14  and  C_16
REMARK    4  A    between atoms: C_14  and  C_18
REMARK    5  A    between atoms: C_15  and  C_19
REMARK    6  A    between atoms: C_18  and  C_23
REMARK    7  A    between atoms: C_20  and  C_26
REMARK    8  A    between atoms: C_23  and  C_27
REMARK    9  A    between atoms: C_27  and  C_32
REMARK                            x       y       z     vdW  Elec       q    Type
REMARK                         _______ _______ _______ _____ _____    ______ ____
ROOT
ATOM      1  C   UNL     1       8.403  30.866  79.010  0.00  0.00    +0.000 C 
ATOM      2  O   UNL     1       8.936  29.821  79.400  0.00  0.00    +0.000 OA
ATOM      3  N   UNL     1       7.134  31.229  79.498  0.00  0.00    +0.000 N 
ATOM      4  C   UNL     1       6.534  30.584  80.722  0.00  0.00    +0.000 C 
ATOM      5  C   UNL     1       6.406  32.495  79.200  0.00  0.00    +0.000 C 
ATOM      6  C   UNL     1       5.061  31.103  80.619  0.00  0.00    +0.000 C 
ATOM      7  C   UNL     1       5.188  32.531  80.124  0.00  0.00    +0.000 C 
ENDROOT
BRANCH   1  13
ATOM      8  C   UNL     1      10.799  32.837  75.996  0.00  0.00    +0.000 A 
ATOM      9  C   UNL     1      10.715  33.357  77.294  0.00  0.00    +0.000 A 
ATOM     10  C   UNL     1       9.960  31.774  75.657  0.00  0.00    +0.000 A 
ATOM     11  C   UNL     1       9.896  32.741  78.258  0.00  0.00    +0.000 A 
ATOM     12  C   UNL     1       9.070  31.239  76.589  0.00  0.00    +0.000 A 
ATOM     13  C   UNL     1       9.120  31.615  77.926  0.00  0.00    +0.000 A 
BRANCH   8  15
ATOM     14  F   UNL     1      13.031  33.513  75.412  0.00  0.00    +0.000 F 
ATOM     15  C   UNL     1      11.759  33.362  74.957  0.00  0.00    +0.000 C 
ATOM     16  F   UNL     1      11.385  34.582  74.477  0.00  0.00    +0.000 F 
ATOM     17  F   UNL     1      11.841  32.548  73.866  0.00  0.00    +0.000 F 
ENDBRANCH   8  15
ENDBRANCH   1  13
BRANCH   5  18
ATOM     18  C   UNL     1       6.117  32.774  77.741  0.00  0.00    +0.000 A 
ATOM     19  C   UNL     1       5.502  31.857  76.879  0.00  0.00    +0.000 A 
ATOM     20  C   UNL     1       6.561  34.007  77.211  0.00  0.00    +0.000 A 
ATOM     21  C   UNL     1       5.398  32.143  75.517  0.00  0.00    +0.000 A 
ATOM     22  C   UNL     1       6.475  34.277  75.849  0.00  0.00    +0.000 A 
ATOM     23  C   UNL     1       5.901  33.338  75.000  0.00  0.00    +0.000 A 
ENDBRANCH   5  18
BRANCH   4  24
ATOM     24  C   UNL     1       6.358  29.043  80.877  0.00  0.00    +0.000 C 
ATOM     25  O   UNL     1       5.567  28.403  80.198  0.00  0.00    +0.000 OA
ATOM     26  O   UNL     1       7.044  28.439  81.864  0.00  0.00    +0.000 OA
ENDBRANCH   4  24
BRANCH   7  27
ATOM     27  C   UNL     1       3.967  33.221  79.566  0.00  0.00    +0.000 C 
ATOM     28  O   UNL     1       3.003  32.588  79.158  0.00  0.00    +0.000 OA
ATOM     29  O   UNL     1       3.965  34.567  79.594  0.00  0.00    +0.000 OA
ENDBRANCH   7  27
BRANCH   4  30
ATOM     30  C   UNL     1       7.175  31.135  82.036  0.00  0.00    +0.000 C 
BRANCH  30  31
ATOM     31  C   UNL     1       8.422  32.009  81.874  0.00  0.00    +0.000 C 
BRANCH  31  32
ATOM     32  C   UNL     1       8.160  33.445  82.335  0.00  0.00    +0.000 C 
ATOM     33  C   UNL     1       8.715  34.453  81.340  0.00  0.00    +0.000 C 
ENDBRANCH  31  32
ENDBRANCH  30  31
ENDBRANCH   4  30
TORSDOF 8
ENDMDL
MODEL 2
REMARK VINA RESULT:      -7.2      3.943      6.376
REMARK  Name = 
REMARK  9 active torsions:
REMARK  status: ('A' for Active; 'I' for Inactive)
REMARK    1  A    between atoms: C_2  and  C_5
REMARK    2  A    between atoms: C_10  and  C_11
REMARK    3  A    between atoms: C_14  and  C_16
REMARK    4  A    between atoms: C_14  and  C_18
REMARK    5  A    between atoms: C_15  and  C_19
REMARK    6  A    between atoms: C_18  and  C_23
REMARK    7  A    between atoms: C_20  and  C_26
REMARK    8  A    between atoms: C_23  and  C_27
REMARK    9  A    between atoms: C_27  and  C_32
REMARK                            x       y       z     vdW  Elec       q    Type
REMARK                         _______ _______ _______ _____ _____    ______ ____
ROOT
ATOM      1  C   UNL     1       4.850  33.450  80.218  0.00  0.00    +0.000 C 
ATOM      2  O   UNL     1       3.963  33.990  80.890  0.00  0.00    +0.000 OA
ATOM      3  N   UNL     1       5.358  34.099  79.079  0.00  0.00    +0.000 N 
ATOM      4  C   UNL     1       5.117  35.564  78.819  0.00  0.00    +0.000 C 
ATOM      5  C   UNL     1       6.486  33.625  78.226  0.00  0.00    +0.000 C 
ATOM      6  C   UNL     1       5.600  35.670  77.334  0.00  0.00    +0.000 C 
ATOM      7  C   UNL     1       6.813  34.761  77.257  0.00  0.00    +0.000 C 
ENDROOT
BRANCH   1  13
ATOM      8  C   UNL     1       6.076  29.376  81.003  0.00  0.00    +0.000 A 
ATOM      9  C   UNL     1       4.815  29.650  80.459  0.00  0.00    +0.000 A 
ATOM     10  C   UNL     1       6.852  30.452  81.442  0.00  0.00    +0.000 A 
ATOM     11  C   UNL     1       4.401  30.979  80.251  0.00  0.00    +0.000 A 
ATOM     12  C   UNL     1       6.386  31.762  81.332  0.00  0.00    +0.000 A 
ATOM     13  C   UNL     1       5.230  32.054  80.618  0.00  0.00    +0.000 A 
BRANCH   8  15
ATOM     14  F   UNL     1       7.703  27.746  80.312  0.00  0.00    +0.000 F 
ATOM     15  C   UNL     1       6.638  27.981  81.124  0.00  0.00    +0.000 C 
ATOM     16  F   UNL     1       5.715  27.024  80.818  0.00  0.00    +0.000 F 
ATOM     17  F   UNL     1       7.056  27.696  82.390  0.00  0.00    +0.000 F 
ENDBRANCH   8  15
ENDBRANCH   1  13
BRANCH   5  18
ATOM     18  C   UNL     1       6.318  32.262  77.590  0.00  0.00    +0.000 A 
ATOM     19  C   UNL     1       5.170  31.863  76.894  0.00  0.00    +0.000 A 
ATOM     20  C   UNL     1       7.358  31.323  77.774  0.00  0.00    +0.000 A 
ATOM     21  C   UNL     1       5.044  30.543  76.459  0.00  0.00    +0.000 A 
ATOM     22  C   UNL     1       7.217  30.003  77.358  0.00  0.00    +0.000 A 
ATOM     23  C   UNL     1       6.053  29.611  76.707  0.00  0.00    +0.000 A 
ENDBRANCH   5  18
BRANCH   4  24
ATOM     24  C   UNL     1       3.695  36.203  78.777  0.00  0.00    +0.000 C 
ATOM     25  O   UNL     1       3.299  36.972  79.641  0.00  0.00    +0.000 OA
ATOM     26  O   UNL     1       2.865  35.801  77.799  0.00  0.00    +0.000 OA
ENDBRANCH   4  24
BRANCH   7  27
ATOM     27  C   UNL     1       7.319  34.335  75.900  0.00  0.00    +0.000 C 
ATOM     28  O   UNL     1       8.484  34.002  75.726  0.00  0.00    +0.000 OA
ATOM     29  O   UNL     1       6.415  34.283  74.904  0.00  0.00    +0.000 OA
ENDBRANCH   7  27
BRANCH   4  30
ATOM     30  C   UNL     1       6.029  36.465  79.714  0.00  0.00    +0.000 C 
BRANCH  30  31
ATOM     31  C   UNL     1       6.680  37.670  79.032  0.00  0.00    +0.000 C 
BRANCH  31  32
ATOM     32  C   UNL     1       8.203  37.635  79.172  0.00  0.00    +0.000 C 
ATOM     33  C   UNL     1       8.712  38.826  79.969  0.00  0.00    +0.000 C 
ENDBRANCH  31  32
ENDBRANCH  30  31
ENDBRANCH   4  30
TORSDOF 8
ENDMDL
MODEL 3
REMARK VINA RESULT:      -7.0      4.162      6.406
REMARK  Name = 
REMARK  9 active torsions:
REMARK  status: ('A' for Active; 'I' for Inactive)
REMARK    1  A    between atoms: C_2  and  C_5
REMARK    2  A    between atoms: C_10  and  C_11
REMARK    3  A    between atoms: C_14  and  C_16
REMARK    4  A    between atoms: C_14  and  C_18
REMARK    5  A    between atoms: C_15  and  C_19
REMARK    6  A    between atoms: C_18  and  C_23
REMARK    7  A    between atoms: C_20  and  C_26
REMARK    8  A    between atoms: C_23  and  C_27
REMARK    9  A    between atoms: C_27  and  C_32
REMARK                            x       y       z     vdW  Elec       q    Type
REMARK                         _______ _______ _______ _____ _____    ______ ____
ROOT
ATOM      1  C   UNL     1       7.554  32.648  76.764  0.00  0.00    +0.000 C 
ATOM      2  O   UNL     1       8.213  32.600  75.719  0.00  0.00    +0.000 OA
ATOM      3  N   UNL     1       8.155  33.108  77.950  0.00  0.00    +0.000 N 
ATOM      4  C   UNL     1       9.463  33.857  77.944  0.00  0.00    +0.000 C 
ATOM      5  C   UNL     1       7.473  33.313  79.259  0.00  0.00    +0.000 C 
ATOM      6  C   UNL     1       9.808  33.835  79.471  0.00  0.00    +0.000 C 
ATOM      7  C   UNL     1       8.474  34.026  80.170  0.00  0.00    +0.000 C 
ENDROOT
BRANCH   1  13
ATOM      8  C   UNL     1       3.593  30.922  76.968  0.00  0.00    +0.000 A 
ATOM      9  C   UNL     1       4.712  30.115  76.725  0.00  0.00    +0.000 A 
ATOM     10  C   UNL     1       3.768  32.308  76.972  0.00  0.00    +0.000 A 
ATOM     11  C   UNL     1       5.992  30.687  76.610  0.00  0.00    +0.000 A 
ATOM     12  C   UNL     1       5.024  32.871  76.747  0.00  0.00    +0.000 A 
ATOM     13  C   UNL     1       6.167  32.080  76.703  0.00  0.00    +0.000 A 
BRANCH   8  15
ATOM     14  F   UNL     1       1.867  29.341  76.419  0.00  0.00    +0.000 F 
ATOM     15  C   UNL     1       2.217  30.365  77.240  0.00  0.00    +0.000 C 
ATOM     16  F   UNL     1       1.241  31.309  77.101  0.00  0.00    +0.000 F 
ATOM     17  F   UNL     1       2.089  29.891  78.512  0.00  0.00    +0.000 F 
ENDBRANCH   8  15
ENDBRANCH   1  13
BRANCH   5  18
ATOM     18  C   UNL     1       6.803  32.099  79.863  0.00  0.00    +0.000 A 
ATOM     19  C   UNL     1       7.407  30.838  79.952  0.00  0.00    +0.000 A 
ATOM     20  C   UNL     1       5.465  32.239  80.297  0.00  0.00    +0.000 A 
ATOM     21  C   UNL     1       6.668  29.742  80.398  0.00  0.00    +0.000 A 
ATOM     22  C   UNL     1       4.727  31.138  80.719  0.00  0.00    +0.000 A 
ATOM     23  C   UNL     1       5.328  29.885  80.759  0.00  0.00    +0.000 A 
ENDBRANCH   5  18
BRANCH   4  24
ATOM     24  C   UNL     1      10.762  33.308  77.278  0.00  0.00    +0.000 C 
ATOM     25  O   UNL     1      11.177  32.177  77.490  0.00  0.00    +0.000 OA
ATOM     26  O   UNL     1      11.479  34.160  76.525  0.00  0.00    +0.000 OA
ENDBRANCH   4  24
BRANCH   7  27
ATOM     27  C   UNL     1       8.368  33.697  81.639  0.00  0.00    +0.000 C 
ATOM     28  O   UNL     1       9.102  32.871  82.166  0.00  0.00    +0.000 OA
ATOM     29  O   UNL     1       7.468  34.397  82.354  0.00  0.00    +0.000 OA
ENDBRANCH   7  27
BRANCH   4  30
ATOM     30  C   UNL     1       9.274  35.341  77.489  0.00  0.00    +0.000 C 
BRANCH  30  31
ATOM     31  C   UNL     1       7.877  35.735  77.006  0.00  0.00    +0.000 C 
BRANCH  31  32
ATOM     32  C   UNL     1       7.481  37.123  77.513  0.00  0.00    +0.000 C 
ATOM     33  C   UNL     1       8.311  37.526  78.723  0.00  0.00    +0.000 C 
ENDBRANCH  31  32
ENDBRANCH  30  31
ENDBRANCH   4  30
TORSDOF 8
ENDMDL
MODEL 4
REMARK VINA RESULT:      -6.9      1.961      3.221
REMARK  Name = 
REMARK  9 active torsions:
REMARK  status: ('A' for Active; 'I' for Inactive)
REMARK    1  A    between atoms: C_2  and  C_5
REMARK    2  A    between atoms: C_10  and  C_11
REMARK    3  A    between atoms: C_14  and  C_16
REMARK    4  A    between atoms: C_14  and  C_18
REMARK    5  A    between atoms: C_15  and  C_19
REMARK    6  A    between atoms: C_18  and  C_23
REMARK    7  A    between atoms: C_20  and  C_26
REMARK    8  A    between atoms: C_23  and  C_27
REMARK    9  A    between atoms: C_27  and  C_32
REMARK                            x       y       z     vdW  Elec       q    Type
REMARK                         _______ _______ _______ _____ _____    ______ ____
ROOT
ATOM      1  C   UNL     1       7.704  31.281  77.399  0.00  0.00    +0.000 C 
ATOM      2  O   UNL     1       7.385  30.265  76.771  0.00  0.00    +0.000 OA
ATOM      3  N   UNL     1       6.986  31.645  78.553  0.00  0.00    +0.000 N 
ATOM      4  C   UNL     1       6.060  30.684  79.255  0.00  0.00    +0.000 C 
ATOM      5  C   UNL     1       7.305  32.780  79.466  0.00  0.00    +0.000 C 
ATOM      6  C   UNL     1       5.319  31.663  80.224  0.00  0.00    +0.000 C 
ATOM      7  C   UNL     1       6.389  32.637  80.682  0.00  0.00    +0.000 C 
ENDROOT
BRANCH   1  13
ATOM      8  C   UNL     1      10.681  34.021  75.870  0.00  0.00    +0.000 A 
ATOM      9  C   UNL     1       9.396  33.981  75.314  0.00  0.00    +0.000 A 
ATOM     10  C   UNL     1      11.025  33.044  76.807  0.00  0.00    +0.000 A 
ATOM     11  C   UNL     1       8.446  33.054  75.782  0.00  0.00    +0.000 A 
ATOM     12  C   UNL     1      10.111  32.060  77.184  0.00  0.00    +0.000 A 
ATOM     13  C   UNL     1       8.780  32.130  76.789  0.00  0.00    +0.000 A 
BRANCH   8  15
ATOM     14  F   UNL     1      11.265  36.349  75.714  0.00  0.00    +0.000 F 
ATOM     15  C   UNL     1      11.701  35.076  75.516  0.00  0.00    +0.000 C 
ATOM     16  F   UNL     1      12.081  35.009  74.208  0.00  0.00    +0.000 F 
ATOM     17  F   UNL     1      12.850  34.952  76.239  0.00  0.00    +0.000 F 
ENDBRANCH   8  15
ENDBRANCH   1  13
BRANCH   5  18
ATOM     18  C   UNL     1       7.335  34.156  78.839  0.00  0.00    +0.000 A 
ATOM     19  C   UNL     1       6.307  34.670  78.039  0.00  0.00    +0.000 A 
ATOM     20  C   UNL     1       8.502  34.932  79.022  0.00  0.00    +0.000 A 
ATOM     21  C   UNL     1       6.476  35.893  77.388  0.00  0.00    +0.000 A 
ATOM     22  C   UNL     1       8.674  36.140  78.353  0.00  0.00    +0.000 A 
ATOM     23  C   UNL     1       7.663  36.615  77.527  0.00  0.00    +0.000 A 
ENDBRANCH   5  18
BRANCH   4  24
ATOM     24  C   UNL     1       4.893  29.942  78.536  0.00  0.00    +0.000 C 
ATOM     25  O   UNL     1       4.613  28.775  78.776  0.00  0.00    +0.000 OA
ATOM     26  O   UNL     1       4.250  30.602  77.557  0.00  0.00    +0.000 OA
ENDBRANCH   4  24
BRANCH   7  27
ATOM     27  C   UNL     1       5.966  33.930  81.335  0.00  0.00    +0.000 C 
ATOM     28  O   UNL     1       4.845  34.394  81.174  0.00  0.00    +0.000 OA
ATOM     29  O   UNL     1       6.861  34.518  82.152  0.00  0.00    +0.000 OA
ENDBRANCH   7  27
BRANCH   4  30
ATOM     30  C   UNL     1       6.853  29.636  80.102  0.00  0.00    +0.000 C 
BRANCH  30  31
ATOM     31  C   UNL     1       6.274  29.289  81.476  0.00  0.00    +0.000 C 
BRANCH  31  32
ATOM     32  C   UNL     1       6.614  27.852  81.877  0.00  0.00    +0.000 C 
ATOM     33  C   UNL     1       5.425  26.926  81.673  0.00  0.00    +0.000 C 
ENDBRANCH  31  32
ENDBRANCH  30  31
ENDBRANCH   4  30
TORSDOF 8
ENDMDL
MODEL 5
REMARK VINA RESULT:      -6.8      2.772      4.062
REMARK  Name = 
REMARK  9 active torsions:
REMARK  status: ('A' for Active; 'I' for Inactive)
REMARK    1  A    between atoms: C_2  and  C_5
REMARK    2  A    between atoms: C_10  and  C_11
REMARK    3  A    between atoms: C_14  and  C_16
REMARK    4  A    between atoms: C_14  and  C_18
REMARK    5  A    between atoms: C_15  and  C_19
REMARK    6  A    between atoms: C_18  and  C_23
REMARK    7  A    between atoms: C_20  and  C_26
REMARK    8  A    between atoms: C_23  and  C_27
REMARK    9  A    between atoms: C_27  and  C_32
REMARK                            x       y       z     vdW  Elec       q    Type
REMARK                         _______ _______ _______ _____ _____    ______ ____
ROOT
ATOM      1  C   UNL     1       8.937  34.481  78.777  0.00  0.00    +0.000 C 
ATOM      2  O   UNL     1       9.709  34.625  79.732  0.00  0.00    +0.000 OA
ATOM      3  N   UNL     1       7.611  34.944  78.874  0.00  0.00    +0.000 N 
ATOM      4  C   UNL     1       7.176  35.903  79.953  0.00  0.00    +0.000 C 
ATOM      5  C   UNL     1       6.594  34.931  77.784  0.00  0.00    +0.000 C 
ATOM      6  C   UNL     1       5.622  35.822  79.790  0.00  0.00    +0.000 C 
ATOM      7  C   UNL     1       5.394  35.731  78.293  0.00  0.00    +0.000 C 
ENDROOT
BRANCH   1  13
ATOM      8  C   UNL     1      10.800  32.261  75.567  0.00  0.00    +0.000 A 
ATOM      9  C   UNL     1      10.686  33.655  75.498  0.00  0.00    +0.000 A 
ATOM     10  C   UNL     1      10.148  31.597  76.609  0.00  0.00    +0.000 A 
ATOM     11  C   UNL     1      10.036  34.369  76.522  0.00  0.00    +0.000 A 
ATOM     12  C   UNL     1       9.412  32.305  77.559  0.00  0.00    +0.000 A 
ATOM     13  C   UNL     1       9.458  33.693  77.612  0.00  0.00    +0.000 A 
BRANCH   8  15
ATOM     14  F   UNL     1      11.138  30.182  74.405  0.00  0.00    +0.000 F 
ATOM     15  C   UNL     1      11.602  31.448  74.580  0.00  0.00    +0.000 C 
ATOM     16  F   UNL     1      12.907  31.321  74.956  0.00  0.00    +0.000 F 
ATOM     17  F   UNL     1      11.631  32.015  73.341  0.00  0.00    +0.000 F 
ENDBRANCH   8  15
ENDBRANCH   1  13
BRANCH   5  18
ATOM     18  C   UNL     1       6.263  33.579  77.193  0.00  0.00    +0.000 A 
ATOM     19  C   UNL     1       6.211  33.321  75.817  0.00  0.00    +0.000 A 
ATOM     20  C   UNL     1       5.922  32.539  78.088  0.00  0.00    +0.000 A 
ATOM     21  C   UNL     1       5.764  32.082  75.356  0.00  0.00    +0.000 A 
ATOM     22  C   UNL     1       5.456  31.314  77.623  0.00  0.00    +0.000 A 
ATOM     23  C   UNL     1       5.368  31.090  76.254  0.00  0.00    +0.000 A 
ENDBRANCH   5  18
BRANCH   4  24
ATOM     24  C   UNL     1       7.389  35.633  81.474  0.00  0.00    +0.000 C 
ATOM     25  O   UNL     1       6.651  34.901  82.118  0.00  0.00    +0.000 OA
ATOM     26  O   UNL     1       8.370  36.316  82.091  0.00  0.00    +0.000 OA
ENDBRANCH   4  24
BRANCH   7  27
ATOM     27  C   UNL     1       4.047  35.278  77.786  0.00  0.00    +0.000 C 
ATOM     28  O   UNL     1       3.688  35.496  76.636  0.00  0.00    +0.000 OA
ATOM     29  O   UNL     1       3.283  34.572  78.641  0.00  0.00    +0.000 OA
ENDBRANCH   7  27
BRANCH   4  30
ATOM     30  C   UNL     1       7.643  37.363  79.648  0.00  0.00    +0.000 C 
BRANCH  30  31
ATOM     31  C   UNL     1       6.775  38.490  80.213  0.00  0.00    +0.000 C 
BRANCH  31  32
ATOM     32  C   UNL     1       7.619  39.713  80.579  0.00  0.00    +0.000 C 
ATOM     33  C   UNL     1       9.106  39.408  80.481  0.00  0.00    +0.000 C 
ENDBRANCH  31  32
ENDBRANCH  30  31
ENDBRANCH   4  30
TORSDOF 8
ENDMDL
MODEL 6
REMARK VINA RESULT:      -6.8      3.413      5.706
REMARK  Name = 
REMARK  9 active torsions:
REMARK  status: ('A' for Active; 'I' for Inactive)
REMARK    1  A    between atoms: C_2  and  C_5
REMARK    2  A    between atoms: C_10  and  C_11
REMARK    3  A    between atoms: C_14  and  C_16
REMARK    4  A    between atoms: C_14  and  C_18
REMARK    5  A    between atoms: C_15  and  C_19
REMARK    6  A    between atoms: C_18  and  C_23
REMARK    7  A    between atoms: C_20  and  C_26
REMARK    8  A    between atoms: C_23  and  C_27
REMARK    9  A    between atoms: C_27  and  C_32
REMARK                            x       y       z     vdW  Elec       q    Type
REMARK                         _______ _______ _______ _____ _____    ______ ____
ROOT
ATOM      1  C   UNL     1       6.255  34.118  77.130  0.00  0.00    +0.000 C 
ATOM      2  O   UNL     1       5.761  34.162  75.997  0.00  0.00    +0.000 OA
ATOM      3  N   UNL     1       6.237  32.913  77.855  0.00  0.00    +0.000 N 
ATOM      4  C   UNL     1       5.946  31.588  77.197  0.00  0.00    +0.000 C 
ATOM      5  C   UNL     1       6.872  32.676  79.183  0.00  0.00    +0.000 C 
ATOM      6  C   UNL     1       5.741  30.685  78.459  0.00  0.00    +0.000 C 
ATOM      7  C   UNL     1       6.776  31.174  79.455  0.00  0.00    +0.000 C 
ENDROOT
BRANCH   1  13
ATOM      8  C   UNL     1       7.583  37.720  79.123  0.00  0.00    +0.000 A 
ATOM      9  C   UNL     1       6.220  37.496  78.886  0.00  0.00    +0.000 A 
ATOM     10  C   UNL     1       8.505  36.840  78.552  0.00  0.00    +0.000 A 
ATOM     11  C   UNL     1       5.797  36.347  78.193  0.00  0.00    +0.000 A 
ATOM     12  C   UNL     1       8.079  35.763  77.774  0.00  0.00    +0.000 A 
ATOM     13  C   UNL     1       6.734  35.421  77.698  0.00  0.00    +0.000 A 
BRANCH   8  15
ATOM     14  F   UNL     1       7.303  39.957  79.959  0.00  0.00    +0.000 F 
ATOM     15  C   UNL     1       8.097  38.854  79.976  0.00  0.00    +0.000 C 
ATOM     16  F   UNL     1       9.334  39.275  79.585  0.00  0.00    +0.000 F 
ATOM     17  F   UNL     1       8.227  38.501  81.287  0.00  0.00    +0.000 F 
ENDBRANCH   8  15
ENDBRANCH   1  13
BRANCH   5  18
ATOM     18  C   UNL     1       6.409  33.567  80.315  0.00  0.00    +0.000 A 
ATOM     19  C   UNL     1       5.063  33.802  80.622  0.00  0.00    +0.000 A 
ATOM     20  C   UNL     1       7.401  34.250  81.055  0.00  0.00    +0.000 A 
ATOM     21  C   UNL     1       4.725  34.745  81.593  0.00  0.00    +0.000 A 
ATOM     22  C   UNL     1       7.057  35.205  82.007  0.00  0.00    +0.000 A 
ATOM     23  C   UNL     1       5.716  35.459  82.268  0.00  0.00    +0.000 A 
ENDBRANCH   5  18
BRANCH   4  24
ATOM     24  C   UNL     1       4.663  31.316  76.353  0.00  0.00    +0.000 C 
ATOM     25  O   UNL     1       4.704  31.126  75.145  0.00  0.00    +0.000 OA
ATOM     26  O   UNL     1       3.479  31.393  76.985  0.00  0.00    +0.000 OA
ENDBRANCH   4  24
BRANCH   7  27
ATOM     27  C   UNL     1       6.634  30.782  80.905  0.00  0.00    +0.000 C 
ATOM     28  O   UNL     1       5.559  30.431  81.372  0.00  0.00    +0.000 OA
ATOM     29  O   UNL     1       7.759  30.779  81.646  0.00  0.00    +0.000 OA
ENDBRANCH   7  27
BRANCH   4  30
ATOM     30  C   UNL     1       7.178  31.062  76.392  0.00  0.00    +0.000 C 
BRANCH  30  31
ATOM     31  C   UNL     1       8.312  32.061  76.148  0.00  0.00    +0.000 C 
BRANCH  31  32
ATOM     32  C   UNL     1       9.596  31.632  76.860  0.00  0.00    +0.000 C 
ATOM     33  C   UNL     1      10.256  32.808  77.565  0.00  0.00    +0.000 C 
ENDBRANCH  31  32
ENDBRANCH  30  31
ENDBRANCH   4  30
TORSDOF 8
ENDMDL
MODEL 7
REMARK VINA RESULT:      -6.8      4.412      7.051
REMARK  Name = 
REMARK  9 active torsions:
REMARK  status: ('A' for Active; 'I' for Inactive)
REMARK    1  A    between atoms: C_2  and  C_5
REMARK    2  A    between atoms: C_10  and  C_11
REMARK    3  A    between atoms: C_14  and  C_16
REMARK    4  A    between atoms: C_14  and  C_18
REMARK    5  A    between atoms: C_15  and  C_19
REMARK    6  A    between atoms: C_18  and  C_23
REMARK    7  A    between atoms: C_20  and  C_26
REMARK    8  A    between atoms: C_23  and  C_27
REMARK    9  A    between atoms: C_27  and  C_32
REMARK                            x       y       z     vdW  Elec       q    Type
REMARK                         _______ _______ _______ _____ _____    ______ ____
ROOT
ATOM      1  C   UNL     1       4.982  35.678  79.511  0.00  0.00    +0.000 C 
ATOM      2  O   UNL     1       4.389  36.685  79.915  0.00  0.00    +0.000 OA
ATOM      3  N   UNL     1       6.314  35.780  79.069  0.00  0.00    +0.000 N 
ATOM      4  C   UNL     1       7.166  36.987  79.372  0.00  0.00    +0.000 C 
ATOM      5  C   UNL     1       7.189  34.650  78.646  0.00  0.00    +0.000 C 
ATOM      6  C   UNL     1       8.375  36.725  78.413  0.00  0.00    +0.000 C 
ATOM      7  C   UNL     1       8.596  35.225  78.470  0.00  0.00    +0.000 C 
ENDROOT
BRANCH   1  13
ATOM      8  C   UNL     1       2.896  31.930  78.951  0.00  0.00    +0.000 A 
ATOM      9  C   UNL     1       2.651  33.018  78.103  0.00  0.00    +0.000 A 
ATOM     10  C   UNL     1       3.695  32.140  80.077  0.00  0.00    +0.000 A 
ATOM     11  C   UNL     1       3.295  34.250  78.318  0.00  0.00    +0.000 A 
ATOM     12  C   UNL     1       4.242  33.396  80.343  0.00  0.00    +0.000 A 
ATOM     13  C   UNL     1       4.168  34.422  79.409  0.00  0.00    +0.000 A 
BRANCH   8  15
ATOM     14  F   UNL     1       1.294  30.219  79.490  0.00  0.00    +0.000 F 
ATOM     15  C   UNL     1       2.350  30.546  78.698  0.00  0.00    +0.000 C 
ATOM     16  F   UNL     1       3.287  29.576  78.903  0.00  0.00    +0.000 F 
ATOM     17  F   UNL     1       1.926  30.381  77.413  0.00  0.00    +0.000 F 
ENDBRANCH   8  15
ENDBRANCH   1  13
BRANCH   5  18
ATOM     18  C   UNL     1       6.687  33.810  77.493  0.00  0.00    +0.000 A 
ATOM     19  C   UNL     1       6.249  34.342  76.273  0.00  0.00    +0.000 A 
ATOM     20  C   UNL     1       6.596  32.414  77.693  0.00  0.00    +0.000 A 
ATOM     21  C   UNL     1       5.673  33.505  75.316  0.00  0.00    +0.000 A 
ATOM     22  C   UNL     1       6.001  31.588  76.744  0.00  0.00    +0.000 A 
ATOM     23  C   UNL     1       5.530  32.138  75.557  0.00  0.00    +0.000 A 
ENDBRANCH   5  18
BRANCH   4  24
ATOM     24  C   UNL     1       6.741  38.445  79.019  0.00  0.00    +0.000 C 
ATOM     25  O   UNL     1       6.880  39.374  79.802  0.00  0.00    +0.000 OA
ATOM     26  O   UNL     1       6.115  38.639  77.845  0.00  0.00    +0.000 OA
ENDBRANCH   4  24
BRANCH   7  27
ATOM     27  C   UNL     1       9.438  34.571  77.403  0.00  0.00    +0.000 C 
ATOM     28  O   UNL     1       9.639  35.112  76.323  0.00  0.00    +0.000 OA
ATOM     29  O   UNL     1      10.007  33.392  77.717  0.00  0.00    +0.000 OA
ENDBRANCH   7  27
BRANCH   4  30
ATOM     30  C   UNL     1       7.678  36.974  80.849  0.00  0.00    +0.000 C 
BRANCH  30  31
ATOM     31  C   UNL     1       9.120  37.435  81.076  0.00  0.00    +0.000 C 
BRANCH  31  32
ATOM     32  C   UNL     1       9.774  36.673  82.231  0.00  0.00    +0.000 C 
ATOM     33  C   UNL     1      10.093  35.239  81.835  0.00  0.00    +0.000 C 
ENDBRANCH  31  32
ENDBRANCH  30  31
ENDBRANCH   4  30
TORSDOF 8
ENDMDL
MODEL 8
REMARK VINA RESULT:      -6.6      3.761      5.610
REMARK  Name = 
REMARK  9 active torsions:
REMARK  status: ('A' for Active; 'I' for Inactive)
REMARK    1  A    between atoms: C_2  and  C_5
REMARK    2  A    between atoms: C_10  and  C_11
REMARK    3  A    between atoms: C_14  and  C_16
REMARK    4  A    between atoms: C_14  and  C_18
REMARK    5  A    between atoms: C_15  and  C_19
REMARK    6  A    between atoms: C_18  and  C_23
REMARK    7  A    between atoms: C_20  and  C_26
REMARK    8  A    between atoms: C_23  and  C_27
REMARK    9  A    between atoms: C_27  and  C_32
REMARK                            x       y       z     vdW  Elec       q    Type
REMARK                         _______ _______ _______ _____ _____    ______ ____
ROOT
ATOM      1  C   UNL     1       7.565  33.382  80.830  0.00  0.00    +0.000 C 
ATOM      2  O   UNL     1       8.048  32.599  81.656  0.00  0.00    +0.000 OA
ATOM      3  N   UNL     1       7.073  32.893  79.606  0.00  0.00    +0.000 N 
ATOM      4  C   UNL     1       6.798  31.428  79.384  0.00  0.00    +0.000 C 
ATOM      5  C   UNL     1       6.381  33.691  78.555  0.00  0.00    +0.000 C 
ATOM      6  C   UNL     1       6.594  31.411  77.832  0.00  0.00    +0.000 C 
ATOM      7  C   UNL     1       5.842  32.694  77.528  0.00  0.00    +0.000 C 
ENDROOT
BRANCH   1  13
ATOM      8  C   UNL     1       7.827  37.662  81.400  0.00  0.00    +0.000 A 
ATOM      9  C   UNL     1       8.978  36.903  81.151  0.00  0.00    +0.000 A 
ATOM     10  C   UNL     1       6.627  36.984  81.629  0.00  0.00    +0.000 A 
ATOM     11  C   UNL     1       8.895  35.505  81.015  0.00  0.00    +0.000 A 
ATOM     12  C   UNL     1       6.576  35.590  81.601  0.00  0.00    +0.000 A 
ATOM     13  C   UNL     1       7.662  34.842  81.162  0.00  0.00    +0.000 A 
BRANCH   8  15
ATOM     14  F   UNL     1       8.696  39.713  82.305  0.00  0.00    +0.000 F 
ATOM     15  C   UNL     1       7.821  39.171  81.418  0.00  0.00    +0.000 C 
ATOM     16  F   UNL     1       6.597  39.679  81.742  0.00  0.00    +0.000 F 
ATOM     17  F   UNL     1       8.131  39.708  80.204  0.00  0.00    +0.000 F 
ENDBRANCH   8  15
ENDBRANCH   1  13
BRANCH   5  18
ATOM     18  C   UNL     1       7.156  34.855  77.978  0.00  0.00    +0.000 A 
ATOM     19  C   UNL     1       8.472  34.758  77.507  0.00  0.00    +0.000 A 
ATOM     20  C   UNL     1       6.531  36.123  77.981  0.00  0.00    +0.000 A 
ATOM     21  C   UNL     1       9.159  35.909  77.119  0.00  0.00    +0.000 A 
ATOM     22  C   UNL     1       7.229  37.269  77.615  0.00  0.00    +0.000 A 
ATOM     23  C   UNL     1       8.549  37.162  77.192  0.00  0.00    +0.000 A 
ENDBRANCH   5  18
BRANCH   4  24
ATOM     24  C   UNL     1       7.863  30.312  79.615  0.00  0.00    +0.000 C 
ATOM     25  O   UNL     1       7.710  29.424  80.442  0.00  0.00    +0.000 OA
ATOM     26  O   UNL     1       9.019  30.411  78.935  0.00  0.00    +0.000 OA
ENDBRANCH   4  24
BRANCH   7  27
ATOM     27  C   UNL     1       5.791  33.188  76.103  0.00  0.00    +0.000 C 
ATOM     28  O   UNL     1       4.932  33.976  75.728  0.00  0.00    +0.000 OA
ATOM     29  O   UNL     1       6.770  32.769  75.280  0.00  0.00    +0.000 OA
ENDBRANCH   7  27
BRANCH   4  30
ATOM     30  C   UNL     1       5.468  30.981  80.074  0.00  0.00    +0.000 C 
BRANCH  30  31
ATOM     31  C   UNL     1       4.715  29.820  79.420  0.00  0.00    +0.000 C 
BRANCH  31  32
ATOM     32  C   UNL     1       3.300  30.234  79.009  0.00  0.00    +0.000 C 
ATOM     33  C   UNL     1       3.022  29.880  77.556  0.00  0.00    +0.000 C 
ENDBRANCH  31  32
ENDBRANCH  30  31
ENDBRANCH   4  30
TORSDOF 8
ENDMDL
MODEL 9
REMARK VINA RESULT:      -6.6      4.290      6.567
REMARK  Name = 
REMARK  9 active torsions:
REMARK  status: ('A' for Active; 'I' for Inactive)
REMARK    1  A    between atoms: C_2  and  C_5
REMARK    2  A    between atoms: C_10  and  C_11
REMARK    3  A    between atoms: C_14  and  C_16
REMARK    4  A    between atoms: C_14  and  C_18
REMARK    5  A    between atoms: C_15  and  C_19
REMARK    6  A    between atoms: C_18  and  C_23
REMARK    7  A    between atoms: C_20  and  C_26
REMARK    8  A    between atoms: C_23  and  C_27
REMARK    9  A    between atoms: C_27  and  C_32
REMARK                            x       y       z     vdW  Elec       q    Type
REMARK                         _______ _______ _______ _____ _____    ______ ____
ROOT
ATOM      1  C   UNL     1       7.907  31.423  76.821  0.00  0.00    +0.000 C 
ATOM      2  O   UNL     1       8.734  30.510  76.719  0.00  0.00    +0.000 OA
ATOM      3  N   UNL     1       8.344  32.746  77.018  0.00  0.00    +0.000 N 
ATOM      4  C   UNL     1       9.774  33.159  76.780  0.00  0.00    +0.000 C 
ATOM      5  C   UNL     1       7.480  33.960  77.064  0.00  0.00    +0.000 C 
ATOM      6  C   UNL     1       9.769  34.580  77.434  0.00  0.00    +0.000 C 
ATOM      7  C   UNL     1       8.418  35.167  77.073  0.00  0.00    +0.000 C 
ENDROOT
BRANCH   1  13
ATOM      8  C   UNL     1       3.676  30.568  77.109  0.00  0.00    +0.000 A 
ATOM      9  C   UNL     1       4.553  30.190  78.135  0.00  0.00    +0.000 A 
ATOM     10  C   UNL     1       4.224  31.069  75.926  0.00  0.00    +0.000 A 
ATOM     11  C   UNL     1       5.935  30.426  78.015  0.00  0.00    +0.000 A 
ATOM     12  C   UNL     1       5.604  31.197  75.774  0.00  0.00    +0.000 A 
ATOM     13  C   UNL     1       6.464  31.012  76.851  0.00  0.00    +0.000 A 
BRANCH   8  15
ATOM     14  F   UNL     1       1.750  29.969  78.418  0.00  0.00    +0.000 F 
ATOM     15  C   UNL     1       2.175  30.473  77.229  0.00  0.00    +0.000 C 
ATOM     16  F   UNL     1       1.629  29.675  76.267  0.00  0.00    +0.000 F 
ATOM     17  F   UNL     1       1.564  31.684  77.091  0.00  0.00    +0.000 F 
ENDBRANCH   8  15
ENDBRANCH   1  13
BRANCH   5  18
ATOM     18  C   UNL     1       6.400  33.974  78.124  0.00  0.00    +0.000 A 
ATOM     19  C   UNL     1       5.063  34.303  77.870  0.00  0.00    +0.000 A 
ATOM     20  C   UNL     1       6.788  33.705  79.456  0.00  0.00    +0.000 A 
ATOM     21  C   UNL     1       4.162  34.425  78.928  0.00  0.00    +0.000 A 
ATOM     22  C   UNL     1       5.892  33.849  80.510  0.00  0.00    +0.000 A 
ATOM     23  C   UNL     1       4.578  34.220  80.245  0.00  0.00    +0.000 A 
ENDBRANCH   5  18
BRANCH   4  24
ATOM     24  C   UNL     1      10.991  32.458  77.457  0.00  0.00    +0.000 C 
ATOM     25  O   UNL     1      12.047  32.269  76.870  0.00  0.00    +0.000 OA
ATOM     26  O   UNL     1      10.812  31.972  78.698  0.00  0.00    +0.000 OA
ENDBRANCH   4  24
BRANCH   7  27
ATOM     27  C   UNL     1       7.920  36.373  77.832  0.00  0.00    +0.000 C 
ATOM     28  O   UNL     1       8.367  36.667  78.933  0.00  0.00    +0.000 OA
ATOM     29  O   UNL     1       7.006  37.144  77.214  0.00  0.00    +0.000 OA
ENDBRANCH   7  27
BRANCH   4  30
ATOM     30  C   UNL     1      10.084  33.304  75.254  0.00  0.00    +0.000 C 
BRANCH  30  31
ATOM     31  C   UNL     1      11.013  34.452  74.852  0.00  0.00    +0.000 C 
BRANCH  31  32
ATOM     32  C   UNL     1      12.058  33.993  73.832  0.00  0.00    +0.000 C 
ATOM     33  C   UNL     1      11.945  32.501  73.560  0.00  0.00    +0.000 C 
ENDBRANCH  31  32
ENDBRANCH  30  31
ENDBRANCH   4  30
TORSDOF 8
ENDMDL
