MODEL 1
REMARK VINA RESULT:      -7.0      0.000      0.000
REMARK  Name = 
REMARK  8 active torsions:
REMARK  status: ('A' for Active; 'I' for Inactive)
REMARK    1  A    between atoms: C_7  and  C_8
REMARK    2  A    between atoms: C_11  and  C_13
REMARK    3  A    between atoms: C_11  and  C_15
REMARK    4  A    between atoms: C_12  and  C_16
REMARK    5  A    between atoms: C_15  and  C_20
REMARK    6  A    between atoms: C_17  and  C_23
REMARK    7  A    between atoms: C_20  and  C_24
REMARK    8  A    between atoms: C_20  and  C_25
REMARK                            x       y       z     vdW  Elec       q    Type
REMARK                         _______ _______ _______ _____ _____    ______ ____
ROOT
ATOM      1  C   UNL     1       7.373  32.065  76.919  0.00  0.00    +0.000 C 
ATOM      2  O   UNL     1       6.404  32.154  76.160  0.00  0.00    +0.000 OA
ATOM      3  N   UNL     1       7.207  31.814  78.312  0.00  0.00    +0.000 N 
ATOM      4  C   UNL     1       8.168  32.105  79.433  0.00  0.00    +0.000 C 
ATOM      5  C   UNL     1       5.821  31.970  78.854  0.00  0.00    +0.000 C 
ATOM      6  C   UNL     1       7.383  31.416  80.602  0.00  0.00    +0.000 C 
ATOM      7  C   UNL     1       5.912  31.749  80.376  0.00  0.00    +0.000 C 
ENDROOT
BRANCH   1  14
ATOM      8 CL   UNL     1      12.793  33.346  74.629  0.00  0.00    +0.000 Cl
ATOM      9  C   UNL     1      11.223  32.987  75.222  0.00  0.00    +0.000 A 
ATOM     10  C   UNL     1      10.329  34.013  75.539  0.00  0.00    +0.000 A 
ATOM     11  C   UNL     1      10.833  31.660  75.356  0.00  0.00    +0.000 A 
ATOM     12  C   UNL     1       9.058  33.689  76.063  0.00  0.00    +0.000 A 
ATOM     13  C   UNL     1       9.540  31.362  75.791  0.00  0.00    +0.000 A 
ATOM     14  C   UNL     1       8.679  32.352  76.254  0.00  0.00    +0.000 A 
ENDBRANCH   1  14
BRANCH   5  15
ATOM     15  C   UNL     1       4.750  31.172  78.172  0.00  0.00    +0.000 A 
ATOM     16  S   UNL     1       3.248  31.944  77.815  0.00  0.00    +0.000 S 
ATOM     17  C   UNL     1       4.752  29.864  77.728  0.00  0.00    +0.000 A 
ATOM     18  C   UNL     1       2.643  30.555  77.031  0.00  0.00    +0.000 A 
ATOM     19  C   UNL     1       3.549  29.519  77.046  0.00  0.00    +0.000 A 
ENDBRANCH   5  15
BRANCH   4  20
ATOM     20  C   UNL     1       9.523  31.360  79.549  0.00  0.00    +0.000 C 
ATOM     21  O   UNL     1       9.658  30.205  79.926  0.00  0.00    +0.000 OA
ATOM     22  O   UNL     1      10.592  32.075  79.092  0.00  0.00    +0.000 OA
ENDBRANCH   4  20
BRANCH   7  23
ATOM     23  C   UNL     1       5.034  30.650  80.942  0.00  0.00    +0.000 C 
ATOM     24  O   UNL     1       5.395  29.488  81.097  0.00  0.00    +0.000 OA
ATOM     25  O   UNL     1       3.804  31.066  81.313  0.00  0.00    +0.000 OA
ENDBRANCH   7  23
BRANCH   4  26
ATOM     26  C   UNL     1       8.315  33.621  79.839  0.00  0.00    +0.000 C 
BRANCH  26  27
ATOM     27  C   UNL     1       8.664  34.028  81.287  0.00  0.00    +0.000 C 
ATOM     28  C   UNL     1       9.984  34.794  81.411  0.00  0.00    +0.000 C 
ATOM     29  C   UNL     1       7.595  34.997  81.823  0.00  0.00    +0.000 C 
ENDBRANCH  26  27
ENDBRANCH   4  26
TORSDOF 6
ENDMDL
MODEL 2
REMARK VINA RESULT:      -6.8      1.154      1.716
REMARK  Name = 
REMARK  8 active torsions:
REMARK  status: ('A' for Active; 'I' for Inactive)
REMARK    1  A    between atoms: C_7  and  C_8
REMARK    2  A    between atoms: C_11  and  C_13
REMARK    3  A    between atoms: C_11  and  C_15
REMARK    4  A    between atoms: C_12  and  C_16
REMARK    5  A    between atoms: C_15  and  C_20
REMARK    6  A    between atoms: C_17  and  C_23
REMARK    7  A    between atoms: C_20  and  C_24
REMARK    8  A    between atoms: C_20  and  C_25
REMARK                            x       y       z     vdW  Elec       q    Type
REMARK                         _______ _______ _______ _____ _____    ______ ____
ROOT
ATOM      1  C   UNL     1       6.483  31.872  77.290  0.00  0.00    +0.000 C 
ATOM      2  O   UNL     1       5.545  32.295  76.609  0.00  0.00    +0.000 OA
ATOM      3  N   UNL     1       6.260  31.186  78.519  0.00  0.00    +0.000 N 
ATOM      4  C   UNL     1       7.213  30.999  79.668  0.00  0.00    +0.000 C 
ATOM      5  C   UNL     1       4.879  31.276  79.088  0.00  0.00    +0.000 C 
ATOM      6  C   UNL     1       6.342  30.032  80.543  0.00  0.00    +0.000 C 
ATOM      7  C   UNL     1       4.911  30.552  80.448  0.00  0.00    +0.000 C 
ENDROOT
BRANCH   1  14
ATOM      8 CL   UNL     1      12.011  33.491  75.535  0.00  0.00    +0.000 Cl
ATOM      9  C   UNL     1      10.415  33.038  75.974  0.00  0.00    +0.000 A 
ATOM     10  C   UNL     1       9.451  34.008  76.259  0.00  0.00    +0.000 A 
ATOM     11  C   UNL     1      10.077  31.690  76.014  0.00  0.00    +0.000 A 
ATOM     12  C   UNL     1       8.156  33.606  76.657  0.00  0.00    +0.000 A 
ATOM     13  C   UNL     1       8.767  31.318  76.322  0.00  0.00    +0.000 A 
ATOM     14  C   UNL     1       7.825  32.246  76.753  0.00  0.00    +0.000 A 
ENDBRANCH   1  14
BRANCH   5  15
ATOM     15  C   UNL     1       3.761  30.850  78.183  0.00  0.00    +0.000 A 
ATOM     16  S   UNL     1       2.311  31.788  78.167  0.00  0.00    +0.000 S 
ATOM     17  C   UNL     1       3.681  29.801  77.289  0.00  0.00    +0.000 A 
ATOM     18  C   UNL     1       1.622  30.824  76.940  0.00  0.00    +0.000 A 
ATOM     19  C   UNL     1       2.461  29.804  76.553  0.00  0.00    +0.000 A 
ENDBRANCH   5  15
BRANCH   4  20
ATOM     20  C   UNL     1       8.496  30.139  79.522  0.00  0.00    +0.000 C 
ATOM     21  O   UNL     1       9.633  30.583  79.455  0.00  0.00    +0.000 OA
ATOM     22  O   UNL     1       8.272  28.794  79.572  0.00  0.00    +0.000 OA
ENDBRANCH   4  20
BRANCH   7  23
ATOM     23  C   UNL     1       3.927  29.411  80.617  0.00  0.00    +0.000 C 
ATOM     24  O   UNL     1       2.761  29.551  80.970  0.00  0.00    +0.000 OA
ATOM     25  O   UNL     1       4.432  28.198  80.303  0.00  0.00    +0.000 OA
ENDBRANCH   7  23
BRANCH   4  26
ATOM     26  C   UNL     1       7.479  32.273  80.558  0.00  0.00    +0.000 C 
BRANCH  26  27
ATOM     27  C   UNL     1       8.137  33.537  79.963  0.00  0.00    +0.000 C 
ATOM     28  C   UNL     1       7.299  34.806  80.133  0.00  0.00    +0.000 C 
ATOM     29  C   UNL     1       9.453  33.832  80.704  0.00  0.00    +0.000 C 
ENDBRANCH  26  27
ENDBRANCH   4  26
TORSDOF 6
ENDMDL
MODEL 3
REMARK VINA RESULT:      -6.6      3.014      5.485
REMARK  Name = 
REMARK  8 active torsions:
REMARK  status: ('A' for Active; 'I' for Inactive)
REMARK    1  A    between atoms: C_7  and  C_8
REMARK    2  A    between atoms: C_11  and  C_13
REMARK    3  A    between atoms: C_11  and  C_15
REMARK    4  A    between atoms: C_12  and  C_16
REMARK    5  A    between atoms: C_15  and  C_20
REMARK    6  A    between atoms: C_17  and  C_23
REMARK    7  A    between atoms: C_20  and  C_24
REMARK    8  A    between atoms: C_20  and  C_25
REMARK                            x       y       z     vdW  Elec       q    Type
REMARK                         _______ _______ _______ _____ _____    ______ ____
ROOT
ATOM      1  C   UNL     1       8.650  34.342  77.678  0.00  0.00    +0.000 C 
ATOM      2  O   UNL     1       9.383  34.893  78.505  0.00  0.00    +0.000 OA
ATOM      3  N   UNL     1       7.232  34.470  77.740  0.00  0.00    +0.000 N 
ATOM      4  C   UNL     1       6.188  33.565  77.144  0.00  0.00    +0.000 C 
ATOM      5  C   UNL     1       6.670  35.034  79.007  0.00  0.00    +0.000 C 
ATOM      6  C   UNL     1       4.916  34.422  77.473  0.00  0.00    +0.000 C 
ATOM      7  C   UNL     1       5.136  34.980  78.875  0.00  0.00    +0.000 C 
ENDROOT
BRANCH   1  14
ATOM      8 CL   UNL     1      11.981  30.890  74.039  0.00  0.00    +0.000 Cl
ATOM      9  C   UNL     1      10.990  31.883  75.027  0.00  0.00    +0.000 A 
ATOM     10  C   UNL     1      11.107  33.275  74.984  0.00  0.00    +0.000 A 
ATOM     11  C   UNL     1      10.042  31.291  75.854  0.00  0.00    +0.000 A 
ATOM     12  C   UNL     1      10.306  34.066  75.838  0.00  0.00    +0.000 A 
ATOM     13  C   UNL     1       9.200  32.096  76.622  0.00  0.00    +0.000 A 
ATOM     14  C   UNL     1       9.387  33.472  76.715  0.00  0.00    +0.000 A 
ENDBRANCH   1  14
BRANCH   5  15
ATOM     15  C   UNL     1       7.211  36.365  79.436  0.00  0.00    +0.000 A 
ATOM     16  S   UNL     1       7.594  36.600  81.103  0.00  0.00    +0.000 S 
ATOM     17  C   UNL     1       7.501  37.495  78.698  0.00  0.00    +0.000 A 
ATOM     18  C   UNL     1       8.188  38.173  80.814  0.00  0.00    +0.000 A 
ATOM     19  C   UNL     1       8.090  38.525  79.488  0.00  0.00    +0.000 A 
ENDBRANCH   5  15
BRANCH   4  20
ATOM     20  C   UNL     1       6.022  33.425  75.607  0.00  0.00    +0.000 C 
ATOM     21  O   UNL     1       5.555  32.449  75.039  0.00  0.00    +0.000 OA
ATOM     22  O   UNL     1       6.355  34.549  74.908  0.00  0.00    +0.000 OA
ENDBRANCH   4  20
BRANCH   7  23
ATOM     23  C   UNL     1       4.408  36.301  79.032  0.00  0.00    +0.000 C 
ATOM     24  O   UNL     1       4.157  37.066  78.107  0.00  0.00    +0.000 OA
ATOM     25  O   UNL     1       4.008  36.561  80.296  0.00  0.00    +0.000 OA
ENDBRANCH   7  23
BRANCH   4  26
ATOM     26  C   UNL     1       5.981  32.180  77.867  0.00  0.00    +0.000 C 
BRANCH  26  27
ATOM     27  C   UNL     1       4.572  31.574  78.040  0.00  0.00    +0.000 C 
ATOM     28  C   UNL     1       4.419  30.182  77.420  0.00  0.00    +0.000 C 
ATOM     29  C   UNL     1       4.276  31.372  79.537  0.00  0.00    +0.000 C 
ENDBRANCH  26  27
ENDBRANCH   4  26
TORSDOF 6
ENDMDL
MODEL 4
REMARK VINA RESULT:      -6.2      3.794      6.083
REMARK  Name = 
REMARK  8 active torsions:
REMARK  status: ('A' for Active; 'I' for Inactive)
REMARK    1  A    between atoms: C_7  and  C_8
REMARK    2  A    between atoms: C_11  and  C_13
REMARK    3  A    between atoms: C_11  and  C_15
REMARK    4  A    between atoms: C_12  and  C_16
REMARK    5  A    between atoms: C_15  and  C_20
REMARK    6  A    between atoms: C_17  and  C_23
REMARK    7  A    between atoms: C_20  and  C_24
REMARK    8  A    between atoms: C_20  and  C_25
REMARK                            x       y       z     vdW  Elec       q    Type
REMARK                         _______ _______ _______ _____ _____    ______ ____
ROOT
ATOM      1  C   UNL     1       7.160  35.141  80.236  0.00  0.00    +0.000 C 
ATOM      2  O   UNL     1       7.735  34.291  80.921  0.00  0.00    +0.000 OA
ATOM      3  N   UNL     1       6.405  34.780  79.082  0.00  0.00    +0.000 N 
ATOM      4  C   UNL     1       6.025  35.643  77.909  0.00  0.00    +0.000 C 
ATOM      5  C   UNL     1       6.594  33.386  78.573  0.00  0.00    +0.000 C 
ATOM      6  C   UNL     1       5.088  34.630  77.164  0.00  0.00    +0.000 C 
ATOM      7  C   UNL     1       5.763  33.267  77.282  0.00  0.00    +0.000 C 
ENDROOT
BRANCH   1  14
ATOM      8 CL   UNL     1       8.276  40.904  81.577  0.00  0.00    +0.000 Cl
ATOM      9  C   UNL     1       7.979  39.245  81.254  0.00  0.00    +0.000 A 
ATOM     10  C   UNL     1       9.010  38.407  80.820  0.00  0.00    +0.000 A 
ATOM     11  C   UNL     1       6.705  38.729  81.458  0.00  0.00    +0.000 A 
ATOM     12  C   UNL     1       8.728  37.055  80.524  0.00  0.00    +0.000 A 
ATOM     13  C   UNL     1       6.470  37.370  81.244  0.00  0.00    +0.000 A 
ATOM     14  C   UNL     1       7.431  36.543  80.673  0.00  0.00    +0.000 A 
ENDBRANCH   1  14
BRANCH   5  15
ATOM     15  C   UNL     1       6.365  32.283  79.564  0.00  0.00    +0.000 A 
ATOM     16  S   UNL     1       7.495  30.979  79.621  0.00  0.00    +0.000 S 
ATOM     17  C   UNL     1       5.373  32.121  80.511  0.00  0.00    +0.000 A 
ATOM     18  C   UNL     1       6.686  30.248  80.934  0.00  0.00    +0.000 A 
ATOM     19  C   UNL     1       5.575  30.964  81.318  0.00  0.00    +0.000 A 
ENDBRANCH   5  15
BRANCH   4  20
ATOM     20  C   UNL     1       5.048  36.838  78.068  0.00  0.00    +0.000 C 
ATOM     21  O   UNL     1       3.871  36.744  78.386  0.00  0.00    +0.000 OA
ATOM     22  O   UNL     1       5.636  38.060  77.918  0.00  0.00    +0.000 OA
ENDBRANCH   4  20
BRANCH   7  23
ATOM     23  C   UNL     1       4.723  32.164  77.258  0.00  0.00    +0.000 C 
ATOM     24  O   UNL     1       3.555  32.310  77.601  0.00  0.00    +0.000 OA
ATOM     25  O   UNL     1       5.181  30.988  76.779  0.00  0.00    +0.000 OA
ENDBRANCH   7  23
BRANCH   4  26
ATOM     26  C   UNL     1       7.187  35.988  76.902  0.00  0.00    +0.000 C 
BRANCH  26  27
ATOM     27  C   UNL     1       8.668  35.846  77.315  0.00  0.00    +0.000 C 
ATOM     28  C   UNL     1       9.409  34.728  76.578  0.00  0.00    +0.000 C 
ATOM     29  C   UNL     1       9.431  37.132  76.950  0.00  0.00    +0.000 C 
ENDBRANCH  26  27
ENDBRANCH   4  26
TORSDOF 6
ENDMDL
MODEL 5
REMARK VINA RESULT:      -6.2      2.925      5.412
REMARK  Name = 
REMARK  8 active torsions:
REMARK  status: ('A' for Active; 'I' for Inactive)
REMARK    1  A    between atoms: C_7  and  C_8
REMARK    2  A    between atoms: C_11  and  C_13
REMARK    3  A    between atoms: C_11  and  C_15
REMARK    4  A    between atoms: C_12  and  C_16
REMARK    5  A    between atoms: C_15  and  C_20
REMARK    6  A    between atoms: C_17  and  C_23
REMARK    7  A    between atoms: C_20  and  C_24
REMARK    8  A    between atoms: C_20  and  C_25
REMARK                            x       y       z     vdW  Elec       q    Type
REMARK                         _______ _______ _______ _____ _____    ______ ____
ROOT
ATOM      1  C   UNL     1       7.227  33.628  79.872  0.00  0.00    +0.000 C 
ATOM      2  O   UNL     1       7.101  32.854  80.825  0.00  0.00    +0.000 OA
ATOM      3  N   UNL     1       7.273  33.152  78.529  0.00  0.00    +0.000 N 
ATOM      4  C   UNL     1       7.846  33.835  77.317  0.00  0.00    +0.000 C 
ATOM      5  C   UNL     1       7.472  31.679  78.353  0.00  0.00    +0.000 C 
ATOM      6  C   UNL     1       7.386  32.808  76.226  0.00  0.00    +0.000 C 
ATOM      7  C   UNL     1       7.588  31.425  76.838  0.00  0.00    +0.000 C 
ENDROOT
BRANCH   1  14
ATOM      8 CL   UNL     1       8.263  39.421  81.144  0.00  0.00    +0.000 Cl
ATOM      9  C   UNL     1       7.958  37.759  80.845  0.00  0.00    +0.000 A 
ATOM     10  C   UNL     1       8.974  36.811  80.989  0.00  0.00    +0.000 A 
ATOM     11  C   UNL     1       6.677  37.355  80.486  0.00  0.00    +0.000 A 
ATOM     12  C   UNL     1       8.705  35.455  80.697  0.00  0.00    +0.000 A 
ATOM     13  C   UNL     1       6.412  35.999  80.290  0.00  0.00    +0.000 A 
ATOM     14  C   UNL     1       7.429  35.050  80.280  0.00  0.00    +0.000 A 
ENDBRANCH   1  14
BRANCH   5  15
ATOM     15  C   UNL     1       6.493  30.790  79.059  0.00  0.00    +0.000 A 
ATOM     16  S   UNL     1       7.096  29.418  79.916  0.00  0.00    +0.000 S 
ATOM     17  C   UNL     1       5.121  30.885  79.181  0.00  0.00    +0.000 A 
ATOM     18  C   UNL     1       5.540  29.001  80.479  0.00  0.00    +0.000 A 
ATOM     19  C   UNL     1       4.577  29.871  80.021  0.00  0.00    +0.000 A 
ENDBRANCH   5  15
BRANCH   4  20
ATOM     20  C   UNL     1       7.212  35.130  76.745  0.00  0.00    +0.000 C 
ATOM     21  O   UNL     1       6.141  35.186  76.158  0.00  0.00    +0.000 OA
ATOM     22  O   UNL     1       7.910  36.266  77.034  0.00  0.00    +0.000 OA
ENDBRANCH   4  20
BRANCH   7  23
ATOM     23  C   UNL     1       6.594  30.442  76.250  0.00  0.00    +0.000 C 
ATOM     24  O   UNL     1       6.779  29.232  76.179  0.00  0.00    +0.000 OA
ATOM     25  O   UNL     1       5.440  31.009  75.837  0.00  0.00    +0.000 OA
ENDBRANCH   7  23
BRANCH   4  26
ATOM     26  C   UNL     1       9.420  33.886  77.234  0.00  0.00    +0.000 C 
BRANCH  26  27
ATOM     27  C   UNL     1      10.152  33.710  75.887  0.00  0.00    +0.000 C 
ATOM     28  C   UNL     1      11.079  34.875  75.531  0.00  0.00    +0.000 C 
ATOM     29  C   UNL     1      11.077  32.480  75.958  0.00  0.00    +0.000 C 
ENDBRANCH  26  27
ENDBRANCH   4  26
TORSDOF 6
ENDMDL
MODEL 6
REMARK VINA RESULT:      -6.2      2.127      4.707
REMARK  Name = 
REMARK  8 active torsions:
REMARK  status: ('A' for Active; 'I' for Inactive)
REMARK    1  A    between atoms: C_7  and  C_8
REMARK    2  A    between atoms: C_11  and  C_13
REMARK    3  A    between atoms: C_11  and  C_15
REMARK    4  A    between atoms: C_12  and  C_16
REMARK    5  A    between atoms: C_15  and  C_20
REMARK    6  A    between atoms: C_17  and  C_23
REMARK    7  A    between atoms: C_20  and  C_24
REMARK    8  A    between atoms: C_20  and  C_25
REMARK                            x       y       z     vdW  Elec       q    Type
REMARK                         _______ _______ _______ _____ _____    ______ ____
ROOT
ATOM      1  C   UNL     1       7.983  32.730  78.279  0.00  0.00    +0.000 C 
ATOM      2  O   UNL     1       8.463  32.354  79.352  0.00  0.00    +0.000 OA
ATOM      3  N   UNL     1       6.593  33.011  78.143  0.00  0.00    +0.000 N 
ATOM      4  C   UNL     1       5.766  33.040  76.886  0.00  0.00    +0.000 C 
ATOM      5  C   UNL     1       5.708  32.539  79.254  0.00  0.00    +0.000 C 
ATOM      6  C   UNL     1       4.424  33.573  77.497  0.00  0.00    +0.000 C 
ATOM      7  C   UNL     1       4.261  32.864  78.838  0.00  0.00    +0.000 C 
ENDROOT
BRANCH   1  14
ATOM      8 CL   UNL     1      12.271  32.905  74.055  0.00  0.00    +0.000 Cl
ATOM      9  C   UNL     1      11.005  32.865  75.212  0.00  0.00    +0.000 A 
ATOM     10  C   UNL     1      10.476  34.048  75.733  0.00  0.00    +0.000 A 
ATOM     11  C   UNL     1      10.484  31.638  75.608  0.00  0.00    +0.000 A 
ATOM     12  C   UNL     1       9.461  33.984  76.713  0.00  0.00    +0.000 A 
ATOM     13  C   UNL     1       9.420  31.601  76.511  0.00  0.00    +0.000 A 
ATOM     14  C   UNL     1       8.970  32.748  77.158  0.00  0.00    +0.000 A 
ENDBRANCH   1  14
BRANCH   5  15
ATOM     15  C   UNL     1       6.077  32.997  80.634  0.00  0.00    +0.000 A 
ATOM     16  S   UNL     1       6.036  31.848  81.922  0.00  0.00    +0.000 S 
ATOM     17  C   UNL     1       6.492  34.233  81.086  0.00  0.00    +0.000 A 
ATOM     18  C   UNL     1       6.619  32.990  83.047  0.00  0.00    +0.000 A 
ATOM     19  C   UNL     1       6.832  34.221  82.470  0.00  0.00    +0.000 A 
ENDBRANCH   5  15
BRANCH   4  20
ATOM     20  C   UNL     1       6.000  34.111  75.789  0.00  0.00    +0.000 C 
ATOM     21  O   UNL     1       5.923  33.911  74.586  0.00  0.00    +0.000 OA
ATOM     22  O   UNL     1       6.213  35.368  76.276  0.00  0.00    +0.000 OA
ENDBRANCH   4  20
BRANCH   7  23
ATOM     23  C   UNL     1       3.472  33.733  79.798  0.00  0.00    +0.000 C 
ATOM     24  O   UNL     1       3.425  34.958  79.741  0.00  0.00    +0.000 OA
ATOM     25  O   UNL     1       2.772  33.039  80.720  0.00  0.00    +0.000 OA
ENDBRANCH   7  23
BRANCH   4  26
ATOM     26  C   UNL     1       5.429  31.637  76.250  0.00  0.00    +0.000 C 
BRANCH  26  27
ATOM     27  C   UNL     1       5.725  30.326  77.010  0.00  0.00    +0.000 C 
ATOM     28  C   UNL     1       4.504  29.415  77.165  0.00  0.00    +0.000 C 
ATOM     29  C   UNL     1       6.743  29.487  76.216  0.00  0.00    +0.000 C 
ENDBRANCH  26  27
ENDBRANCH   4  26
TORSDOF 6
ENDMDL
MODEL 7
REMARK VINA RESULT:      -6.0      4.031      6.547
REMARK  Name = 
REMARK  8 active torsions:
REMARK  status: ('A' for Active; 'I' for Inactive)
REMARK    1  A    between atoms: C_7  and  C_8
REMARK    2  A    between atoms: C_11  and  C_13
REMARK    3  A    between atoms: C_11  and  C_15
REMARK    4  A    between atoms: C_12  and  C_16
REMARK    5  A    between atoms: C_15  and  C_20
REMARK    6  A    between atoms: C_17  and  C_23
REMARK    7  A    between atoms: C_20  and  C_24
REMARK    8  A    between atoms: C_20  and  C_25
REMARK                            x       y       z     vdW  Elec       q    Type
REMARK                         _______ _______ _______ _____ _____    ______ ____
ROOT
ATOM      1  C   UNL     1       4.675  33.683  80.471  0.00  0.00    +0.000 C 
ATOM      2  O   UNL     1       4.723  32.748  81.276  0.00  0.00    +0.000 OA
ATOM      3  N   UNL     1       5.044  33.509  79.106  0.00  0.00    +0.000 N 
ATOM      4  C   UNL     1       5.474  34.557  78.115  0.00  0.00    +0.000 C 
ATOM      5  C   UNL     1       5.774  32.246  78.771  0.00  0.00    +0.000 C 
ATOM      6  C   UNL     1       5.541  33.658  76.833  0.00  0.00    +0.000 C 
ATOM      7  C   UNL     1       6.149  32.332  77.279  0.00  0.00    +0.000 C 
ENDROOT
BRANCH   1  14
ATOM      8 CL   UNL     1       3.034  38.723  83.330  0.00  0.00    +0.000 Cl
ATOM      9  C   UNL     1       3.502  37.320  82.459  0.00  0.00    +0.000 A 
ATOM     10  C   UNL     1       2.547  36.529  81.815  0.00  0.00    +0.000 A 
ATOM     11  C   UNL     1       4.849  36.990  82.372  0.00  0.00    +0.000 A 
ATOM     12  C   UNL     1       2.956  35.358  81.140  0.00  0.00    +0.000 A 
ATOM     13  C   UNL     1       5.239  35.878  81.624  0.00  0.00    +0.000 A 
ATOM     14  C   UNL     1       4.308  34.989  81.096  0.00  0.00    +0.000 A 
ENDBRANCH   1  14
BRANCH   5  15
ATOM     15  C   UNL     1       5.101  30.967  79.171  0.00  0.00    +0.000 A 
ATOM     16  S   UNL     1       6.052  29.733  79.914  0.00  0.00    +0.000 S 
ATOM     17  C   UNL     1       3.779  30.581  79.072  0.00  0.00    +0.000 A 
ATOM     18  C   UNL     1       4.691  28.729  80.142  0.00  0.00    +0.000 A 
ATOM     19  C   UNL     1       3.539  29.304  79.657  0.00  0.00    +0.000 A 
ENDBRANCH   5  15
BRANCH   4  20
ATOM     20  C   UNL     1       4.492  35.651  77.620  0.00  0.00    +0.000 C 
ATOM     21  O   UNL     1       4.442  36.795  78.049  0.00  0.00    +0.000 OA
ATOM     22  O   UNL     1       3.718  35.267  76.563  0.00  0.00    +0.000 OA
ENDBRANCH   4  20
BRANCH   7  23
ATOM     23  C   UNL     1       5.646  31.203  76.401  0.00  0.00    +0.000 C 
ATOM     24  O   UNL     1       4.587  31.229  75.782  0.00  0.00    +0.000 OA
ATOM     25  O   UNL     1       6.494  30.155  76.313  0.00  0.00    +0.000 OA
ENDBRANCH   7  23
BRANCH   4  26
ATOM     26  C   UNL     1       6.924  35.142  78.315  0.00  0.00    +0.000 C 
BRANCH  26  27
ATOM     27  C   UNL     1       7.691  35.788  77.142  0.00  0.00    +0.000 C 
ATOM     28  C   UNL     1       8.140  37.226  77.416  0.00  0.00    +0.000 C 
ATOM     29  C   UNL     1       8.995  35.010  76.887  0.00  0.00    +0.000 C 
ENDBRANCH  26  27
ENDBRANCH   4  26
TORSDOF 6
ENDMDL
MODEL 8
REMARK VINA RESULT:      -6.0      2.618      5.011
REMARK  Name = 
REMARK  8 active torsions:
REMARK  status: ('A' for Active; 'I' for Inactive)
REMARK    1  A    between atoms: C_7  and  C_8
REMARK    2  A    between atoms: C_11  and  C_13
REMARK    3  A    between atoms: C_11  and  C_15
REMARK    4  A    between atoms: C_12  and  C_16
REMARK    5  A    between atoms: C_15  and  C_20
REMARK    6  A    between atoms: C_17  and  C_23
REMARK    7  A    between atoms: C_20  and  C_24
REMARK    8  A    between atoms: C_20  and  C_25
REMARK                            x       y       z     vdW  Elec       q    Type
REMARK                         _______ _______ _______ _____ _____    ______ ____
ROOT
ATOM      1  C   UNL     1       6.657  33.153  79.098  0.00  0.00    +0.000 C 
ATOM      2  O   UNL     1       7.042  32.802  80.217  0.00  0.00    +0.000 OA
ATOM      3  N   UNL     1       5.275  33.149  78.752  0.00  0.00    +0.000 N 
ATOM      4  C   UNL     1       4.657  33.103  77.381  0.00  0.00    +0.000 C 
ATOM      5  C   UNL     1       4.359  32.418  79.684  0.00  0.00    +0.000 C 
ATOM      6  C   UNL     1       3.156  33.297  77.790  0.00  0.00    +0.000 C 
ATOM      7  C   UNL     1       2.954  32.467  79.054  0.00  0.00    +0.000 C 
ENDROOT
BRANCH   1  14
ATOM      8 CL   UNL     1      10.895  34.256  74.964  0.00  0.00    +0.000 Cl
ATOM      9  C   UNL     1       9.733  33.940  76.188  0.00  0.00    +0.000 A 
ATOM     10  C   UNL     1       9.483  32.633  76.613  0.00  0.00    +0.000 A 
ATOM     11  C   UNL     1       9.061  35.003  76.779  0.00  0.00    +0.000 A 
ATOM     12  C   UNL     1       8.493  32.398  77.593  0.00  0.00    +0.000 A 
ATOM     13  C   UNL     1       8.152  34.755  77.809  0.00  0.00    +0.000 A 
ATOM     14  C   UNL     1       7.772  33.462  78.154  0.00  0.00    +0.000 A 
ENDBRANCH   1  14
BRANCH   5  15
ATOM     15  C   UNL     1       4.411  32.834  81.123  0.00  0.00    +0.000 A 
ATOM     16  S   UNL     1       4.437  34.520  81.494  0.00  0.00    +0.000 S 
ATOM     17  C   UNL     1       4.415  32.074  82.276  0.00  0.00    +0.000 A 
ATOM     18  C   UNL     1       4.400  34.220  83.173  0.00  0.00    +0.000 A 
ATOM     19  C   UNL     1       4.380  32.873  83.456  0.00  0.00    +0.000 A 
ENDBRANCH   5  15
BRANCH   4  20
ATOM     20  C   UNL     1       4.813  34.282  76.385  0.00  0.00    +0.000 C 
ATOM     21  O   UNL     1       5.595  34.307  75.445  0.00  0.00    +0.000 OA
ATOM     22  O   UNL     1       3.917  35.293  76.575  0.00  0.00    +0.000 OA
ENDBRANCH   4  20
BRANCH   7  23
ATOM     23  C   UNL     1       1.862  33.077  79.911  0.00  0.00    +0.000 C 
ATOM     24  O   UNL     1       1.292  32.489  80.825  0.00  0.00    +0.000 OA
ATOM     25  O   UNL     1       1.584  34.364  79.614  0.00  0.00    +0.000 OA
ENDBRANCH   7  23
BRANCH   4  26
ATOM     26  C   UNL     1       4.732  31.715  76.637  0.00  0.00    +0.000 C 
BRANCH  26  27
ATOM     27  C   UNL     1       5.398  30.491  77.300  0.00  0.00    +0.000 C 
ATOM     28  C   UNL     1       4.420  29.359  77.627  0.00  0.00    +0.000 C 
ATOM     29  C   UNL     1       6.414  29.865  76.327  0.00  0.00    +0.000 C 
ENDBRANCH  26  27
ENDBRANCH   4  26
TORSDOF 6
ENDMDL
MODEL 9
REMARK VINA RESULT:      -5.8      2.889      5.472
REMARK  Name = 
REMARK  8 active torsions:
REMARK  status: ('A' for Active; 'I' for Inactive)
REMARK    1  A    between atoms: C_7  and  C_8
REMARK    2  A    between atoms: C_11  and  C_13
REMARK    3  A    between atoms: C_11  and  C_15
REMARK    4  A    between atoms: C_12  and  C_16
REMARK    5  A    between atoms: C_15  and  C_20
REMARK    6  A    between atoms: C_17  and  C_23
REMARK    7  A    between atoms: C_20  and  C_24
REMARK    8  A    between atoms: C_20  and  C_25
REMARK                            x       y       z     vdW  Elec       q    Type
REMARK                         _______ _______ _______ _____ _____    ______ ____
ROOT
ATOM      1  C   UNL     1       7.374  33.968  79.696  0.00  0.00    +0.000 C 
ATOM      2  O   UNL     1       6.743  33.160  80.382  0.00  0.00    +0.000 OA
ATOM      3  N   UNL     1       7.324  33.935  78.272  0.00  0.00    +0.000 N 
ATOM      4  C   UNL     1       8.314  34.500  77.290  0.00  0.00    +0.000 C 
ATOM      5  C   UNL     1       6.731  32.706  77.657  0.00  0.00    +0.000 C 
ATOM      6  C   UNL     1       7.515  34.233  75.968  0.00  0.00    +0.000 C 
ATOM      7  C   UNL     1       6.877  32.857  76.131  0.00  0.00    +0.000 C 
ENDROOT
BRANCH   1  14
ATOM      8 CL   UNL     1      10.634  37.557  83.268  0.00  0.00    +0.000 Cl
ATOM      9  C   UNL     1       9.730  36.565  82.198  0.00  0.00    +0.000 A 
ATOM     10  C   UNL     1       8.512  37.006  81.673  0.00  0.00    +0.000 A 
ATOM     11  C   UNL     1      10.236  35.323  81.830  0.00  0.00    +0.000 A 
ATOM     12  C   UNL     1       7.770  36.152  80.827  0.00  0.00    +0.000 A 
ATOM     13  C   UNL     1       9.529  34.534  80.921  0.00  0.00    +0.000 A 
ATOM     14  C   UNL     1       8.249  34.876  80.497  0.00  0.00    +0.000 A 
ENDBRANCH   1  14
BRANCH   5  15
ATOM     15  C   UNL     1       5.352  32.336  78.117  0.00  0.00    +0.000 A 
ATOM     16  S   UNL     1       5.048  30.700  78.577  0.00  0.00    +0.000 S 
ATOM     17  C   UNL     1       4.220  33.112  78.273  0.00  0.00    +0.000 A 
ATOM     18  C   UNL     1       3.441  31.055  79.027  0.00  0.00    +0.000 A 
ATOM     19  C   UNL     1       3.129  32.379  78.824  0.00  0.00    +0.000 A 
ENDBRANCH   5  15
BRANCH   4  20
ATOM     20  C   UNL     1       8.539  36.029  77.159  0.00  0.00    +0.000 C 
ATOM     21  O   UNL     1       7.703  36.885  77.415  0.00  0.00    +0.000 OA
ATOM     22  O   UNL     1       9.813  36.377  76.818  0.00  0.00    +0.000 OA
ENDBRANCH   4  20
BRANCH   7  23
ATOM     23  C   UNL     1       5.593  32.777  75.329  0.00  0.00    +0.000 C 
ATOM     24  O   UNL     1       4.998  33.751  74.879  0.00  0.00    +0.000 OA
ATOM     25  O   UNL     1       5.163  31.517  75.103  0.00  0.00    +0.000 OA
ENDBRANCH   7  23
BRANCH   4  26
ATOM     26  C   UNL     1       9.671  33.711  77.148  0.00  0.00    +0.000 C 
BRANCH  26  27
ATOM     27  C   UNL     1      10.172  33.229  75.769  0.00  0.00    +0.000 C 
ATOM     28  C   UNL     1      11.546  33.782  75.385  0.00  0.00    +0.000 C 
ATOM     29  C   UNL     1      10.355  31.700  75.791  0.00  0.00    +0.000 C 
ENDBRANCH  26  27
ENDBRANCH   4  26
TORSDOF 6
ENDMDL
