MODEL 1
REMARK VINA RESULT:      -6.9      0.000      0.000
REMARK  Name = 
REMARK  8 active torsions:
REMARK  status: ('A' for Active; 'I' for Inactive)
REMARK    1  A    between atoms: C_2  and  C_5
REMARK    2  A    between atoms: C_8  and  C_11
REMARK    3  A    between atoms: C_9  and  C_14
REMARK    4  A    between atoms: C_10  and  C_15
REMARK    5  A    between atoms: C_10  and  C_16
REMARK    6  A    between atoms: C_16  and  C_23
REMARK    7  A    between atoms: C_23  and  C_26
REMARK    8  A    between atoms: C_23  and  C_27
REMARK                            x       y       z     vdW  Elec       q    Type
REMARK                         _______ _______ _______ _____ _____    ______ ____
ROOT
ATOM      1  C   UNL     1       5.521  32.646  78.691  0.00  0.00    +0.000 C 
ATOM      2  N   UNL     1       5.073  33.613  77.657  0.00  0.00    +0.000 N 
ATOM      3  C   UNL     1       7.053  32.751  78.654  0.00  0.00    +0.000 C 
ATOM      4  C   UNL     1       3.913  34.392  77.663  0.00  0.00    +0.000 C 
ATOM      5  C   UNL     1       6.155  33.842  76.646  0.00  0.00    +0.000 C 
ATOM      6  C   UNL     1       7.360  33.003  77.178  0.00  0.00    +0.000 C 
ATOM      7  O   UNL     1       3.674  35.155  76.723  0.00  0.00    +0.000 OA
ENDROOT
BRANCH   4   8
ATOM      8  C   UNL     1       2.936  34.392  78.784  0.00  0.00    +0.000 A 
ATOM      9  C   UNL     1       2.857  35.517  79.619  0.00  0.00    +0.000 A 
ATOM     10  C   UNL     1       2.034  33.352  78.983  0.00  0.00    +0.000 A 
ATOM     11  C   UNL     1       1.947  35.548  80.682  0.00  0.00    +0.000 A 
ATOM     12  C   UNL     1       1.172  33.349  80.079  0.00  0.00    +0.000 A 
ATOM     13  C   UNL     1       1.131  34.447  80.933  0.00  0.00    +0.000 A 
ENDBRANCH   4   8
BRANCH   1  15
ATOM     14  S   UNL     1       4.248  30.252  79.634  0.00  0.00    +0.000 S 
ATOM     15  C   UNL     1       5.004  31.227  78.436  0.00  0.00    +0.000 A 
ATOM     16  C   UNL     1       3.819  29.042  78.513  0.00  0.00    +0.000 A 
ATOM     17  C   UNL     1       4.981  30.565  77.214  0.00  0.00    +0.000 A 
ATOM     18  C   UNL     1       4.320  29.306  77.262  0.00  0.00    +0.000 A 
ENDBRANCH   1  15
BRANCH   3  19
ATOM     19  C   UNL     1       7.743  31.599  79.344  0.00  0.00    +0.000 C 
ATOM     20  O   UNL     1       7.750  31.467  80.565  0.00  0.00    +0.000 OA
ATOM     21  O   UNL     1       8.455  30.769  78.556  0.00  0.00    +0.000 OA
ENDBRANCH   3  19
BRANCH   5  22
ATOM     22  C   UNL     1       5.733  33.294  75.246  0.00  0.00    +0.000 C 
ATOM     23  O   UNL     1       5.300  32.166  75.058  0.00  0.00    +0.000 OA
ATOM     24  O   UNL     1       6.011  34.115  74.209  0.00  0.00    +0.000 OA
ENDBRANCH   5  22
BRANCH   5  25
ATOM     25  C   UNL     1       6.610  35.316  76.394  0.00  0.00    +0.000 C 
BRANCH  25  26
ATOM     26  C   UNL     1       7.108  36.194  77.563  0.00  0.00    +0.000 C 
ATOM     27  C   UNL     1       8.544  36.663  77.270  0.00  0.00    +0.000 C 
ATOM     28  C   UNL     1       6.250  37.426  77.823  0.00  0.00    +0.000 C 
ENDBRANCH  25  26
ENDBRANCH   5  25
TORSDOF 6
ENDMDL
MODEL 2
REMARK VINA RESULT:      -6.6      2.242      4.192
REMARK  Name = 
REMARK  8 active torsions:
REMARK  status: ('A' for Active; 'I' for Inactive)
REMARK    1  A    between atoms: C_2  and  C_5
REMARK    2  A    between atoms: C_8  and  C_11
REMARK    3  A    between atoms: C_9  and  C_14
REMARK    4  A    between atoms: C_10  and  C_15
REMARK    5  A    between atoms: C_10  and  C_16
REMARK    6  A    between atoms: C_16  and  C_23
REMARK    7  A    between atoms: C_23  and  C_26
REMARK    8  A    between atoms: C_23  and  C_27
REMARK                            x       y       z     vdW  Elec       q    Type
REMARK                         _______ _______ _______ _____ _____    ______ ____
ROOT
ATOM      1  C   UNL     1       7.401  32.941  79.019  0.00  0.00    +0.000 C 
ATOM      2  N   UNL     1       7.367  32.905  77.535  0.00  0.00    +0.000 N 
ATOM      3  C   UNL     1       8.486  31.917  79.386  0.00  0.00    +0.000 C 
ATOM      4  C   UNL     1       7.097  33.964  76.663  0.00  0.00    +0.000 C 
ATOM      5  C   UNL     1       7.889  31.596  77.026  0.00  0.00    +0.000 C 
ATOM      6  C   UNL     1       8.338  30.838  78.315  0.00  0.00    +0.000 C 
ATOM      7  O   UNL     1       7.104  33.779  75.442  0.00  0.00    +0.000 OA
ENDROOT
BRANCH   4   8
ATOM      8  C   UNL     1       6.834  35.353  77.123  0.00  0.00    +0.000 A 
ATOM      9  C   UNL     1       5.533  35.707  77.511  0.00  0.00    +0.000 A 
ATOM     10  C   UNL     1       7.849  36.293  77.267  0.00  0.00    +0.000 A 
ATOM     11  C   UNL     1       5.253  37.006  77.950  0.00  0.00    +0.000 A 
ATOM     12  C   UNL     1       7.565  37.607  77.640  0.00  0.00    +0.000 A 
ATOM     13  C   UNL     1       6.264  37.965  77.978  0.00  0.00    +0.000 A 
ENDBRANCH   4   8
BRANCH   1  15
ATOM     14  S   UNL     1       5.297  33.609  80.853  0.00  0.00    +0.000 S 
ATOM     15  C   UNL     1       6.039  32.633  79.648  0.00  0.00    +0.000 A 
ATOM     16  C   UNL     1       3.836  32.731  80.799  0.00  0.00    +0.000 A 
ATOM     17  C   UNL     1       5.178  31.603  79.287  0.00  0.00    +0.000 A 
ATOM     18  C   UNL     1       3.924  31.648  79.960  0.00  0.00    +0.000 A 
ENDBRANCH   1  15
BRANCH   3  19
ATOM     19  C   UNL     1       8.441  31.501  80.837  0.00  0.00    +0.000 C 
ATOM     20  O   UNL     1       8.951  32.168  81.733  0.00  0.00    +0.000 OA
ATOM     21  O   UNL     1       7.904  30.292  81.096  0.00  0.00    +0.000 OA
ENDBRANCH   3  19
BRANCH   5  22
ATOM     22  C   UNL     1       6.755  30.781  76.325  0.00  0.00    +0.000 C 
ATOM     23  O   UNL     1       5.663  31.246  76.031  0.00  0.00    +0.000 OA
ATOM     24  O   UNL     1       7.012  29.462  76.185  0.00  0.00    +0.000 OA
ENDBRANCH   5  22
BRANCH   5  25
ATOM     25  C   UNL     1       9.066  31.636  76.000  0.00  0.00    +0.000 C 
BRANCH  25  26
ATOM     26  C   UNL     1      10.483  32.059  76.448  0.00  0.00    +0.000 C 
ATOM     27  C   UNL     1      11.506  31.601  75.393  0.00  0.00    +0.000 C 
ATOM     28  C   UNL     1      10.647  33.561  76.648  0.00  0.00    +0.000 C 
ENDBRANCH  25  26
ENDBRANCH   5  25
TORSDOF 6
ENDMDL
MODEL 3
REMARK VINA RESULT:      -6.4      2.613      6.252
REMARK  Name = 
REMARK  8 active torsions:
REMARK  status: ('A' for Active; 'I' for Inactive)
REMARK    1  A    between atoms: C_2  and  C_5
REMARK    2  A    between atoms: C_8  and  C_11
REMARK    3  A    between atoms: C_9  and  C_14
REMARK    4  A    between atoms: C_10  and  C_15
REMARK    5  A    between atoms: C_10  and  C_16
REMARK    6  A    between atoms: C_16  and  C_23
REMARK    7  A    between atoms: C_23  and  C_26
REMARK    8  A    between atoms: C_23  and  C_27
REMARK                            x       y       z     vdW  Elec       q    Type
REMARK                         _______ _______ _______ _____ _____    ______ ____
ROOT
ATOM      1  C   UNL     1       7.621  32.834  79.003  0.00  0.00    +0.000 C 
ATOM      2  N   UNL     1       6.891  33.132  77.744  0.00  0.00    +0.000 N 
ATOM      3  C   UNL     1       6.626  31.989  79.813  0.00  0.00    +0.000 C 
ATOM      4  C   UNL     1       7.427  33.278  76.462  0.00  0.00    +0.000 C 
ATOM      5  C   UNL     1       5.411  33.047  77.960  0.00  0.00    +0.000 C 
ATOM      6  C   UNL     1       5.267  32.583  79.444  0.00  0.00    +0.000 C 
ATOM      7  O   UNL     1       6.688  33.529  75.506  0.00  0.00    +0.000 OA
ENDROOT
BRANCH   4   8
ATOM      8  C   UNL     1       8.872  33.105  76.158  0.00  0.00    +0.000 A 
ATOM      9  C   UNL     1       9.712  34.230  76.180  0.00  0.00    +0.000 A 
ATOM     10  C   UNL     1       9.441  31.856  75.937  0.00  0.00    +0.000 A 
ATOM     11  C   UNL     1      11.077  34.099  75.899  0.00  0.00    +0.000 A 
ATOM     12  C   UNL     1      10.786  31.729  75.592  0.00  0.00    +0.000 A 
ATOM     13  C   UNL     1      11.605  32.853  75.568  0.00  0.00    +0.000 A 
ENDBRANCH   4   8
BRANCH   1  15
ATOM     14  S   UNL     1       9.460  34.170  80.755  0.00  0.00    +0.000 S 
ATOM     15  C   UNL     1       8.079  34.099  79.734  0.00  0.00    +0.000 A 
ATOM     16  C   UNL     1       9.360  35.862  80.932  0.00  0.00    +0.000 A 
ATOM     17  C   UNL     1       7.522  35.367  79.615  0.00  0.00    +0.000 A 
ATOM     18  C   UNL     1       8.244  36.374  80.316  0.00  0.00    +0.000 A 
ENDBRANCH   1  15
BRANCH   3  19
ATOM     19  C   UNL     1       6.991  31.884  81.275  0.00  0.00    +0.000 C 
ATOM     20  O   UNL     1       7.853  31.112  81.687  0.00  0.00    +0.000 OA
ATOM     21  O   UNL     1       6.241  32.604  82.132  0.00  0.00    +0.000 OA
ENDBRANCH   3  19
BRANCH   5  22
ATOM     22  C   UNL     1       4.745  34.451  77.800  0.00  0.00    +0.000 C 
ATOM     23  O   UNL     1       4.595  35.244  78.719  0.00  0.00    +0.000 OA
ATOM     24  O   UNL     1       4.208  34.686  76.582  0.00  0.00    +0.000 OA
ENDBRANCH   5  22
BRANCH   5  25
ATOM     25  C   UNL     1       4.597  32.093  77.028  0.00  0.00    +0.000 C 
BRANCH  25  26
ATOM     26  C   UNL     1       4.693  30.561  77.198  0.00  0.00    +0.000 C 
ATOM     27  C   UNL     1       3.355  29.920  76.790  0.00  0.00    +0.000 C 
ATOM     28  C   UNL     1       5.800  29.914  76.374  0.00  0.00    +0.000 C 
ENDBRANCH  25  26
ENDBRANCH   5  25
TORSDOF 6
ENDMDL
MODEL 4
REMARK VINA RESULT:      -6.4      2.150      3.496
REMARK  Name = 
REMARK  8 active torsions:
REMARK  status: ('A' for Active; 'I' for Inactive)
REMARK    1  A    between atoms: C_2  and  C_5
REMARK    2  A    between atoms: C_8  and  C_11
REMARK    3  A    between atoms: C_9  and  C_14
REMARK    4  A    between atoms: C_10  and  C_15
REMARK    5  A    between atoms: C_10  and  C_16
REMARK    6  A    between atoms: C_16  and  C_23
REMARK    7  A    between atoms: C_23  and  C_26
REMARK    8  A    between atoms: C_23  and  C_27
REMARK                            x       y       z     vdW  Elec       q    Type
REMARK                         _______ _______ _______ _____ _____    ______ ____
ROOT
ATOM      1  C   UNL     1       6.751  32.094  79.483  0.00  0.00    +0.000 C 
ATOM      2  N   UNL     1       6.983  32.308  78.032  0.00  0.00    +0.000 N 
ATOM      3  C   UNL     1       7.700  33.096  80.158  0.00  0.00    +0.000 C 
ATOM      4  C   UNL     1       6.053  32.195  76.995  0.00  0.00    +0.000 C 
ATOM      5  C   UNL     1       8.340  32.897  77.796  0.00  0.00    +0.000 C 
ATOM      6  C   UNL     1       8.914  33.120  79.231  0.00  0.00    +0.000 C 
ATOM      7  O   UNL     1       6.398  32.403  75.828  0.00  0.00    +0.000 OA
ENDROOT
BRANCH   4   8
ATOM      8  C   UNL     1       4.619  31.869  77.216  0.00  0.00    +0.000 A 
ATOM      9  C   UNL     1       4.139  30.609  76.827  0.00  0.00    +0.000 A 
ATOM     10  C   UNL     1       3.753  32.735  77.875  0.00  0.00    +0.000 A 
ATOM     11  C   UNL     1       2.795  30.271  77.023  0.00  0.00    +0.000 A 
ATOM     12  C   UNL     1       2.399  32.431  78.013  0.00  0.00    +0.000 A 
ATOM     13  C   UNL     1       1.918  31.198  77.582  0.00  0.00    +0.000 A 
ENDBRANCH   4   8
BRANCH   1  15
ATOM     14  S   UNL     1       5.976  29.784  80.999  0.00  0.00    +0.000 S 
ATOM     15  C   UNL     1       6.993  30.644  79.913  0.00  0.00    +0.000 A 
ATOM     16  C   UNL     1       6.788  28.308  80.740  0.00  0.00    +0.000 A 
ATOM     17  C   UNL     1       7.986  29.798  79.435  0.00  0.00    +0.000 A 
ATOM     18  C   UNL     1       7.881  28.465  79.923  0.00  0.00    +0.000 A 
ENDBRANCH   1  15
BRANCH   3  19
ATOM     19  C   UNL     1       7.922  32.807  81.624  0.00  0.00    +0.000 C 
ATOM     20  O   UNL     1       8.956  32.299  82.049  0.00  0.00    +0.000 OA
ATOM     21  O   UNL     1       6.876  33.031  82.443  0.00  0.00    +0.000 OA
ENDBRANCH   3  19
BRANCH   5  22
ATOM     22  C   UNL     1       9.257  31.891  77.032  0.00  0.00    +0.000 C 
ATOM     23  O   UNL     1       8.836  30.972  76.342  0.00  0.00    +0.000 OA
ATOM     24  O   UNL     1      10.577  32.016  77.295  0.00  0.00    +0.000 OA
ENDBRANCH   5  22
BRANCH   5  25
ATOM     25  C   UNL     1       8.418  34.230  76.984  0.00  0.00    +0.000 C 
BRANCH  25  26
ATOM     26  C   UNL     1       7.851  35.541  77.570  0.00  0.00    +0.000 C 
ATOM     27  C   UNL     1       8.796  36.704  77.222  0.00  0.00    +0.000 C 
ATOM     28  C   UNL     1       6.457  35.894  77.063  0.00  0.00    +0.000 C 
ENDBRANCH  25  26
ENDBRANCH   5  25
TORSDOF 6
ENDMDL
MODEL 5
REMARK VINA RESULT:      -6.3      2.644      5.376
REMARK  Name = 
REMARK  8 active torsions:
REMARK  status: ('A' for Active; 'I' for Inactive)
REMARK    1  A    between atoms: C_2  and  C_5
REMARK    2  A    between atoms: C_8  and  C_11
REMARK    3  A    between atoms: C_9  and  C_14
REMARK    4  A    between atoms: C_10  and  C_15
REMARK    5  A    between atoms: C_10  and  C_16
REMARK    6  A    between atoms: C_16  and  C_23
REMARK    7  A    between atoms: C_23  and  C_26
REMARK    8  A    between atoms: C_23  and  C_27
REMARK                            x       y       z     vdW  Elec       q    Type
REMARK                         _______ _______ _______ _____ _____    ______ ____
ROOT
ATOM      1  C   UNL     1       6.378  33.364  77.881  0.00  0.00    +0.000 C 
ATOM      2  N   UNL     1       7.467  32.368  77.718  0.00  0.00    +0.000 N 
ATOM      3  C   UNL     1       6.755  34.485  76.901  0.00  0.00    +0.000 C 
ATOM      4  C   UNL     1       7.373  30.977  77.821  0.00  0.00    +0.000 C 
ATOM      5  C   UNL     1       8.707  33.024  77.191  0.00  0.00    +0.000 C 
ATOM      6  C   UNL     1       8.282  34.507  76.952  0.00  0.00    +0.000 C 
ATOM      7  O   UNL     1       8.375  30.275  77.660  0.00  0.00    +0.000 OA
ENDROOT
BRANCH   4   8
ATOM      8  C   UNL     1       6.096  30.263  78.082  0.00  0.00    +0.000 A 
ATOM      9  C   UNL     1       5.265  29.935  76.998  0.00  0.00    +0.000 A 
ATOM     10  C   UNL     1       5.733  29.827  79.352  0.00  0.00    +0.000 A 
ATOM     11  C   UNL     1       4.057  29.262  77.210  0.00  0.00    +0.000 A 
ATOM     12  C   UNL     1       4.500  29.215  79.577  0.00  0.00    +0.000 A 
ATOM     13  C   UNL     1       3.659  28.936  78.505  0.00  0.00    +0.000 A 
ENDBRANCH   4   8
BRANCH   1  15
ATOM     14  S   UNL     1       4.729  33.939  80.159  0.00  0.00    +0.000 S 
ATOM     15  C   UNL     1       6.230  33.846  79.327  0.00  0.00    +0.000 A 
ATOM     16  C   UNL     1       5.468  34.312  81.648  0.00  0.00    +0.000 A 
ATOM     17  C   UNL     1       7.264  34.183  80.193  0.00  0.00    +0.000 A 
ATOM     18  C   UNL     1       6.827  34.469  81.517  0.00  0.00    +0.000 A 
ENDBRANCH   1  15
BRANCH   3  19
ATOM     19  C   UNL     1       6.009  35.772  77.158  0.00  0.00    +0.000 C 
ATOM     20  O   UNL     1       4.792  35.871  77.020  0.00  0.00    +0.000 OA
ATOM     21  O   UNL     1       6.761  36.854  77.442  0.00  0.00    +0.000 OA
ENDBRANCH   3  19
BRANCH   5  22
ATOM     22  C   UNL     1       9.849  32.987  78.256  0.00  0.00    +0.000 C 
ATOM     23  O   UNL     1      10.239  31.966  78.804  0.00  0.00    +0.000 OA
ATOM     24  O   UNL     1      10.299  34.201  78.645  0.00  0.00    +0.000 OA
ENDBRANCH   5  22
BRANCH   5  25
ATOM     25  C   UNL     1       9.337  32.439  75.887  0.00  0.00    +0.000 C 
BRANCH  25  26
ATOM     26  C   UNL     1      10.859  32.529  75.642  0.00  0.00    +0.000 C 
ATOM     27  C   UNL     1      11.312  31.319  74.806  0.00  0.00    +0.000 C 
ATOM     28  C   UNL     1      11.297  33.796  74.918  0.00  0.00    +0.000 C 
ENDBRANCH  25  26
ENDBRANCH   5  25
TORSDOF 6
ENDMDL
MODEL 6
REMARK VINA RESULT:      -6.3      2.669      6.136
REMARK  Name = 
REMARK  8 active torsions:
REMARK  status: ('A' for Active; 'I' for Inactive)
REMARK    1  A    between atoms: C_2  and  C_5
REMARK    2  A    between atoms: C_8  and  C_11
REMARK    3  A    between atoms: C_9  and  C_14
REMARK    4  A    between atoms: C_10  and  C_15
REMARK    5  A    between atoms: C_10  and  C_16
REMARK    6  A    between atoms: C_16  and  C_23
REMARK    7  A    between atoms: C_23  and  C_26
REMARK    8  A    between atoms: C_23  and  C_27
REMARK                            x       y       z     vdW  Elec       q    Type
REMARK                         _______ _______ _______ _____ _____    ______ ____
ROOT
ATOM      1  C   UNL     1       7.265  33.565  77.023  0.00  0.00    +0.000 C 
ATOM      2  N   UNL     1       8.292  33.860  78.054  0.00  0.00    +0.000 N 
ATOM      3  C   UNL     1       6.170  34.612  77.284  0.00  0.00    +0.000 C 
ATOM      4  C   UNL     1       9.677  33.716  77.943  0.00  0.00    +0.000 C 
ATOM      5  C   UNL     1       7.677  34.569  79.222  0.00  0.00    +0.000 C 
ATOM      6  C   UNL     1       6.187  34.776  78.804  0.00  0.00    +0.000 C 
ATOM      7  O   UNL     1      10.409  34.003  78.895  0.00  0.00    +0.000 OA
ENDROOT
BRANCH   4   8
ATOM      8  C   UNL     1      10.354  33.265  76.698  0.00  0.00    +0.000 A 
ATOM      9  C   UNL     1      10.394  31.893  76.404  0.00  0.00    +0.000 A 
ATOM     10  C   UNL     1      10.872  34.159  75.768  0.00  0.00    +0.000 A 
ATOM     11  C   UNL     1      11.022  31.436  75.240  0.00  0.00    +0.000 A 
ATOM     12  C   UNL     1      11.556  33.706  74.640  0.00  0.00    +0.000 A 
ATOM     13  C   UNL     1      11.635  32.343  74.377  0.00  0.00    +0.000 A 
ENDBRANCH   4   8
BRANCH   1  15
ATOM     14  S   UNL     1       5.762  31.517  78.358  0.00  0.00    +0.000 S 
ATOM     15  C   UNL     1       6.755  32.123  77.092  0.00  0.00    +0.000 A 
ATOM     16  C   UNL     1       5.502  30.028  77.569  0.00  0.00    +0.000 A 
ATOM     17  C   UNL     1       6.932  31.139  76.127  0.00  0.00    +0.000 A 
ATOM     18  C   UNL     1       6.231  29.933  76.409  0.00  0.00    +0.000 A 
ENDBRANCH   1  15
BRANCH   3  19
ATOM     19  C   UNL     1       4.860  34.278  76.613  0.00  0.00    +0.000 C 
ATOM     20  O   UNL     1       3.808  34.160  77.237  0.00  0.00    +0.000 OA
ATOM     21  O   UNL     1       4.915  34.002  75.295  0.00  0.00    +0.000 OA
ENDBRANCH   3  19
BRANCH   5  22
ATOM     22  C   UNL     1       7.726  33.675  80.503  0.00  0.00    +0.000 C 
ATOM     23  O   UNL     1       8.040  32.493  80.497  0.00  0.00    +0.000 OA
ATOM     24  O   UNL     1       7.257  34.266  81.624  0.00  0.00    +0.000 OA
ENDBRANCH   5  22
BRANCH   5  25
ATOM     25  C   UNL     1       8.300  35.937  79.648  0.00  0.00    +0.000 C 
BRANCH  25  26
ATOM     26  C   UNL     1       8.060  37.206  78.802  0.00  0.00    +0.000 C 
ATOM     27  C   UNL     1       8.418  38.449  79.635  0.00  0.00    +0.000 C 
ATOM     28  C   UNL     1       8.868  37.252  77.510  0.00  0.00    +0.000 C 
ENDBRANCH  25  26
ENDBRANCH   5  25
TORSDOF 6
ENDMDL
MODEL 7
REMARK VINA RESULT:      -6.1      2.861      6.391
REMARK  Name = 
REMARK  8 active torsions:
REMARK  status: ('A' for Active; 'I' for Inactive)
REMARK    1  A    between atoms: C_2  and  C_5
REMARK    2  A    between atoms: C_8  and  C_11
REMARK    3  A    between atoms: C_9  and  C_14
REMARK    4  A    between atoms: C_10  and  C_15
REMARK    5  A    between atoms: C_10  and  C_16
REMARK    6  A    between atoms: C_16  and  C_23
REMARK    7  A    between atoms: C_23  and  C_26
REMARK    8  A    between atoms: C_23  and  C_27
REMARK                            x       y       z     vdW  Elec       q    Type
REMARK                         _______ _______ _______ _____ _____    ______ ____
ROOT
ATOM      1  C   UNL     1       7.120  33.247  78.124  0.00  0.00    +0.000 C 
ATOM      2  N   UNL     1       8.015  32.433  78.986  0.00  0.00    +0.000 N 
ATOM      3  C   UNL     1       6.294  34.069  79.126  0.00  0.00    +0.000 C 
ATOM      4  C   UNL     1       9.321  32.020  78.707  0.00  0.00    +0.000 C 
ATOM      5  C   UNL     1       7.424  32.267  80.352  0.00  0.00    +0.000 C 
ATOM      6  C   UNL     1       6.117  33.119  80.310  0.00  0.00    +0.000 C 
ATOM      7  O   UNL     1       9.944  31.341  79.527  0.00  0.00    +0.000 OA
ENDROOT
BRANCH   4   8
ATOM      8  C   UNL     1      10.047  32.392  77.464  0.00  0.00    +0.000 A 
ATOM      9  C   UNL     1       9.908  31.583  76.326  0.00  0.00    +0.000 A 
ATOM     10  C   UNL     1      10.790  33.563  77.360  0.00  0.00    +0.000 A 
ATOM     11  C   UNL     1      10.578  31.907  75.140  0.00  0.00    +0.000 A 
ATOM     12  C   UNL     1      11.512  33.856  76.203  0.00  0.00    +0.000 A 
ATOM     13  C   UNL     1      11.409  33.024  75.093  0.00  0.00    +0.000 A 
ENDBRANCH   4   8
BRANCH   1  15
ATOM     14  S   UNL     1       5.740  32.899  75.632  0.00  0.00    +0.000 S 
ATOM     15  C   UNL     1       6.261  32.390  77.189  0.00  0.00    +0.000 A 
ATOM     16  C   UNL     1       5.101  31.367  75.242  0.00  0.00    +0.000 A 
ATOM     17  C   UNL     1       5.862  31.077  77.409  0.00  0.00    +0.000 A 
ATOM     18  C   UNL     1       5.181  30.497  76.302  0.00  0.00    +0.000 A 
ENDBRANCH   1  15
BRANCH   3  19
ATOM     19  C   UNL     1       5.062  34.689  78.511  0.00  0.00    +0.000 C 
ATOM     20  O   UNL     1       5.109  35.692  77.804  0.00  0.00    +0.000 OA
ATOM     21  O   UNL     1       3.880  34.150  78.867  0.00  0.00    +0.000 OA
ENDBRANCH   3  19
BRANCH   5  22
ATOM     22  C   UNL     1       7.049  30.773  80.617  0.00  0.00    +0.000 C 
ATOM     23  O   UNL     1       7.847  29.849  80.556  0.00  0.00    +0.000 OA
ATOM     24  O   UNL     1       5.728  30.543  80.786  0.00  0.00    +0.000 OA
ENDBRANCH   5  22
BRANCH   5  25
ATOM     25  C   UNL     1       8.295  32.698  81.575  0.00  0.00    +0.000 C 
BRANCH  25  26
ATOM     26  C   UNL     1       8.599  34.190  81.834  0.00  0.00    +0.000 C 
ATOM     27  C   UNL     1       8.609  34.451  83.351  0.00  0.00    +0.000 C 
ATOM     28  C   UNL     1       9.932  34.660  81.264  0.00  0.00    +0.000 C 
ENDBRANCH  25  26
ENDBRANCH   5  25
TORSDOF 6
ENDMDL
MODEL 8
REMARK VINA RESULT:      -6.0      2.432      3.465
REMARK  Name = 
REMARK  8 active torsions:
REMARK  status: ('A' for Active; 'I' for Inactive)
REMARK    1  A    between atoms: C_2  and  C_5
REMARK    2  A    between atoms: C_8  and  C_11
REMARK    3  A    between atoms: C_9  and  C_14
REMARK    4  A    between atoms: C_10  and  C_15
REMARK    5  A    between atoms: C_10  and  C_16
REMARK    6  A    between atoms: C_16  and  C_23
REMARK    7  A    between atoms: C_23  and  C_26
REMARK    8  A    between atoms: C_23  and  C_27
REMARK                            x       y       z     vdW  Elec       q    Type
REMARK                         _______ _______ _______ _____ _____    ______ ____
ROOT
ATOM      1  C   UNL     1       6.464  32.210  79.490  0.00  0.00    +0.000 C 
ATOM      2  N   UNL     1       7.281  33.332  78.963  0.00  0.00    +0.000 N 
ATOM      3  C   UNL     1       7.343  31.600  80.592  0.00  0.00    +0.000 C 
ATOM      4  C   UNL     1       6.828  34.556  78.463  0.00  0.00    +0.000 C 
ATOM      5  C   UNL     1       8.736  33.095  79.231  0.00  0.00    +0.000 C 
ATOM      6  C   UNL     1       8.763  31.767  80.052  0.00  0.00    +0.000 C 
ATOM      7  O   UNL     1       7.635  35.396  78.056  0.00  0.00    +0.000 OA
ENDROOT
BRANCH   4   8
ATOM      8  C   UNL     1       5.392  34.941  78.426  0.00  0.00    +0.000 A 
ATOM      9  C   UNL     1       4.875  35.743  79.455  0.00  0.00    +0.000 A 
ATOM     10  C   UNL     1       4.561  34.609  77.362  0.00  0.00    +0.000 A 
ATOM     11  C   UNL     1       3.528  36.123  79.448  0.00  0.00    +0.000 A 
ATOM     12  C   UNL     1       3.204  34.928  77.382  0.00  0.00    +0.000 A 
ATOM     13  C   UNL     1       2.685  35.683  78.430  0.00  0.00    +0.000 A 
ENDBRANCH   4   8
BRANCH   1  15
ATOM     14  S   UNL     1       4.495  30.533  78.245  0.00  0.00    +0.000 S 
ATOM     15  C   UNL     1       6.069  31.206  78.403  0.00  0.00    +0.000 A 
ATOM     16  C   UNL     1       4.865  29.776  76.763  0.00  0.00    +0.000 A 
ATOM     17  C   UNL     1       6.871  30.769  77.354  0.00  0.00    +0.000 A 
ATOM     18  C   UNL     1       6.187  29.935  76.425  0.00  0.00    +0.000 A 
ENDBRANCH   1  15
BRANCH   3  19
ATOM     19  C   UNL     1       6.893  30.222  81.014  0.00  0.00    +0.000 C 
ATOM     20  O   UNL     1       7.497  29.202  80.693  0.00  0.00    +0.000 OA
ATOM     21  O   UNL     1       5.721  30.151  81.675  0.00  0.00    +0.000 OA
ENDBRANCH   3  19
BRANCH   5  22
ATOM     22  C   UNL     1       9.520  32.884  77.897  0.00  0.00    +0.000 C 
ATOM     23  O   UNL     1       9.197  33.386  76.829  0.00  0.00    +0.000 OA
ATOM     24  O   UNL     1      10.523  31.982  77.967  0.00  0.00    +0.000 OA
ENDBRANCH   5  22
BRANCH   5  25
ATOM     25  C   UNL     1       9.520  34.206  80.001  0.00  0.00    +0.000 C 
BRANCH  25  26
ATOM     26  C   UNL     1       9.202  34.508  81.482  0.00  0.00    +0.000 C 
ATOM     27  C   UNL     1      10.349  35.333  82.091  0.00  0.00    +0.000 C 
ATOM     28  C   UNL     1       7.901  35.275  81.693  0.00  0.00    +0.000 C 
ENDBRANCH  25  26
ENDBRANCH   5  25
TORSDOF 6
ENDMDL
MODEL 9
REMARK VINA RESULT:      -6.0      2.511      6.202
REMARK  Name = 
REMARK  8 active torsions:
REMARK  status: ('A' for Active; 'I' for Inactive)
REMARK    1  A    between atoms: C_2  and  C_5
REMARK    2  A    between atoms: C_8  and  C_11
REMARK    3  A    between atoms: C_9  and  C_14
REMARK    4  A    between atoms: C_10  and  C_15
REMARK    5  A    between atoms: C_10  and  C_16
REMARK    6  A    between atoms: C_16  and  C_23
REMARK    7  A    between atoms: C_23  and  C_26
REMARK    8  A    between atoms: C_23  and  C_27
REMARK                            x       y       z     vdW  Elec       q    Type
REMARK                         _______ _______ _______ _____ _____    ______ ____
ROOT
ATOM      1  C   UNL     1       6.634  34.153  79.197  0.00  0.00    +0.000 C 
ATOM      2  N   UNL     1       5.791  33.747  78.044  0.00  0.00    +0.000 N 
ATOM      3  C   UNL     1       5.791  33.766  80.422  0.00  0.00    +0.000 C 
ATOM      4  C   UNL     1       6.219  33.268  76.802  0.00  0.00    +0.000 C 
ATOM      5  C   UNL     1       4.347  33.698  78.438  0.00  0.00    +0.000 C 
ATOM      6  C   UNL     1       4.356  34.023  79.965  0.00  0.00    +0.000 C 
ATOM      7  O   UNL     1       5.393  32.971  75.935  0.00  0.00    +0.000 OA
ENDROOT
BRANCH   4   8
ATOM      8  C   UNL     1       7.649  33.047  76.462  0.00  0.00    +0.000 A 
ATOM      9  C   UNL     1       8.449  34.153  76.132  0.00  0.00    +0.000 A 
ATOM     10  C   UNL     1       8.248  31.795  76.544  0.00  0.00    +0.000 A 
ATOM     11  C   UNL     1       9.800  33.978  75.808  0.00  0.00    +0.000 A 
ATOM     12  C   UNL     1       9.575  31.606  76.158  0.00  0.00    +0.000 A 
ATOM     13  C   UNL     1      10.351  32.699  75.785  0.00  0.00    +0.000 A 
ENDBRANCH   4   8
BRANCH   1  15
ATOM     14  S   UNL     1       8.549  36.248  79.619  0.00  0.00    +0.000 S 
ATOM     15  C   UNL     1       7.009  35.637  79.162  0.00  0.00    +0.000 A 
ATOM     16  C   UNL     1       8.187  37.826  79.085  0.00  0.00    +0.000 A 
ATOM     17  C   UNL     1       6.219  36.675  78.682  0.00  0.00    +0.000 A 
ATOM     18  C   UNL     1       6.886  37.932  78.656  0.00  0.00    +0.000 A 
ENDBRANCH   1  15
BRANCH   3  19
ATOM     19  C   UNL     1       6.266  34.420  81.698  0.00  0.00    +0.000 C 
ATOM     20  O   UNL     1       5.693  35.382  82.201  0.00  0.00    +0.000 OA
ATOM     21  O   UNL     1       7.427  33.963  82.208  0.00  0.00    +0.000 OA
ENDBRANCH   3  19
BRANCH   5  22
ATOM     22  C   UNL     1       3.529  34.799  77.688  0.00  0.00    +0.000 C 
ATOM     23  O   UNL     1       3.662  35.057  76.500  0.00  0.00    +0.000 OA
ATOM     24  O   UNL     1       2.744  35.559  78.483  0.00  0.00    +0.000 OA
ENDBRANCH   5  22
BRANCH   5  25
ATOM     25  C   UNL     1       3.573  32.364  78.187  0.00  0.00    +0.000 C 
BRANCH  25  26
ATOM     26  C   UNL     1       2.029  32.339  78.195  0.00  0.00    +0.000 C 
ATOM     27  C   UNL     1       1.536  31.110  77.411  0.00  0.00    +0.000 C 
ATOM     28  C   UNL     1       1.417  32.289  79.590  0.00  0.00    +0.000 C 
ENDBRANCH  25  26
ENDBRANCH   5  25
TORSDOF 6
ENDMDL
