MODEL 1
REMARK VINA RESULT:      -7.3      0.000      0.000
REMARK  Name = 
REMARK  9 active torsions:
REMARK  status: ('A' for Active; 'I' for Inactive)
REMARK    1  A    between atoms: C_2  and  C_5
REMARK    2  A    between atoms: C_10  and  C_11
REMARK    3  A    between atoms: C_14  and  C_16
REMARK    4  A    between atoms: C_14  and  C_18
REMARK    5  A    between atoms: C_15  and  C_19
REMARK    6  A    between atoms: C_18  and  C_23
REMARK    7  A    between atoms: C_20  and  C_26
REMARK    8  A    between atoms: C_23  and  C_27
REMARK    9  A    between atoms: C_23  and  C_28
REMARK                            x       y       z     vdW  Elec       q    Type
REMARK                         _______ _______ _______ _____ _____    ______ ____
ROOT
ATOM      1  C   UNL     1       7.362  30.598  78.694  0.00  0.00    +0.000 C 
ATOM      2  O   UNL     1       7.593  29.406  78.938  0.00  0.00    +0.000 OA
ATOM      3  N   UNL     1       6.135  31.146  79.085  0.00  0.00    +0.000 N 
ATOM      4  C   UNL     1       5.272  30.519  80.141  0.00  0.00    +0.000 C 
ATOM      5  C   UNL     1       5.620  32.503  78.746  0.00  0.00    +0.000 C 
ATOM      6  C   UNL     1       3.893  31.181  79.775  0.00  0.00    +0.000 C 
ATOM      7  C   UNL     1       4.240  32.608  79.383  0.00  0.00    +0.000 C 
ENDROOT
BRANCH   1  13
ATOM      8  C   UNL     1      10.653  32.414  76.584  0.00  0.00    +0.000 A 
ATOM      9  C   UNL     1      10.263  32.888  77.842  0.00  0.00    +0.000 A 
ATOM     10  C   UNL     1       9.830  31.487  75.934  0.00  0.00    +0.000 A 
ATOM     11  C   UNL     1       9.144  32.342  78.490  0.00  0.00    +0.000 A 
ATOM     12  C   UNL     1       8.663  31.022  76.542  0.00  0.00    +0.000 A 
ATOM     13  C   UNL     1       8.380  31.335  77.873  0.00  0.00    +0.000 A 
BRANCH   8  15
ATOM     14  F   UNL     1      11.769  33.637  74.839  0.00  0.00    +0.000 F 
ATOM     15  C   UNL     1      11.941  32.833  75.924  0.00  0.00    +0.000 C 
ATOM     16  F   UNL     1      12.683  31.776  75.498  0.00  0.00    +0.000 F 
ATOM     17  F   UNL     1      12.749  33.532  76.778  0.00  0.00    +0.000 F 
ENDBRANCH   8  15
ENDBRANCH   1  13
BRANCH   5  18
ATOM     18  C   UNL     1       5.666  32.829  77.288  0.00  0.00    +0.000 A 
ATOM     19  O   UNL     1       5.170  31.927  76.396  0.00  0.00    +0.000 OA
ATOM     20  C   UNL     1       6.235  33.897  76.602  0.00  0.00    +0.000 A 
ATOM     21  C   UNL     1       5.540  32.351  75.157  0.00  0.00    +0.000 A 
ATOM     22  C   UNL     1       6.175  33.568  75.235  0.00  0.00    +0.000 A 
ENDBRANCH   5  18
BRANCH   4  23
ATOM     23  C   UNL     1       4.892  29.005  80.175  0.00  0.00    +0.000 C 
ATOM     24  O   UNL     1       5.165  28.283  81.133  0.00  0.00    +0.000 OA
ATOM     25  O   UNL     1       4.196  28.523  79.135  0.00  0.00    +0.000 OA
ENDBRANCH   4  23
BRANCH   7  26
ATOM     26  C   UNL     1       3.194  33.359  78.600  0.00  0.00    +0.000 C 
ATOM     27  O   UNL     1       3.186  34.583  78.544  0.00  0.00    +0.000 OA
ATOM     28  O   UNL     1       2.301  32.615  77.923  0.00  0.00    +0.000 OA
ENDBRANCH   7  26
BRANCH   4  29
ATOM     29  C   UNL     1       5.640  30.994  81.595  0.00  0.00    +0.000 C 
BRANCH  29  30
ATOM     30  C   UNL     1       7.091  30.958  82.122  0.00  0.00    +0.000 C 
ATOM     31  C   UNL     1       7.827  32.293  82.051  0.00  0.00    +0.000 C 
ATOM     32  C   UNL     1       7.050  30.548  83.609  0.00  0.00    +0.000 C 
ENDBRANCH  29  30
ENDBRANCH   4  29
TORSDOF 7
ENDMDL
MODEL 2
REMARK VINA RESULT:      -7.2      3.060      4.313
REMARK  Name = 
REMARK  9 active torsions:
REMARK  status: ('A' for Active; 'I' for Inactive)
REMARK    1  A    between atoms: C_2  and  C_5
REMARK    2  A    between atoms: C_10  and  C_11
REMARK    3  A    between atoms: C_14  and  C_16
REMARK    4  A    between atoms: C_14  and  C_18
REMARK    5  A    between atoms: C_15  and  C_19
REMARK    6  A    between atoms: C_18  and  C_23
REMARK    7  A    between atoms: C_20  and  C_26
REMARK    8  A    between atoms: C_23  and  C_27
REMARK    9  A    between atoms: C_23  and  C_28
REMARK                            x       y       z     vdW  Elec       q    Type
REMARK                         _______ _______ _______ _____ _____    ______ ____
ROOT
ATOM      1  C   UNL     1       8.425  34.183  78.938  0.00  0.00    +0.000 C 
ATOM      2  O   UNL     1       9.044  34.086  80.006  0.00  0.00    +0.000 OA
ATOM      3  N   UNL     1       7.181  34.823  78.930  0.00  0.00    +0.000 N 
ATOM      4  C   UNL     1       6.750  35.762  80.019  0.00  0.00    +0.000 C 
ATOM      5  C   UNL     1       6.229  34.900  77.786  0.00  0.00    +0.000 C 
ATOM      6  C   UNL     1       5.194  35.720  79.797  0.00  0.00    +0.000 C 
ATOM      7  C   UNL     1       5.019  35.677  78.288  0.00  0.00    +0.000 C 
ENDROOT
BRANCH   1  13
ATOM      8  C   UNL     1      10.582  32.265  75.736  0.00  0.00    +0.000 A 
ATOM      9  C   UNL     1      10.369  33.649  75.725  0.00  0.00    +0.000 A 
ATOM     10  C   UNL     1       9.906  31.493  76.687  0.00  0.00    +0.000 A 
ATOM     11  C   UNL     1       9.603  34.256  76.731  0.00  0.00    +0.000 A 
ATOM     12  C   UNL     1       9.064  32.093  77.623  0.00  0.00    +0.000 A 
ATOM     13  C   UNL     1       9.009  33.482  77.745  0.00  0.00    +0.000 A 
BRANCH   8  15
ATOM     14  F   UNL     1      11.167  30.324  74.443  0.00  0.00    +0.000 F 
ATOM     15  C   UNL     1      11.538  31.585  74.790  0.00  0.00    +0.000 C 
ATOM     16  F   UNL     1      12.797  31.485  75.296  0.00  0.00    +0.000 F 
ATOM     17  F   UNL     1      11.668  32.271  73.614  0.00  0.00    +0.000 F 
ENDBRANCH   8  15
ENDBRANCH   1  13
BRANCH   5  18
ATOM     18  C   UNL     1       5.913  33.578  77.162  0.00  0.00    +0.000 A 
ATOM     19  O   UNL     1       5.575  32.534  77.968  0.00  0.00    +0.000 OA
ATOM     20  C   UNL     1       5.989  33.143  75.844  0.00  0.00    +0.000 A 
ATOM     21  C   UNL     1       5.570  31.419  77.189  0.00  0.00    +0.000 A 
ATOM     22  C   UNL     1       5.796  31.749  75.874  0.00  0.00    +0.000 A 
ENDBRANCH   5  18
BRANCH   4  23
ATOM     23  C   UNL     1       6.857  35.441  81.543  0.00  0.00    +0.000 C 
ATOM     24  O   UNL     1       7.390  36.213  82.339  0.00  0.00    +0.000 OA
ATOM     25  O   UNL     1       6.287  34.306  81.974  0.00  0.00    +0.000 OA
ENDBRANCH   4  23
BRANCH   7  26
ATOM     26  C   UNL     1       3.672  35.224  77.784  0.00  0.00    +0.000 C 
ATOM     27  O   UNL     1       3.290  35.479  76.648  0.00  0.00    +0.000 OA
ATOM     28  O   UNL     1       2.936  34.479  78.627  0.00  0.00    +0.000 OA
ENDBRANCH   7  26
BRANCH   4  29
ATOM     29  C   UNL     1       7.212  37.245  79.768  0.00  0.00    +0.000 C 
BRANCH  29  30
ATOM     30  C   UNL     1       8.673  37.595  79.411  0.00  0.00    +0.000 C 
ATOM     31  C   UNL     1       8.947  37.734  77.916  0.00  0.00    +0.000 C 
ATOM     32  C   UNL     1       9.010  38.955  80.057  0.00  0.00    +0.000 C 
ENDBRANCH  29  30
ENDBRANCH   4  29
TORSDOF 7
ENDMDL
MODEL 3
REMARK VINA RESULT:      -7.1      1.637      2.385
REMARK  Name = 
REMARK  9 active torsions:
REMARK  status: ('A' for Active; 'I' for Inactive)
REMARK    1  A    between atoms: C_2  and  C_5
REMARK    2  A    between atoms: C_10  and  C_11
REMARK    3  A    between atoms: C_14  and  C_16
REMARK    4  A    between atoms: C_14  and  C_18
REMARK    5  A    between atoms: C_15  and  C_19
REMARK    6  A    between atoms: C_18  and  C_23
REMARK    7  A    between atoms: C_20  and  C_26
REMARK    8  A    between atoms: C_23  and  C_27
REMARK    9  A    between atoms: C_23  and  C_28
REMARK                            x       y       z     vdW  Elec       q    Type
REMARK                         _______ _______ _______ _____ _____    ______ ____
ROOT
ATOM      1  C   UNL     1       5.961  31.416  79.133  0.00  0.00    +0.000 C 
ATOM      2  O   UNL     1       5.496  30.329  79.499  0.00  0.00    +0.000 OA
ATOM      3  N   UNL     1       5.185  32.571  79.280  0.00  0.00    +0.000 N 
ATOM      4  C   UNL     1       4.023  32.647  80.228  0.00  0.00    +0.000 C 
ATOM      5  C   UNL     1       5.510  33.930  78.762  0.00  0.00    +0.000 C 
ATOM      6  C   UNL     1       3.253  33.865  79.596  0.00  0.00    +0.000 C 
ATOM      7  C   UNL     1       4.344  34.829  79.159  0.00  0.00    +0.000 C 
ENDROOT
BRANCH   1  13
ATOM      8  C   UNL     1       9.580  31.727  76.812  0.00  0.00    +0.000 A 
ATOM      9  C   UNL     1       8.522  30.917  76.380  0.00  0.00    +0.000 A 
ATOM     10  C   UNL     1       9.528  32.262  78.104  0.00  0.00    +0.000 A 
ATOM     11  C   UNL     1       7.378  30.762  77.177  0.00  0.00    +0.000 A 
ATOM     12  C   UNL     1       8.431  32.020  78.931  0.00  0.00    +0.000 A 
ATOM     13  C   UNL     1       7.290  31.388  78.434  0.00  0.00    +0.000 A 
BRANCH   8  15
ATOM     14  F   UNL     1      11.875  32.415  76.607  0.00  0.00    +0.000 F 
ATOM     15  C   UNL     1      10.749  32.072  75.926  0.00  0.00    +0.000 C 
ATOM     16  F   UNL     1      10.484  33.108  75.086  0.00  0.00    +0.000 F 
ATOM     17  F   UNL     1      11.107  31.026  75.120  0.00  0.00    +0.000 F 
ENDBRANCH   8  15
ENDBRANCH   1  13
BRANCH   5  18
ATOM     18  C   UNL     1       5.863  33.965  77.310  0.00  0.00    +0.000 A 
ATOM     19  O   UNL     1       5.090  33.274  76.428  0.00  0.00    +0.000 OA
ATOM     20  C   UNL     1       6.948  34.520  76.642  0.00  0.00    +0.000 A 
ATOM     21  C   UNL     1       5.749  33.276  75.238  0.00  0.00    +0.000 A 
ATOM     22  C   UNL     1       6.883  34.049  75.318  0.00  0.00    +0.000 A 
ENDBRANCH   5  18
BRANCH   4  23
ATOM     23  C   UNL     1       2.893  31.573  80.313  0.00  0.00    +0.000 C 
ATOM     24  O   UNL     1       2.174  31.302  79.352  0.00  0.00    +0.000 OA
ATOM     25  O   UNL     1       2.769  30.902  81.467  0.00  0.00    +0.000 OA
ENDBRANCH   4  23
BRANCH   7  26
ATOM     26  C   UNL     1       3.942  35.887  78.164  0.00  0.00    +0.000 C 
ATOM     27  O   UNL     1       4.500  36.977  78.122  0.00  0.00    +0.000 OA
ATOM     28  O   UNL     1       2.975  35.553  77.291  0.00  0.00    +0.000 OA
ENDBRANCH   7  26
BRANCH   4  29
ATOM     29  C   UNL     1       4.445  33.073  81.682  0.00  0.00    +0.000 C 
BRANCH  29  30
ATOM     30  C   UNL     1       5.709  32.505  82.363  0.00  0.00    +0.000 C 
ATOM     31  C   UNL     1       6.950  33.384  82.236  0.00  0.00    +0.000 C 
ATOM     32  C   UNL     1       5.415  32.360  83.871  0.00  0.00    +0.000 C 
ENDBRANCH  29  30
ENDBRANCH   4  29
TORSDOF 7
ENDMDL
MODEL 4
REMARK VINA RESULT:      -7.1      4.027      6.458
REMARK  Name = 
REMARK  9 active torsions:
REMARK  status: ('A' for Active; 'I' for Inactive)
REMARK    1  A    between atoms: C_2  and  C_5
REMARK    2  A    between atoms: C_10  and  C_11
REMARK    3  A    between atoms: C_14  and  C_16
REMARK    4  A    between atoms: C_14  and  C_18
REMARK    5  A    between atoms: C_15  and  C_19
REMARK    6  A    between atoms: C_18  and  C_23
REMARK    7  A    between atoms: C_20  and  C_26
REMARK    8  A    between atoms: C_23  and  C_27
REMARK    9  A    between atoms: C_23  and  C_28
REMARK                            x       y       z     vdW  Elec       q    Type
REMARK                         _______ _______ _______ _____ _____    ______ ____
ROOT
ATOM      1  C   UNL     1       5.202  33.419  79.658  0.00  0.00    +0.000 C 
ATOM      2  O   UNL     1       4.064  33.906  79.657  0.00  0.00    +0.000 OA
ATOM      3  N   UNL     1       6.231  34.093  78.991  0.00  0.00    +0.000 N 
ATOM      4  C   UNL     1       6.149  35.552  78.649  0.00  0.00    +0.000 C 
ATOM      5  C   UNL     1       7.614  33.590  78.755  0.00  0.00    +0.000 C 
ATOM      6  C   UNL     1       7.227  35.611  77.505  0.00  0.00    +0.000 C 
ATOM      7  C   UNL     1       8.335  34.679  77.969  0.00  0.00    +0.000 C 
ENDROOT
BRANCH   1  13
ATOM      8  C   UNL     1       6.002  29.412  81.033  0.00  0.00    +0.000 A 
ATOM      9  C   UNL     1       5.028  29.651  80.055  0.00  0.00    +0.000 A 
ATOM     10  C   UNL     1       6.558  30.507  81.702  0.00  0.00    +0.000 A 
ATOM     11  C   UNL     1       4.720  30.963  79.667  0.00  0.00    +0.000 A 
ATOM     12  C   UNL     1       6.173  31.809  81.381  0.00  0.00    +0.000 A 
ATOM     13  C   UNL     1       5.360  32.059  80.275  0.00  0.00    +0.000 A 
BRANCH   8  15
ATOM     14  F   UNL     1       7.517  27.604  80.562  0.00  0.00    +0.000 F 
ATOM     15  C   UNL     1       6.499  28.027  81.359  0.00  0.00    +0.000 C 
ATOM     16  F   UNL     1       5.526  27.083  81.265  0.00  0.00    +0.000 F 
ATOM     17  F   UNL     1       6.972  27.943  82.640  0.00  0.00    +0.000 F 
ENDBRANCH   8  15
ENDBRANCH   1  13
BRANCH   5  18
ATOM     18  C   UNL     1       7.674  32.228  78.142  0.00  0.00    +0.000 A 
ATOM     19  O   UNL     1       6.871  31.948  77.079  0.00  0.00    +0.000 OA
ATOM     20  C   UNL     1       8.363  31.081  78.520  0.00  0.00    +0.000 A 
ATOM     21  C   UNL     1       6.946  30.605  76.870  0.00  0.00    +0.000 A 
ATOM     22  C   UNL     1       7.868  30.038  77.717  0.00  0.00    +0.000 A 
ENDBRANCH   5  18
BRANCH   4  23
ATOM     23  C   UNL     1       4.921  36.220  77.955  0.00  0.00    +0.000 C 
ATOM     24  O   UNL     1       4.439  37.280  78.354  0.00  0.00    +0.000 OA
ATOM     25  O   UNL     1       4.437  35.624  76.855  0.00  0.00    +0.000 OA
ENDBRANCH   4  23
BRANCH   7  26
ATOM     26  C   UNL     1       9.304  34.214  76.911  0.00  0.00    +0.000 C 
ATOM     27  O   UNL     1       8.989  34.157  75.729  0.00  0.00    +0.000 OA
ATOM     28  O   UNL     1      10.548  33.917  77.327  0.00  0.00    +0.000 OA
ENDBRANCH   7  26
BRANCH   4  29
ATOM     29  C   UNL     1       6.659  36.483  79.811  0.00  0.00    +0.000 C 
BRANCH  29  30
ATOM     30  C   UNL     1       7.665  37.627  79.556  0.00  0.00    +0.000 C 
ATOM     31  C   UNL     1       7.129  39.024  79.853  0.00  0.00    +0.000 C 
ATOM     32  C   UNL     1       8.881  37.407  80.481  0.00  0.00    +0.000 C 
ENDBRANCH  29  30
ENDBRANCH   4  29
TORSDOF 7
ENDMDL
MODEL 5
REMARK VINA RESULT:      -7.0      2.430      4.770
REMARK  Name = 
REMARK  9 active torsions:
REMARK  status: ('A' for Active; 'I' for Inactive)
REMARK    1  A    between atoms: C_2  and  C_5
REMARK    2  A    between atoms: C_10  and  C_11
REMARK    3  A    between atoms: C_14  and  C_16
REMARK    4  A    between atoms: C_14  and  C_18
REMARK    5  A    between atoms: C_15  and  C_19
REMARK    6  A    between atoms: C_18  and  C_23
REMARK    7  A    between atoms: C_20  and  C_26
REMARK    8  A    between atoms: C_23  and  C_27
REMARK    9  A    between atoms: C_23  and  C_28
REMARK                            x       y       z     vdW  Elec       q    Type
REMARK                         _______ _______ _______ _____ _____    ______ ____
ROOT
ATOM      1  C   UNL     1       6.896  33.968  76.610  0.00  0.00    +0.000 C 
ATOM      2  O   UNL     1       6.436  34.709  75.732  0.00  0.00    +0.000 OA
ATOM      3  N   UNL     1       6.158  33.760  77.780  0.00  0.00    +0.000 N 
ATOM      4  C   UNL     1       4.682  34.022  77.859  0.00  0.00    +0.000 C 
ATOM      5  C   UNL     1       6.613  33.033  78.999  0.00  0.00    +0.000 C 
ATOM      6  C   UNL     1       4.527  34.158  79.419  0.00  0.00    +0.000 C 
ATOM      7  C   UNL     1       5.460  33.105  79.994  0.00  0.00    +0.000 C 
ENDROOT
BRANCH   1  13
ATOM      8  C   UNL     1      10.757  32.411  75.490  0.00  0.00    +0.000 A 
ATOM      9  C   UNL     1       9.706  31.546  75.819  0.00  0.00    +0.000 A 
ATOM     10  C   UNL     1      10.597  33.779  75.734  0.00  0.00    +0.000 A 
ATOM     11  C   UNL     1       8.475  32.059  76.255  0.00  0.00    +0.000 A 
ATOM     12  C   UNL     1       9.405  34.274  76.263  0.00  0.00    +0.000 A 
ATOM     13  C   UNL     1       8.289  33.446  76.399  0.00  0.00    +0.000 A 
BRANCH   8  15
ATOM     14  F   UNL     1      12.049  30.593  74.590  0.00  0.00    +0.000 F 
ATOM     15  C   UNL     1      12.033  31.928  74.850  0.00  0.00    +0.000 C 
ATOM     16  F   UNL     1      13.132  32.180  75.611  0.00  0.00    +0.000 F 
ATOM     17  F   UNL     1      12.267  32.542  73.650  0.00  0.00    +0.000 F 
ENDBRANCH   8  15
ENDBRANCH   1  13
BRANCH   5  18
ATOM     18  C   UNL     1       7.932  33.493  79.531  0.00  0.00    +0.000 A 
ATOM     19  O   UNL     1       8.846  32.562  79.920  0.00  0.00    +0.000 OA
ATOM     20  C   UNL     1       8.415  34.766  79.814  0.00  0.00    +0.000 A 
ATOM     21  C   UNL     1       9.839  33.229  80.568  0.00  0.00    +0.000 A 
ATOM     22  C   UNL     1       9.626  34.586  80.506  0.00  0.00    +0.000 A 
ENDBRANCH   5  18
BRANCH   4  23
ATOM     23  C   UNL     1       4.000  35.335  77.362  0.00  0.00    +0.000 C 
ATOM     24  O   UNL     1       3.116  35.331  76.506  0.00  0.00    +0.000 OA
ATOM     25  O   UNL     1       4.372  36.482  77.950  0.00  0.00    +0.000 OA
ENDBRANCH   4  23
BRANCH   7  26
ATOM     26  C   UNL     1       5.835  33.265  81.445  0.00  0.00    +0.000 C 
ATOM     27  O   UNL     1       6.274  32.331  82.104  0.00  0.00    +0.000 OA
ATOM     28  O   UNL     1       5.711  34.500  81.964  0.00  0.00    +0.000 OA
ENDBRANCH   7  26
BRANCH   4  29
ATOM     29  C   UNL     1       3.815  32.787  77.415  0.00  0.00    +0.000 C 
BRANCH  29  30
ATOM     30  C   UNL     1       4.448  31.408  77.128  0.00  0.00    +0.000 C 
ATOM     31  C   UNL     1       3.589  30.215  77.539  0.00  0.00    +0.000 C 
ATOM     32  C   UNL     1       4.675  31.293  75.606  0.00  0.00    +0.000 C 
ENDBRANCH  29  30
ENDBRANCH   4  29
TORSDOF 7
ENDMDL
MODEL 6
REMARK VINA RESULT:      -7.0      1.520      2.060
REMARK  Name = 
REMARK  9 active torsions:
REMARK  status: ('A' for Active; 'I' for Inactive)
REMARK    1  A    between atoms: C_2  and  C_5
REMARK    2  A    between atoms: C_10  and  C_11
REMARK    3  A    between atoms: C_14  and  C_16
REMARK    4  A    between atoms: C_14  and  C_18
REMARK    5  A    between atoms: C_15  and  C_19
REMARK    6  A    between atoms: C_18  and  C_23
REMARK    7  A    between atoms: C_20  and  C_26
REMARK    8  A    between atoms: C_23  and  C_27
REMARK    9  A    between atoms: C_23  and  C_28
REMARK                            x       y       z     vdW  Elec       q    Type
REMARK                         _______ _______ _______ _____ _____    ______ ____
ROOT
ATOM      1  C   UNL     1       7.734  31.896  78.992  0.00  0.00    +0.000 C 
ATOM      2  O   UNL     1       7.823  30.826  79.609  0.00  0.00    +0.000 OA
ATOM      3  N   UNL     1       6.699  32.781  79.313  0.00  0.00    +0.000 N 
ATOM      4  C   UNL     1       5.963  32.720  80.620  0.00  0.00    +0.000 C 
ATOM      5  C   UNL     1       6.342  34.031  78.584  0.00  0.00    +0.000 C 
ATOM      6  C   UNL     1       4.656  33.498  80.217  0.00  0.00    +0.000 C 
ATOM      7  C   UNL     1       5.136  34.618  79.309  0.00  0.00    +0.000 C 
ENDROOT
BRANCH   1  13
ATOM      8  C   UNL     1      10.811  32.213  75.990  0.00  0.00    +0.000 A 
ATOM      9  C   UNL     1      10.741  33.136  77.040  0.00  0.00    +0.000 A 
ATOM     10  C   UNL     1       9.750  31.319  75.813  0.00  0.00    +0.000 A 
ATOM     11  C   UNL     1       9.693  33.072  77.971  0.00  0.00    +0.000 A 
ATOM     12  C   UNL     1       8.660  31.327  76.684  0.00  0.00    +0.000 A 
ATOM     13  C   UNL     1       8.681  32.102  77.845  0.00  0.00    +0.000 A 
BRANCH   8  15
ATOM     14  F   UNL     1      12.886  31.144  75.409  0.00  0.00    +0.000 F 
ATOM     15  C   UNL     1      12.002  32.121  75.071  0.00  0.00    +0.000 C 
ATOM     16  F   UNL     1      12.716  33.277  75.018  0.00  0.00    +0.000 F 
ATOM     17  F   UNL     1      11.633  31.857  73.780  0.00  0.00    +0.000 F 
ENDBRANCH   8  15
ENDBRANCH   1  13
BRANCH   5  18
ATOM     18  C   UNL     1       6.165  33.852  77.111  0.00  0.00    +0.000 A 
ATOM     19  O   UNL     1       5.386  32.830  76.661  0.00  0.00    +0.000 OA
ATOM     20  C   UNL     1       6.747  34.504  76.030  0.00  0.00    +0.000 A 
ATOM     21  C   UNL     1       5.578  32.748  75.317  0.00  0.00    +0.000 A 
ATOM     22  C   UNL     1       6.388  33.771  74.884  0.00  0.00    +0.000 A 
ENDBRANCH   5  18
BRANCH   4  23
ATOM     23  C   UNL     1       5.371  31.411  81.230  0.00  0.00    +0.000 C 
ATOM     24  O   UNL     1       5.560  31.091  82.403  0.00  0.00    +0.000 OA
ATOM     25  O   UNL     1       4.588  30.663  80.438  0.00  0.00    +0.000 OA
ENDBRANCH   4  23
BRANCH   7  26
ATOM     26  C   UNL     1       4.089  35.275  78.446  0.00  0.00    +0.000 C 
ATOM     27  O   UNL     1       3.035  34.715  78.174  0.00  0.00    +0.000 OA
ATOM     28  O   UNL     1       4.350  36.529  78.036  0.00  0.00    +0.000 OA
ENDBRANCH   7  26
BRANCH   4  29
ATOM     29  C   UNL     1       6.663  33.553  81.757  0.00  0.00    +0.000 C 
BRANCH  29  30
ATOM     30  C   UNL     1       8.131  33.303  82.164  0.00  0.00    +0.000 C 
ATOM     31  C   UNL     1       9.137  34.264  81.538  0.00  0.00    +0.000 C 
ATOM     32  C   UNL     1       8.239  33.474  83.694  0.00  0.00    +0.000 C 
ENDBRANCH  29  30
ENDBRANCH   4  29
TORSDOF 7
ENDMDL
MODEL 7
REMARK VINA RESULT:      -6.7      2.285      4.207
REMARK  Name = 
REMARK  9 active torsions:
REMARK  status: ('A' for Active; 'I' for Inactive)
REMARK    1  A    between atoms: C_2  and  C_5
REMARK    2  A    between atoms: C_10  and  C_11
REMARK    3  A    between atoms: C_14  and  C_16
REMARK    4  A    between atoms: C_14  and  C_18
REMARK    5  A    between atoms: C_15  and  C_19
REMARK    6  A    between atoms: C_18  and  C_23
REMARK    7  A    between atoms: C_20  and  C_26
REMARK    8  A    between atoms: C_23  and  C_27
REMARK    9  A    between atoms: C_23  and  C_28
REMARK                            x       y       z     vdW  Elec       q    Type
REMARK                         _______ _______ _______ _____ _____    ______ ____
ROOT
ATOM      1  C   UNL     1       5.919  33.882  79.869  0.00  0.00    +0.000 C 
ATOM      2  O   UNL     1       5.775  34.475  80.947  0.00  0.00    +0.000 OA
ATOM      3  N   UNL     1       5.035  32.849  79.538  0.00  0.00    +0.000 N 
ATOM      4  C   UNL     1       3.689  32.702  80.186  0.00  0.00    +0.000 C 
ATOM      5  C   UNL     1       5.142  31.929  78.371  0.00  0.00    +0.000 C 
ATOM      6  C   UNL     1       3.416  31.184  79.874  0.00  0.00    +0.000 C 
ATOM      7  C   UNL     1       3.958  30.974  78.469  0.00  0.00    +0.000 C 
ENDROOT
BRANCH   1  13
ATOM      8  C   UNL     1       9.418  34.384  77.402  0.00  0.00    +0.000 A 
ATOM      9  C   UNL     1       9.541  34.033  78.752  0.00  0.00    +0.000 A 
ATOM     10  C   UNL     1       8.162  34.772  76.924  0.00  0.00    +0.000 A 
ATOM     11  C   UNL     1       8.402  33.945  79.568  0.00  0.00    +0.000 A 
ATOM     12  C   UNL     1       7.050  34.779  77.767  0.00  0.00    +0.000 A 
ATOM     13  C   UNL     1       7.127  34.239  79.052  0.00  0.00    +0.000 A 
BRANCH   8  15
ATOM     14  F   UNL     1      11.753  33.957  77.018  0.00  0.00    +0.000 F 
ATOM     15  C   UNL     1      10.577  34.320  76.440  0.00  0.00    +0.000 C 
ATOM     16  F   UNL     1      10.810  35.506  75.818  0.00  0.00    +0.000 F 
ATOM     17  F   UNL     1      10.360  33.414  75.439  0.00  0.00    +0.000 F 
ENDBRANCH   8  15
ENDBRANCH   1  13
BRANCH   5  18
ATOM     18  C   UNL     1       6.474  31.265  78.234  0.00  0.00    +0.000 A 
ATOM     19  O   UNL     1       7.046  30.703  79.335  0.00  0.00    +0.000 OA
ATOM     20  C   UNL     1       7.352  31.179  77.159  0.00  0.00    +0.000 A 
ATOM     21  C   UNL     1       8.326  30.386  78.998  0.00  0.00    +0.000 A 
ATOM     22  C   UNL     1       8.549  30.640  77.666  0.00  0.00    +0.000 A 
ENDBRANCH   5  18
BRANCH   4  23
ATOM     23  C   UNL     1       3.451  32.750  81.728  0.00  0.00    +0.000 C 
ATOM     24  O   UNL     1       2.766  33.625  82.258  0.00  0.00    +0.000 OA
ATOM     25  O   UNL     1       3.976  31.758  82.463  0.00  0.00    +0.000 OA
ENDBRANCH   4  23
BRANCH   7  26
ATOM     26  C   UNL     1       4.209  29.547  78.056  0.00  0.00    +0.000 C 
ATOM     27  O   UNL     1       4.337  29.230  76.880  0.00  0.00    +0.000 OA
ATOM     28  O   UNL     1       4.339  28.649  79.049  0.00  0.00    +0.000 OA
ENDBRANCH   7  26
BRANCH   4  29
ATOM     29  C   UNL     1       2.565  33.531  79.462  0.00  0.00    +0.000 C 
BRANCH  29  30
ATOM     30  C   UNL     1       2.814  34.965  78.947  0.00  0.00    +0.000 C 
ATOM     31  C   UNL     1       3.171  35.058  77.466  0.00  0.00    +0.000 C 
ATOM     32  C   UNL     1       1.516  35.776  79.147  0.00  0.00    +0.000 C 
ENDBRANCH  29  30
ENDBRANCH   4  29
TORSDOF 7
ENDMDL
MODEL 8
REMARK VINA RESULT:      -6.6      2.034      4.450
REMARK  Name = 
REMARK  9 active torsions:
REMARK  status: ('A' for Active; 'I' for Inactive)
REMARK    1  A    between atoms: C_2  and  C_5
REMARK    2  A    between atoms: C_10  and  C_11
REMARK    3  A    between atoms: C_14  and  C_16
REMARK    4  A    between atoms: C_14  and  C_18
REMARK    5  A    between atoms: C_15  and  C_19
REMARK    6  A    between atoms: C_18  and  C_23
REMARK    7  A    between atoms: C_20  and  C_26
REMARK    8  A    between atoms: C_23  and  C_27
REMARK    9  A    between atoms: C_23  and  C_28
REMARK                            x       y       z     vdW  Elec       q    Type
REMARK                         _______ _______ _______ _____ _____    ______ ____
ROOT
ATOM      1  C   UNL     1       5.196  33.305  77.945  0.00  0.00    +0.000 C 
ATOM      2  O   UNL     1       4.288  34.108  77.693  0.00  0.00    +0.000 OA
ATOM      3  N   UNL     1       5.031  32.401  79.001  0.00  0.00    +0.000 N 
ATOM      4  C   UNL     1       3.681  32.054  79.560  0.00  0.00    +0.000 C 
ATOM      5  C   UNL     1       6.062  31.475  79.546  0.00  0.00    +0.000 C 
ATOM      6  C   UNL     1       4.119  31.500  80.965  0.00  0.00    +0.000 C 
ATOM      7  C   UNL     1       5.399  30.725  80.695  0.00  0.00    +0.000 C 
ENDROOT
BRANCH   1  13
ATOM      8  C   UNL     1       9.115  33.635  76.180  0.00  0.00    +0.000 A 
ATOM      9  C   UNL     1       8.514  34.740  76.795  0.00  0.00    +0.000 A 
ATOM     10  C   UNL     1       8.343  32.490  75.962  0.00  0.00    +0.000 A 
ATOM     11  C   UNL     1       7.209  34.646  77.301  0.00  0.00    +0.000 A 
ATOM     12  C   UNL     1       7.012  32.438  76.378  0.00  0.00    +0.000 A 
ATOM     13  C   UNL     1       6.473  33.454  77.169  0.00  0.00    +0.000 A 
BRANCH   8  15
ATOM     14  F   UNL     1      10.941  34.685  75.018  0.00  0.00    +0.000 F 
ATOM     15  C   UNL     1      10.569  33.622  75.781  0.00  0.00    +0.000 C 
ATOM     16  F   UNL     1      10.911  32.511  75.077  0.00  0.00    +0.000 F 
ATOM     17  F   UNL     1      11.397  33.639  76.870  0.00  0.00    +0.000 F 
ENDBRANCH   8  15
ENDBRANCH   1  13
BRANCH   5  18
ATOM     18  C   UNL     1       7.358  32.135  79.891  0.00  0.00    +0.000 A 
ATOM     19  O   UNL     1       7.335  33.312  80.575  0.00  0.00    +0.000 OA
ATOM     20  C   UNL     1       8.669  31.819  79.554  0.00  0.00    +0.000 A 
ATOM     21  C   UNL     1       8.602  33.808  80.554  0.00  0.00    +0.000 A 
ATOM     22  C   UNL     1       9.458  32.912  79.958  0.00  0.00    +0.000 A 
ENDBRANCH   5  18
BRANCH   4  23
ATOM     23  C   UNL     1       2.604  33.109  79.962  0.00  0.00    +0.000 C 
ATOM     24  O   UNL     1       1.480  33.121  79.461  0.00  0.00    +0.000 OA
ATOM     25  O   UNL     1       2.927  33.980  80.930  0.00  0.00    +0.000 OA
ENDBRANCH   4  23
BRANCH   7  26
ATOM     26  C   UNL     1       6.265  30.427  81.892  0.00  0.00    +0.000 C 
ATOM     27  O   UNL     1       7.135  29.566  81.859  0.00  0.00    +0.000 OA
ATOM     28  O   UNL     1       6.068  31.192  82.981  0.00  0.00    +0.000 OA
ENDBRANCH   7  26
BRANCH   4  29
ATOM     29  C   UNL     1       2.986  30.869  78.793  0.00  0.00    +0.000 C 
BRANCH  29  30
ATOM     30  C   UNL     1       3.258  30.595  77.298  0.00  0.00    +0.000 C 
ATOM     31  C   UNL     1       4.274  29.488  77.028  0.00  0.00    +0.000 C 
ATOM     32  C   UNL     1       1.931  30.154  76.644  0.00  0.00    +0.000 C 
ENDBRANCH  29  30
ENDBRANCH   4  29
TORSDOF 7
ENDMDL
MODEL 9
REMARK VINA RESULT:      -6.6      3.926      6.087
REMARK  Name = 
REMARK  9 active torsions:
REMARK  status: ('A' for Active; 'I' for Inactive)
REMARK    1  A    between atoms: C_2  and  C_5
REMARK    2  A    between atoms: C_10  and  C_11
REMARK    3  A    between atoms: C_14  and  C_16
REMARK    4  A    between atoms: C_14  and  C_18
REMARK    5  A    between atoms: C_15  and  C_19
REMARK    6  A    between atoms: C_18  and  C_23
REMARK    7  A    between atoms: C_20  and  C_26
REMARK    8  A    between atoms: C_23  and  C_27
REMARK    9  A    between atoms: C_23  and  C_28
REMARK                            x       y       z     vdW  Elec       q    Type
REMARK                         _______ _______ _______ _____ _____    ______ ____
ROOT
ATOM      1  C   UNL     1       7.012  34.112  77.751  0.00  0.00    +0.000 C 
ATOM      2  O   UNL     1       6.420  33.916  76.682  0.00  0.00    +0.000 OA
ATOM      3  N   UNL     1       7.321  33.018  78.568  0.00  0.00    +0.000 N 
ATOM      4  C   UNL     1       7.370  31.612  78.045  0.00  0.00    +0.000 C 
ATOM      5  C   UNL     1       7.885  33.071  79.946  0.00  0.00    +0.000 C 
ATOM      6  C   UNL     1       7.206  30.828  79.399  0.00  0.00    +0.000 C 
ATOM      7  C   UNL     1       8.014  31.624  80.409  0.00  0.00    +0.000 C 
ENDROOT
BRANCH   1  13
ATOM      8  C   UNL     1       7.553  38.057  79.404  0.00  0.00    +0.000 A 
ATOM      9  C   UNL     1       6.281  37.607  79.032  0.00  0.00    +0.000 A 
ATOM     10  C   UNL     1       8.666  37.292  79.038  0.00  0.00    +0.000 A 
ATOM     11  C   UNL     1       6.121  36.352  78.425  0.00  0.00    +0.000 A 
ATOM     12  C   UNL     1       8.508  36.091  78.345  0.00  0.00    +0.000 A 
ATOM     13  C   UNL     1       7.239  35.542  78.153  0.00  0.00    +0.000 A 
BRANCH   8  15
ATOM     14  F   UNL     1       6.880  40.304  79.935  0.00  0.00    +0.000 F 
ATOM     15  C   UNL     1       7.764  39.309  80.216  0.00  0.00    +0.000 C 
ATOM     16  F   UNL     1       9.003  39.843  80.046  0.00  0.00    +0.000 F 
ATOM     17  F   UNL     1       7.645  39.074  81.558  0.00  0.00    +0.000 F 
ENDBRANCH   8  15
ENDBRANCH   1  13
BRANCH   5  18
ATOM     18  C   UNL     1       7.137  33.966  80.880  0.00  0.00    +0.000 A 
ATOM     19  O   UNL     1       5.778  33.897  80.911  0.00  0.00    +0.000 OA
ATOM     20  C   UNL     1       7.570  34.990  81.716  0.00  0.00    +0.000 A 
ATOM     21  C   UNL     1       5.344  34.953  81.652  0.00  0.00    +0.000 A 
ATOM     22  C   UNL     1       6.411  35.637  82.184  0.00  0.00    +0.000 A 
ENDBRANCH   5  18
BRANCH   4  23
ATOM     23  C   UNL     1       6.251  30.964  77.171  0.00  0.00    +0.000 C 
ATOM     24  O   UNL     1       6.501  30.362  76.128  0.00  0.00    +0.000 OA
ATOM     25  O   UNL     1       4.993  31.034  77.632  0.00  0.00    +0.000 OA
ENDBRANCH   4  23
BRANCH   7  26
ATOM     26  C   UNL     1       7.719  31.356  81.863  0.00  0.00    +0.000 C 
ATOM     27  O   UNL     1       6.645  30.893  82.228  0.00  0.00    +0.000 OA
ATOM     28  O   UNL     1       8.715  31.601  82.732  0.00  0.00    +0.000 OA
ENDBRANCH   7  26
BRANCH   4  29
ATOM     29  C   UNL     1       8.777  31.225  77.457  0.00  0.00    +0.000 C 
BRANCH  29  30
ATOM     30  C   UNL     1       9.627  32.230  76.649  0.00  0.00    +0.000 C 
ATOM     31  C   UNL     1      10.699  32.953  77.460  0.00  0.00    +0.000 C 
ATOM     32  C   UNL     1      10.357  31.452  75.535  0.00  0.00    +0.000 C 
ENDBRANCH  29  30
ENDBRANCH   4  29
TORSDOF 7
ENDMDL
