MODEL 1
REMARK VINA RESULT:      -7.7      0.000      0.000
REMARK  Name = 
REMARK  9 active torsions:
REMARK  status: ('A' for Active; 'I' for Inactive)
REMARK    1  A    between atoms: C_2  and  C_5
REMARK    2  A    between atoms: C_8  and  C_11
REMARK    3  A    between atoms: C_9  and  C_14
REMARK    4  A    between atoms: C_10  and  C_15
REMARK    5  A    between atoms: C_10  and  C_16
REMARK    6  A    between atoms: C_16  and  C_23
REMARK    7  A    between atoms: C_23  and  C_26
REMARK    8  A    between atoms: C_23  and  C_27
REMARK    9  A    between atoms: C_28  and  C_29
REMARK                            x       y       z     vdW  Elec       q    Type
REMARK                         _______ _______ _______ _____ _____    ______ ____
ROOT
ATOM      1  C   UNL     1       7.145  33.534  78.800  0.00  0.00    +0.000 C 
ATOM      2  N   UNL     1       6.514  33.177  77.512  0.00  0.00    +0.000 N 
ATOM      3  C   UNL     1       6.288  32.789  79.814  0.00  0.00    +0.000 C 
ATOM      4  C   UNL     1       7.116  33.107  76.256  0.00  0.00    +0.000 C 
ATOM      5  C   UNL     1       5.049  32.946  77.699  0.00  0.00    +0.000 C 
ATOM      6  C   UNL     1       4.875  32.894  79.253  0.00  0.00    +0.000 C 
ATOM      7  O   UNL     1       6.407  33.062  75.245  0.00  0.00    +0.000 OA
ENDROOT
BRANCH   4   8
ATOM      8  C   UNL     1       8.592  33.087  76.059  0.00  0.00    +0.000 A 
ATOM      9  C   UNL     1       9.382  34.235  75.981  0.00  0.00    +0.000 A 
ATOM     10  C   UNL     1       9.237  31.841  76.038  0.00  0.00    +0.000 A 
ATOM     11  C   UNL     1      10.737  34.153  75.663  0.00  0.00    +0.000 A 
ATOM     12  C   UNL     1      10.614  31.754  75.804  0.00  0.00    +0.000 A 
ATOM     13  C   UNL     1      11.366  32.909  75.554  0.00  0.00    +0.000 A 
BRANCH  13  14
ATOM     14  C   UNL     1      12.834  32.822  75.208  0.00  0.00    +0.000 C 
ATOM     15  F   UNL     1      13.333  31.561  75.286  0.00  0.00    +0.000 F 
ATOM     16  F   UNL     1      13.089  33.249  73.940  0.00  0.00    +0.000 F 
ATOM     17  F   UNL     1      13.608  33.584  76.026  0.00  0.00    +0.000 F 
ENDBRANCH  13  14
ENDBRANCH   4   8
BRANCH   1  19
ATOM     18  S   UNL     1       8.721  35.708  79.528  0.00  0.00    +0.000 S 
ATOM     19  C   UNL     1       7.249  35.039  78.912  0.00  0.00    +0.000 A 
ATOM     20  C   UNL     1       8.180  37.309  79.304  0.00  0.00    +0.000 A 
ATOM     21  C   UNL     1       6.355  36.050  78.611  0.00  0.00    +0.000 A 
ATOM     22  C   UNL     1       6.905  37.354  78.797  0.00  0.00    +0.000 A 
ENDBRANCH   1  19
BRANCH   3  23
ATOM     23  C   UNL     1       6.549  33.218  81.235  0.00  0.00    +0.000 C 
ATOM     24  O   UNL     1       5.780  33.941  81.864  0.00  0.00    +0.000 OA
ATOM     25  O   UNL     1       7.755  32.883  81.730  0.00  0.00    +0.000 OA
ENDBRANCH   3  23
BRANCH   5  26
ATOM     26  C   UNL     1       4.196  34.138  77.154  0.00  0.00    +0.000 C 
ATOM     27  O   UNL     1       4.456  34.738  76.117  0.00  0.00    +0.000 OA
ATOM     28  O   UNL     1       3.184  34.547  77.949  0.00  0.00    +0.000 OA
ENDBRANCH   5  26
BRANCH   5  29
ATOM     29  C   UNL     1       4.475  31.658  77.026  0.00  0.00    +0.000 C 
BRANCH  29  30
ATOM     30  C   UNL     1       5.052  30.274  77.394  0.00  0.00    +0.000 C 
ATOM     31  C   UNL     1       3.904  29.258  77.504  0.00  0.00    +0.000 C 
ATOM     32  C   UNL     1       6.062  29.723  76.391  0.00  0.00    +0.000 C 
ENDBRANCH  29  30
ENDBRANCH   5  29
TORSDOF 7
ENDMDL
MODEL 2
REMARK VINA RESULT:      -7.4      1.742      4.980
REMARK  Name = 
REMARK  9 active torsions:
REMARK  status: ('A' for Active; 'I' for Inactive)
REMARK    1  A    between atoms: C_2  and  C_5
REMARK    2  A    between atoms: C_8  and  C_11
REMARK    3  A    between atoms: C_9  and  C_14
REMARK    4  A    between atoms: C_10  and  C_15
REMARK    5  A    between atoms: C_10  and  C_16
REMARK    6  A    between atoms: C_16  and  C_23
REMARK    7  A    between atoms: C_23  and  C_26
REMARK    8  A    between atoms: C_23  and  C_27
REMARK    9  A    between atoms: C_28  and  C_29
REMARK                            x       y       z     vdW  Elec       q    Type
REMARK                         _______ _______ _______ _____ _____    ______ ____
ROOT
ATOM      1  C   UNL     1       6.940  34.058  77.449  0.00  0.00    +0.000 C 
ATOM      2  N   UNL     1       7.991  34.362  78.442  0.00  0.00    +0.000 N 
ATOM      3  C   UNL     1       5.992  35.242  77.585  0.00  0.00    +0.000 C 
ATOM      4  C   UNL     1       9.327  33.966  78.420  0.00  0.00    +0.000 C 
ATOM      5  C   UNL     1       7.416  35.136  79.584  0.00  0.00    +0.000 C 
ATOM      6  C   UNL     1       5.993  35.547  79.078  0.00  0.00    +0.000 C 
ATOM      7  O   UNL     1      10.007  34.067  79.447  0.00  0.00    +0.000 OA
ENDROOT
BRANCH   4   8
ATOM      8  C   UNL     1       9.995  33.414  77.209  0.00  0.00    +0.000 A 
ATOM      9  C   UNL     1      10.065  32.051  76.913  0.00  0.00    +0.000 A 
ATOM     10  C   UNL     1      10.504  34.320  76.267  0.00  0.00    +0.000 A 
ATOM     11  C   UNL     1      10.819  31.591  75.832  0.00  0.00    +0.000 A 
ATOM     12  C   UNL     1      11.188  33.863  75.134  0.00  0.00    +0.000 A 
ATOM     13  C   UNL     1      11.403  32.493  74.939  0.00  0.00    +0.000 A 
BRANCH  13  14
ATOM     14  C   UNL     1      12.219  31.992  73.771  0.00  0.00    +0.000 C 
ATOM     15  F   UNL     1      13.220  31.148  74.133  0.00  0.00    +0.000 F 
ATOM     16  F   UNL     1      11.461  31.310  72.868  0.00  0.00    +0.000 F 
ATOM     17  F   UNL     1      12.812  33.002  73.078  0.00  0.00    +0.000 F 
ENDBRANCH  13  14
ENDBRANCH   4   8
BRANCH   1  19
ATOM     18  S   UNL     1       6.721  31.444  76.521  0.00  0.00    +0.000 S 
ATOM     19  C   UNL     1       6.394  32.668  77.698  0.00  0.00    +0.000 A 
ATOM     20  C   UNL     1       5.937  30.239  77.438  0.00  0.00    +0.000 A 
ATOM     21  C   UNL     1       5.640  32.146  78.733  0.00  0.00    +0.000 A 
ATOM     22  C   UNL     1       5.413  30.743  78.604  0.00  0.00    +0.000 A 
ENDBRANCH   1  19
BRANCH   3  23
ATOM     23  C   UNL     1       4.679  35.031  76.878  0.00  0.00    +0.000 C 
ATOM     24  O   UNL     1       4.567  34.323  75.879  0.00  0.00    +0.000 OA
ATOM     25  O   UNL     1       3.654  35.784  77.318  0.00  0.00    +0.000 OA
ENDBRANCH   3  23
BRANCH   5  26
ATOM     26  C   UNL     1       7.240  34.251  80.861  0.00  0.00    +0.000 C 
ATOM     27  O   UNL     1       7.572  33.072  80.919  0.00  0.00    +0.000 OA
ATOM     28  O   UNL     1       6.602  34.835  81.897  0.00  0.00    +0.000 OA
ENDBRANCH   5  26
BRANCH   5  29
ATOM     29  C   UNL     1       8.235  36.388  80.034  0.00  0.00    +0.000 C 
BRANCH  29  30
ATOM     30  C   UNL     1       8.221  37.669  79.171  0.00  0.00    +0.000 C 
ATOM     31  C   UNL     1       8.886  38.814  79.950  0.00  0.00    +0.000 C 
ATOM     32  C   UNL     1       8.946  37.538  77.834  0.00  0.00    +0.000 C 
ENDBRANCH  29  30
ENDBRANCH   5  29
TORSDOF 7
ENDMDL
MODEL 3
REMARK VINA RESULT:      -7.3      1.548      2.042
REMARK  Name = 
REMARK  9 active torsions:
REMARK  status: ('A' for Active; 'I' for Inactive)
REMARK    1  A    between atoms: C_2  and  C_5
REMARK    2  A    between atoms: C_8  and  C_11
REMARK    3  A    between atoms: C_9  and  C_14
REMARK    4  A    between atoms: C_10  and  C_15
REMARK    5  A    between atoms: C_10  and  C_16
REMARK    6  A    between atoms: C_16  and  C_23
REMARK    7  A    between atoms: C_23  and  C_26
REMARK    8  A    between atoms: C_23  and  C_27
REMARK    9  A    between atoms: C_28  and  C_29
REMARK                            x       y       z     vdW  Elec       q    Type
REMARK                         _______ _______ _______ _____ _____    ______ ____
ROOT
ATOM      1  C   UNL     1       7.263  32.330  79.240  0.00  0.00    +0.000 C 
ATOM      2  N   UNL     1       6.505  32.915  78.115  0.00  0.00    +0.000 N 
ATOM      3  C   UNL     1       6.246  31.398  79.885  0.00  0.00    +0.000 C 
ATOM      4  C   UNL     1       7.006  33.397  76.906  0.00  0.00    +0.000 C 
ATOM      5  C   UNL     1       5.053  33.001  78.458  0.00  0.00    +0.000 C 
ATOM      6  C   UNL     1       4.926  32.150  79.764  0.00  0.00    +0.000 C 
ATOM      7  O   UNL     1       6.286  34.098  76.188  0.00  0.00    +0.000 OA
ENDROOT
BRANCH   4   8
ATOM      8  C   UNL     1       8.386  33.114  76.424  0.00  0.00    +0.000 A 
ATOM      9  C   UNL     1       8.862  31.833  76.138  0.00  0.00    +0.000 A 
ATOM     10  C   UNL     1       9.228  34.204  76.159  0.00  0.00    +0.000 A 
ATOM     11  C   UNL     1      10.204  31.622  75.818  0.00  0.00    +0.000 A 
ATOM     12  C   UNL     1      10.552  34.002  75.754  0.00  0.00    +0.000 A 
ATOM     13  C   UNL     1      11.069  32.705  75.638  0.00  0.00    +0.000 A 
BRANCH  13  14
ATOM     14  C   UNL     1      12.521  32.474  75.293  0.00  0.00    +0.000 C 
ATOM     15  F   UNL     1      12.893  31.169  75.364  0.00  0.00    +0.000 F 
ATOM     16  F   UNL     1      12.821  32.882  74.028  0.00  0.00    +0.000 F 
ATOM     17  F   UNL     1      13.366  33.150  76.117  0.00  0.00    +0.000 F 
ENDBRANCH  13  14
ENDBRANCH   4   8
BRANCH   1  19
ATOM     18  S   UNL     1       9.524  33.834  79.844  0.00  0.00    +0.000 S 
ATOM     19  C   UNL     1       7.857  33.439  80.082  0.00  0.00    +0.000 A 
ATOM     20  C   UNL     1       9.465  35.110  80.973  0.00  0.00    +0.000 A 
ATOM     21  C   UNL     1       7.310  34.246  81.062  0.00  0.00    +0.000 A 
ATOM     22  C   UNL     1       8.222  35.232  81.544  0.00  0.00    +0.000 A 
ENDBRANCH   1  19
BRANCH   3  23
ATOM     23  C   UNL     1       6.683  30.891  81.235  0.00  0.00    +0.000 C 
ATOM     24  O   UNL     1       7.766  30.339  81.420  0.00  0.00    +0.000 OA
ATOM     25  O   UNL     1       5.753  30.946  82.206  0.00  0.00    +0.000 OA
ENDBRANCH   3  23
BRANCH   5  26
ATOM     26  C   UNL     1       4.616  34.466  78.789  0.00  0.00    +0.000 C 
ATOM     27  O   UNL     1       4.683  34.955  79.912  0.00  0.00    +0.000 OA
ATOM     28  O   UNL     1       4.060  35.157  77.772  0.00  0.00    +0.000 OA
ENDBRANCH   5  26
BRANCH   5  29
ATOM     29  C   UNL     1       4.066  32.494  77.358  0.00  0.00    +0.000 C 
BRANCH  29  30
ATOM     30  C   UNL     1       4.192  31.054  76.815  0.00  0.00    +0.000 C 
ATOM     31  C   UNL     1       2.801  30.403  76.771  0.00  0.00    +0.000 C 
ATOM     32  C   UNL     1       4.792  30.957  75.414  0.00  0.00    +0.000 C 
ENDBRANCH  29  30
ENDBRANCH   5  29
TORSDOF 7
ENDMDL
MODEL 4
REMARK VINA RESULT:      -7.3      2.235      4.801
REMARK  Name = 
REMARK  9 active torsions:
REMARK  status: ('A' for Active; 'I' for Inactive)
REMARK    1  A    between atoms: C_2  and  C_5
REMARK    2  A    between atoms: C_8  and  C_11
REMARK    3  A    between atoms: C_9  and  C_14
REMARK    4  A    between atoms: C_10  and  C_15
REMARK    5  A    between atoms: C_10  and  C_16
REMARK    6  A    between atoms: C_16  and  C_23
REMARK    7  A    between atoms: C_23  and  C_26
REMARK    8  A    between atoms: C_23  and  C_27
REMARK    9  A    between atoms: C_28  and  C_29
REMARK                            x       y       z     vdW  Elec       q    Type
REMARK                         _______ _______ _______ _____ _____    ______ ____
ROOT
ATOM      1  C   UNL     1       6.786  32.882  78.438  0.00  0.00    +0.000 C 
ATOM      2  N   UNL     1       7.774  32.216  79.312  0.00  0.00    +0.000 N 
ATOM      3  C   UNL     1       6.014  33.763  79.410  0.00  0.00    +0.000 C 
ATOM      4  C   UNL     1       9.035  31.734  78.964  0.00  0.00    +0.000 C 
ATOM      5  C   UNL     1       7.216  32.045  80.688  0.00  0.00    +0.000 C 
ATOM      6  C   UNL     1       5.922  32.923  80.678  0.00  0.00    +0.000 C 
ATOM      7  O   UNL     1       9.625  30.967  79.732  0.00  0.00    +0.000 OA
ENDROOT
BRANCH   4   8
ATOM      8  C   UNL     1       9.723  32.093  77.693  0.00  0.00    +0.000 A 
ATOM      9  C   UNL     1       9.560  31.394  76.495  0.00  0.00    +0.000 A 
ATOM     10  C   UNL     1      10.512  33.253  77.676  0.00  0.00    +0.000 A 
ATOM     11  C   UNL     1      10.334  31.700  75.376  0.00  0.00    +0.000 A 
ATOM     12  C   UNL     1      11.226  33.614  76.527  0.00  0.00    +0.000 A 
ATOM     13  C   UNL     1      11.189  32.805  75.384  0.00  0.00    +0.000 A 
BRANCH  13  14
ATOM     14  C   UNL     1      12.027  33.134  74.172  0.00  0.00    +0.000 C 
ATOM     15  F   UNL     1      13.360  33.183  74.433  0.00  0.00    +0.000 F 
ATOM     16  F   UNL     1      11.874  32.216  73.176  0.00  0.00    +0.000 F 
ATOM     17  F   UNL     1      11.706  34.338  73.627  0.00  0.00    +0.000 F 
ENDBRANCH  13  14
ENDBRANCH   4   8
BRANCH   1  19
ATOM     18  S   UNL     1       5.698  32.158  75.981  0.00  0.00    +0.000 S 
ATOM     19  C   UNL     1       6.023  31.839  77.650  0.00  0.00    +0.000 A 
ATOM     20  C   UNL     1       4.950  30.643  75.755  0.00  0.00    +0.000 A 
ATOM     21  C   UNL     1       5.497  30.613  78.013  0.00  0.00    +0.000 A 
ATOM     22  C   UNL     1       4.918  29.909  76.915  0.00  0.00    +0.000 A 
ENDBRANCH   1  19
BRANCH   3  23
ATOM     23  C   UNL     1       4.754  34.336  78.813  0.00  0.00    +0.000 C 
ATOM     24  O   UNL     1       3.633  33.918  79.096  0.00  0.00    +0.000 OA
ATOM     25  O   UNL     1       4.935  35.241  77.833  0.00  0.00    +0.000 OA
ENDBRANCH   3  23
BRANCH   5  26
ATOM     26  C   UNL     1       6.796  30.564  80.968  0.00  0.00    +0.000 C 
ATOM     27  O   UNL     1       7.482  29.596  80.657  0.00  0.00    +0.000 OA
ATOM     28  O   UNL     1       5.567  30.393  81.497  0.00  0.00    +0.000 OA
ENDBRANCH   5  26
BRANCH   5  29
ATOM     29  C   UNL     1       8.165  32.455  81.859  0.00  0.00    +0.000 C 
BRANCH  29  30
ATOM     30  C   UNL     1       8.493  33.944  82.099  0.00  0.00    +0.000 C 
ATOM     31  C   UNL     1       8.646  34.195  83.607  0.00  0.00    +0.000 C 
ATOM     32  C   UNL     1       9.772  34.427  81.419  0.00  0.00    +0.000 C 
ENDBRANCH  29  30
ENDBRANCH   5  29
TORSDOF 7
ENDMDL
MODEL 5
REMARK VINA RESULT:      -7.1      3.650      5.675
REMARK  Name = 
REMARK  9 active torsions:
REMARK  status: ('A' for Active; 'I' for Inactive)
REMARK    1  A    between atoms: C_2  and  C_5
REMARK    2  A    between atoms: C_8  and  C_11
REMARK    3  A    between atoms: C_9  and  C_14
REMARK    4  A    between atoms: C_10  and  C_15
REMARK    5  A    between atoms: C_10  and  C_16
REMARK    6  A    between atoms: C_16  and  C_23
REMARK    7  A    between atoms: C_23  and  C_26
REMARK    8  A    between atoms: C_23  and  C_27
REMARK    9  A    between atoms: C_28  and  C_29
REMARK                            x       y       z     vdW  Elec       q    Type
REMARK                         _______ _______ _______ _____ _____    ______ ____
ROOT
ATOM      1  C   UNL     1       7.451  32.897  79.106  0.00  0.00    +0.000 C 
ATOM      2  N   UNL     1       7.565  33.180  77.660  0.00  0.00    +0.000 N 
ATOM      3  C   UNL     1       8.326  31.663  79.280  0.00  0.00    +0.000 C 
ATOM      4  C   UNL     1       7.443  34.411  77.018  0.00  0.00    +0.000 C 
ATOM      5  C   UNL     1       7.775  31.910  76.899  0.00  0.00    +0.000 C 
ATOM      6  C   UNL     1       8.081  30.854  78.012  0.00  0.00    +0.000 C 
ATOM      7  O   UNL     1       7.294  34.444  75.792  0.00  0.00    +0.000 OA
ENDROOT
BRANCH   4   8
ATOM      8  C   UNL     1       7.480  35.714  77.738  0.00  0.00    +0.000 A 
ATOM      9  C   UNL     1       8.653  36.318  78.194  0.00  0.00    +0.000 A 
ATOM     10  C   UNL     1       6.275  36.417  77.889  0.00  0.00    +0.000 A 
ATOM     11  C   UNL     1       8.608  37.471  78.978  0.00  0.00    +0.000 A 
ATOM     12  C   UNL     1       6.236  37.621  78.602  0.00  0.00    +0.000 A 
ATOM     13  C   UNL     1       7.395  38.128  79.205  0.00  0.00    +0.000 A 
BRANCH  13  14
ATOM     14  C   UNL     1       7.348  39.375  80.054  0.00  0.00    +0.000 C 
ATOM     15  F   UNL     1       8.576  39.892  80.325  0.00  0.00    +0.000 F 
ATOM     16  F   UNL     1       6.642  40.377  79.459  0.00  0.00    +0.000 F 
ATOM     17  F   UNL     1       6.756  39.163  81.260  0.00  0.00    +0.000 F 
ENDBRANCH  13  14
ENDBRANCH   4   8
BRANCH   1  19
ATOM     18  S   UNL     1       5.379  33.936  80.645  0.00  0.00    +0.000 S 
ATOM     19  C   UNL     1       5.990  32.803  79.490  0.00  0.00    +0.000 A 
ATOM     20  C   UNL     1       3.792  33.326  80.524  0.00  0.00    +0.000 A 
ATOM     21  C   UNL     1       4.984  31.944  79.086  0.00  0.00    +0.000 A 
ATOM     22  C   UNL     1       3.714  32.271  79.648  0.00  0.00    +0.000 A 
ENDBRANCH   1  19
BRANCH   3  23
ATOM     23  C   UNL     1       8.150  31.000  80.622  0.00  0.00    +0.000 C 
ATOM     24  O   UNL     1       7.524  29.953  80.770  0.00  0.00    +0.000 OA
ATOM     25  O   UNL     1       8.596  31.703  81.679  0.00  0.00    +0.000 OA
ENDBRANCH   3  23
BRANCH   5  26
ATOM     26  C   UNL     1       6.480  31.460  76.145  0.00  0.00    +0.000 C 
ATOM     27  O   UNL     1       5.677  32.245  75.652  0.00  0.00    +0.000 OA
ATOM     28  O   UNL     1       6.233  30.133  76.144  0.00  0.00    +0.000 OA
ENDBRANCH   5  26
BRANCH   5  29
ATOM     29  C   UNL     1       8.911  31.943  75.828  0.00  0.00    +0.000 C 
BRANCH  29  30
ATOM     30  C   UNL     1      10.387  31.831  76.266  0.00  0.00    +0.000 C 
ATOM     31  C   UNL     1      11.249  31.442  75.055  0.00  0.00    +0.000 C 
ATOM     32  C   UNL     1      10.970  33.112  76.856  0.00  0.00    +0.000 C 
ENDBRANCH  29  30
ENDBRANCH   5  29
TORSDOF 7
ENDMDL
MODEL 6
REMARK VINA RESULT:      -6.9      1.861      2.659
REMARK  Name = 
REMARK  9 active torsions:
REMARK  status: ('A' for Active; 'I' for Inactive)
REMARK    1  A    between atoms: C_2  and  C_5
REMARK    2  A    between atoms: C_8  and  C_11
REMARK    3  A    between atoms: C_9  and  C_14
REMARK    4  A    between atoms: C_10  and  C_15
REMARK    5  A    between atoms: C_10  and  C_16
REMARK    6  A    between atoms: C_16  and  C_23
REMARK    7  A    between atoms: C_23  and  C_26
REMARK    8  A    between atoms: C_23  and  C_27
REMARK    9  A    between atoms: C_28  and  C_29
REMARK                            x       y       z     vdW  Elec       q    Type
REMARK                         _______ _______ _______ _____ _____    ______ ____
ROOT
ATOM      1  C   UNL     1       6.161  34.355  79.868  0.00  0.00    +0.000 C 
ATOM      2  N   UNL     1       5.241  34.462  78.716  0.00  0.00    +0.000 N 
ATOM      3  C   UNL     1       5.241  33.904  80.995  0.00  0.00    +0.000 C 
ATOM      4  C   UNL     1       5.545  34.316  77.364  0.00  0.00    +0.000 C 
ATOM      5  C   UNL     1       3.870  34.834  79.182  0.00  0.00    +0.000 C 
ATOM      6  C   UNL     1       3.941  34.655  80.734  0.00  0.00    +0.000 C 
ATOM      7  O   UNL     1       4.734  34.700  76.515  0.00  0.00    +0.000 OA
ENDROOT
BRANCH   4   8
ATOM      8  C   UNL     1       6.816  33.715  76.874  0.00  0.00    +0.000 A 
ATOM      9  C   UNL     1       7.038  32.340  76.773  0.00  0.00    +0.000 A 
ATOM     10  C   UNL     1       7.815  34.580  76.403  0.00  0.00    +0.000 A 
ATOM     11  C   UNL     1       8.296  31.841  76.433  0.00  0.00    +0.000 A 
ATOM     12  C   UNL     1       9.051  34.079  75.979  0.00  0.00    +0.000 A 
ATOM     13  C   UNL     1       9.323  32.707  76.047  0.00  0.00    +0.000 A 
BRANCH  13  14
ATOM     14  C   UNL     1      10.684  32.164  75.681  0.00  0.00    +0.000 C 
ATOM     15  F   UNL     1      11.581  32.220  76.701  0.00  0.00    +0.000 F 
ATOM     16  F   UNL     1      10.631  30.857  75.300  0.00  0.00    +0.000 F 
ATOM     17  F   UNL     1      11.251  32.836  74.644  0.00  0.00    +0.000 F 
ENDBRANCH  13  14
ENDBRANCH   4   8
BRANCH   1  19
ATOM     18  S   UNL     1       8.634  35.629  79.817  0.00  0.00    +0.000 S 
ATOM     19  C   UNL     1       6.918  35.655  80.034  0.00  0.00    +0.000 A 
ATOM     20  C   UNL     1       8.770  37.311  80.054  0.00  0.00    +0.000 A 
ATOM     21  C   UNL     1       6.496  36.934  80.346  0.00  0.00    +0.000 A 
ATOM     22  C   UNL     1       7.553  37.892  80.317  0.00  0.00    +0.000 A 
ENDBRANCH   1  19
BRANCH   3  23
ATOM     23  C   UNL     1       5.885  33.997  82.354  0.00  0.00    +0.000 C 
ATOM     24  O   UNL     1       6.819  33.276  82.699  0.00  0.00    +0.000 OA
ATOM     25  O   UNL     1       5.279  34.821  83.229  0.00  0.00    +0.000 OA
ENDBRANCH   3  23
BRANCH   5  26
ATOM     26  C   UNL     1       3.536  36.332  78.880  0.00  0.00    +0.000 C 
ATOM     27  O   UNL     1       4.201  37.035  78.127  0.00  0.00    +0.000 OA
ATOM     28  O   UNL     1       2.508  36.856  79.580  0.00  0.00    +0.000 OA
ENDBRANCH   5  26
BRANCH   5  29
ATOM     29  C   UNL     1       2.699  33.998  78.573  0.00  0.00    +0.000 C 
BRANCH  29  30
ATOM     30  C   UNL     1       2.625  32.476  78.827  0.00  0.00    +0.000 C 
ATOM     31  C   UNL     1       1.199  32.102  79.262  0.00  0.00    +0.000 C 
ATOM     32  C   UNL     1       2.980  31.615  77.618  0.00  0.00    +0.000 C 
ENDBRANCH  29  30
ENDBRANCH   5  29
TORSDOF 7
ENDMDL
MODEL 7
REMARK VINA RESULT:      -6.9      2.334      4.935
REMARK  Name = 
REMARK  9 active torsions:
REMARK  status: ('A' for Active; 'I' for Inactive)
REMARK    1  A    between atoms: C_2  and  C_5
REMARK    2  A    between atoms: C_8  and  C_11
REMARK    3  A    between atoms: C_9  and  C_14
REMARK    4  A    between atoms: C_10  and  C_15
REMARK    5  A    between atoms: C_10  and  C_16
REMARK    6  A    between atoms: C_16  and  C_23
REMARK    7  A    between atoms: C_23  and  C_26
REMARK    8  A    between atoms: C_23  and  C_27
REMARK    9  A    between atoms: C_28  and  C_29
REMARK                            x       y       z     vdW  Elec       q    Type
REMARK                         _______ _______ _______ _____ _____    ______ ____
ROOT
ATOM      1  C   UNL     1       7.942  34.659  78.189  0.00  0.00    +0.000 C 
ATOM      2  N   UNL     1       8.649  33.810  79.171  0.00  0.00    +0.000 N 
ATOM      3  C   UNL     1       7.746  35.964  78.949  0.00  0.00    +0.000 C 
ATOM      4  C   UNL     1       9.529  32.760  78.915  0.00  0.00    +0.000 C 
ATOM      5  C   UNL     1       8.244  34.180  80.561  0.00  0.00    +0.000 C 
ATOM      6  C   UNL     1       7.459  35.520  80.378  0.00  0.00    +0.000 C 
ATOM      7  O   UNL     1       9.823  31.979  79.826  0.00  0.00    +0.000 OA
ENDROOT
BRANCH   4   8
ATOM      8  C   UNL     1      10.145  32.518  77.581  0.00  0.00    +0.000 A 
ATOM      9  C   UNL     1       9.629  31.627  76.637  0.00  0.00    +0.000 A 
ATOM     10  C   UNL     1      11.254  33.295  77.216  0.00  0.00    +0.000 A 
ATOM     11  C   UNL     1      10.326  31.347  75.461  0.00  0.00    +0.000 A 
ATOM     12  C   UNL     1      11.908  33.078  75.998  0.00  0.00    +0.000 A 
ATOM     13  C   UNL     1      11.483  32.059  75.135  0.00  0.00    +0.000 A 
BRANCH  13  14
ATOM     14  C   UNL     1      12.236  31.754  73.862  0.00  0.00    +0.000 C 
ATOM     15  F   UNL     1      13.186  30.793  74.012  0.00  0.00    +0.000 F 
ATOM     16  F   UNL     1      11.412  31.315  72.870  0.00  0.00    +0.000 F 
ATOM     17  F   UNL     1      12.879  32.843  73.363  0.00  0.00    +0.000 F 
ENDBRANCH  13  14
ENDBRANCH   4   8
BRANCH   1  19
ATOM     18  S   UNL     1       6.658  33.513  76.003  0.00  0.00    +0.000 S 
ATOM     19  C   UNL     1       6.716  33.932  77.681  0.00  0.00    +0.000 A 
ATOM     20  C   UNL     1       5.160  32.717  76.172  0.00  0.00    +0.000 A 
ATOM     21  C   UNL     1       5.563  33.511  78.318  0.00  0.00    +0.000 A 
ATOM     22  C   UNL     1       4.689  32.778  77.461  0.00  0.00    +0.000 A 
ENDBRANCH   1  19
BRANCH   3  23
ATOM     23  C   UNL     1       6.790  36.907  78.265  0.00  0.00    +0.000 C 
ATOM     24  O   UNL     1       7.023  37.412  77.169  0.00  0.00    +0.000 OA
ATOM     25  O   UNL     1       5.723  37.283  78.994  0.00  0.00    +0.000 OA
ENDBRANCH   3  23
BRANCH   5  26
ATOM     26  C   UNL     1       7.268  33.127  81.185  0.00  0.00    +0.000 C 
ATOM     27  O   UNL     1       6.048  33.190  81.080  0.00  0.00    +0.000 OA
ATOM     28  O   UNL     1       7.844  32.171  81.944  0.00  0.00    +0.000 OA
ENDBRANCH   5  26
BRANCH   5  29
ATOM     29  C   UNL     1       9.412  34.347  81.585  0.00  0.00    +0.000 C 
BRANCH  29  30
ATOM     30  C   UNL     1       9.456  35.584  82.509  0.00  0.00    +0.000 C 
ATOM     31  C   UNL     1       9.081  35.165  83.938  0.00  0.00    +0.000 C 
ATOM     32  C   UNL     1      10.814  36.278  82.571  0.00  0.00    +0.000 C 
ENDBRANCH  29  30
ENDBRANCH   5  29
TORSDOF 7
ENDMDL
MODEL 8
REMARK VINA RESULT:      -6.6      3.857      6.761
REMARK  Name = 
REMARK  9 active torsions:
REMARK  status: ('A' for Active; 'I' for Inactive)
REMARK    1  A    between atoms: C_2  and  C_5
REMARK    2  A    between atoms: C_8  and  C_11
REMARK    3  A    between atoms: C_9  and  C_14
REMARK    4  A    between atoms: C_10  and  C_15
REMARK    5  A    between atoms: C_10  and  C_16
REMARK    6  A    between atoms: C_16  and  C_23
REMARK    7  A    between atoms: C_23  and  C_26
REMARK    8  A    between atoms: C_23  and  C_27
REMARK    9  A    between atoms: C_28  and  C_29
REMARK                            x       y       z     vdW  Elec       q    Type
REMARK                         _______ _______ _______ _____ _____    ______ ____
ROOT
ATOM      1  C   UNL     1       7.869  34.115  78.020  0.00  0.00    +0.000 C 
ATOM      2  N   UNL     1       6.977  34.839  78.950  0.00  0.00    +0.000 N 
ATOM      3  C   UNL     1       9.008  35.103  77.806  0.00  0.00    +0.000 C 
ATOM      4  C   UNL     1       6.097  34.297  79.885  0.00  0.00    +0.000 C 
ATOM      5  C   UNL     1       7.077  36.312  78.721  0.00  0.00    +0.000 C 
ATOM      6  C   UNL     1       8.320  36.461  77.784  0.00  0.00    +0.000 C 
ATOM      7  O   UNL     1       5.230  35.017  80.391  0.00  0.00    +0.000 OA
ENDROOT
BRANCH   4   8
ATOM      8  C   UNL     1       6.139  32.872  80.316  0.00  0.00    +0.000 A 
ATOM      9  C   UNL     1       7.200  32.305  81.025  0.00  0.00    +0.000 A 
ATOM     10  C   UNL     1       5.011  32.076  80.071  0.00  0.00    +0.000 A 
ATOM     11  C   UNL     1       7.239  30.934  81.282  0.00  0.00    +0.000 A 
ATOM     12  C   UNL     1       5.010  30.716  80.405  0.00  0.00    +0.000 A 
ATOM     13  C   UNL     1       6.150  30.120  80.960  0.00  0.00    +0.000 A 
BRANCH  13  14
ATOM     14  C   UNL     1       6.195  28.637  81.237  0.00  0.00    +0.000 C 
ATOM     15  F   UNL     1       6.493  28.337  82.529  0.00  0.00    +0.000 F 
ATOM     16  F   UNL     1       5.005  28.028  80.976  0.00  0.00    +0.000 F 
ATOM     17  F   UNL     1       7.123  27.993  80.479  0.00  0.00    +0.000 F 
ENDBRANCH  13  14
ENDBRANCH   4   8
BRANCH   1  19
ATOM     18  S   UNL     1       6.495  32.028  76.795  0.00  0.00    +0.000 S 
ATOM     19  C   UNL     1       7.078  33.656  76.814  0.00  0.00    +0.000 A 
ATOM     20  C   UNL     1       5.700  32.245  75.303  0.00  0.00    +0.000 A 
ATOM     21  C   UNL     1       6.708  34.309  75.652  0.00  0.00    +0.000 A 
ATOM     22  C   UNL     1       5.882  33.511  74.805  0.00  0.00    +0.000 A 
ENDBRANCH   1  19
BRANCH   3  23
ATOM     23  C   UNL     1       9.916  34.718  76.667  0.00  0.00    +0.000 C 
ATOM     24  O   UNL     1      10.192  35.485  75.747  0.00  0.00    +0.000 OA
ATOM     25  O   UNL     1      10.293  33.426  76.635  0.00  0.00    +0.000 OA
ENDBRANCH   3  23
BRANCH   5  26
ATOM     26  C   UNL     1       5.828  36.872  77.964  0.00  0.00    +0.000 C 
ATOM     27  O   UNL     1       5.007  36.161  77.394  0.00  0.00    +0.000 OA
ATOM     28  O   UNL     1       5.743  38.217  77.885  0.00  0.00    +0.000 OA
ENDBRANCH   5  26
BRANCH   5  29
ATOM     29  C   UNL     1       7.232  37.188  80.006  0.00  0.00    +0.000 C 
BRANCH  29  30
ATOM     30  C   UNL     1       8.512  38.027  80.216  0.00  0.00    +0.000 C 
ATOM     31  C   UNL     1       8.128  39.503  80.396  0.00  0.00    +0.000 C 
ATOM     32  C   UNL     1       9.346  37.615  81.426  0.00  0.00    +0.000 C 
ENDBRANCH  29  30
ENDBRANCH   5  29
TORSDOF 7
ENDMDL
MODEL 9
REMARK VINA RESULT:      -6.5      2.668      4.852
REMARK  Name = 
REMARK  9 active torsions:
REMARK  status: ('A' for Active; 'I' for Inactive)
REMARK    1  A    between atoms: C_2  and  C_5
REMARK    2  A    between atoms: C_8  and  C_11
REMARK    3  A    between atoms: C_9  and  C_14
REMARK    4  A    between atoms: C_10  and  C_15
REMARK    5  A    between atoms: C_10  and  C_16
REMARK    6  A    between atoms: C_16  and  C_23
REMARK    7  A    between atoms: C_23  and  C_26
REMARK    8  A    between atoms: C_23  and  C_27
REMARK    9  A    between atoms: C_28  and  C_29
REMARK                            x       y       z     vdW  Elec       q    Type
REMARK                         _______ _______ _______ _____ _____    ______ ____
ROOT
ATOM      1  C   UNL     1       5.677  32.283  78.977  0.00  0.00    +0.000 C 
ATOM      2  N   UNL     1       6.489  31.271  79.685  0.00  0.00    +0.000 N 
ATOM      3  C   UNL     1       4.785  32.833  80.081  0.00  0.00    +0.000 C 
ATOM      4  C   UNL     1       7.774  30.832  79.368  0.00  0.00    +0.000 C 
ATOM      5  C   UNL     1       5.710  30.679  80.815  0.00  0.00    +0.000 C 
ATOM      6  C   UNL     1       4.462  31.615  80.938  0.00  0.00    +0.000 C 
ATOM      7  O   UNL     1       8.207  29.798  79.885  0.00  0.00    +0.000 OA
ENDROOT
BRANCH   4   8
ATOM      8  C   UNL     1       8.671  31.551  78.420  0.00  0.00    +0.000 A 
ATOM      9  C   UNL     1       8.874  31.162  77.095  0.00  0.00    +0.000 A 
ATOM     10  C   UNL     1       9.277  32.738  78.859  0.00  0.00    +0.000 A 
ATOM     11  C   UNL     1       9.827  31.798  76.299  0.00  0.00    +0.000 A 
ATOM     12  C   UNL     1      10.170  33.430  78.033  0.00  0.00    +0.000 A 
ATOM     13  C   UNL     1      10.499  32.931  76.766  0.00  0.00    +0.000 A 
BRANCH  13  14
ATOM     14  C   UNL     1      11.531  33.618  75.903  0.00  0.00    +0.000 C 
ATOM     15  F   UNL     1      11.173  34.874  75.528  0.00  0.00    +0.000 F 
ATOM     16  F   UNL     1      12.730  33.743  76.537  0.00  0.00    +0.000 F 
ATOM     17  F   UNL     1      11.782  32.939  74.751  0.00  0.00    +0.000 F 
ENDBRANCH  13  14
ENDBRANCH   4   8
BRANCH   1  19
ATOM     18  S   UNL     1       5.521  32.180  76.201  0.00  0.00    +0.000 S 
ATOM     19  C   UNL     1       5.020  31.650  77.769  0.00  0.00    +0.000 A 
ATOM     20  C   UNL     1       4.502  31.066  75.410  0.00  0.00    +0.000 A 
ATOM     21  C   UNL     1       4.041  30.681  77.655  0.00  0.00    +0.000 A 
ATOM     22  C   UNL     1       3.773  30.316  76.301  0.00  0.00    +0.000 A 
ENDBRANCH   1  19
BRANCH   3  23
ATOM     23  C   UNL     1       3.657  33.685  79.558  0.00  0.00    +0.000 C 
ATOM     24  O   UNL     1       3.827  34.823  79.128  0.00  0.00    +0.000 OA
ATOM     25  O   UNL     1       2.421  33.179  79.726  0.00  0.00    +0.000 OA
ENDBRANCH   3  23
BRANCH   5  26
ATOM     26  C   UNL     1       5.204  29.237  80.484  0.00  0.00    +0.000 C 
ATOM     27  O   UNL     1       5.941  28.330  80.110  0.00  0.00    +0.000 OA
ATOM     28  O   UNL     1       3.868  29.055  80.541  0.00  0.00    +0.000 OA
ENDBRANCH   5  26
BRANCH   5  29
ATOM     29  C   UNL     1       6.468  30.571  82.176  0.00  0.00    +0.000 C 
BRANCH  29  30
ATOM     30  C   UNL     1       6.752  31.844  83.003  0.00  0.00    +0.000 C 
ATOM     31  C   UNL     1       6.024  31.747  84.353  0.00  0.00    +0.000 C 
ATOM     32  C   UNL     1       8.230  32.093  83.292  0.00  0.00    +0.000 C 
ENDBRANCH  29  30
ENDBRANCH   5  29
TORSDOF 7
ENDMDL
