MODEL 1
REMARK VINA RESULT:      -7.3      0.000      0.000
REMARK  Name = 
REMARK  9 active torsions:
REMARK  status: ('A' for Active; 'I' for Inactive)
REMARK    1  A    between atoms: C_2  and  C_5
REMARK    2  A    between atoms: C_8  and  C_11
REMARK    3  A    between atoms: C_9  and  C_14
REMARK    4  A    between atoms: C_10  and  C_15
REMARK    5  A    between atoms: C_10  and  C_16
REMARK    6  A    between atoms: C_16  and  C_23
REMARK    7  A    between atoms: C_23  and  C_26
REMARK    8  A    between atoms: C_23  and  C_27
REMARK    9  A    between atoms: C_28  and  N_29
REMARK                            x       y       z     vdW  Elec       q    Type
REMARK                         _______ _______ _______ _____ _____    ______ ____
ROOT
ATOM      1  C   UNL     1       7.068  33.558  78.889  0.00  0.00    +0.000 C 
ATOM      2  N   UNL     1       6.467  33.198  77.587  0.00  0.00    +0.000 N 
ATOM      3  C   UNL     1       6.185  32.821  79.887  0.00  0.00    +0.000 C 
ATOM      4  C   UNL     1       7.097  33.124  76.347  0.00  0.00    +0.000 C 
ATOM      5  C   UNL     1       4.996  32.974  77.740  0.00  0.00    +0.000 C 
ATOM      6  C   UNL     1       4.787  32.922  79.291  0.00  0.00    +0.000 C 
ATOM      7  O   UNL     1       6.416  33.080  75.320  0.00  0.00    +0.000 OA
ENDROOT
BRANCH   4   8
ATOM      8  C   UNL     1       8.582  33.089  76.185  0.00  0.00    +0.000 A 
ATOM      9  C   UNL     1       9.322  31.909  76.043  0.00  0.00    +0.000 A 
ATOM     10  C   UNL     1       9.263  34.313  76.076  0.00  0.00    +0.000 A 
ATOM     11  C   UNL     1      10.718  31.930  76.018  0.00  0.00    +0.000 A 
ATOM     12  C   UNL     1      10.660  34.351  75.961  0.00  0.00    +0.000 A 
ATOM     13  C   UNL     1      11.384  33.155  75.985  0.00  0.00    +0.000 A 
BRANCH  13  14
ATOM     14  N   UNL     1      12.848  33.177  75.943  0.00  0.00    +0.000 N 
ATOM     15  O   UNL     1      13.436  32.135  75.602  0.00  0.00    +0.000 OA
ATOM     16  O   UNL     1      13.420  34.224  76.243  0.00  0.00    +0.000 OA
ENDBRANCH  13  14
ENDBRANCH   4   8
BRANCH   1  18
ATOM     17  S   UNL     1       8.668  35.734  79.557  0.00  0.00    +0.000 S 
ATOM     18  C   UNL     1       7.174  35.064  79.000  0.00  0.00    +0.000 A 
ATOM     19  C   UNL     1       8.118  37.334  79.352  0.00  0.00    +0.000 A 
ATOM     20  C   UNL     1       6.268  36.074  78.735  0.00  0.00    +0.000 A 
ATOM     21  C   UNL     1       6.823  37.377  78.895  0.00  0.00    +0.000 A 
ENDBRANCH   1  18
BRANCH   3  22
ATOM     22  C   UNL     1       6.419  33.251  81.309  0.00  0.00    +0.000 C 
ATOM     23  O   UNL     1       7.407  32.918  81.948  0.00  0.00    +0.000 OA
ATOM     24  O   UNL     1       5.405  33.923  81.883  0.00  0.00    +0.000 OA
ENDBRANCH   3  22
BRANCH   5  25
ATOM     25  C   UNL     1       4.164  34.174  77.178  0.00  0.00    +0.000 C 
ATOM     26  O   UNL     1       4.453  34.778  76.151  0.00  0.00    +0.000 OA
ATOM     27  O   UNL     1       3.140  34.587  77.954  0.00  0.00    +0.000 OA
ENDBRANCH   5  25
BRANCH   5  28
ATOM     28  C   UNL     1       4.425  31.692  77.054  0.00  0.00    +0.000 C 
BRANCH  28  29
ATOM     29  C   UNL     1       4.987  30.303  77.431  0.00  0.00    +0.000 C 
ATOM     30  C   UNL     1       3.837  29.286  77.496  0.00  0.00    +0.000 C 
ATOM     31  C   UNL     1       6.029  29.760  76.460  0.00  0.00    +0.000 C 
ENDBRANCH  28  29
ENDBRANCH   5  28
TORSDOF 7
ENDMDL
MODEL 2
REMARK VINA RESULT:      -7.1      1.371      1.933
REMARK  Name = 
REMARK  9 active torsions:
REMARK  status: ('A' for Active; 'I' for Inactive)
REMARK    1  A    between atoms: C_2  and  C_5
REMARK    2  A    between atoms: C_8  and  C_11
REMARK    3  A    between atoms: C_9  and  C_14
REMARK    4  A    between atoms: C_10  and  C_15
REMARK    5  A    between atoms: C_10  and  C_16
REMARK    6  A    between atoms: C_16  and  C_23
REMARK    7  A    between atoms: C_23  and  C_26
REMARK    8  A    between atoms: C_23  and  C_27
REMARK    9  A    between atoms: C_28  and  N_29
REMARK                            x       y       z     vdW  Elec       q    Type
REMARK                         _______ _______ _______ _____ _____    ______ ____
ROOT
ATOM      1  C   UNL     1       6.493  34.178  79.264  0.00  0.00    +0.000 C 
ATOM      2  N   UNL     1       5.675  33.940  78.056  0.00  0.00    +0.000 N 
ATOM      3  C   UNL     1       5.551  33.789  80.395  0.00  0.00    +0.000 C 
ATOM      4  C   UNL     1       6.117  33.615  76.776  0.00  0.00    +0.000 C 
ATOM      5  C   UNL     1       4.228  34.166  78.357  0.00  0.00    +0.000 C 
ATOM      6  C   UNL     1       4.184  34.264  79.919  0.00  0.00    +0.000 C 
ATOM      7  O   UNL     1       5.344  33.717  75.821  0.00  0.00    +0.000 OA
ENDROOT
BRANCH   4   8
ATOM      8  C   UNL     1       7.503  33.136  76.485  0.00  0.00    +0.000 A 
ATOM      9  C   UNL     1       8.577  33.986  76.200  0.00  0.00    +0.000 A 
ATOM     10  C   UNL     1       7.761  31.759  76.595  0.00  0.00    +0.000 A 
ATOM     11  C   UNL     1       9.820  33.478  75.816  0.00  0.00    +0.000 A 
ATOM     12  C   UNL     1       9.029  31.239  76.298  0.00  0.00    +0.000 A 
ATOM     13  C   UNL     1      10.039  32.101  75.858  0.00  0.00    +0.000 A 
BRANCH  13  14
ATOM     14  N   UNL     1      11.347  31.569  75.470  0.00  0.00    +0.000 N 
ATOM     15  O   UNL     1      11.409  30.871  74.444  0.00  0.00    +0.000 OA
ATOM     16  O   UNL     1      12.316  31.844  76.177  0.00  0.00    +0.000 OA
ENDBRANCH  13  14
ENDBRANCH   4   8
BRANCH   1  18
ATOM     17  S   UNL     1       8.638  35.855  79.836  0.00  0.00    +0.000 S 
ATOM     18  C   UNL     1       7.038  35.590  79.237  0.00  0.00    +0.000 A 
ATOM     19  C   UNL     1       8.600  37.511  79.438  0.00  0.00    +0.000 A 
ATOM     20  C   UNL     1       6.485  36.783  78.810  0.00  0.00    +0.000 A 
ATOM     21  C   UNL     1       7.396  37.877  78.885  0.00  0.00    +0.000 A 
ENDBRANCH   1  18
BRANCH   3  22
ATOM     22  C   UNL     1       6.052  34.210  81.750  0.00  0.00    +0.000 C 
ATOM     23  O   UNL     1       5.606  35.177  82.350  0.00  0.00    +0.000 OA
ATOM     24  O   UNL     1       7.118  33.529  82.207  0.00  0.00    +0.000 OA
ENDBRANCH   3  22
BRANCH   5  25
ATOM     25  C   UNL     1       3.718  35.525  77.772  0.00  0.00    +0.000 C 
ATOM     26  O   UNL     1       3.721  36.578  78.399  0.00  0.00    +0.000 OA
ATOM     27  O   UNL     1       3.165  35.459  76.542  0.00  0.00    +0.000 OA
ENDBRANCH   5  25
BRANCH   5  28
ATOM     28  C   UNL     1       3.241  33.073  77.836  0.00  0.00    +0.000 C 
BRANCH  28  29
ATOM     29  C   UNL     1       3.485  31.588  78.186  0.00  0.00    +0.000 C 
ATOM     30  C   UNL     1       2.255  31.026  78.917  0.00  0.00    +0.000 C 
ATOM     31  C   UNL     1       3.754  30.693  76.981  0.00  0.00    +0.000 C 
ENDBRANCH  28  29
ENDBRANCH   5  28
TORSDOF 7
ENDMDL
MODEL 3
REMARK VINA RESULT:      -7.0      2.725      5.275
REMARK  Name = 
REMARK  9 active torsions:
REMARK  status: ('A' for Active; 'I' for Inactive)
REMARK    1  A    between atoms: C_2  and  C_5
REMARK    2  A    between atoms: C_8  and  C_11
REMARK    3  A    between atoms: C_9  and  C_14
REMARK    4  A    between atoms: C_10  and  C_15
REMARK    5  A    between atoms: C_10  and  C_16
REMARK    6  A    between atoms: C_16  and  C_23
REMARK    7  A    between atoms: C_23  and  C_26
REMARK    8  A    between atoms: C_23  and  C_27
REMARK    9  A    between atoms: C_28  and  N_29
REMARK                            x       y       z     vdW  Elec       q    Type
REMARK                         _______ _______ _______ _____ _____    ______ ____
ROOT
ATOM      1  C   UNL     1       7.389  32.903  79.161  0.00  0.00    +0.000 C 
ATOM      2  N   UNL     1       7.541  33.237  77.729  0.00  0.00    +0.000 N 
ATOM      3  C   UNL     1       8.204  31.625  79.301  0.00  0.00    +0.000 C 
ATOM      4  C   UNL     1       7.484  34.495  77.136  0.00  0.00    +0.000 C 
ATOM      5  C   UNL     1       7.706  31.989  76.921  0.00  0.00    +0.000 C 
ATOM      6  C   UNL     1       7.951  30.879  77.998  0.00  0.00    +0.000 C 
ATOM      7  O   UNL     1       7.356  34.586  75.912  0.00  0.00    +0.000 OA
ENDROOT
BRANCH   4   8
ATOM      8  C   UNL     1       7.575  35.771  77.909  0.00  0.00    +0.000 A 
ATOM      9  C   UNL     1       8.614  36.069  78.798  0.00  0.00    +0.000 A 
ATOM     10  C   UNL     1       6.612  36.764  77.661  0.00  0.00    +0.000 A 
ATOM     11  C   UNL     1       8.583  37.223  79.585  0.00  0.00    +0.000 A 
ATOM     12  C   UNL     1       6.618  37.967  78.380  0.00  0.00    +0.000 A 
ATOM     13  C   UNL     1       7.577  38.166  79.378  0.00  0.00    +0.000 A 
BRANCH  13  14
ATOM     14  N   UNL     1       7.554  39.383  80.192  0.00  0.00    +0.000 N 
ATOM     15  O   UNL     1       6.455  39.775  80.622  0.00  0.00    +0.000 OA
ATOM     16  O   UNL     1       8.622  39.952  80.412  0.00  0.00    +0.000 OA
ENDBRANCH  13  14
ENDBRANCH   4   8
BRANCH   1  18
ATOM     17  S   UNL     1       5.280  34.141  80.489  0.00  0.00    +0.000 S 
ATOM     18  C   UNL     1       5.918  32.859  79.519  0.00  0.00    +0.000 A 
ATOM     19  C   UNL     1       3.695  33.518  80.410  0.00  0.00    +0.000 A 
ATOM     20  C   UNL     1       4.922  31.951  79.213  0.00  0.00    +0.000 A 
ATOM     21  C   UNL     1       3.639  32.351  79.687  0.00  0.00    +0.000 A 
ENDBRANCH   1  18
BRANCH   3  22
ATOM     22  C   UNL     1       7.979  30.924  80.613  0.00  0.00    +0.000 C 
ATOM     23  O   UNL     1       8.316  31.403  81.686  0.00  0.00    +0.000 OA
ATOM     24  O   UNL     1       7.496  29.672  80.523  0.00  0.00    +0.000 OA
ENDBRANCH   3  22
BRANCH   5  25
ATOM     25  C   UNL     1       6.400  31.627  76.139  0.00  0.00    +0.000 C 
ATOM     26  O   UNL     1       5.675  32.460  75.606  0.00  0.00    +0.000 OA
ATOM     27  O   UNL     1       6.048  30.324  76.165  0.00  0.00    +0.000 OA
ENDBRANCH   5  25
BRANCH   5  28
ATOM     28  C   UNL     1       8.854  32.007  75.862  0.00  0.00    +0.000 C 
BRANCH  28  29
ATOM     29  C   UNL     1      10.320  31.822  76.314  0.00  0.00    +0.000 C 
ATOM     30  C   UNL     1      11.184  31.436  75.104  0.00  0.00    +0.000 C 
ATOM     31  C   UNL     1      10.944  33.058  76.951  0.00  0.00    +0.000 C 
ENDBRANCH  28  29
ENDBRANCH   5  28
TORSDOF 7
ENDMDL
MODEL 4
REMARK VINA RESULT:      -6.9      2.341      4.862
REMARK  Name = 
REMARK  9 active torsions:
REMARK  status: ('A' for Active; 'I' for Inactive)
REMARK    1  A    between atoms: C_2  and  C_5
REMARK    2  A    between atoms: C_8  and  C_11
REMARK    3  A    between atoms: C_9  and  C_14
REMARK    4  A    between atoms: C_10  and  C_15
REMARK    5  A    between atoms: C_10  and  C_16
REMARK    6  A    between atoms: C_16  and  C_23
REMARK    7  A    between atoms: C_23  and  C_26
REMARK    8  A    between atoms: C_23  and  C_27
REMARK    9  A    between atoms: C_28  and  N_29
REMARK                            x       y       z     vdW  Elec       q    Type
REMARK                         _______ _______ _______ _____ _____    ______ ____
ROOT
ATOM      1  C   UNL     1       6.775  32.867  78.618  0.00  0.00    +0.000 C 
ATOM      2  N   UNL     1       7.833  32.252  79.447  0.00  0.00    +0.000 N 
ATOM      3  C   UNL     1       5.970  33.667  79.632  0.00  0.00    +0.000 C 
ATOM      4  C   UNL     1       9.112  31.867  79.051  0.00  0.00    +0.000 C 
ATOM      5  C   UNL     1       7.328  32.007  80.833  0.00  0.00    +0.000 C 
ATOM      6  C   UNL     1       5.978  32.797  80.882  0.00  0.00    +0.000 C 
ATOM      7  O   UNL     1       9.777  31.125  79.778  0.00  0.00    +0.000 OA
ENDROOT
BRANCH   4   8
ATOM      8  C   UNL     1       9.742  32.313  77.772  0.00  0.00    +0.000 A 
ATOM      9  C   UNL     1       9.689  31.581  76.581  0.00  0.00    +0.000 A 
ATOM     10  C   UNL     1      10.345  33.583  77.741  0.00  0.00    +0.000 A 
ATOM     11  C   UNL     1      10.400  31.987  75.449  0.00  0.00    +0.000 A 
ATOM     12  C   UNL     1      10.989  34.045  76.584  0.00  0.00    +0.000 A 
ATOM     13  C   UNL     1      11.056  33.218  75.458  0.00  0.00    +0.000 A 
BRANCH  13  14
ATOM     14  N   UNL     1      11.788  33.652  74.266  0.00  0.00    +0.000 N 
ATOM     15  O   UNL     1      12.300  32.775  73.548  0.00  0.00    +0.000 OA
ATOM     16  O   UNL     1      11.856  34.858  74.036  0.00  0.00    +0.000 OA
ENDBRANCH  13  14
ENDBRANCH   4   8
BRANCH   1  18
ATOM     17  S   UNL     1       5.912  32.008  76.115  0.00  0.00    +0.000 S 
ATOM     18  C   UNL     1       6.063  31.791  77.825  0.00  0.00    +0.000 A 
ATOM     19  C   UNL     1       5.153  30.496  75.910  0.00  0.00    +0.000 A 
ATOM     20  C   UNL     1       5.471  30.602  78.208  0.00  0.00    +0.000 A 
ATOM     21  C   UNL     1       4.988  29.839  77.106  0.00  0.00    +0.000 A 
ENDBRANCH   1  18
BRANCH   3  22
ATOM     22  C   UNL     1       4.662  34.166  79.083  0.00  0.00    +0.000 C 
ATOM     23  O   UNL     1       3.580  33.728  79.449  0.00  0.00    +0.000 OA
ATOM     24  O   UNL     1       4.758  35.039  78.065  0.00  0.00    +0.000 OA
ENDBRANCH   3  22
BRANCH   5  25
ATOM     25  C   UNL     1       7.014  30.494  81.078  0.00  0.00    +0.000 C 
ATOM     26  O   UNL     1       7.631  29.578  80.545  0.00  0.00    +0.000 OA
ATOM     27  O   UNL     1       5.937  30.240  81.850  0.00  0.00    +0.000 OA
ENDBRANCH   5  25
BRANCH   5  28
ATOM     28  C   UNL     1       8.278  32.445  81.994  0.00  0.00    +0.000 C 
BRANCH  28  29
ATOM     29  C   UNL     1       8.514  33.947  82.268  0.00  0.00    +0.000 C 
ATOM     30  C   UNL     1       8.664  34.174  83.780  0.00  0.00    +0.000 C 
ATOM     31  C   UNL     1       9.752  34.524  81.590  0.00  0.00    +0.000 C 
ENDBRANCH  28  29
ENDBRANCH   5  28
TORSDOF 7
ENDMDL
MODEL 5
REMARK VINA RESULT:      -6.9      1.132      1.601
REMARK  Name = 
REMARK  9 active torsions:
REMARK  status: ('A' for Active; 'I' for Inactive)
REMARK    1  A    between atoms: C_2  and  C_5
REMARK    2  A    between atoms: C_8  and  C_11
REMARK    3  A    between atoms: C_9  and  C_14
REMARK    4  A    between atoms: C_10  and  C_15
REMARK    5  A    between atoms: C_10  and  C_16
REMARK    6  A    between atoms: C_16  and  C_23
REMARK    7  A    between atoms: C_23  and  C_26
REMARK    8  A    between atoms: C_23  and  C_27
REMARK    9  A    between atoms: C_28  and  N_29
REMARK                            x       y       z     vdW  Elec       q    Type
REMARK                         _______ _______ _______ _____ _____    ______ ____
ROOT
ATOM      1  C   UNL     1       7.261  32.796  79.183  0.00  0.00    +0.000 C 
ATOM      2  N   UNL     1       6.486  32.952  77.933  0.00  0.00    +0.000 N 
ATOM      3  C   UNL     1       6.379  31.878  80.018  0.00  0.00    +0.000 C 
ATOM      4  C   UNL     1       6.972  33.216  76.655  0.00  0.00    +0.000 C 
ATOM      5  C   UNL     1       5.021  32.856  78.217  0.00  0.00    +0.000 C 
ATOM      6  C   UNL     1       4.961  32.325  79.688  0.00  0.00    +0.000 C 
ATOM      7  O   UNL     1       6.195  33.587  75.773  0.00  0.00    +0.000 OA
ENDROOT
BRANCH   4   8
ATOM      8  C   UNL     1       8.411  33.070  76.280  0.00  0.00    +0.000 A 
ATOM      9  C   UNL     1       9.301  34.145  76.172  0.00  0.00    +0.000 A 
ATOM     10  C   UNL     1       8.921  31.771  76.115  0.00  0.00    +0.000 A 
ATOM     11  C   UNL     1      10.602  33.962  75.698  0.00  0.00    +0.000 A 
ATOM     12  C   UNL     1      10.253  31.565  75.725  0.00  0.00    +0.000 A 
ATOM     13  C   UNL     1      11.072  32.669  75.468  0.00  0.00    +0.000 A 
BRANCH  13  14
ATOM     14  N   UNL     1      12.441  32.476  74.987  0.00  0.00    +0.000 N 
ATOM     15  O   UNL     1      12.824  33.171  74.029  0.00  0.00    +0.000 OA
ATOM     16  O   UNL     1      13.142  31.640  75.556  0.00  0.00    +0.000 OA
ENDBRANCH  13  14
ENDBRANCH   4   8
BRANCH   1  18
ATOM     17  S   UNL     1       9.264  34.505  80.083  0.00  0.00    +0.000 S 
ATOM     18  C   UNL     1       7.604  34.162  79.740  0.00  0.00    +0.000 A 
ATOM     19  C   UNL     1       8.920  36.108  80.548  0.00  0.00    +0.000 A 
ATOM     20  C   UNL     1       6.818  35.255  80.051  0.00  0.00    +0.000 A 
ATOM     21  C   UNL     1       7.577  36.385  80.473  0.00  0.00    +0.000 A 
ENDBRANCH   1  18
BRANCH   3  22
ATOM     22  C   UNL     1       6.815  31.791  81.455  0.00  0.00    +0.000 C 
ATOM     23  O   UNL     1       6.212  32.343  82.364  0.00  0.00    +0.000 OA
ATOM     24  O   UNL     1       7.989  31.171  81.666  0.00  0.00    +0.000 OA
ENDBRANCH   3  22
BRANCH   5  25
ATOM     25  C   UNL     1       4.329  34.259  78.179  0.00  0.00    +0.000 C 
ATOM     26  O   UNL     1       4.581  35.118  77.340  0.00  0.00    +0.000 OA
ATOM     27  O   UNL     1       3.490  34.523  79.203  0.00  0.00    +0.000 OA
ENDBRANCH   5  25
BRANCH   5  28
ATOM     28  C   UNL     1       4.197  31.941  77.256  0.00  0.00    +0.000 C 
BRANCH  28  29
ATOM     29  C   UNL     1       4.329  30.405  77.355  0.00  0.00    +0.000 C 
ATOM     30  C   UNL     1       3.017  29.748  76.901  0.00  0.00    +0.000 C 
ATOM     31  C   UNL     1       5.456  29.815  76.514  0.00  0.00    +0.000 C 
ENDBRANCH  28  29
ENDBRANCH   5  28
TORSDOF 7
ENDMDL
MODEL 6
REMARK VINA RESULT:      -6.7      1.901      4.993
REMARK  Name = 
REMARK  9 active torsions:
REMARK  status: ('A' for Active; 'I' for Inactive)
REMARK    1  A    between atoms: C_2  and  C_5
REMARK    2  A    between atoms: C_8  and  C_11
REMARK    3  A    between atoms: C_9  and  C_14
REMARK    4  A    between atoms: C_10  and  C_15
REMARK    5  A    between atoms: C_10  and  C_16
REMARK    6  A    between atoms: C_16  and  C_23
REMARK    7  A    between atoms: C_23  and  C_26
REMARK    8  A    between atoms: C_23  and  C_27
REMARK    9  A    between atoms: C_28  and  N_29
REMARK                            x       y       z     vdW  Elec       q    Type
REMARK                         _______ _______ _______ _____ _____    ______ ____
ROOT
ATOM      1  C   UNL     1       6.849  33.934  77.756  0.00  0.00    +0.000 C 
ATOM      2  N   UNL     1       7.895  34.247  78.753  0.00  0.00    +0.000 N 
ATOM      3  C   UNL     1       5.750  34.932  78.092  0.00  0.00    +0.000 C 
ATOM      4  C   UNL     1       9.270  34.059  78.636  0.00  0.00    +0.000 C 
ATOM      5  C   UNL     1       7.273  34.757  80.014  0.00  0.00    +0.000 C 
ATOM      6  C   UNL     1       5.784  35.025  79.611  0.00  0.00    +0.000 C 
ATOM      7  O   UNL     1       9.980  34.110  79.643  0.00  0.00    +0.000 OA
ENDROOT
BRANCH   4   8
ATOM      8  C   UNL     1       9.952  33.798  77.332  0.00  0.00    +0.000 A 
ATOM      9  C   UNL     1      10.216  32.517  76.834  0.00  0.00    +0.000 A 
ATOM     10  C   UNL     1      10.265  34.901  76.518  0.00  0.00    +0.000 A 
ATOM     11  C   UNL     1      10.965  32.334  75.669  0.00  0.00    +0.000 A 
ATOM     12  C   UNL     1      10.940  34.728  75.301  0.00  0.00    +0.000 A 
ATOM     13  C   UNL     1      11.332  33.444  74.910  0.00  0.00    +0.000 A 
BRANCH  13  14
ATOM     14  N   UNL     1      12.105  33.251  73.680  0.00  0.00    +0.000 N 
ATOM     15  O   UNL     1      12.147  34.191  72.867  0.00  0.00    +0.000 OA
ATOM     16  O   UNL     1      12.674  32.173  73.518  0.00  0.00    +0.000 OA
ENDBRANCH  13  14
ENDBRANCH   4   8
BRANCH   1  18
ATOM     17  S   UNL     1       6.584  31.553  76.341  0.00  0.00    +0.000 S 
ATOM     18  C   UNL     1       6.520  32.457  77.813  0.00  0.00    +0.000 A 
ATOM     19  C   UNL     1       6.217  30.088  77.130  0.00  0.00    +0.000 A 
ATOM     20  C   UNL     1       6.153  31.635  78.862  0.00  0.00    +0.000 A 
ATOM     21  C   UNL     1       6.021  30.268  78.478  0.00  0.00    +0.000 A 
ENDBRANCH   1  18
BRANCH   3  22
ATOM     22  C   UNL     1       4.451  34.633  77.395  0.00  0.00    +0.000 C 
ATOM     23  O   UNL     1       3.447  34.273  77.993  0.00  0.00    +0.000 OA
ATOM     24  O   UNL     1       4.496  34.662  76.052  0.00  0.00    +0.000 OA
ENDBRANCH   3  22
BRANCH   5  25
ATOM     25  C   UNL     1       7.283  33.677  81.146  0.00  0.00    +0.000 C 
ATOM     26  O   UNL     1       8.240  32.946  81.378  0.00  0.00    +0.000 OA
ATOM     27  O   UNL     1       6.118  33.515  81.808  0.00  0.00    +0.000 OA
ENDBRANCH   5  25
BRANCH   5  28
ATOM     28  C   UNL     1       7.927  36.035  80.630  0.00  0.00    +0.000 C 
BRANCH  28  29
ATOM     29  C   UNL     1       7.675  37.415  79.983  0.00  0.00    +0.000 C 
ATOM     30  C   UNL     1       7.881  38.518  81.033  0.00  0.00    +0.000 C 
ATOM     31  C   UNL     1       8.583  37.730  78.799  0.00  0.00    +0.000 C 
ENDBRANCH  28  29
ENDBRANCH   5  28
TORSDOF 7
ENDMDL
MODEL 7
REMARK VINA RESULT:      -6.4      2.437      4.869
REMARK  Name = 
REMARK  9 active torsions:
REMARK  status: ('A' for Active; 'I' for Inactive)
REMARK    1  A    between atoms: C_2  and  C_5
REMARK    2  A    between atoms: C_8  and  C_11
REMARK    3  A    between atoms: C_9  and  C_14
REMARK    4  A    between atoms: C_10  and  C_15
REMARK    5  A    between atoms: C_10  and  C_16
REMARK    6  A    between atoms: C_16  and  C_23
REMARK    7  A    between atoms: C_23  and  C_26
REMARK    8  A    between atoms: C_23  and  C_27
REMARK    9  A    between atoms: C_28  and  N_29
REMARK                            x       y       z     vdW  Elec       q    Type
REMARK                         _______ _______ _______ _____ _____    ______ ____
ROOT
ATOM      1  C   UNL     1       7.907  34.693  78.070  0.00  0.00    +0.000 C 
ATOM      2  N   UNL     1       8.636  33.786  78.982  0.00  0.00    +0.000 N 
ATOM      3  C   UNL     1       7.623  35.904  78.948  0.00  0.00    +0.000 C 
ATOM      4  C   UNL     1       9.574  32.812  78.648  0.00  0.00    +0.000 C 
ATOM      5  C   UNL     1       8.179  33.992  80.391  0.00  0.00    +0.000 C 
ATOM      6  C   UNL     1       7.333  35.308  80.320  0.00  0.00    +0.000 C 
ATOM      7  O   UNL     1       9.888  31.959  79.481  0.00  0.00    +0.000 OA
ENDROOT
BRANCH   4   8
ATOM      8  C   UNL     1      10.240  32.742  77.312  0.00  0.00    +0.000 A 
ATOM      9  C   UNL     1       9.976  31.749  76.362  0.00  0.00    +0.000 A 
ATOM     10  C   UNL     1      11.114  33.783  76.955  0.00  0.00    +0.000 A 
ATOM     11  C   UNL     1      10.718  31.662  75.182  0.00  0.00    +0.000 A 
ATOM     12  C   UNL     1      11.802  33.757  75.733  0.00  0.00    +0.000 A 
ATOM     13  C   UNL     1      11.637  32.665  74.875  0.00  0.00    +0.000 A 
BRANCH  13  14
ATOM     14  N   UNL     1      12.403  32.583  73.630  0.00  0.00    +0.000 N 
ATOM     15  O   UNL     1      12.672  33.645  73.041  0.00  0.00    +0.000 OA
ATOM     16  O   UNL     1      12.743  31.469  73.233  0.00  0.00    +0.000 OA
ENDBRANCH  13  14
ENDBRANCH   4   8
BRANCH   1  18
ATOM     17  S   UNL     1       6.808  33.564  75.777  0.00  0.00    +0.000 S 
ATOM     18  C   UNL     1       6.732  33.959  77.458  0.00  0.00    +0.000 A 
ATOM     19  C   UNL     1       5.314  32.745  75.820  0.00  0.00    +0.000 A 
ATOM     20  C   UNL     1       5.539  33.517  77.998  0.00  0.00    +0.000 A 
ATOM     21  C   UNL     1       4.745  32.783  77.070  0.00  0.00    +0.000 A 
ENDBRANCH   1  18
BRANCH   3  22
ATOM     22  C   UNL     1       6.640  36.860  78.332  0.00  0.00    +0.000 C 
ATOM     23  O   UNL     1       5.535  37.075  78.811  0.00  0.00    +0.000 OA
ATOM     24  O   UNL     1       7.001  37.373  77.143  0.00  0.00    +0.000 OA
ENDBRANCH   3  22
BRANCH   5  25
ATOM     25  C   UNL     1       7.240  32.837  80.873  0.00  0.00    +0.000 C 
ATOM     26  O   UNL     1       7.139  31.759  80.296  0.00  0.00    +0.000 OA
ATOM     27  O   UNL     1       6.448  33.129  81.926  0.00  0.00    +0.000 OA
ENDBRANCH   5  25
BRANCH   5  28
ATOM     28  C   UNL     1       9.307  34.108  81.466  0.00  0.00    +0.000 C 
BRANCH  28  29
ATOM     29  C   UNL     1       9.340  35.325  82.418  0.00  0.00    +0.000 C 
ATOM     30  C   UNL     1       8.898  34.888  83.822  0.00  0.00    +0.000 C 
ATOM     31  C   UNL     1      10.709  35.985  82.549  0.00  0.00    +0.000 C 
ENDBRANCH  28  29
ENDBRANCH   5  28
TORSDOF 7
ENDMDL
MODEL 8
REMARK VINA RESULT:      -6.4      1.685      2.329
REMARK  Name = 
REMARK  9 active torsions:
REMARK  status: ('A' for Active; 'I' for Inactive)
REMARK    1  A    between atoms: C_2  and  C_5
REMARK    2  A    between atoms: C_8  and  C_11
REMARK    3  A    between atoms: C_9  and  C_14
REMARK    4  A    between atoms: C_10  and  C_15
REMARK    5  A    between atoms: C_10  and  C_16
REMARK    6  A    between atoms: C_16  and  C_23
REMARK    7  A    between atoms: C_23  and  C_26
REMARK    8  A    between atoms: C_23  and  C_27
REMARK    9  A    between atoms: C_28  and  N_29
REMARK                            x       y       z     vdW  Elec       q    Type
REMARK                         _______ _______ _______ _____ _____    ______ ____
ROOT
ATOM      1  C   UNL     1       6.683  33.022  79.573  0.00  0.00    +0.000 C 
ATOM      2  N   UNL     1       5.849  33.481  78.442  0.00  0.00    +0.000 N 
ATOM      3  C   UNL     1       5.990  31.739  80.009  0.00  0.00    +0.000 C 
ATOM      4  C   UNL     1       6.240  34.254  77.351  0.00  0.00    +0.000 C 
ATOM      5  C   UNL     1       4.429  33.056  78.640  0.00  0.00    +0.000 C 
ATOM      6  C   UNL     1       4.508  32.038  79.827  0.00  0.00    +0.000 C 
ATOM      7  O   UNL     1       5.381  34.781  76.640  0.00  0.00    +0.000 OA
ENDROOT
BRANCH   4   8
ATOM      8  C   UNL     1       7.669  34.484  76.980  0.00  0.00    +0.000 A 
ATOM      9  C   UNL     1       8.365  35.665  77.259  0.00  0.00    +0.000 A 
ATOM     10  C   UNL     1       8.380  33.419  76.401  0.00  0.00    +0.000 A 
ATOM     11  C   UNL     1       9.661  35.872  76.781  0.00  0.00    +0.000 A 
ATOM     12  C   UNL     1       9.712  33.581  75.994  0.00  0.00    +0.000 A 
ATOM     13  C   UNL     1      10.328  34.828  76.141  0.00  0.00    +0.000 A 
BRANCH  13  14
ATOM     14  N   UNL     1      11.693  35.038  75.653  0.00  0.00    +0.000 N 
ATOM     15  O   UNL     1      11.883  35.956  74.836  0.00  0.00    +0.000 OA
ATOM     16  O   UNL     1      12.580  34.300  76.079  0.00  0.00    +0.000 OA
ENDBRANCH  13  14
ENDBRANCH   4   8
BRANCH   1  18
ATOM     17  S   UNL     1       8.413  34.747  80.906  0.00  0.00    +0.000 S 
ATOM     18  C   UNL     1       6.826  34.140  80.584  0.00  0.00    +0.000 A 
ATOM     19  C   UNL     1       7.827  35.938  81.975  0.00  0.00    +0.000 A 
ATOM     20  C   UNL     1       5.893  34.814  81.350  0.00  0.00    +0.000 A 
ATOM     21  C   UNL     1       6.462  35.873  82.116  0.00  0.00    +0.000 A 
ENDBRANCH   1  18
BRANCH   3  22
ATOM     22  C   UNL     1       6.486  31.223  81.331  0.00  0.00    +0.000 C 
ATOM     23  O   UNL     1       5.777  31.160  82.326  0.00  0.00    +0.000 OA
ATOM     24  O   UNL     1       7.802  30.952  81.389  0.00  0.00    +0.000 OA
ENDBRANCH   3  22
BRANCH   5  25
ATOM     25  C   UNL     1       3.521  34.250  79.085  0.00  0.00    +0.000 C 
ATOM     26  O   UNL     1       3.634  35.389  78.644  0.00  0.00    +0.000 OA
ATOM     27  O   UNL     1       2.650  33.981  80.080  0.00  0.00    +0.000 OA
ENDBRANCH   5  25
BRANCH   5  28
ATOM     28  C   UNL     1       3.726  32.418  77.399  0.00  0.00    +0.000 C 
BRANCH  28  29
ATOM     29  C   UNL     1       4.161  31.021  76.903  0.00  0.00    +0.000 C 
ATOM     30  C   UNL     1       2.929  30.109  76.796  0.00  0.00    +0.000 C 
ATOM     31  C   UNL     1       4.854  31.023  75.544  0.00  0.00    +0.000 C 
ENDBRANCH  28  29
ENDBRANCH   5  28
TORSDOF 7
ENDMDL
MODEL 9
REMARK VINA RESULT:      -6.0      2.918      5.939
REMARK  Name = 
REMARK  9 active torsions:
REMARK  status: ('A' for Active; 'I' for Inactive)
REMARK    1  A    between atoms: C_2  and  C_5
REMARK    2  A    between atoms: C_8  and  C_11
REMARK    3  A    between atoms: C_9  and  C_14
REMARK    4  A    between atoms: C_10  and  C_15
REMARK    5  A    between atoms: C_10  and  C_16
REMARK    6  A    between atoms: C_16  and  C_23
REMARK    7  A    between atoms: C_23  and  C_26
REMARK    8  A    between atoms: C_23  and  C_27
REMARK    9  A    between atoms: C_28  and  N_29
REMARK                            x       y       z     vdW  Elec       q    Type
REMARK                         _______ _______ _______ _____ _____    ______ ____
ROOT
ATOM      1  C   UNL     1       7.121  33.974  77.926  0.00  0.00    +0.000 C 
ATOM      2  N   UNL     1       7.568  33.311  79.170  0.00  0.00    +0.000 N 
ATOM      3  C   UNL     1       6.113  32.986  77.356  0.00  0.00    +0.000 C 
ATOM      4  C   UNL     1       8.048  33.910  80.332  0.00  0.00    +0.000 C 
ATOM      5  C   UNL     1       7.510  31.825  79.013  0.00  0.00    +0.000 C 
ATOM      6  C   UNL     1       6.703  31.622  77.686  0.00  0.00    +0.000 C 
ATOM      7  O   UNL     1       8.633  33.224  81.173  0.00  0.00    +0.000 OA
ENDROOT
BRANCH   4   8
ATOM      8  C   UNL     1       7.889  35.366  80.628  0.00  0.00    +0.000 A 
ATOM      9  C   UNL     1       6.653  36.020  80.680  0.00  0.00    +0.000 A 
ATOM     10  C   UNL     1       9.039  36.101  80.963  0.00  0.00    +0.000 A 
ATOM     11  C   UNL     1       6.573  37.405  80.840  0.00  0.00    +0.000 A 
ATOM     12  C   UNL     1       8.965  37.478  81.214  0.00  0.00    +0.000 A 
ATOM     13  C   UNL     1       7.734  38.132  81.099  0.00  0.00    +0.000 A 
BRANCH  13  14
ATOM     14  N   UNL     1       7.649  39.583  81.282  0.00  0.00    +0.000 N 
ATOM     15  O   UNL     1       6.707  40.029  81.961  0.00  0.00    +0.000 OA
ATOM     16  O   UNL     1       8.514  40.284  80.759  0.00  0.00    +0.000 OA
ENDBRANCH  13  14
ENDBRANCH   4   8
BRANCH   1  18
ATOM     17  S   UNL     1       8.954  35.943  77.213  0.00  0.00    +0.000 S 
ATOM     18  C   UNL     1       8.326  34.337  77.084  0.00  0.00    +0.000 A 
ATOM     19  C   UNL     1      10.239  35.612  76.144  0.00  0.00    +0.000 A 
ATOM     20  C   UNL     1       9.070  33.606  76.177  0.00  0.00    +0.000 A 
ATOM     21  C   UNL     1      10.193  34.323  75.670  0.00  0.00    +0.000 A 
ENDBRANCH   1  18
BRANCH   3  22
ATOM     22  C   UNL     1       5.718  33.301  75.939  0.00  0.00    +0.000 C 
ATOM     23  O   UNL     1       5.948  32.546  75.005  0.00  0.00    +0.000 OA
ATOM     24  O   UNL     1       5.207  34.528  75.741  0.00  0.00    +0.000 OA
ENDBRANCH   3  22
BRANCH   5  25
ATOM     25  C   UNL     1       8.933  31.205  78.816  0.00  0.00    +0.000 C 
ATOM     26  O   UNL     1       9.581  31.310  77.781  0.00  0.00    +0.000 OA
ATOM     27  O   UNL     1       9.382  30.443  79.835  0.00  0.00    +0.000 OA
ENDBRANCH   5  25
BRANCH   5  28
ATOM     28  C   UNL     1       6.855  31.038  80.194  0.00  0.00    +0.000 C 
BRANCH  28  29
ATOM     29  C   UNL     1       5.461  31.454  80.715  0.00  0.00    +0.000 C 
ATOM     30  C   UNL     1       4.463  30.311  80.472  0.00  0.00    +0.000 C 
ATOM     31  C   UNL     1       5.420  31.795  82.200  0.00  0.00    +0.000 C 
ENDBRANCH  28  29
ENDBRANCH   5  28
TORSDOF 7
ENDMDL
