MODEL 1
REMARK VINA RESULT:      -6.9      0.000      0.000
REMARK  Name = 
REMARK  8 active torsions:
REMARK  status: ('A' for Active; 'I' for Inactive)
REMARK    1  A    between atoms: C_2  and  C_5
REMARK    2  A    between atoms: C_8  and  C_11
REMARK    3  A    between atoms: C_9  and  C_14
REMARK    4  A    between atoms: C_10  and  C_15
REMARK    5  A    between atoms: C_10  and  C_16
REMARK    6  A    between atoms: C_16  and  C_23
REMARK    7  A    between atoms: C_23  and  C_26
REMARK    8  A    between atoms: C_23  and  C_27
REMARK                            x       y       z     vdW  Elec       q    Type
REMARK                         _______ _______ _______ _____ _____    ______ ____
ROOT
ATOM      1  C   UNL     1       5.526  32.652  78.701  0.00  0.00    +0.000 C 
ATOM      2  N   UNL     1       5.077  33.623  77.671  0.00  0.00    +0.000 N 
ATOM      3  C   UNL     1       7.057  32.754  78.661  0.00  0.00    +0.000 C 
ATOM      4  C   UNL     1       3.915  34.397  77.678  0.00  0.00    +0.000 C 
ATOM      5  C   UNL     1       6.157  33.851  76.654  0.00  0.00    +0.000 C 
ATOM      6  C   UNL     1       7.360  33.015  77.185  0.00  0.00    +0.000 C 
ATOM      7  O   UNL     1       3.670  35.151  76.734  0.00  0.00    +0.000 OA
ENDROOT
BRANCH   4   8
ATOM      8  C   UNL     1       2.946  34.402  78.804  0.00  0.00    +0.000 A 
ATOM      9  C   UNL     1       2.887  35.523  79.647  0.00  0.00    +0.000 A 
ATOM     10  C   UNL     1       2.024  33.377  78.996  0.00  0.00    +0.000 A 
ATOM     11  C   UNL     1       1.982  35.558  80.714  0.00  0.00    +0.000 A 
ATOM     12  C   UNL     1       1.166  33.379  80.095  0.00  0.00    +0.000 A 
ATOM     13  C   UNL     1       1.146  34.470  80.957  0.00  0.00    +0.000 A 
ENDBRANCH   4   8
BRANCH   1  15
ATOM     14  S   UNL     1       4.178  30.292  79.623  0.00  0.00    +0.000 S 
ATOM     15  C   UNL     1       5.001  31.234  78.446  0.00  0.00    +0.000 A 
ATOM     16  C   UNL     1       3.783  29.070  78.504  0.00  0.00    +0.000 A 
ATOM     17  C   UNL     1       5.024  30.554  77.234  0.00  0.00    +0.000 A 
ATOM     18  C   UNL     1       4.344  29.304  77.273  0.00  0.00    +0.000 A 
ENDBRANCH   1  15
BRANCH   3  19
ATOM     19  C   UNL     1       7.739  31.585  79.344  0.00  0.00    +0.000 C 
ATOM     20  O   UNL     1       7.733  31.431  80.558  0.00  0.00    +0.000 OA
ATOM     21  O   UNL     1       8.465  30.779  78.544  0.00  0.00    +0.000 OA
ENDBRANCH   3  19
BRANCH   5  22
ATOM     22  C   UNL     1       5.736  33.300  75.260  0.00  0.00    +0.000 C 
ATOM     23  O   UNL     1       5.300  32.174  75.077  0.00  0.00    +0.000 OA
ATOM     24  O   UNL     1       6.019  34.113  74.219  0.00  0.00    +0.000 OA
ENDBRANCH   5  22
BRANCH   5  25
ATOM     25  C   UNL     1       6.605  35.330  76.404  0.00  0.00    +0.000 C 
BRANCH  25  26
ATOM     26  C   UNL     1       7.087  36.210  77.579  0.00  0.00    +0.000 C 
ATOM     27  C   UNL     1       8.524  36.681  77.297  0.00  0.00    +0.000 C 
ATOM     28  C   UNL     1       6.222  37.441  77.828  0.00  0.00    +0.000 C 
ENDBRANCH  25  26
ENDBRANCH   5  25
TORSDOF 6
ENDMDL
MODEL 2
REMARK VINA RESULT:      -6.6      2.191      4.095
REMARK  Name = 
REMARK  8 active torsions:
REMARK  status: ('A' for Active; 'I' for Inactive)
REMARK    1  A    between atoms: C_2  and  C_5
REMARK    2  A    between atoms: C_8  and  C_11
REMARK    3  A    between atoms: C_9  and  C_14
REMARK    4  A    between atoms: C_10  and  C_15
REMARK    5  A    between atoms: C_10  and  C_16
REMARK    6  A    between atoms: C_16  and  C_23
REMARK    7  A    between atoms: C_23  and  C_26
REMARK    8  A    between atoms: C_23  and  C_27
REMARK                            x       y       z     vdW  Elec       q    Type
REMARK                         _______ _______ _______ _____ _____    ______ ____
ROOT
ATOM      1  C   UNL     1       7.267  32.758  79.004  0.00  0.00    +0.000 C 
ATOM      2  N   UNL     1       7.265  32.770  77.519  0.00  0.00    +0.000 N 
ATOM      3  C   UNL     1       8.333  31.713  79.362  0.00  0.00    +0.000 C 
ATOM      4  C   UNL     1       7.016  33.855  76.676  0.00  0.00    +0.000 C 
ATOM      5  C   UNL     1       7.782  31.469  76.979  0.00  0.00    +0.000 C 
ATOM      6  C   UNL     1       8.202  30.672  78.250  0.00  0.00    +0.000 C 
ATOM      7  O   UNL     1       7.034  33.703  75.453  0.00  0.00    +0.000 OA
ENDROOT
BRANCH   4   8
ATOM      8  C   UNL     1       6.765  35.232  77.173  0.00  0.00    +0.000 A 
ATOM      9  C   UNL     1       7.836  36.138  77.239  0.00  0.00    +0.000 A 
ATOM     10  C   UNL     1       5.488  35.690  77.482  0.00  0.00    +0.000 A 
ATOM     11  C   UNL     1       7.630  37.443  77.699  0.00  0.00    +0.000 A 
ATOM     12  C   UNL     1       5.289  36.969  78.002  0.00  0.00    +0.000 A 
ATOM     13  C   UNL     1       6.362  37.846  78.113  0.00  0.00    +0.000 A 
ENDBRANCH   4   8
BRANCH   1  15
ATOM     14  S   UNL     1       5.142  33.385  80.829  0.00  0.00    +0.000 S 
ATOM     15  C   UNL     1       5.886  32.449  79.595  0.00  0.00    +0.000 A 
ATOM     16  C   UNL     1       3.667  32.540  80.708  0.00  0.00    +0.000 A 
ATOM     17  C   UNL     1       5.014  31.455  79.169  0.00  0.00    +0.000 A 
ATOM     18  C   UNL     1       3.748  31.495  79.821  0.00  0.00    +0.000 A 
ENDBRANCH   1  15
BRANCH   3  19
ATOM     19  C   UNL     1       8.239  31.251  80.802  0.00  0.00    +0.000 C 
ATOM     20  O   UNL     1       8.741  31.869  81.732  0.00  0.00    +0.000 OA
ATOM     21  O   UNL     1       7.669  30.044  80.996  0.00  0.00    +0.000 OA
ENDBRANCH   3  19
BRANCH   5  22
ATOM     22  C   UNL     1       6.658  30.686  76.240  0.00  0.00    +0.000 C 
ATOM     23  O   UNL     1       5.570  31.163  75.956  0.00  0.00    +0.000 OA
ATOM     24  O   UNL     1       6.911  29.372  76.051  0.00  0.00    +0.000 OA
ENDBRANCH   5  22
BRANCH   5  25
ATOM     25  C   UNL     1       8.979  31.535  75.973  0.00  0.00    +0.000 C 
BRANCH  25  26
ATOM     26  C   UNL     1      10.388  31.941  76.461  0.00  0.00    +0.000 C 
ATOM     27  C   UNL     1      11.414  31.604  75.365  0.00  0.00    +0.000 C 
ATOM     28  C   UNL     1      10.525  33.421  76.803  0.00  0.00    +0.000 C 
ENDBRANCH  25  26
ENDBRANCH   5  25
TORSDOF 6
ENDMDL
MODEL 3
REMARK VINA RESULT:      -6.4      2.559      6.239
REMARK  Name = 
REMARK  8 active torsions:
REMARK  status: ('A' for Active; 'I' for Inactive)
REMARK    1  A    between atoms: C_2  and  C_5
REMARK    2  A    between atoms: C_8  and  C_11
REMARK    3  A    between atoms: C_9  and  C_14
REMARK    4  A    between atoms: C_10  and  C_15
REMARK    5  A    between atoms: C_10  and  C_16
REMARK    6  A    between atoms: C_16  and  C_23
REMARK    7  A    between atoms: C_23  and  C_26
REMARK    8  A    between atoms: C_23  and  C_27
REMARK                            x       y       z     vdW  Elec       q    Type
REMARK                         _______ _______ _______ _____ _____    ______ ____
ROOT
ATOM      1  C   UNL     1       7.209  33.349  78.874  0.00  0.00    +0.000 C 
ATOM      2  N   UNL     1       6.575  33.210  77.538  0.00  0.00    +0.000 N 
ATOM      3  C   UNL     1       6.281  32.557  79.806  0.00  0.00    +0.000 C 
ATOM      4  C   UNL     1       7.209  33.152  76.296  0.00  0.00    +0.000 C 
ATOM      5  C   UNL     1       5.109  32.923  77.677  0.00  0.00    +0.000 C 
ATOM      6  C   UNL     1       4.891  32.795  79.215  0.00  0.00    +0.000 C 
ATOM      7  O   UNL     1       6.539  33.052  75.266  0.00  0.00    +0.000 OA
ENDROOT
BRANCH   4   8
ATOM      8  C   UNL     1       8.685  33.160  76.133  0.00  0.00    +0.000 A 
ATOM      9  C   UNL     1       9.365  34.387  76.142  0.00  0.00    +0.000 A 
ATOM     10  C   UNL     1       9.432  31.987  76.070  0.00  0.00    +0.000 A 
ATOM     11  C   UNL     1      10.756  34.427  75.995  0.00  0.00    +0.000 A 
ATOM     12  C   UNL     1      10.810  32.024  75.857  0.00  0.00    +0.000 A 
ATOM     13  C   UNL     1      11.473  33.245  75.818  0.00  0.00    +0.000 A 
ENDBRANCH   4   8
BRANCH   1  15
ATOM     14  S   UNL     1       8.799  35.415  80.073  0.00  0.00    +0.000 S 
ATOM     15  C   UNL     1       7.392  34.812  79.293  0.00  0.00    +0.000 A 
ATOM     16  C   UNL     1       8.283  37.035  79.954  0.00  0.00    +0.000 A 
ATOM     17  C   UNL     1       6.518  35.859  79.026  0.00  0.00    +0.000 A 
ATOM     18  C   UNL     1       7.020  37.131  79.424  0.00  0.00    +0.000 A 
ENDBRANCH   1  15
BRANCH   3  19
ATOM     19  C   UNL     1       6.510  32.878  81.270  0.00  0.00    +0.000 C 
ATOM     20  O   UNL     1       7.480  32.469  81.894  0.00  0.00    +0.000 OA
ATOM     21  O   UNL     1       5.516  33.547  81.887  0.00  0.00    +0.000 OA
ENDBRANCH   3  19
BRANCH   5  22
ATOM     22  C   UNL     1       4.254  34.110  77.143  0.00  0.00    +0.000 C 
ATOM     23  O   UNL     1       4.634  34.886  76.280  0.00  0.00    +0.000 OA
ATOM     24  O   UNL     1       3.097  34.320  77.806  0.00  0.00    +0.000 OA
ENDBRANCH   5  22
BRANCH   5  25
ATOM     25  C   UNL     1       4.556  31.649  76.955  0.00  0.00    +0.000 C 
BRANCH  25  26
ATOM     26  C   UNL     1       5.095  30.248  77.319  0.00  0.00    +0.000 C 
ATOM     27  C   UNL     1       3.931  29.242  77.302  0.00  0.00    +0.000 C 
ATOM     28  C   UNL     1       6.181  29.736  76.379  0.00  0.00    +0.000 C 
ENDBRANCH  25  26
ENDBRANCH   5  25
TORSDOF 6
ENDMDL
MODEL 4
REMARK VINA RESULT:      -6.3      2.487      6.135
REMARK  Name = 
REMARK  8 active torsions:
REMARK  status: ('A' for Active; 'I' for Inactive)
REMARK    1  A    between atoms: C_2  and  C_5
REMARK    2  A    between atoms: C_8  and  C_11
REMARK    3  A    between atoms: C_9  and  C_14
REMARK    4  A    between atoms: C_10  and  C_15
REMARK    5  A    between atoms: C_10  and  C_16
REMARK    6  A    between atoms: C_16  and  C_23
REMARK    7  A    between atoms: C_23  and  C_26
REMARK    8  A    between atoms: C_23  and  C_27
REMARK                            x       y       z     vdW  Elec       q    Type
REMARK                         _______ _______ _______ _____ _____    ______ ____
ROOT
ATOM      1  C   UNL     1       6.555  34.082  79.252  0.00  0.00    +0.000 C 
ATOM      2  N   UNL     1       5.769  34.075  77.993  0.00  0.00    +0.000 N 
ATOM      3  C   UNL     1       5.557  33.595  80.312  0.00  0.00    +0.000 C 
ATOM      4  C   UNL     1       6.231  33.811  76.701  0.00  0.00    +0.000 C 
ATOM      5  C   UNL     1       4.302  34.193  78.285  0.00  0.00    +0.000 C 
ATOM      6  C   UNL     1       4.223  34.176  79.841  0.00  0.00    +0.000 C 
ATOM      7  O   UNL     1       5.453  33.861  75.746  0.00  0.00    +0.000 OA
ENDROOT
BRANCH   4   8
ATOM      8  C   UNL     1       7.632  33.421  76.400  0.00  0.00    +0.000 A 
ATOM      9  C   UNL     1       8.591  34.426  76.199  0.00  0.00    +0.000 A 
ATOM     10  C   UNL     1       8.052  32.094  76.409  0.00  0.00    +0.000 A 
ATOM     11  C   UNL     1       9.920  34.090  75.918  0.00  0.00    +0.000 A 
ATOM     12  C   UNL     1       9.360  31.753  76.065  0.00  0.00    +0.000 A 
ATOM     13  C   UNL     1      10.295  32.751  75.817  0.00  0.00    +0.000 A 
ENDBRANCH   4   8
BRANCH   1  15
ATOM     14  S   UNL     1       8.705  35.683  80.277  0.00  0.00    +0.000 S 
ATOM     15  C   UNL     1       7.158  35.456  79.566  0.00  0.00    +0.000 A 
ATOM     16  C   UNL     1       8.661  37.372  80.057  0.00  0.00    +0.000 A 
ATOM     17  C   UNL     1       6.605  36.689  79.244  0.00  0.00    +0.000 A 
ATOM     18  C   UNL     1       7.458  37.789  79.545  0.00  0.00    +0.000 A 
ENDBRANCH   1  15
BRANCH   3  19
ATOM     19  C   UNL     1       6.015  33.890  81.727  0.00  0.00    +0.000 C 
ATOM     20  O   UNL     1       6.886  33.239  82.290  0.00  0.00    +0.000 OA
ATOM     21  O   UNL     1       5.321  34.841  82.383  0.00  0.00    +0.000 OA
ENDBRANCH   3  19
BRANCH   5  22
ATOM     22  C   UNL     1       3.737  35.547  77.765  0.00  0.00    +0.000 C 
ATOM     23  O   UNL     1       3.751  36.583  78.411  0.00  0.00    +0.000 OA
ATOM     24  O   UNL     1       3.087  35.474  76.583  0.00  0.00    +0.000 OA
ENDBRANCH   5  22
BRANCH   5  25
ATOM     25  C   UNL     1       3.362  33.090  77.692  0.00  0.00    +0.000 C 
BRANCH  25  26
ATOM     26  C   UNL     1       3.564  31.605  78.071  0.00  0.00    +0.000 C 
ATOM     27  C   UNL     1       2.216  31.012  78.513  0.00  0.00    +0.000 C 
ATOM     28  C   UNL     1       4.115  30.745  76.938  0.00  0.00    +0.000 C 
ENDBRANCH  25  26
ENDBRANCH   5  25
TORSDOF 6
ENDMDL
MODEL 5
REMARK VINA RESULT:      -6.0      2.442      5.895
REMARK  Name = 
REMARK  8 active torsions:
REMARK  status: ('A' for Active; 'I' for Inactive)
REMARK    1  A    between atoms: C_2  and  C_5
REMARK    2  A    between atoms: C_8  and  C_11
REMARK    3  A    between atoms: C_9  and  C_14
REMARK    4  A    between atoms: C_10  and  C_15
REMARK    5  A    between atoms: C_10  and  C_16
REMARK    6  A    between atoms: C_16  and  C_23
REMARK    7  A    between atoms: C_23  and  C_26
REMARK    8  A    between atoms: C_23  and  C_27
REMARK                            x       y       z     vdW  Elec       q    Type
REMARK                         _______ _______ _______ _____ _____    ______ ____
ROOT
ATOM      1  C   UNL     1       5.679  34.091  78.914  0.00  0.00    +0.000 C 
ATOM      2  N   UNL     1       6.620  32.977  78.638  0.00  0.00    +0.000 N 
ATOM      3  C   UNL     1       4.428  33.725  78.103  0.00  0.00    +0.000 C 
ATOM      4  C   UNL     1       7.580  32.438  79.498  0.00  0.00    +0.000 C 
ATOM      5  C   UNL     1       6.287  32.314  77.333  0.00  0.00    +0.000 C 
ATOM      6  C   UNL     1       4.995  33.044  76.858  0.00  0.00    +0.000 C 
ATOM      7  O   UNL     1       8.304  31.518  79.115  0.00  0.00    +0.000 OA
ENDROOT
BRANCH   4   8
ATOM      8  C   UNL     1       7.759  32.888  80.902  0.00  0.00    +0.000 A 
ATOM      9  C   UNL     1       7.213  32.117  81.940  0.00  0.00    +0.000 A 
ATOM     10  C   UNL     1       8.535  33.994  81.235  0.00  0.00    +0.000 A 
ATOM     11  C   UNL     1       7.368  32.513  83.273  0.00  0.00    +0.000 A 
ATOM     12  C   UNL     1       8.638  34.428  82.556  0.00  0.00    +0.000 A 
ATOM     13  C   UNL     1       8.053  33.688  83.577  0.00  0.00    +0.000 A 
ENDBRANCH   4   8
BRANCH   1  15
ATOM     14  S   UNL     1       6.259  36.813  79.614  0.00  0.00    +0.000 S 
ATOM     15  C   UNL     1       6.262  35.462  78.553  0.00  0.00    +0.000 A 
ATOM     16  C   UNL     1       7.235  37.748  78.576  0.00  0.00    +0.000 A 
ATOM     17  C   UNL     1       6.947  35.782  77.387  0.00  0.00    +0.000 A 
ATOM     18  C   UNL     1       7.487  37.100  77.391  0.00  0.00    +0.000 A 
ENDBRANCH   1  15
BRANCH   3  19
ATOM     19  C   UNL     1       3.485  34.899  77.921  0.00  0.00    +0.000 C 
ATOM     20  O   UNL     1       2.759  35.311  78.816  0.00  0.00    +0.000 OA
ATOM     21  O   UNL     1       3.399  35.394  76.670  0.00  0.00    +0.000 OA
ENDBRANCH   3  19
BRANCH   5  22
ATOM     22  C   UNL     1       7.414  32.548  76.285  0.00  0.00    +0.000 C 
ATOM     23  O   UNL     1       7.457  33.513  75.537  0.00  0.00    +0.000 OA
ATOM     24  O   UNL     1       8.286  31.526  76.152  0.00  0.00    +0.000 OA
ENDBRANCH   5  22
BRANCH   5  25
ATOM     25  C   UNL     1       6.047  30.767  77.355  0.00  0.00    +0.000 C 
BRANCH  25  26
ATOM     26  C   UNL     1       4.917  30.164  78.218  0.00  0.00    +0.000 C 
ATOM     27  C   UNL     1       4.117  29.162  77.367  0.00  0.00    +0.000 C 
ATOM     28  C   UNL     1       5.408  29.441  79.468  0.00  0.00    +0.000 C 
ENDBRANCH  25  26
ENDBRANCH   5  25
TORSDOF 6
ENDMDL
MODEL 6
REMARK VINA RESULT:      -6.0      3.136      6.003
REMARK  Name = 
REMARK  8 active torsions:
REMARK  status: ('A' for Active; 'I' for Inactive)
REMARK    1  A    between atoms: C_2  and  C_5
REMARK    2  A    between atoms: C_8  and  C_11
REMARK    3  A    between atoms: C_9  and  C_14
REMARK    4  A    between atoms: C_10  and  C_15
REMARK    5  A    between atoms: C_10  and  C_16
REMARK    6  A    between atoms: C_16  and  C_23
REMARK    7  A    between atoms: C_23  and  C_26
REMARK    8  A    between atoms: C_23  and  C_27
REMARK                            x       y       z     vdW  Elec       q    Type
REMARK                         _______ _______ _______ _____ _____    ______ ____
ROOT
ATOM      1  C   UNL     1       6.591  34.940  79.201  0.00  0.00    +0.000 C 
ATOM      2  N   UNL     1       7.548  34.049  78.496  0.00  0.00    +0.000 N 
ATOM      3  C   UNL     1       5.682  35.464  78.080  0.00  0.00    +0.000 C 
ATOM      4  C   UNL     1       8.146  32.885  78.984  0.00  0.00    +0.000 C 
ATOM      5  C   UNL     1       7.664  34.437  77.051  0.00  0.00    +0.000 C 
ATOM      6  C   UNL     1       6.625  35.586  76.882  0.00  0.00    +0.000 C 
ATOM      7  O   UNL     1       8.940  32.259  78.279  0.00  0.00    +0.000 OA
ENDROOT
BRANCH   4   8
ATOM      8  C   UNL     1       7.847  32.314  80.322  0.00  0.00    +0.000 A 
ATOM      9  C   UNL     1       6.872  31.311  80.432  0.00  0.00    +0.000 A 
ATOM     10  C   UNL     1       8.569  32.666  81.459  0.00  0.00    +0.000 A 
ATOM     11  C   UNL     1       6.571  30.751  81.678  0.00  0.00    +0.000 A 
ATOM     12  C   UNL     1       8.227  32.159  82.712  0.00  0.00    +0.000 A 
ATOM     13  C   UNL     1       7.226  31.201  82.823  0.00  0.00    +0.000 A 
ENDBRANCH   4   8
BRANCH   1  15
ATOM     14  S   UNL     1       7.024  36.349  81.663  0.00  0.00    +0.000 S 
ATOM     15  C   UNL     1       7.290  36.051  79.992  0.00  0.00    +0.000 A 
ATOM     16  C   UNL     1       8.278  37.499  81.752  0.00  0.00    +0.000 A 
ATOM     17  C   UNL     1       8.284  36.898  79.517  0.00  0.00    +0.000 A 
ATOM     18  C   UNL     1       8.837  37.742  80.522  0.00  0.00    +0.000 A 
ENDBRANCH   1  15
BRANCH   3  19
ATOM     19  C   UNL     1       4.882  36.682  78.497  0.00  0.00    +0.000 C 
ATOM     20  O   UNL     1       3.910  36.615  79.238  0.00  0.00    +0.000 OA
ATOM     21  O   UNL     1       5.228  37.843  77.907  0.00  0.00    +0.000 OA
ENDBRANCH   3  19
BRANCH   5  22
ATOM     22  C   UNL     1       9.085  34.989  76.735  0.00  0.00    +0.000 C 
ATOM     23  O   UNL     1       9.426  36.144  76.940  0.00  0.00    +0.000 OA
ATOM     24  O   UNL     1       9.893  34.132  76.074  0.00  0.00    +0.000 OA
ENDBRANCH   5  22
BRANCH   5  25
ATOM     25  C   UNL     1       7.400  33.320  75.986  0.00  0.00    +0.000 C 
BRANCH  25  26
ATOM     26  C   UNL     1       6.044  32.581  75.948  0.00  0.00    +0.000 C 
ATOM     27  C   UNL     1       5.370  32.839  74.590  0.00  0.00    +0.000 C 
ATOM     28  C   UNL     1       6.153  31.073  76.148  0.00  0.00    +0.000 C 
ENDBRANCH  25  26
ENDBRANCH   5  25
TORSDOF 6
ENDMDL
MODEL 7
REMARK VINA RESULT:      -5.9      2.383      5.790
REMARK  Name = 
REMARK  8 active torsions:
REMARK  status: ('A' for Active; 'I' for Inactive)
REMARK    1  A    between atoms: C_2  and  C_5
REMARK    2  A    between atoms: C_8  and  C_11
REMARK    3  A    between atoms: C_9  and  C_14
REMARK    4  A    between atoms: C_10  and  C_15
REMARK    5  A    between atoms: C_10  and  C_16
REMARK    6  A    between atoms: C_16  and  C_23
REMARK    7  A    between atoms: C_23  and  C_26
REMARK    8  A    between atoms: C_23  and  C_27
REMARK                            x       y       z     vdW  Elec       q    Type
REMARK                         _______ _______ _______ _____ _____    ______ ____
ROOT
ATOM      1  C   UNL     1       5.369  34.255  79.202  0.00  0.00    +0.000 C 
ATOM      2  N   UNL     1       5.493  32.925  78.553  0.00  0.00    +0.000 N 
ATOM      3  C   UNL     1       4.005  34.772  78.724  0.00  0.00    +0.000 C 
ATOM      4  C   UNL     1       6.134  31.789  79.053  0.00  0.00    +0.000 C 
ATOM      5  C   UNL     1       4.641  32.857  77.320  0.00  0.00    +0.000 C 
ATOM      6  C   UNL     1       3.894  34.224  77.300  0.00  0.00    +0.000 C 
ATOM      7  O   UNL     1       6.167  30.755  78.384  0.00  0.00    +0.000 OA
ENDROOT
BRANCH   4   8
ATOM      8  C   UNL     1       6.760  31.733  80.399  0.00  0.00    +0.000 A 
ATOM      9  C   UNL     1       6.100  31.048  81.430  0.00  0.00    +0.000 A 
ATOM     10  C   UNL     1       8.028  32.250  80.651  0.00  0.00    +0.000 A 
ATOM     11  C   UNL     1       6.667  30.974  82.707  0.00  0.00    +0.000 A 
ATOM     12  C   UNL     1       8.567  32.236  81.937  0.00  0.00    +0.000 A 
ATOM     13  C   UNL     1       7.885  31.599  82.967  0.00  0.00    +0.000 A 
ENDBRANCH   4   8
BRANCH   1  15
ATOM     14  S   UNL     1       7.322  36.199  80.005  0.00  0.00    +0.000 S 
ATOM     15  C   UNL     1       6.533  35.191  78.858  0.00  0.00    +0.000 A 
ATOM     16  C   UNL     1       8.533  36.664  78.901  0.00  0.00    +0.000 A 
ATOM     17  C   UNL     1       7.170  35.293  77.628  0.00  0.00    +0.000 A 
ATOM     18  C   UNL     1       8.305  36.153  77.647  0.00  0.00    +0.000 A 
ENDBRANCH   1  15
BRANCH   3  19
ATOM     19  C   UNL     1       3.836  36.263  78.941  0.00  0.00    +0.000 C 
ATOM     20  O   UNL     1       4.102  37.092  78.081  0.00  0.00    +0.000 OA
ATOM     21  O   UNL     1       3.486  36.639  80.187  0.00  0.00    +0.000 OA
ENDBRANCH   3  19
BRANCH   5  22
ATOM     22  C   UNL     1       5.520  32.743  76.041  0.00  0.00    +0.000 C 
ATOM     23  O   UNL     1       6.400  31.909  75.892  0.00  0.00    +0.000 OA
ATOM     24  O   UNL     1       5.342  33.734  75.140  0.00  0.00    +0.000 OA
ENDBRANCH   5  22
BRANCH   5  25
ATOM     25  C   UNL     1       3.608  31.685  77.226  0.00  0.00    +0.000 C 
BRANCH  25  26
ATOM     26  C   UNL     1       2.414  31.614  78.205  0.00  0.00    +0.000 C 
ATOM     27  C   UNL     1       1.189  31.052  77.463  0.00  0.00    +0.000 C 
ATOM     28  C   UNL     1       2.668  30.746  79.432  0.00  0.00    +0.000 C 
ENDBRANCH  25  26
ENDBRANCH   5  25
TORSDOF 6
ENDMDL
MODEL 8
REMARK VINA RESULT:      -5.9      2.295      2.572
REMARK  Name = 
REMARK  8 active torsions:
REMARK  status: ('A' for Active; 'I' for Inactive)
REMARK    1  A    between atoms: C_2  and  C_5
REMARK    2  A    between atoms: C_8  and  C_11
REMARK    3  A    between atoms: C_9  and  C_14
REMARK    4  A    between atoms: C_10  and  C_15
REMARK    5  A    between atoms: C_10  and  C_16
REMARK    6  A    between atoms: C_16  and  C_23
REMARK    7  A    between atoms: C_23  and  C_26
REMARK    8  A    between atoms: C_23  and  C_27
REMARK                            x       y       z     vdW  Elec       q    Type
REMARK                         _______ _______ _______ _____ _____    ______ ____
ROOT
ATOM      1  C   UNL     1       6.914  32.872  78.790  0.00  0.00    +0.000 C 
ATOM      2  N   UNL     1       6.139  34.130  78.634  0.00  0.00    +0.000 N 
ATOM      3  C   UNL     1       8.084  33.036  77.810  0.00  0.00    +0.000 C 
ATOM      4  C   UNL     1       5.410  34.809  79.612  0.00  0.00    +0.000 C 
ATOM      5  C   UNL     1       6.394  34.743  77.288  0.00  0.00    +0.000 C 
ATOM      6  C   UNL     1       7.470  33.816  76.647  0.00  0.00    +0.000 C 
ATOM      7  O   UNL     1       4.801  35.840  79.322  0.00  0.00    +0.000 OA
ENDROOT
BRANCH   4   8
ATOM      8  C   UNL     1       5.354  34.379  81.033  0.00  0.00    +0.000 A 
ATOM      9  C   UNL     1       6.213  34.985  81.963  0.00  0.00    +0.000 A 
ATOM     10  C   UNL     1       4.413  33.465  81.496  0.00  0.00    +0.000 A 
ATOM     11  C   UNL     1       6.181  34.604  83.309  0.00  0.00    +0.000 A 
ATOM     12  C   UNL     1       4.421  33.034  82.822  0.00  0.00    +0.000 A 
ATOM     13  C   UNL     1       5.307  33.603  83.730  0.00  0.00    +0.000 A 
ENDBRANCH   4   8
BRANCH   1  15
ATOM     14  S   UNL     1       6.006  30.269  79.587  0.00  0.00    +0.000 S 
ATOM     15  C   UNL     1       6.068  31.620  78.529  0.00  0.00    +0.000 A 
ATOM     16  C   UNL     1       4.750  29.523  78.711  0.00  0.00    +0.000 A 
ATOM     17  C   UNL     1       5.177  31.435  77.479  0.00  0.00    +0.000 A 
ATOM     18  C   UNL     1       4.435  30.223  77.572  0.00  0.00    +0.000 A 
ENDBRANCH   1  15
BRANCH   3  19
ATOM     19  C   UNL     1       8.785  31.725  77.513  0.00  0.00    +0.000 C 
ATOM     20  O   UNL     1       9.496  31.154  78.329  0.00  0.00    +0.000 OA
ATOM     21  O   UNL     1       8.682  31.278  76.245  0.00  0.00    +0.000 OA
ENDBRANCH   3  19
BRANCH   5  22
ATOM     22  C   UNL     1       5.110  34.710  76.408  0.00  0.00    +0.000 C 
ATOM     23  O   UNL     1       4.066  35.271  76.707  0.00  0.00    +0.000 OA
ATOM     24  O   UNL     1       5.177  33.890  75.337  0.00  0.00    +0.000 OA
ENDBRANCH   5  22
BRANCH   5  25
ATOM     25  C   UNL     1       6.886  36.229  77.259  0.00  0.00    +0.000 C 
BRANCH  25  26
ATOM     26  C   UNL     1       8.157  36.647  78.032  0.00  0.00    +0.000 C 
ATOM     27  C   UNL     1       9.215  37.137  77.030  0.00  0.00    +0.000 C 
ATOM     28  C   UNL     1       7.924  37.751  79.059  0.00  0.00    +0.000 C 
ENDBRANCH  25  26
ENDBRANCH   5  25
TORSDOF 6
ENDMDL
MODEL 9
REMARK VINA RESULT:      -5.9      2.645      4.503
REMARK  Name = 
REMARK  8 active torsions:
REMARK  status: ('A' for Active; 'I' for Inactive)
REMARK    1  A    between atoms: C_2  and  C_5
REMARK    2  A    between atoms: C_8  and  C_11
REMARK    3  A    between atoms: C_9  and  C_14
REMARK    4  A    between atoms: C_10  and  C_15
REMARK    5  A    between atoms: C_10  and  C_16
REMARK    6  A    between atoms: C_16  and  C_23
REMARK    7  A    between atoms: C_23  and  C_26
REMARK    8  A    between atoms: C_23  and  C_27
REMARK                            x       y       z     vdW  Elec       q    Type
REMARK                         _______ _______ _______ _____ _____    ______ ____
ROOT
ATOM      1  C   UNL     1       7.503  33.399  78.694  0.00  0.00    +0.000 C 
ATOM      2  N   UNL     1       6.653  34.465  78.106  0.00  0.00    +0.000 N 
ATOM      3  C   UNL     1       7.967  33.993  80.032  0.00  0.00    +0.000 C 
ATOM      4  C   UNL     1       5.527  34.307  77.295  0.00  0.00    +0.000 C 
ATOM      5  C   UNL     1       7.027  35.806  78.664  0.00  0.00    +0.000 C 
ATOM      6  C   UNL     1       8.120  35.484  79.727  0.00  0.00    +0.000 C 
ATOM      7  O   UNL     1       4.932  35.297  76.867  0.00  0.00    +0.000 OA
ENDROOT
BRANCH   4   8
ATOM      8  C   UNL     1       4.959  32.981  76.939  0.00  0.00    +0.000 A 
ATOM      9  C   UNL     1       3.924  32.451  77.724  0.00  0.00    +0.000 A 
ATOM     10  C   UNL     1       5.347  32.289  75.795  0.00  0.00    +0.000 A 
ATOM     11  C   UNL     1       3.366  31.206  77.411  0.00  0.00    +0.000 A 
ATOM     12  C   UNL     1       4.840  31.020  75.517  0.00  0.00    +0.000 A 
ATOM     13  C   UNL     1       3.849  30.477  76.326  0.00  0.00    +0.000 A 
ENDBRANCH   4   8
BRANCH   1  15
ATOM     14  S   UNL     1      10.143  33.846  77.663  0.00  0.00    +0.000 S 
ATOM     15  C   UNL     1       8.659  32.989  77.774  0.00  0.00    +0.000 A 
ATOM     16  C   UNL     1      10.862  32.657  76.676  0.00  0.00    +0.000 A 
ATOM     17  C   UNL     1       8.717  31.845  76.988  0.00  0.00    +0.000 A 
ATOM     18  C   UNL     1       9.974  31.665  76.342  0.00  0.00    +0.000 A 
ENDBRANCH   1  15
BRANCH   3  19
ATOM     19  C   UNL     1       9.148  33.250  80.624  0.00  0.00    +0.000 C 
ATOM     20  O   UNL     1       9.211  32.029  80.662  0.00  0.00    +0.000 OA
ATOM     21  O   UNL     1      10.082  34.015  81.223  0.00  0.00    +0.000 OA
ENDBRANCH   3  19
BRANCH   5  22
ATOM     22  C   UNL     1       7.646  36.716  77.563  0.00  0.00    +0.000 C 
ATOM     23  O   UNL     1       8.784  36.589  77.137  0.00  0.00    +0.000 OA
ATOM     24  O   UNL     1       6.880  37.767  77.197  0.00  0.00    +0.000 OA
ENDBRANCH   5  22
BRANCH   5  25
ATOM     25  C   UNL     1       5.884  36.655  79.317  0.00  0.00    +0.000 C 
BRANCH  25  26
ATOM     26  C   UNL     1       5.057  36.083  80.489  0.00  0.00    +0.000 C 
ATOM     27  C   UNL     1       5.091  37.079  81.661  0.00  0.00    +0.000 C 
ATOM     28  C   UNL     1       3.599  35.804  80.142  0.00  0.00    +0.000 C 
ENDBRANCH  25  26
ENDBRANCH   5  25
TORSDOF 6
ENDMDL
