MODEL 1
REMARK VINA RESULT:      -7.7      0.000      0.000
REMARK  Name = 
REMARK  9 active torsions:
REMARK  status: ('A' for Active; 'I' for Inactive)
REMARK    1  A    between atoms: C_2  and  C_5
REMARK    2  A    between atoms: C_8  and  C_11
REMARK    3  A    between atoms: C_9  and  C_14
REMARK    4  A    between atoms: C_10  and  C_15
REMARK    5  A    between atoms: C_10  and  C_16
REMARK    6  A    between atoms: C_16  and  C_23
REMARK    7  A    between atoms: C_23  and  C_26
REMARK    8  A    between atoms: C_23  and  C_27
REMARK    9  A    between atoms: C_28  and  C_29
REMARK                            x       y       z     vdW  Elec       q    Type
REMARK                         _______ _______ _______ _____ _____    ______ ____
ROOT
ATOM      1  C   UNL     1       7.176  33.488  78.811  0.00  0.00    +0.000 C 
ATOM      2  N   UNL     1       6.541  33.157  77.522  0.00  0.00    +0.000 N 
ATOM      3  C   UNL     1       6.310  32.738  79.817  0.00  0.00    +0.000 C 
ATOM      4  C   UNL     1       7.141  33.110  76.265  0.00  0.00    +0.000 C 
ATOM      5  C   UNL     1       5.074  32.943  77.710  0.00  0.00    +0.000 C 
ATOM      6  C   UNL     1       4.901  32.873  79.262  0.00  0.00    +0.000 C 
ATOM      7  O   UNL     1       6.431  33.093  75.256  0.00  0.00    +0.000 OA
ENDROOT
BRANCH   4   8
ATOM      8  C   UNL     1       8.618  33.092  76.060  0.00  0.00    +0.000 A 
ATOM      9  C   UNL     1       9.409  34.240  75.991  0.00  0.00    +0.000 A 
ATOM     10  C   UNL     1       9.259  31.845  76.029  0.00  0.00    +0.000 A 
ATOM     11  C   UNL     1      10.767  34.156  75.679  0.00  0.00    +0.000 A 
ATOM     12  C   UNL     1      10.635  31.756  75.795  0.00  0.00    +0.000 A 
ATOM     13  C   UNL     1      11.392  32.911  75.560  0.00  0.00    +0.000 A 
BRANCH  13  14
ATOM     14  C   UNL     1      12.857  32.814  75.213  0.00  0.00    +0.000 C 
ATOM     15  F   UNL     1      13.656  33.559  76.027  0.00  0.00    +0.000 F 
ATOM     16  F   UNL     1      13.326  31.538  75.294  0.00  0.00    +0.000 F 
ATOM     17  F   UNL     1      13.122  33.234  73.946  0.00  0.00    +0.000 F 
ENDBRANCH  13  14
ENDBRANCH   4   8
BRANCH   1  19
ATOM     18  S   UNL     1       8.758  35.634  79.615  0.00  0.00    +0.000 S 
ATOM     19  C   UNL     1       7.300  34.993  78.947  0.00  0.00    +0.000 A 
ATOM     20  C   UNL     1       8.237  37.245  79.418  0.00  0.00    +0.000 A 
ATOM     21  C   UNL     1       6.429  36.019  78.625  0.00  0.00    +0.000 A 
ATOM     22  C   UNL     1       6.980  37.314  78.868  0.00  0.00    +0.000 A 
ENDBRANCH   1  19
BRANCH   3  23
ATOM     23  C   UNL     1       6.592  33.148  81.242  0.00  0.00    +0.000 C 
ATOM     24  O   UNL     1       7.572  32.773  81.869  0.00  0.00    +0.000 OA
ATOM     25  O   UNL     1       5.610  33.854  81.843  0.00  0.00    +0.000 OA
ENDBRANCH   3  23
BRANCH   5  26
ATOM     26  C   UNL     1       4.225  34.149  77.186  0.00  0.00    +0.000 C 
ATOM     27  O   UNL     1       4.464  34.741  76.139  0.00  0.00    +0.000 OA
ATOM     28  O   UNL     1       3.250  34.586  78.013  0.00  0.00    +0.000 OA
ENDBRANCH   5  26
BRANCH   5  29
ATOM     29  C   UNL     1       4.487  31.675  77.016  0.00  0.00    +0.000 C 
BRANCH  29  30
ATOM     30  C   UNL     1       5.032  30.275  77.377  0.00  0.00    +0.000 C 
ATOM     31  C   UNL     1       3.862  29.281  77.426  0.00  0.00    +0.000 C 
ATOM     32  C   UNL     1       6.069  29.727  76.402  0.00  0.00    +0.000 C 
ENDBRANCH  29  30
ENDBRANCH   5  29
TORSDOF 7
ENDMDL
MODEL 2
REMARK VINA RESULT:      -7.3      1.745      4.990
REMARK  Name = 
REMARK  9 active torsions:
REMARK  status: ('A' for Active; 'I' for Inactive)
REMARK    1  A    between atoms: C_2  and  C_5
REMARK    2  A    between atoms: C_8  and  C_11
REMARK    3  A    between atoms: C_9  and  C_14
REMARK    4  A    between atoms: C_10  and  C_15
REMARK    5  A    between atoms: C_10  and  C_16
REMARK    6  A    between atoms: C_16  and  C_23
REMARK    7  A    between atoms: C_23  and  C_26
REMARK    8  A    between atoms: C_23  and  C_27
REMARK    9  A    between atoms: C_28  and  C_29
REMARK                            x       y       z     vdW  Elec       q    Type
REMARK                         _______ _______ _______ _____ _____    ______ ____
ROOT
ATOM      1  C   UNL     1       6.878  33.993  77.679  0.00  0.00    +0.000 C 
ATOM      2  N   UNL     1       7.958  34.336  78.622  0.00  0.00    +0.000 N 
ATOM      3  C   UNL     1       5.888  35.137  77.866  0.00  0.00    +0.000 C 
ATOM      4  C   UNL     1       9.304  33.986  78.538  0.00  0.00    +0.000 C 
ATOM      5  C   UNL     1       7.401  35.078  79.794  0.00  0.00    +0.000 C 
ATOM      6  C   UNL     1       5.942  35.428  79.358  0.00  0.00    +0.000 C 
ATOM      7  O   UNL     1      10.023  34.106  79.534  0.00  0.00    +0.000 OA
ENDROOT
BRANCH   4   8
ATOM      8  C   UNL     1       9.938  33.452  77.298  0.00  0.00    +0.000 A 
ATOM      9  C   UNL     1       9.950  32.102  76.949  0.00  0.00    +0.000 A 
ATOM     10  C   UNL     1      10.473  34.376  76.388  0.00  0.00    +0.000 A 
ATOM     11  C   UNL     1      10.663  31.656  75.835  0.00  0.00    +0.000 A 
ATOM     12  C   UNL     1      11.121  33.940  75.228  0.00  0.00    +0.000 A 
ATOM     13  C   UNL     1      11.273  32.570  74.971  0.00  0.00    +0.000 A 
BRANCH  13  14
ATOM     14  C   UNL     1      12.054  32.095  73.771  0.00  0.00    +0.000 C 
ATOM     15  F   UNL     1      11.327  31.306  72.931  0.00  0.00    +0.000 F 
ATOM     16  F   UNL     1      12.516  33.126  73.011  0.00  0.00    +0.000 F 
ATOM     17  F   UNL     1      13.147  31.362  74.118  0.00  0.00    +0.000 F 
ENDBRANCH  13  14
ENDBRANCH   4   8
BRANCH   1  19
ATOM     18  S   UNL     1       6.303  31.489  76.603  0.00  0.00    +0.000 S 
ATOM     19  C   UNL     1       6.402  32.577  77.941  0.00  0.00    +0.000 A 
ATOM     20  C   UNL     1       5.796  30.194  77.588  0.00  0.00    +0.000 A 
ATOM     21  C   UNL     1       6.007  31.941  79.105  0.00  0.00    +0.000 A 
ATOM     22  C   UNL     1       5.687  30.564  78.907  0.00  0.00    +0.000 A 
ENDBRANCH   1  19
BRANCH   3  23
ATOM     23  C   UNL     1       4.557  34.865  77.209  0.00  0.00    +0.000 C 
ATOM     24  O   UNL     1       4.435  34.593  76.023  0.00  0.00    +0.000 OA
ATOM     25  O   UNL     1       3.474  35.079  77.988  0.00  0.00    +0.000 OA
ENDBRANCH   3  23
BRANCH   5  26
ATOM     26  C   UNL     1       7.318  34.186  81.078  0.00  0.00    +0.000 C 
ATOM     27  O   UNL     1       8.220  33.440  81.442  0.00  0.00    +0.000 OA
ATOM     28  O   UNL     1       6.134  34.200  81.728  0.00  0.00    +0.000 OA
ENDBRANCH   5  26
BRANCH   5  29
ATOM     29  C   UNL     1       8.190  36.357  80.214  0.00  0.00    +0.000 C 
BRANCH  29  30
ATOM     30  C   UNL     1       8.117  37.630  79.342  0.00  0.00    +0.000 C 
ATOM     31  C   UNL     1       8.776  38.793  80.099  0.00  0.00    +0.000 C 
ATOM     32  C   UNL     1       8.801  37.510  77.984  0.00  0.00    +0.000 C 
ENDBRANCH  29  30
ENDBRANCH   5  29
TORSDOF 7
ENDMDL
MODEL 3
REMARK VINA RESULT:      -7.3      1.490      2.013
REMARK  Name = 
REMARK  9 active torsions:
REMARK  status: ('A' for Active; 'I' for Inactive)
REMARK    1  A    between atoms: C_2  and  C_5
REMARK    2  A    between atoms: C_8  and  C_11
REMARK    3  A    between atoms: C_9  and  C_14
REMARK    4  A    between atoms: C_10  and  C_15
REMARK    5  A    between atoms: C_10  and  C_16
REMARK    6  A    between atoms: C_16  and  C_23
REMARK    7  A    between atoms: C_23  and  C_26
REMARK    8  A    between atoms: C_23  and  C_27
REMARK    9  A    between atoms: C_28  and  C_29
REMARK                            x       y       z     vdW  Elec       q    Type
REMARK                         _______ _______ _______ _____ _____    ______ ____
ROOT
ATOM      1  C   UNL     1       7.284  32.388  79.243  0.00  0.00    +0.000 C 
ATOM      2  N   UNL     1       6.534  32.954  78.106  0.00  0.00    +0.000 N 
ATOM      3  C   UNL     1       6.260  31.470  79.901  0.00  0.00    +0.000 C 
ATOM      4  C   UNL     1       7.046  33.421  76.897  0.00  0.00    +0.000 C 
ATOM      5  C   UNL     1       5.082  33.052  78.445  0.00  0.00    +0.000 C 
ATOM      6  C   UNL     1       4.948  32.227  79.766  0.00  0.00    +0.000 C 
ATOM      7  O   UNL     1       6.333  34.114  76.166  0.00  0.00    +0.000 OA
ENDROOT
BRANCH   4   8
ATOM      8  C   UNL     1       8.434  33.140  76.430  0.00  0.00    +0.000 A 
ATOM      9  C   UNL     1       8.909  31.866  76.117  0.00  0.00    +0.000 A 
ATOM     10  C   UNL     1       9.281  34.235  76.203  0.00  0.00    +0.000 A 
ATOM     11  C   UNL     1      10.252  31.660  75.799  0.00  0.00    +0.000 A 
ATOM     12  C   UNL     1      10.609  34.041  75.808  0.00  0.00    +0.000 A 
ATOM     13  C   UNL     1      11.123  32.745  75.659  0.00  0.00    +0.000 A 
BRANCH  13  14
ATOM     14  C   UNL     1      12.578  32.529  75.326  0.00  0.00    +0.000 C 
ATOM     15  F   UNL     1      12.951  31.219  75.360  0.00  0.00    +0.000 F 
ATOM     16  F   UNL     1      12.897  32.977  74.081  0.00  0.00    +0.000 F 
ATOM     17  F   UNL     1      13.411  33.176  76.186  0.00  0.00    +0.000 F 
ENDBRANCH  13  14
ENDBRANCH   4   8
BRANCH   1  19
ATOM     18  S   UNL     1       9.572  33.831  79.908  0.00  0.00    +0.000 S 
ATOM     19  C   UNL     1       7.882  33.511  80.069  0.00  0.00    +0.000 A 
ATOM     20  C   UNL     1       9.511  35.141  80.996  0.00  0.00    +0.000 A 
ATOM     21  C   UNL     1       7.314  34.384  80.980  0.00  0.00    +0.000 A 
ATOM     22  C   UNL     1       8.244  35.339  81.491  0.00  0.00    +0.000 A 
ENDBRANCH   1  19
BRANCH   3  23
ATOM     23  C   UNL     1       6.704  30.988  81.260  0.00  0.00    +0.000 C 
ATOM     24  O   UNL     1       7.803  30.494  81.474  0.00  0.00    +0.000 OA
ATOM     25  O   UNL     1       5.752  31.004  82.218  0.00  0.00    +0.000 OA
ENDBRANCH   3  23
BRANCH   5  26
ATOM     26  C   UNL     1       4.640  34.522  78.751  0.00  0.00    +0.000 C 
ATOM     27  O   UNL     1       4.678  35.020  79.870  0.00  0.00    +0.000 OA
ATOM     28  O   UNL     1       4.106  35.204  77.714  0.00  0.00    +0.000 OA
ENDBRANCH   5  26
BRANCH   5  29
ATOM     29  C   UNL     1       4.101  32.531  77.349  0.00  0.00    +0.000 C 
BRANCH  29  30
ATOM     30  C   UNL     1       4.222  31.080  76.831  0.00  0.00    +0.000 C 
ATOM     31  C   UNL     1       2.833  30.426  76.851  0.00  0.00    +0.000 C 
ATOM     32  C   UNL     1       4.776  30.956  75.415  0.00  0.00    +0.000 C 
ENDBRANCH  29  30
ENDBRANCH   5  29
TORSDOF 7
ENDMDL
MODEL 4
REMARK VINA RESULT:      -7.3      2.241      4.851
REMARK  Name = 
REMARK  9 active torsions:
REMARK  status: ('A' for Active; 'I' for Inactive)
REMARK    1  A    between atoms: C_2  and  C_5
REMARK    2  A    between atoms: C_8  and  C_11
REMARK    3  A    between atoms: C_9  and  C_14
REMARK    4  A    between atoms: C_10  and  C_15
REMARK    5  A    between atoms: C_10  and  C_16
REMARK    6  A    between atoms: C_16  and  C_23
REMARK    7  A    between atoms: C_23  and  C_26
REMARK    8  A    between atoms: C_23  and  C_27
REMARK    9  A    between atoms: C_28  and  C_29
REMARK                            x       y       z     vdW  Elec       q    Type
REMARK                         _______ _______ _______ _____ _____    ______ ____
ROOT
ATOM      1  C   UNL     1       6.785  32.797  78.466  0.00  0.00    +0.000 C 
ATOM      2  N   UNL     1       7.770  32.121  79.331  0.00  0.00    +0.000 N 
ATOM      3  C   UNL     1       5.999  33.653  79.453  0.00  0.00    +0.000 C 
ATOM      4  C   UNL     1       9.031  31.647  78.976  0.00  0.00    +0.000 C 
ATOM      5  C   UNL     1       7.200  31.916  80.698  0.00  0.00    +0.000 C 
ATOM      6  C   UNL     1       5.900  32.784  80.696  0.00  0.00    +0.000 C 
ATOM      7  O   UNL     1       9.617  30.865  79.729  0.00  0.00    +0.000 OA
ENDROOT
BRANCH   4   8
ATOM      8  C   UNL     1       9.722  32.023  77.709  0.00  0.00    +0.000 A 
ATOM      9  C   UNL     1       9.542  31.357  76.496  0.00  0.00    +0.000 A 
ATOM     10  C   UNL     1      10.530  33.170  77.720  0.00  0.00    +0.000 A 
ATOM     11  C   UNL     1      10.310  31.686  75.377  0.00  0.00    +0.000 A 
ATOM     12  C   UNL     1      11.242  33.552  76.579  0.00  0.00    +0.000 A 
ATOM     13  C   UNL     1      11.183  32.778  75.412  0.00  0.00    +0.000 A 
BRANCH  13  14
ATOM     14  C   UNL     1      12.023  33.132  74.211  0.00  0.00    +0.000 C 
ATOM     15  F   UNL     1      11.937  32.219  73.203  0.00  0.00    +0.000 F 
ATOM     16  F   UNL     1      11.669  34.328  73.664  0.00  0.00    +0.000 F 
ATOM     17  F   UNL     1      13.347  33.231  74.510  0.00  0.00    +0.000 F 
ENDBRANCH  13  14
ENDBRANCH   4   8
BRANCH   1  19
ATOM     18  S   UNL     1       5.715  32.117  75.987  0.00  0.00    +0.000 S 
ATOM     19  C   UNL     1       6.032  31.765  77.648  0.00  0.00    +0.000 A 
ATOM     20  C   UNL     1       4.957  30.612  75.729  0.00  0.00    +0.000 A 
ATOM     21  C   UNL     1       5.518  30.525  77.982  0.00  0.00    +0.000 A 
ATOM     22  C   UNL     1       4.926  29.849  76.872  0.00  0.00    +0.000 A 
ENDBRANCH   1  19
BRANCH   3  23
ATOM     23  C   UNL     1       4.743  34.230  78.846  0.00  0.00    +0.000 C 
ATOM     24  O   UNL     1       3.622  33.811  79.094  0.00  0.00    +0.000 OA
ATOM     25  O   UNL     1       4.941  35.164  77.890  0.00  0.00    +0.000 OA
ENDBRANCH   3  23
BRANCH   5  26
ATOM     26  C   UNL     1       6.785  30.429  80.952  0.00  0.00    +0.000 C 
ATOM     27  O   UNL     1       7.504  29.472  80.689  0.00  0.00    +0.000 OA
ATOM     28  O   UNL     1       5.522  30.237  81.393  0.00  0.00    +0.000 OA
ENDBRANCH   5  26
BRANCH   5  29
ATOM     29  C   UNL     1       8.140  32.305  81.881  0.00  0.00    +0.000 C 
BRANCH  29  30
ATOM     30  C   UNL     1       8.419  33.794  82.189  0.00  0.00    +0.000 C 
ATOM     31  C   UNL     1       8.628  33.960  83.701  0.00  0.00    +0.000 C 
ATOM     32  C   UNL     1       9.641  34.370  81.482  0.00  0.00    +0.000 C 
ENDBRANCH  29  30
ENDBRANCH   5  29
TORSDOF 7
ENDMDL
MODEL 5
REMARK VINA RESULT:      -7.2      3.676      5.687
REMARK  Name = 
REMARK  9 active torsions:
REMARK  status: ('A' for Active; 'I' for Inactive)
REMARK    1  A    between atoms: C_2  and  C_5
REMARK    2  A    between atoms: C_8  and  C_11
REMARK    3  A    between atoms: C_9  and  C_14
REMARK    4  A    between atoms: C_10  and  C_15
REMARK    5  A    between atoms: C_10  and  C_16
REMARK    6  A    between atoms: C_16  and  C_23
REMARK    7  A    between atoms: C_23  and  C_26
REMARK    8  A    between atoms: C_23  and  C_27
REMARK    9  A    between atoms: C_28  and  C_29
REMARK                            x       y       z     vdW  Elec       q    Type
REMARK                         _______ _______ _______ _____ _____    ______ ____
ROOT
ATOM      1  C   UNL     1       7.408  32.894  79.118  0.00  0.00    +0.000 C 
ATOM      2  N   UNL     1       7.556  33.199  77.683  0.00  0.00    +0.000 N 
ATOM      3  C   UNL     1       8.236  31.625  79.281  0.00  0.00    +0.000 C 
ATOM      4  C   UNL     1       7.478  34.446  77.066  0.00  0.00    +0.000 C 
ATOM      5  C   UNL     1       7.730  31.937  76.903  0.00  0.00    +0.000 C 
ATOM      6  C   UNL     1       7.978  30.850  77.999  0.00  0.00    +0.000 C 
ATOM      7  O   UNL     1       7.345  34.507  75.841  0.00  0.00    +0.000 OA
ENDROOT
BRANCH   4   8
ATOM      8  C   UNL     1       7.531  35.737  77.812  0.00  0.00    +0.000 A 
ATOM      9  C   UNL     1       8.596  36.122  78.627  0.00  0.00    +0.000 A 
ATOM     10  C   UNL     1       6.490  36.654  77.606  0.00  0.00    +0.000 A 
ATOM     11  C   UNL     1       8.529  37.290  79.389  0.00  0.00    +0.000 A 
ATOM     12  C   UNL     1       6.456  37.863  78.308  0.00  0.00    +0.000 A 
ATOM     13  C   UNL     1       7.447  38.166  79.251  0.00  0.00    +0.000 A 
BRANCH  13  14
ATOM     14  C   UNL     1       7.363  39.423  80.079  0.00  0.00    +0.000 C 
ATOM     15  F   UNL     1       6.802  39.227  81.305  0.00  0.00    +0.000 F 
ATOM     16  F   UNL     1       8.586  39.975  80.310  0.00  0.00    +0.000 F 
ATOM     17  F   UNL     1       6.618  40.393  79.481  0.00  0.00    +0.000 F 
ENDBRANCH  13  14
ENDBRANCH   4   8
BRANCH   1  19
ATOM     18  S   UNL     1       5.288  34.134  80.431  0.00  0.00    +0.000 S 
ATOM     19  C   UNL     1       5.936  32.846  79.480  0.00  0.00    +0.000 A 
ATOM     20  C   UNL     1       3.714  33.481  80.389  0.00  0.00    +0.000 A 
ATOM     21  C   UNL     1       4.947  31.923  79.185  0.00  0.00    +0.000 A 
ATOM     22  C   UNL     1       3.664  32.304  79.682  0.00  0.00    +0.000 A 
ENDBRANCH   1  19
BRANCH   3  23
ATOM     23  C   UNL     1       8.011  30.954  80.614  0.00  0.00    +0.000 C 
ATOM     24  O   UNL     1       8.360  31.441  81.680  0.00  0.00    +0.000 OA
ATOM     25  O   UNL     1       7.517  29.698  80.552  0.00  0.00    +0.000 OA
ENDBRANCH   3  23
BRANCH   5  26
ATOM     26  C   UNL     1       6.437  31.539  76.117  0.00  0.00    +0.000 C 
ATOM     27  O   UNL     1       5.662  32.357  75.633  0.00  0.00    +0.000 OA
ATOM     28  O   UNL     1       6.151  30.220  76.081  0.00  0.00    +0.000 OA
ENDBRANCH   5  26
BRANCH   5  29
ATOM     29  C   UNL     1       8.882  31.952  75.850  0.00  0.00    +0.000 C 
BRANCH  29  30
ATOM     30  C   UNL     1      10.351  31.814  76.309  0.00  0.00    +0.000 C 
ATOM     31  C   UNL     1      11.219  31.439  75.099  0.00  0.00    +0.000 C 
ATOM     32  C   UNL     1      10.941  33.073  76.935  0.00  0.00    +0.000 C 
ENDBRANCH  29  30
ENDBRANCH   5  29
TORSDOF 7
ENDMDL
MODEL 6
REMARK VINA RESULT:      -6.7      3.840      6.788
REMARK  Name = 
REMARK  9 active torsions:
REMARK  status: ('A' for Active; 'I' for Inactive)
REMARK    1  A    between atoms: C_2  and  C_5
REMARK    2  A    between atoms: C_8  and  C_11
REMARK    3  A    between atoms: C_9  and  C_14
REMARK    4  A    between atoms: C_10  and  C_15
REMARK    5  A    between atoms: C_10  and  C_16
REMARK    6  A    between atoms: C_16  and  C_23
REMARK    7  A    between atoms: C_23  and  C_26
REMARK    8  A    between atoms: C_23  and  C_27
REMARK    9  A    between atoms: C_28  and  C_29
REMARK                            x       y       z     vdW  Elec       q    Type
REMARK                         _______ _______ _______ _____ _____    ______ ____
ROOT
ATOM      1  C   UNL     1       7.874  34.169  78.030  0.00  0.00    +0.000 C 
ATOM      2  N   UNL     1       7.004  34.878  78.985  0.00  0.00    +0.000 N 
ATOM      3  C   UNL     1       8.995  35.172  77.782  0.00  0.00    +0.000 C 
ATOM      4  C   UNL     1       6.154  34.321  79.938  0.00  0.00    +0.000 C 
ATOM      5  C   UNL     1       7.078  36.353  78.753  0.00  0.00    +0.000 C 
ATOM      6  C   UNL     1       8.288  36.518  77.777  0.00  0.00    +0.000 C 
ATOM      7  O   UNL     1       5.292  35.028  80.467  0.00  0.00    +0.000 OA
ENDROOT
BRANCH   4   8
ATOM      8  C   UNL     1       6.213  32.890  80.355  0.00  0.00    +0.000 A 
ATOM      9  C   UNL     1       7.260  32.336  81.092  0.00  0.00    +0.000 A 
ATOM     10  C   UNL     1       5.105  32.079  80.068  0.00  0.00    +0.000 A 
ATOM     11  C   UNL     1       7.310  30.965  81.347  0.00  0.00    +0.000 A 
ATOM     12  C   UNL     1       5.114  30.718  80.392  0.00  0.00    +0.000 A 
ATOM     13  C   UNL     1       6.244  30.136  80.983  0.00  0.00    +0.000 A 
BRANCH  13  14
ATOM     14  C   UNL     1       6.295  28.652  81.246  0.00  0.00    +0.000 C 
ATOM     15  F   UNL     1       5.114  28.019  81.001  0.00  0.00    +0.000 F 
ATOM     16  F   UNL     1       7.225  28.021  80.478  0.00  0.00    +0.000 F 
ATOM     17  F   UNL     1       6.612  28.362  82.537  0.00  0.00    +0.000 F 
ENDBRANCH  13  14
ENDBRANCH   4   8
BRANCH   1  19
ATOM     18  S   UNL     1       6.527  32.054  76.818  0.00  0.00    +0.000 S 
ATOM     19  C   UNL     1       7.053  33.698  76.844  0.00  0.00    +0.000 A 
ATOM     20  C   UNL     1       5.689  32.260  75.348  0.00  0.00    +0.000 A 
ATOM     21  C   UNL     1       6.613  34.360  75.711  0.00  0.00    +0.000 A 
ATOM     22  C   UNL     1       5.804  33.541  74.866  0.00  0.00    +0.000 A 
ENDBRANCH   1  19
BRANCH   3  23
ATOM     23  C   UNL     1       9.870  34.786  76.615  0.00  0.00    +0.000 C 
ATOM     24  O   UNL     1      10.102  33.627  76.301  0.00  0.00    +0.000 OA
ATOM     25  O   UNL     1      10.507  35.811  76.008  0.00  0.00    +0.000 OA
ENDBRANCH   3  23
BRANCH   5  26
ATOM     26  C   UNL     1       5.803  36.906  78.034  0.00  0.00    +0.000 C 
ATOM     27  O   UNL     1       4.934  36.189  77.552  0.00  0.00    +0.000 OA
ATOM     28  O   UNL     1       5.752  38.247  77.874  0.00  0.00    +0.000 OA
ENDBRANCH   5  26
BRANCH   5  29
ATOM     29  C   UNL     1       7.259  37.225  80.033  0.00  0.00    +0.000 C 
BRANCH  29  30
ATOM     30  C   UNL     1       8.498  38.137  80.178  0.00  0.00    +0.000 C 
ATOM     31  C   UNL     1       8.031  39.588  80.370  0.00  0.00    +0.000 C 
ATOM     32  C   UNL     1       9.413  37.783  81.346  0.00  0.00    +0.000 C 
ENDBRANCH  29  30
ENDBRANCH   5  29
TORSDOF 7
ENDMDL
MODEL 7
REMARK VINA RESULT:      -6.7      1.646      2.066
REMARK  Name = 
REMARK  9 active torsions:
REMARK  status: ('A' for Active; 'I' for Inactive)
REMARK    1  A    between atoms: C_2  and  C_5
REMARK    2  A    between atoms: C_8  and  C_11
REMARK    3  A    between atoms: C_9  and  C_14
REMARK    4  A    between atoms: C_10  and  C_15
REMARK    5  A    between atoms: C_10  and  C_16
REMARK    6  A    between atoms: C_16  and  C_23
REMARK    7  A    between atoms: C_23  and  C_26
REMARK    8  A    between atoms: C_23  and  C_27
REMARK    9  A    between atoms: C_28  and  C_29
REMARK                            x       y       z     vdW  Elec       q    Type
REMARK                         _______ _______ _______ _____ _____    ______ ____
ROOT
ATOM      1  C   UNL     1       6.950  32.759  79.485  0.00  0.00    +0.000 C 
ATOM      2  N   UNL     1       6.102  33.203  78.363  0.00  0.00    +0.000 N 
ATOM      3  C   UNL     1       6.169  31.581  80.055  0.00  0.00    +0.000 C 
ATOM      4  C   UNL     1       6.503  33.858  77.200  0.00  0.00    +0.000 C 
ATOM      5  C   UNL     1       4.664  32.927  78.663  0.00  0.00    +0.000 C 
ATOM      6  C   UNL     1       4.714  32.008  79.927  0.00  0.00    +0.000 C 
ATOM      7  O   UNL     1       5.654  34.406  76.492  0.00  0.00    +0.000 OA
ENDROOT
BRANCH   4   8
ATOM      8  C   UNL     1       7.924  33.951  76.758  0.00  0.00    +0.000 A 
ATOM      9  C   UNL     1       8.619  32.908  76.144  0.00  0.00    +0.000 A 
ATOM     10  C   UNL     1       8.568  35.190  76.885  0.00  0.00    +0.000 A 
ATOM     11  C   UNL     1       9.981  33.023  75.863  0.00  0.00    +0.000 A 
ATOM     12  C   UNL     1       9.914  35.334  76.532  0.00  0.00    +0.000 A 
ATOM     13  C   UNL     1      10.650  34.234  76.072  0.00  0.00    +0.000 A 
BRANCH  13  14
ATOM     14  C   UNL     1      12.124  34.361  75.780  0.00  0.00    +0.000 C 
ATOM     15  F   UNL     1      12.912  33.736  76.699  0.00  0.00    +0.000 F 
ATOM     16  F   UNL     1      12.462  33.831  74.573  0.00  0.00    +0.000 F 
ATOM     17  F   UNL     1      12.540  35.657  75.753  0.00  0.00    +0.000 F 
ENDBRANCH  13  14
ENDBRANCH   4   8
BRANCH   1  19
ATOM     18  S   UNL     1       8.891  34.436  80.570  0.00  0.00    +0.000 S 
ATOM     19  C   UNL     1       7.247  33.936  80.395  0.00  0.00    +0.000 A 
ATOM     20  C   UNL     1       8.473  35.726  81.603  0.00  0.00    +0.000 A 
ATOM     21  C   UNL     1       6.418  34.738  81.160  0.00  0.00    +0.000 A 
ATOM     22  C   UNL     1       7.119  35.785  81.830  0.00  0.00    +0.000 A 
ENDBRANCH   1  19
BRANCH   3  23
ATOM     23  C   UNL     1       6.697  31.130  81.395  0.00  0.00    +0.000 C 
ATOM     24  O   UNL     1       7.853  30.776  81.579  0.00  0.00    +0.000 OA
ATOM     25  O   UNL     1       5.768  31.005  82.369  0.00  0.00    +0.000 OA
ENDBRANCH   3  23
BRANCH   5  26
ATOM     26  C   UNL     1       3.876  34.224  79.044  0.00  0.00    +0.000 C 
ATOM     27  O   UNL     1       3.914  35.256  78.384  0.00  0.00    +0.000 OA
ATOM     28  O   UNL     1       3.214  34.186  80.221  0.00  0.00    +0.000 OA
ENDBRANCH   5  26
BRANCH   5  29
ATOM     29  C   UNL     1       3.854  32.259  77.509  0.00  0.00    +0.000 C 
BRANCH  29  30
ATOM     30  C   UNL     1       4.332  30.919  76.904  0.00  0.00    +0.000 C 
ATOM     31  C   UNL     1       3.158  29.929  76.896  0.00  0.00    +0.000 C 
ATOM     32  C   UNL     1       4.867  31.022  75.479  0.00  0.00    +0.000 C 
ENDBRANCH  29  30
ENDBRANCH   5  29
TORSDOF 7
ENDMDL
MODEL 8
REMARK VINA RESULT:      -6.4      4.337      6.537
REMARK  Name = 
REMARK  9 active torsions:
REMARK  status: ('A' for Active; 'I' for Inactive)
REMARK    1  A    between atoms: C_2  and  C_5
REMARK    2  A    between atoms: C_8  and  C_11
REMARK    3  A    between atoms: C_9  and  C_14
REMARK    4  A    between atoms: C_10  and  C_15
REMARK    5  A    between atoms: C_10  and  C_16
REMARK    6  A    between atoms: C_16  and  C_23
REMARK    7  A    between atoms: C_23  and  C_26
REMARK    8  A    between atoms: C_23  and  C_27
REMARK    9  A    between atoms: C_28  and  C_29
REMARK                            x       y       z     vdW  Elec       q    Type
REMARK                         _______ _______ _______ _____ _____    ______ ____
ROOT
ATOM      1  C   UNL     1       8.418  34.402  79.794  0.00  0.00    +0.000 C 
ATOM      2  N   UNL     1       8.866  34.843  78.460  0.00  0.00    +0.000 N 
ATOM      3  C   UNL     1       9.354  33.238  80.098  0.00  0.00    +0.000 C 
ATOM      4  C   UNL     1       8.763  36.117  77.905  0.00  0.00    +0.000 C 
ATOM      5  C   UNL     1       9.403  33.681  77.687  0.00  0.00    +0.000 C 
ATOM      6  C   UNL     1       9.529  32.546  78.755  0.00  0.00    +0.000 C 
ATOM      7  O   UNL     1       8.925  36.263  76.691  0.00  0.00    +0.000 OA
ENDROOT
BRANCH   4   8
ATOM      8  C   UNL     1       8.449  37.337  78.704  0.00  0.00    +0.000 A 
ATOM      9  C   UNL     1       9.411  38.116  79.347  0.00  0.00    +0.000 A 
ATOM     10  C   UNL     1       7.117  37.776  78.729  0.00  0.00    +0.000 A 
ATOM     11  C   UNL     1       9.038  39.176  80.175  0.00  0.00    +0.000 A 
ATOM     12  C   UNL     1       6.747  38.887  79.494  0.00  0.00    +0.000 A 
ATOM     13  C   UNL     1       7.697  39.563  80.272  0.00  0.00    +0.000 A 
BRANCH  13  14
ATOM     14  C   UNL     1       7.286  40.701  81.172  0.00  0.00    +0.000 C 
ATOM     15  F   UNL     1       8.290  41.140  81.981  0.00  0.00    +0.000 F 
ATOM     16  F   UNL     1       6.865  41.790  80.472  0.00  0.00    +0.000 F 
ATOM     17  F   UNL     1       6.260  40.365  82.001  0.00  0.00    +0.000 F 
ENDBRANCH  13  14
ENDBRANCH   4   8
BRANCH   1  19
ATOM     18  S   UNL     1       5.939  34.930  80.948  0.00  0.00    +0.000 S 
ATOM     19  C   UNL     1       6.925  34.139  79.770  0.00  0.00    +0.000 A 
ATOM     20  C   UNL     1       4.505  34.258  80.318  0.00  0.00    +0.000 A 
ATOM     21  C   UNL     1       6.145  33.347  78.946  0.00  0.00    +0.000 A 
ATOM     22  C   UNL     1       4.751  33.438  79.242  0.00  0.00    +0.000 A 
ENDBRANCH   1  19
BRANCH   3  23
ATOM     23  C   UNL     1       8.910  32.435  81.296  0.00  0.00    +0.000 C 
ATOM     24  O   UNL     1       8.451  31.305  81.217  0.00  0.00    +0.000 OA
ATOM     25  O   UNL     1       8.919  33.101  82.472  0.00  0.00    +0.000 OA
ENDBRANCH   3  23
BRANCH   5  26
ATOM     26  C   UNL     1       8.409  33.192  76.582  0.00  0.00    +0.000 C 
ATOM     27  O   UNL     1       8.163  32.010  76.370  0.00  0.00    +0.000 OA
ATOM     28  O   UNL     1       7.899  34.152  75.781  0.00  0.00    +0.000 OA
ENDBRANCH   5  26
BRANCH   5  29
ATOM     29  C   UNL     1      10.761  33.930  76.961  0.00  0.00    +0.000 C 
BRANCH  29  30
ATOM     30  C   UNL     1      11.026  33.292  75.578  0.00  0.00    +0.000 C 
ATOM     31  C   UNL     1      11.670  34.342  74.660  0.00  0.00    +0.000 C 
ATOM     32  C   UNL     1      11.940  32.072  75.606  0.00  0.00    +0.000 C 
ENDBRANCH  29  30
ENDBRANCH   5  29
TORSDOF 7
ENDMDL
MODEL 9
REMARK VINA RESULT:      -6.4      3.174      5.768
REMARK  Name = 
REMARK  9 active torsions:
REMARK  status: ('A' for Active; 'I' for Inactive)
REMARK    1  A    between atoms: C_2  and  C_5
REMARK    2  A    between atoms: C_8  and  C_11
REMARK    3  A    between atoms: C_9  and  C_14
REMARK    4  A    between atoms: C_10  and  C_15
REMARK    5  A    between atoms: C_10  and  C_16
REMARK    6  A    between atoms: C_16  and  C_23
REMARK    7  A    between atoms: C_23  and  C_26
REMARK    8  A    between atoms: C_23  and  C_27
REMARK    9  A    between atoms: C_28  and  C_29
REMARK                            x       y       z     vdW  Elec       q    Type
REMARK                         _______ _______ _______ _____ _____    ______ ____
ROOT
ATOM      1  C   UNL     1       6.154  33.314  77.446  0.00  0.00    +0.000 C 
ATOM      2  N   UNL     1       5.763  32.966  78.824  0.00  0.00    +0.000 N 
ATOM      3  C   UNL     1       4.969  32.819  76.623  0.00  0.00    +0.000 C 
ATOM      4  C   UNL     1       6.158  33.593  80.004  0.00  0.00    +0.000 C 
ATOM      5  C   UNL     1       4.908  31.740  78.824  0.00  0.00    +0.000 C 
ATOM      6  C   UNL     1       4.553  31.531  77.316  0.00  0.00    +0.000 C 
ATOM      7  O   UNL     1       5.974  33.022  81.083  0.00  0.00    +0.000 OA
ENDROOT
BRANCH   4   8
ATOM      8  C   UNL     1       6.815  34.931  80.044  0.00  0.00    +0.000 A 
ATOM      9  C   UNL     1       6.224  36.103  79.570  0.00  0.00    +0.000 A 
ATOM     10  C   UNL     1       8.061  35.029  80.679  0.00  0.00    +0.000 A 
ATOM     11  C   UNL     1       6.941  37.300  79.529  0.00  0.00    +0.000 A 
ATOM     12  C   UNL     1       8.752  36.245  80.711  0.00  0.00    +0.000 A 
ATOM     13  C   UNL     1       8.222  37.380  80.083  0.00  0.00    +0.000 A 
BRANCH  13  14
ATOM     14  C   UNL     1       9.005  38.668  80.033  0.00  0.00    +0.000 C 
ATOM     15  F   UNL     1       9.987  38.740  80.976  0.00  0.00    +0.000 F 
ATOM     16  F   UNL     1       9.622  38.853  78.834  0.00  0.00    +0.000 F 
ATOM     17  F   UNL     1       8.222  39.763  80.228  0.00  0.00    +0.000 F 
ENDBRANCH  13  14
ENDBRANCH   4   8
BRANCH   1  19
ATOM     18  S   UNL     1       8.891  33.797  77.273  0.00  0.00    +0.000 S 
ATOM     19  C   UNL     1       7.528  32.745  77.146  0.00  0.00    +0.000 A 
ATOM     20  C   UNL     1       9.990  32.554  76.882  0.00  0.00    +0.000 A 
ATOM     21  C   UNL     1       7.934  31.477  76.769  0.00  0.00    +0.000 A 
ATOM     22  C   UNL     1       9.352  31.360  76.646  0.00  0.00    +0.000 A 
ENDBRANCH   1  19
BRANCH   3  23
ATOM     23  C   UNL     1       5.257  32.808  75.142  0.00  0.00    +0.000 C 
ATOM     24  O   UNL     1       5.235  31.794  74.459  0.00  0.00    +0.000 OA
ATOM     25  O   UNL     1       5.684  33.982  74.628  0.00  0.00    +0.000 OA
ENDBRANCH   3  23
BRANCH   5  26
ATOM     26  C   UNL     1       5.683  30.473  79.315  0.00  0.00    +0.000 C 
ATOM     27  O   UNL     1       6.868  30.485  79.629  0.00  0.00    +0.000 OA
ATOM     28  O   UNL     1       4.995  29.311  79.281  0.00  0.00    +0.000 OA
ENDBRANCH   5  26
BRANCH   5  29
ATOM     29  C   UNL     1       3.621  31.820  79.703  0.00  0.00    +0.000 C 
BRANCH  29  30
ATOM     30  C   UNL     1       2.343  32.485  79.143  0.00  0.00    +0.000 C 
ATOM     31  C   UNL     1       1.129  31.981  79.937  0.00  0.00    +0.000 C 
ATOM     32  C   UNL     1       2.341  34.009  79.206  0.00  0.00    +0.000 C 
ENDBRANCH  29  30
ENDBRANCH   5  29
TORSDOF 7
ENDMDL
