MODEL 1
REMARK VINA RESULT:      -7.6      0.000      0.000
REMARK  Name = 
REMARK  9 active torsions:
REMARK  status: ('A' for Active; 'I' for Inactive)
REMARK    1  A    between atoms: C_2  and  C_5
REMARK    2  A    between atoms: C_10  and  C_11
REMARK    3  A    between atoms: C_14  and  C_16
REMARK    4  A    between atoms: C_14  and  C_18
REMARK    5  A    between atoms: C_15  and  C_19
REMARK    6  A    between atoms: C_18  and  C_23
REMARK    7  A    between atoms: C_20  and  C_26
REMARK    8  A    between atoms: C_23  and  C_27
REMARK    9  A    between atoms: C_23  and  C_28
REMARK                            x       y       z     vdW  Elec       q    Type
REMARK                         _______ _______ _______ _____ _____    ______ ____
ROOT
ATOM      1  C   UNL     1       8.415  30.878  78.962  0.00  0.00    +0.000 C 
ATOM      2  O   UNL     1       8.908  29.786  79.251  0.00  0.00    +0.000 OA
ATOM      3  N   UNL     1       7.171  31.232  79.507  0.00  0.00    +0.000 N 
ATOM      4  C   UNL     1       6.577  30.524  80.703  0.00  0.00    +0.000 C 
ATOM      5  C   UNL     1       6.422  32.489  79.226  0.00  0.00    +0.000 C 
ATOM      6  C   UNL     1       5.097  31.049  80.626  0.00  0.00    +0.000 C 
ATOM      7  C   UNL     1       5.199  32.483  80.142  0.00  0.00    +0.000 C 
ENDROOT
BRANCH   1  13
ATOM      8  C   UNL     1      10.778  33.063  76.067  0.00  0.00    +0.000 A 
ATOM      9  C   UNL     1      10.638  33.529  77.374  0.00  0.00    +0.000 A 
ATOM     10  C   UNL     1      10.021  31.957  75.674  0.00  0.00    +0.000 A 
ATOM     11  C   UNL     1       9.823  32.835  78.301  0.00  0.00    +0.000 A 
ATOM     12  C   UNL     1       9.139  31.336  76.561  0.00  0.00    +0.000 A 
ATOM     13  C   UNL     1       9.117  31.681  77.907  0.00  0.00    +0.000 A 
BRANCH   8  15
ATOM     14  F   UNL     1      12.999  33.771  75.473  0.00  0.00    +0.000 F 
ATOM     15  C   UNL     1      11.704  33.702  75.062  0.00  0.00    +0.000 C 
ATOM     16  F   UNL     1      11.336  34.982  74.768  0.00  0.00    +0.000 F 
ATOM     17  F   UNL     1      11.720  33.041  73.870  0.00  0.00    +0.000 F 
ENDBRANCH   8  15
ENDBRANCH   1  13
BRANCH   5  18
ATOM     18  C   UNL     1       6.137  32.756  77.761  0.00  0.00    +0.000 A 
ATOM     19  C   UNL     1       5.559  31.811  76.905  0.00  0.00    +0.000 A 
ATOM     20  C   UNL     1       6.549  33.993  77.222  0.00  0.00    +0.000 A 
ATOM     21  C   UNL     1       5.471  32.069  75.535  0.00  0.00    +0.000 A 
ATOM     22  C   UNL     1       6.469  34.242  75.854  0.00  0.00    +0.000 A 
ATOM     23  C   UNL     1       5.942  33.273  75.008  0.00  0.00    +0.000 A 
ENDBRANCH   5  18
BRANCH   4  24
ATOM     24  C   UNL     1       6.349  28.979  80.758  0.00  0.00    +0.000 C 
ATOM     25  O   UNL     1       7.127  28.217  81.321  0.00  0.00    +0.000 OA
ATOM     26  O   UNL     1       5.247  28.512  80.142  0.00  0.00    +0.000 OA
ENDBRANCH   4  24
BRANCH   7  27
ATOM     27  C   UNL     1       3.974  33.144  79.553  0.00  0.00    +0.000 C 
ATOM     28  O   UNL     1       3.036  32.483  79.121  0.00  0.00    +0.000 OA
ATOM     29  O   UNL     1       3.931  34.488  79.578  0.00  0.00    +0.000 OA
ENDBRANCH   7  27
BRANCH   4  30
ATOM     30  C   UNL     1       7.227  30.995  82.053  0.00  0.00    +0.000 C 
BRANCH  30  31
ATOM     31  C   UNL     1       6.414  30.871  83.365  0.00  0.00    +0.000 C 
ATOM     32  C   UNL     1       7.148  29.950  84.354  0.00  0.00    +0.000 C 
ATOM     33  C   UNL     1       6.159  32.197  84.081  0.00  0.00    +0.000 C 
ENDBRANCH  30  31
ENDBRANCH   4  30
TORSDOF 7
ENDMDL
MODEL 2
REMARK VINA RESULT:      -7.3      4.075      6.734
REMARK  Name = 
REMARK  9 active torsions:
REMARK  status: ('A' for Active; 'I' for Inactive)
REMARK    1  A    between atoms: C_2  and  C_5
REMARK    2  A    between atoms: C_10  and  C_11
REMARK    3  A    between atoms: C_14  and  C_16
REMARK    4  A    between atoms: C_14  and  C_18
REMARK    5  A    between atoms: C_15  and  C_19
REMARK    6  A    between atoms: C_18  and  C_23
REMARK    7  A    between atoms: C_20  and  C_26
REMARK    8  A    between atoms: C_23  and  C_27
REMARK    9  A    between atoms: C_23  and  C_28
REMARK                            x       y       z     vdW  Elec       q    Type
REMARK                         _______ _______ _______ _____ _____    ______ ____
ROOT
ATOM      1  C   UNL     1       5.144  33.481  80.063  0.00  0.00    +0.000 C 
ATOM      2  O   UNL     1       4.181  34.034  80.600  0.00  0.00    +0.000 OA
ATOM      3  N   UNL     1       5.775  34.109  78.979  0.00  0.00    +0.000 N 
ATOM      4  C   UNL     1       5.585  35.575  78.666  0.00  0.00    +0.000 C 
ATOM      5  C   UNL     1       6.916  33.558  78.197  0.00  0.00    +0.000 C 
ATOM      6  C   UNL     1       6.179  35.625  77.212  0.00  0.00    +0.000 C 
ATOM      7  C   UNL     1       7.340  34.648  77.214  0.00  0.00    +0.000 C 
ENDROOT
BRANCH   1  13
ATOM      8  C   UNL     1       6.150  29.375  80.992  0.00  0.00    +0.000 A 
ATOM      9  C   UNL     1       4.930  29.695  80.397  0.00  0.00    +0.000 A 
ATOM     10  C   UNL     1       6.975  30.419  81.415  0.00  0.00    +0.000 A 
ATOM     11  C   UNL     1       4.588  31.045  80.142  0.00  0.00    +0.000 A 
ATOM     12  C   UNL     1       6.588  31.751  81.255  0.00  0.00    +0.000 A 
ATOM     13  C   UNL     1       5.462  32.086  80.514  0.00  0.00    +0.000 A 
BRANCH   8  15
ATOM     14  F   UNL     1       7.659  27.593  80.411  0.00  0.00    +0.000 F 
ATOM     15  C   UNL     1       6.613  27.954  81.203  0.00  0.00    +0.000 C 
ATOM     16  F   UNL     1       5.623  27.051  80.951  0.00  0.00    +0.000 F 
ATOM     17  F   UNL     1       7.010  27.717  82.485  0.00  0.00    +0.000 F 
ENDBRANCH   8  15
ENDBRANCH   1  13
BRANCH   5  18
ATOM     18  C   UNL     1       6.681  32.189  77.589  0.00  0.00    +0.000 A 
ATOM     19  C   UNL     1       5.522  31.851  76.879  0.00  0.00    +0.000 A 
ATOM     20  C   UNL     1       7.647  31.187  77.820  0.00  0.00    +0.000 A 
ATOM     21  C   UNL     1       5.303  30.529  76.485  0.00  0.00    +0.000 A 
ATOM     22  C   UNL     1       7.420  29.868  77.434  0.00  0.00    +0.000 A 
ATOM     23  C   UNL     1       6.240  29.537  76.777  0.00  0.00    +0.000 A 
ENDBRANCH   5  18
BRANCH   4  24
ATOM     24  C   UNL     1       4.182  36.229  78.443  0.00  0.00    +0.000 C 
ATOM     25  O   UNL     1       3.673  36.992  79.257  0.00  0.00    +0.000 OA
ATOM     26  O   UNL     1       3.542  35.904  77.304  0.00  0.00    +0.000 OA
ENDBRANCH   4  24
BRANCH   7  27
ATOM     27  C   UNL     1       7.861  34.130  75.893  0.00  0.00    +0.000 C 
ATOM     28  O   UNL     1       7.129  34.020  74.916  0.00  0.00    +0.000 OA
ATOM     29  O   UNL     1       9.174  33.855  75.818  0.00  0.00    +0.000 OA
ENDBRANCH   7  27
BRANCH   4  30
ATOM     30  C   UNL     1       6.435  36.497  79.610  0.00  0.00    +0.000 C 
BRANCH  30  31
ATOM     31  C   UNL     1       7.090  37.774  79.026  0.00  0.00    +0.000 C 
ATOM     32  C   UNL     1       6.869  38.961  79.978  0.00  0.00    +0.000 C 
ATOM     33  C   UNL     1       8.595  37.660  78.783  0.00  0.00    +0.000 C 
ENDBRANCH  30  31
ENDBRANCH   4  30
TORSDOF 7
ENDMDL
MODEL 3
REMARK VINA RESULT:      -7.3      1.733      2.843
REMARK  Name = 
REMARK  9 active torsions:
REMARK  status: ('A' for Active; 'I' for Inactive)
REMARK    1  A    between atoms: C_2  and  C_5
REMARK    2  A    between atoms: C_10  and  C_11
REMARK    3  A    between atoms: C_14  and  C_16
REMARK    4  A    between atoms: C_14  and  C_18
REMARK    5  A    between atoms: C_15  and  C_19
REMARK    6  A    between atoms: C_18  and  C_23
REMARK    7  A    between atoms: C_20  and  C_26
REMARK    8  A    between atoms: C_23  and  C_27
REMARK    9  A    between atoms: C_23  and  C_28
REMARK                            x       y       z     vdW  Elec       q    Type
REMARK                         _______ _______ _______ _____ _____    ______ ____
ROOT
ATOM      1  C   UNL     1       5.835  31.120  79.313  0.00  0.00    +0.000 C 
ATOM      2  O   UNL     1       5.462  30.002  79.675  0.00  0.00    +0.000 OA
ATOM      3  N   UNL     1       4.980  32.218  79.498  0.00  0.00    +0.000 N 
ATOM      4  C   UNL     1       3.796  32.177  80.436  0.00  0.00    +0.000 C 
ATOM      5  C   UNL     1       5.261  33.620  79.080  0.00  0.00    +0.000 C 
ATOM      6  C   UNL     1       3.029  33.466  79.966  0.00  0.00    +0.000 C 
ATOM      7  C   UNL     1       4.107  34.472  79.608  0.00  0.00    +0.000 C 
ENDROOT
BRANCH   1  13
ATOM      8  C   UNL     1       9.382  31.599  76.879  0.00  0.00    +0.000 A 
ATOM      9  C   UNL     1       8.283  30.879  76.409  0.00  0.00    +0.000 A 
ATOM     10  C   UNL     1       9.369  32.036  78.205  0.00  0.00    +0.000 A 
ATOM     11  C   UNL     1       7.147  30.685  77.231  0.00  0.00    +0.000 A 
ATOM     12  C   UNL     1       8.289  31.754  79.045  0.00  0.00    +0.000 A 
ATOM     13  C   UNL     1       7.122  31.190  78.546  0.00  0.00    +0.000 A 
BRANCH   8  15
ATOM     14  F   UNL     1      10.959  30.904  75.199  0.00  0.00    +0.000 F 
ATOM     15  C   UNL     1      10.581  31.921  76.021  0.00  0.00    +0.000 C 
ATOM     16  F   UNL     1      11.679  32.224  76.771  0.00  0.00    +0.000 F 
ATOM     17  F   UNL     1      10.375  33.002  75.217  0.00  0.00    +0.000 F 
ENDBRANCH   8  15
ENDBRANCH   1  13
BRANCH   5  18
ATOM     18  C   UNL     1       5.587  33.803  77.611  0.00  0.00    +0.000 A 
ATOM     19  C   UNL     1       4.829  33.238  76.579  0.00  0.00    +0.000 A 
ATOM     20  C   UNL     1       6.759  34.514  77.277  0.00  0.00    +0.000 A 
ATOM     21  C   UNL     1       5.277  33.315  75.257  0.00  0.00    +0.000 A 
ATOM     22  C   UNL     1       7.208  34.580  75.960  0.00  0.00    +0.000 A 
ATOM     23  C   UNL     1       6.472  33.968  74.951  0.00  0.00    +0.000 A 
ENDBRANCH   5  18
BRANCH   4  24
ATOM     24  C   UNL     1       2.666  31.101  80.343  0.00  0.00    +0.000 C 
ATOM     25  O   UNL     1       2.379  30.363  81.279  0.00  0.00    +0.000 OA
ATOM     26  O   UNL     1       2.018  31.010  79.166  0.00  0.00    +0.000 OA
ENDBRANCH   4  24
BRANCH   7  27
ATOM     27  C   UNL     1       3.745  35.647  78.728  0.00  0.00    +0.000 C 
ATOM     28  O   UNL     1       2.794  35.599  77.956  0.00  0.00    +0.000 OA
ATOM     29  O   UNL     1       4.474  36.767  78.872  0.00  0.00    +0.000 OA
ENDBRANCH   7  27
BRANCH   4  30
ATOM     30  C   UNL     1       4.224  32.342  81.937  0.00  0.00    +0.000 C 
BRANCH  30  31
ATOM     31  C   UNL     1       5.715  32.597  82.272  0.00  0.00    +0.000 C 
ATOM     32  C   UNL     1       5.844  33.810  83.208  0.00  0.00    +0.000 C 
ATOM     33  C   UNL     1       6.421  31.423  82.950  0.00  0.00    +0.000 C 
ENDBRANCH  30  31
ENDBRANCH   4  30
TORSDOF 7
ENDMDL
MODEL 4
REMARK VINA RESULT:      -7.2      4.302      6.581
REMARK  Name = 
REMARK  9 active torsions:
REMARK  status: ('A' for Active; 'I' for Inactive)
REMARK    1  A    between atoms: C_2  and  C_5
REMARK    2  A    between atoms: C_10  and  C_11
REMARK    3  A    between atoms: C_14  and  C_16
REMARK    4  A    between atoms: C_14  and  C_18
REMARK    5  A    between atoms: C_15  and  C_19
REMARK    6  A    between atoms: C_18  and  C_23
REMARK    7  A    between atoms: C_20  and  C_26
REMARK    8  A    between atoms: C_23  and  C_27
REMARK    9  A    between atoms: C_23  and  C_28
REMARK                            x       y       z     vdW  Elec       q    Type
REMARK                         _______ _______ _______ _____ _____    ______ ____
ROOT
ATOM      1  C   UNL     1       5.933  36.019  78.404  0.00  0.00    +0.000 C 
ATOM      2  O   UNL     1       5.637  37.115  77.921  0.00  0.00    +0.000 OA
ATOM      3  N   UNL     1       6.748  35.972  79.545  0.00  0.00    +0.000 N 
ATOM      4  C   UNL     1       6.981  37.177  80.427  0.00  0.00    +0.000 C 
ATOM      5  C   UNL     1       7.229  34.735  80.221  0.00  0.00    +0.000 C 
ATOM      6  C   UNL     1       8.207  36.668  81.268  0.00  0.00    +0.000 C 
ATOM      7  C   UNL     1       7.966  35.186  81.482  0.00  0.00    +0.000 C 
ENDROOT
BRANCH   1  13
ATOM      8  C   UNL     1       5.098  32.351  76.263  0.00  0.00    +0.000 A 
ATOM      9  C   UNL     1       5.982  33.296  75.744  0.00  0.00    +0.000 A 
ATOM     10  C   UNL     1       4.378  32.678  77.414  0.00  0.00    +0.000 A 
ATOM     11  C   UNL     1       6.212  34.515  76.426  0.00  0.00    +0.000 A 
ATOM     12  C   UNL     1       4.530  33.924  78.027  0.00  0.00    +0.000 A 
ATOM     13  C   UNL     1       5.526  34.804  77.623  0.00  0.00    +0.000 A 
BRANCH   8  15
ATOM     14  F   UNL     1       4.593  31.044  74.307  0.00  0.00    +0.000 F 
ATOM     15  C   UNL     1       4.883  30.995  75.635  0.00  0.00    +0.000 C 
ATOM     16  F   UNL     1       3.852  30.319  76.219  0.00  0.00    +0.000 F 
ATOM     17  F   UNL     1       5.971  30.183  75.756  0.00  0.00    +0.000 F 
ENDBRANCH   8  15
ENDBRANCH   1  13
BRANCH   5  18
ATOM     18  C   UNL     1       7.987  33.768  79.334  0.00  0.00    +0.000 A 
ATOM     19  C   UNL     1       9.034  34.156  78.490  0.00  0.00    +0.000 A 
ATOM     20  C   UNL     1       7.560  32.423  79.305  0.00  0.00    +0.000 A 
ATOM     21  C   UNL     1       9.581  33.243  77.585  0.00  0.00    +0.000 A 
ATOM     22  C   UNL     1       8.100  31.518  78.394  0.00  0.00    +0.000 A 
ATOM     23  C   UNL     1       9.103  31.933  77.525  0.00  0.00    +0.000 A 
ENDBRANCH   5  18
BRANCH   4  24
ATOM     24  C   UNL     1       7.526  38.540  79.890  0.00  0.00    +0.000 C 
ATOM     25  O   UNL     1       6.818  39.534  79.773  0.00  0.00    +0.000 OA
ATOM     26  O   UNL     1       8.827  38.573  79.545  0.00  0.00    +0.000 OA
ENDBRANCH   4  24
BRANCH   7  27
ATOM     27  C   UNL     1       9.132  34.305  81.872  0.00  0.00    +0.000 C 
ATOM     28  O   UNL     1      10.291  34.661  81.692  0.00  0.00    +0.000 OA
ATOM     29  O   UNL     1       8.843  33.141  82.480  0.00  0.00    +0.000 OA
ENDBRANCH   7  27
BRANCH   4  30
ATOM     30  C   UNL     1       5.769  37.452  81.386  0.00  0.00    +0.000 C 
BRANCH  30  31
ATOM     31  C   UNL     1       6.044  37.984  82.814  0.00  0.00    +0.000 C 
ATOM     32  C   UNL     1       5.361  39.348  83.008  0.00  0.00    +0.000 C 
ATOM     33  C   UNL     1       5.555  37.067  83.936  0.00  0.00    +0.000 C 
ENDBRANCH  30  31
ENDBRANCH   4  30
TORSDOF 7
ENDMDL
MODEL 5
REMARK VINA RESULT:      -7.1      2.872      4.295
REMARK  Name = 
REMARK  9 active torsions:
REMARK  status: ('A' for Active; 'I' for Inactive)
REMARK    1  A    between atoms: C_2  and  C_5
REMARK    2  A    between atoms: C_10  and  C_11
REMARK    3  A    between atoms: C_14  and  C_16
REMARK    4  A    between atoms: C_14  and  C_18
REMARK    5  A    between atoms: C_15  and  C_19
REMARK    6  A    between atoms: C_18  and  C_23
REMARK    7  A    between atoms: C_20  and  C_26
REMARK    8  A    between atoms: C_23  and  C_27
REMARK    9  A    between atoms: C_23  and  C_28
REMARK                            x       y       z     vdW  Elec       q    Type
REMARK                         _______ _______ _______ _____ _____    ______ ____
ROOT
ATOM      1  C   UNL     1       6.691  32.479  80.749  0.00  0.00    +0.000 C 
ATOM      2  O   UNL     1       6.912  32.089  81.898  0.00  0.00    +0.000 OA
ATOM      3  N   UNL     1       6.226  31.562  79.793  0.00  0.00    +0.000 N 
ATOM      4  C   UNL     1       5.633  30.225  80.172  0.00  0.00    +0.000 C 
ATOM      5  C   UNL     1       5.954  31.861  78.360  0.00  0.00    +0.000 C 
ATOM      6  C   UNL     1       5.652  29.510  78.772  0.00  0.00    +0.000 C 
ATOM      7  C   UNL     1       5.344  30.596  77.758  0.00  0.00    +0.000 C 
ENDROOT
BRANCH   1  13
ATOM      8  C   UNL     1       7.983  36.400  79.449  0.00  0.00    +0.000 A 
ATOM      9  C   UNL     1       8.910  35.439  79.851  0.00  0.00    +0.000 A 
ATOM     10  C   UNL     1       6.625  36.121  79.615  0.00  0.00    +0.000 A 
ATOM     11  C   UNL     1       8.476  34.176  80.321  0.00  0.00    +0.000 A 
ATOM     12  C   UNL     1       6.202  34.914  80.177  0.00  0.00    +0.000 A 
ATOM     13  C   UNL     1       7.101  33.884  80.421  0.00  0.00    +0.000 A 
BRANCH   8  15
ATOM     14  F   UNL     1       7.335  38.566  78.623  0.00  0.00    +0.000 F 
ATOM     15  C   UNL     1       8.382  37.727  78.850  0.00  0.00    +0.000 C 
ATOM     16  F   UNL     1       9.009  37.577  77.648  0.00  0.00    +0.000 F 
ATOM     17  F   UNL     1       9.255  38.416  79.638  0.00  0.00    +0.000 F 
ENDBRANCH   8  15
ENDBRANCH   1  13
BRANCH   5  18
ATOM     18  C   UNL     1       7.119  32.452  77.591  0.00  0.00    +0.000 A 
ATOM     19  C   UNL     1       8.416  31.925  77.635  0.00  0.00    +0.000 A 
ATOM     20  C   UNL     1       6.897  33.638  76.859  0.00  0.00    +0.000 A 
ATOM     21  C   UNL     1       9.472  32.611  77.029  0.00  0.00    +0.000 A 
ATOM     22  C   UNL     1       7.954  34.324  76.266  0.00  0.00    +0.000 A 
ATOM     23  C   UNL     1       9.245  33.816  76.363  0.00  0.00    +0.000 A 
ENDBRANCH   5  18
BRANCH   4  24
ATOM     24  C   UNL     1       6.381  29.176  81.058  0.00  0.00    +0.000 C 
ATOM     25  O   UNL     1       5.990  28.858  82.176  0.00  0.00    +0.000 OA
ATOM     26  O   UNL     1       7.497  28.635  80.535  0.00  0.00    +0.000 OA
ENDBRANCH   4  24
BRANCH   7  27
ATOM     27  C   UNL     1       5.698  30.361  76.307  0.00  0.00    +0.000 C 
ATOM     28  O   UNL     1       6.579  29.573  75.984  0.00  0.00    +0.000 OA
ATOM     29  O   UNL     1       4.964  31.009  75.386  0.00  0.00    +0.000 OA
ENDBRANCH   7  27
BRANCH   4  30
ATOM     30  C   UNL     1       4.151  30.354  80.673  0.00  0.00    +0.000 C 
BRANCH  30  31
ATOM     31  C   UNL     1       3.472  31.746  80.664  0.00  0.00    +0.000 C 
ATOM     32  C   UNL     1       2.150  31.681  79.881  0.00  0.00    +0.000 C 
ATOM     33  C   UNL     1       3.152  32.305  82.050  0.00  0.00    +0.000 C 
ENDBRANCH  30  31
ENDBRANCH   4  30
TORSDOF 7
ENDMDL
MODEL 6
REMARK VINA RESULT:      -7.1      3.241      4.842
REMARK  Name = 
REMARK  9 active torsions:
REMARK  status: ('A' for Active; 'I' for Inactive)
REMARK    1  A    between atoms: C_2  and  C_5
REMARK    2  A    between atoms: C_10  and  C_11
REMARK    3  A    between atoms: C_14  and  C_16
REMARK    4  A    between atoms: C_14  and  C_18
REMARK    5  A    between atoms: C_15  and  C_19
REMARK    6  A    between atoms: C_18  and  C_23
REMARK    7  A    between atoms: C_20  and  C_26
REMARK    8  A    between atoms: C_23  and  C_27
REMARK    9  A    between atoms: C_23  and  C_28
REMARK                            x       y       z     vdW  Elec       q    Type
REMARK                         _______ _______ _______ _____ _____    ______ ____
ROOT
ATOM      1  C   UNL     1       8.485  35.082  78.943  0.00  0.00    +0.000 C 
ATOM      2  O   UNL     1       9.183  35.340  79.926  0.00  0.00    +0.000 OA
ATOM      3  N   UNL     1       7.143  35.492  78.931  0.00  0.00    +0.000 N 
ATOM      4  C   UNL     1       6.604  36.538  79.879  0.00  0.00    +0.000 C 
ATOM      5  C   UNL     1       6.160  35.223  77.845  0.00  0.00    +0.000 C 
ATOM      6  C   UNL     1       5.061  36.317  79.684  0.00  0.00    +0.000 C 
ATOM      7  C   UNL     1       4.881  35.972  78.217  0.00  0.00    +0.000 C 
ENDROOT
BRANCH   1  13
ATOM      8  C   UNL     1      10.580  32.692  76.004  0.00  0.00    +0.000 A 
ATOM      9  C   UNL     1      10.251  34.022  75.741  0.00  0.00    +0.000 A 
ATOM     10  C   UNL     1      10.091  32.108  77.174  0.00  0.00    +0.000 A 
ATOM     11  C   UNL     1       9.522  34.782  76.688  0.00  0.00    +0.000 A 
ATOM     12  C   UNL     1       9.285  32.830  78.057  0.00  0.00    +0.000 A 
ATOM     13  C   UNL     1       9.092  34.196  77.896  0.00  0.00    +0.000 A 
BRANCH   8  15
ATOM     14  F   UNL     1      11.577  32.391  73.835  0.00  0.00    +0.000 F 
ATOM     15  C   UNL     1      11.434  31.860  75.080  0.00  0.00    +0.000 C 
ATOM     16  F   UNL     1      10.921  30.610  74.896  0.00  0.00    +0.000 F 
ATOM     17  F   UNL     1      12.696  31.673  75.559  0.00  0.00    +0.000 F 
ENDBRANCH   8  15
ENDBRANCH   1  13
BRANCH   5  18
ATOM     18  C   UNL     1       5.978  33.761  77.486  0.00  0.00    +0.000 A 
ATOM     19  C   UNL     1       5.751  32.758  78.437  0.00  0.00    +0.000 A 
ATOM     20  C   UNL     1       6.122  33.388  76.133  0.00  0.00    +0.000 A 
ATOM     21  C   UNL     1       5.751  31.415  78.052  0.00  0.00    +0.000 A 
ATOM     22  C   UNL     1       6.131  32.048  75.754  0.00  0.00    +0.000 A 
ATOM     23  C   UNL     1       5.958  31.060  76.718  0.00  0.00    +0.000 A 
ENDBRANCH   5  18
BRANCH   4  24
ATOM     24  C   UNL     1       6.733  36.435  81.433  0.00  0.00    +0.000 C 
ATOM     25  O   UNL     1       7.736  35.996  81.985  0.00  0.00    +0.000 OA
ATOM     26  O   UNL     1       5.671  36.845  82.152  0.00  0.00    +0.000 OA
ENDBRANCH   4  24
BRANCH   7  27
ATOM     27  C   UNL     1       3.607  35.288  77.779  0.00  0.00    +0.000 C 
ATOM     28  O   UNL     1       2.893  34.691  78.578  0.00  0.00    +0.000 OA
ATOM     29  O   UNL     1       3.257  35.414  76.487  0.00  0.00    +0.000 OA
ENDBRANCH   7  27
BRANCH   4  30
ATOM     30  C   UNL     1       6.983  37.994  79.429  0.00  0.00    +0.000 C 
BRANCH  30  31
ATOM     31  C   UNL     1       7.757  38.908  80.411  0.00  0.00    +0.000 C 
ATOM     32  C   UNL     1       9.235  38.994  79.995  0.00  0.00    +0.000 C 
ATOM     33  C   UNL     1       7.226  40.339  80.498  0.00  0.00    +0.000 C 
ENDBRANCH  30  31
ENDBRANCH   4  30
TORSDOF 7
ENDMDL
MODEL 7
REMARK VINA RESULT:      -7.0      1.839      2.694
REMARK  Name = 
REMARK  9 active torsions:
REMARK  status: ('A' for Active; 'I' for Inactive)
REMARK    1  A    between atoms: C_2  and  C_5
REMARK    2  A    between atoms: C_10  and  C_11
REMARK    3  A    between atoms: C_14  and  C_16
REMARK    4  A    between atoms: C_14  and  C_18
REMARK    5  A    between atoms: C_15  and  C_19
REMARK    6  A    between atoms: C_18  and  C_23
REMARK    7  A    between atoms: C_20  and  C_26
REMARK    8  A    between atoms: C_23  and  C_27
REMARK    9  A    between atoms: C_23  and  C_28
REMARK                            x       y       z     vdW  Elec       q    Type
REMARK                         _______ _______ _______ _____ _____    ______ ____
ROOT
ATOM      1  C   UNL     1       7.677  31.275  77.396  0.00  0.00    +0.000 C 
ATOM      2  O   UNL     1       7.312  30.315  76.712  0.00  0.00    +0.000 OA
ATOM      3  N   UNL     1       6.954  31.604  78.553  0.00  0.00    +0.000 N 
ATOM      4  C   UNL     1       5.988  30.643  79.208  0.00  0.00    +0.000 C 
ATOM      5  C   UNL     1       7.236  32.752  79.459  0.00  0.00    +0.000 C 
ATOM      6  C   UNL     1       5.230  31.630  80.168  0.00  0.00    +0.000 C 
ATOM      7  C   UNL     1       6.276  32.622  80.640  0.00  0.00    +0.000 C 
ENDROOT
BRANCH   1  13
ATOM      8  C   UNL     1      10.683  34.032  75.948  0.00  0.00    +0.000 A 
ATOM      9  C   UNL     1       9.439  33.937  75.323  0.00  0.00    +0.000 A 
ATOM     10  C   UNL     1      10.989  33.117  76.956  0.00  0.00    +0.000 A 
ATOM     11  C   UNL     1       8.481  32.998  75.772  0.00  0.00    +0.000 A 
ATOM     12  C   UNL     1      10.079  32.123  77.327  0.00  0.00    +0.000 A 
ATOM     13  C   UNL     1       8.780  32.124  76.837  0.00  0.00    +0.000 A 
BRANCH   8  15
ATOM     14  F   UNL     1      11.293  36.354  75.782  0.00  0.00    +0.000 F 
ATOM     15  C   UNL     1      11.710  35.074  75.579  0.00  0.00    +0.000 C 
ATOM     16  F   UNL     1      12.064  35.001  74.264  0.00  0.00    +0.000 F 
ATOM     17  F   UNL     1      12.870  34.939  76.281  0.00  0.00    +0.000 F 
ENDBRANCH   8  15
ENDBRANCH   1  13
BRANCH   5  18
ATOM     18  C   UNL     1       7.265  34.111  78.788  0.00  0.00    +0.000 A 
ATOM     19  C   UNL     1       6.264  34.561  77.918  0.00  0.00    +0.000 A 
ATOM     20  C   UNL     1       8.397  34.928  78.995  0.00  0.00    +0.000 A 
ATOM     21  C   UNL     1       6.433  35.756  77.214  0.00  0.00    +0.000 A 
ATOM     22  C   UNL     1       8.566  36.113  78.284  0.00  0.00    +0.000 A 
ATOM     23  C   UNL     1       7.588  36.520  77.382  0.00  0.00    +0.000 A 
ENDBRANCH   5  18
BRANCH   4  24
ATOM     24  C   UNL     1       4.794  29.979  78.450  0.00  0.00    +0.000 C 
ATOM     25  O   UNL     1       4.507  28.794  78.580  0.00  0.00    +0.000 OA
ATOM     26  O   UNL     1       4.088  30.775  77.626  0.00  0.00    +0.000 OA
ENDBRANCH   4  24
BRANCH   7  27
ATOM     27  C   UNL     1       5.820  33.941  81.222  0.00  0.00    +0.000 C 
ATOM     28  O   UNL     1       4.703  34.389  80.993  0.00  0.00    +0.000 OA
ATOM     29  O   UNL     1       6.671  34.571  82.051  0.00  0.00    +0.000 OA
ENDBRANCH   7  27
BRANCH   4  30
ATOM     30  C   UNL     1       6.727  29.550  80.060  0.00  0.00    +0.000 C 
BRANCH  30  31
ATOM     31  C   UNL     1       6.116  29.111  81.414  0.00  0.00    +0.000 C 
ATOM     32  C   UNL     1       6.076  27.576  81.498  0.00  0.00    +0.000 C 
ATOM     33  C   UNL     1       6.871  29.614  82.643  0.00  0.00    +0.000 C 
ENDBRANCH  30  31
ENDBRANCH   4  30
TORSDOF 7
ENDMDL
MODEL 8
REMARK VINA RESULT:      -7.0      4.044      5.370
REMARK  Name = 
REMARK  9 active torsions:
REMARK  status: ('A' for Active; 'I' for Inactive)
REMARK    1  A    between atoms: C_2  and  C_5
REMARK    2  A    between atoms: C_10  and  C_11
REMARK    3  A    between atoms: C_14  and  C_16
REMARK    4  A    between atoms: C_14  and  C_18
REMARK    5  A    between atoms: C_15  and  C_19
REMARK    6  A    between atoms: C_18  and  C_23
REMARK    7  A    between atoms: C_20  and  C_26
REMARK    8  A    between atoms: C_23  and  C_27
REMARK    9  A    between atoms: C_23  and  C_28
REMARK                            x       y       z     vdW  Elec       q    Type
REMARK                         _______ _______ _______ _____ _____    ______ ____
ROOT
ATOM      1  C   UNL     1       7.673  33.417  80.774  0.00  0.00    +0.000 C 
ATOM      2  O   UNL     1       8.269  32.654  81.537  0.00  0.00    +0.000 OA
ATOM      3  N   UNL     1       7.109  32.904  79.596  0.00  0.00    +0.000 N 
ATOM      4  C   UNL     1       6.869  31.426  79.387  0.00  0.00    +0.000 C 
ATOM      5  C   UNL     1       6.398  33.695  78.553  0.00  0.00    +0.000 C 
ATOM      6  C   UNL     1       6.604  31.408  77.838  0.00  0.00    +0.000 C 
ATOM      7  C   UNL     1       5.853  32.691  77.539  0.00  0.00    +0.000 C 
ENDROOT
BRANCH   1  13
ATOM      8  C   UNL     1       7.901  37.707  81.302  0.00  0.00    +0.000 A 
ATOM      9  C   UNL     1       9.046  36.959  81.024  0.00  0.00    +0.000 A 
ATOM     10  C   UNL     1       6.708  37.026  81.550  0.00  0.00    +0.000 A 
ATOM     11  C   UNL     1       8.970  35.551  80.902  0.00  0.00    +0.000 A 
ATOM     12  C   UNL     1       6.660  35.630  81.531  0.00  0.00    +0.000 A 
ATOM     13  C   UNL     1       7.744  34.882  81.090  0.00  0.00    +0.000 A 
BRANCH   8  15
ATOM     14  F   UNL     1       7.614  39.804  80.156  0.00  0.00    +0.000 F 
ATOM     15  C   UNL     1       7.898  39.216  81.350  0.00  0.00    +0.000 C 
ATOM     16  F   UNL     1       9.106  39.718  81.736  0.00  0.00    +0.000 F 
ATOM     17  F   UNL     1       6.993  39.710  82.240  0.00  0.00    +0.000 F 
ENDBRANCH   8  15
ENDBRANCH   1  13
BRANCH   5  18
ATOM     18  C   UNL     1       7.189  34.849  77.969  0.00  0.00    +0.000 A 
ATOM     19  C   UNL     1       8.502  34.723  77.501  0.00  0.00    +0.000 A 
ATOM     20  C   UNL     1       6.593  36.128  77.969  0.00  0.00    +0.000 A 
ATOM     21  C   UNL     1       9.224  35.858  77.123  0.00  0.00    +0.000 A 
ATOM     22  C   UNL     1       7.318  37.259  77.601  0.00  0.00    +0.000 A 
ATOM     23  C   UNL     1       8.640  37.124  77.190  0.00  0.00    +0.000 A 
ENDBRANCH   5  18
BRANCH   4  24
ATOM     24  C   UNL     1       7.994  30.349  79.516  0.00  0.00    +0.000 C 
ATOM     25  O   UNL     1       7.854  29.324  80.173  0.00  0.00    +0.000 OA
ATOM     26  O   UNL     1       9.148  30.605  78.870  0.00  0.00    +0.000 OA
ENDBRANCH   4  24
BRANCH   7  27
ATOM     27  C   UNL     1       5.815  33.200  76.116  0.00  0.00    +0.000 C 
ATOM     28  O   UNL     1       6.616  32.808  75.275  0.00  0.00    +0.000 OA
ATOM     29  O   UNL     1       4.827  34.054  75.797  0.00  0.00    +0.000 OA
ENDBRANCH   7  27
BRANCH   4  30
ATOM     30  C   UNL     1       5.588  30.922  80.142  0.00  0.00    +0.000 C 
BRANCH  30  31
ATOM     31  C   UNL     1       4.576  30.023  79.390  0.00  0.00    +0.000 C 
ATOM     32  C   UNL     1       4.407  28.687  80.132  0.00  0.00    +0.000 C 
ATOM     33  C   UNL     1       3.184  30.633  79.229  0.00  0.00    +0.000 C 
ENDBRANCH  30  31
ENDBRANCH   4  30
TORSDOF 7
ENDMDL
MODEL 9
REMARK VINA RESULT:      -7.0      2.016      4.707
REMARK  Name = 
REMARK  9 active torsions:
REMARK  status: ('A' for Active; 'I' for Inactive)
REMARK    1  A    between atoms: C_2  and  C_5
REMARK    2  A    between atoms: C_10  and  C_11
REMARK    3  A    between atoms: C_14  and  C_16
REMARK    4  A    between atoms: C_14  and  C_18
REMARK    5  A    between atoms: C_15  and  C_19
REMARK    6  A    between atoms: C_18  and  C_23
REMARK    7  A    between atoms: C_20  and  C_26
REMARK    8  A    between atoms: C_23  and  C_27
REMARK    9  A    between atoms: C_23  and  C_28
REMARK                            x       y       z     vdW  Elec       q    Type
REMARK                         _______ _______ _______ _____ _____    ______ ____
ROOT
ATOM      1  C   UNL     1       5.249  32.666  77.707  0.00  0.00    +0.000 C 
ATOM      2  O   UNL     1       4.396  33.353  77.142  0.00  0.00    +0.000 OA
ATOM      3  N   UNL     1       4.965  32.124  78.970  0.00  0.00    +0.000 N 
ATOM      4  C   UNL     1       3.558  32.024  79.513  0.00  0.00    +0.000 C 
ATOM      5  C   UNL     1       5.898  31.313  79.800  0.00  0.00    +0.000 C 
ATOM      6  C   UNL     1       3.867  31.722  81.024  0.00  0.00    +0.000 C 
ATOM      7  C   UNL     1       5.103  30.842  81.018  0.00  0.00    +0.000 C 
ENDROOT
BRANCH   1  13
ATOM      8  C   UNL     1       9.306  32.514  76.205  0.00  0.00    +0.000 A 
ATOM      9  C   UNL     1       8.727  33.727  76.579  0.00  0.00    +0.000 A 
ATOM     10  C   UNL     1       8.502  31.373  76.187  0.00  0.00    +0.000 A 
ATOM     11  C   UNL     1       7.384  33.774  77.022  0.00  0.00    +0.000 A 
ATOM     12  C   UNL     1       7.148  31.442  76.526  0.00  0.00    +0.000 A 
ATOM     13  C   UNL     1       6.602  32.601  77.062  0.00  0.00    +0.000 A 
BRANCH   8  15
ATOM     14  F   UNL     1      11.171  33.311  74.910  0.00  0.00    +0.000 F 
ATOM     15  C   UNL     1      10.758  32.383  75.815  0.00  0.00    +0.000 C 
ATOM     16  F   UNL     1      11.030  31.169  75.256  0.00  0.00    +0.000 F 
ATOM     17  F   UNL     1      11.599  32.493  76.882  0.00  0.00    +0.000 F 
ENDBRANCH   8  15
ENDBRANCH   1  13
BRANCH   5  18
ATOM     18  C   UNL     1       7.229  31.971  80.106  0.00  0.00    +0.000 A 
ATOM     19  C   UNL     1       7.347  33.286  80.574  0.00  0.00    +0.000 A 
ATOM     20  C   UNL     1       8.406  31.245  79.830  0.00  0.00    +0.000 A 
ATOM     21  C   UNL     1       8.607  33.880  80.683  0.00  0.00    +0.000 A 
ATOM     22  C   UNL     1       9.660  31.843  79.930  0.00  0.00    +0.000 A 
ATOM     23  C   UNL     1       9.758  33.167  80.345  0.00  0.00    +0.000 A 
ENDBRANCH   5  18
BRANCH   4  24
ATOM     24  C   UNL     1       2.599  33.252  79.639  0.00  0.00    +0.000 C 
ATOM     25  O   UNL     1       1.430  33.217  79.271  0.00  0.00    +0.000 OA
ATOM     26  O   UNL     1       3.124  34.373  80.169  0.00  0.00    +0.000 OA
ENDBRANCH   4  24
BRANCH   7  27
ATOM     27  C   UNL     1       5.917  30.718  82.285  0.00  0.00    +0.000 C 
ATOM     28  O   UNL     1       5.819  31.537  83.191  0.00  0.00    +0.000 OA
ATOM     29  O   UNL     1       6.707  29.636  82.401  0.00  0.00    +0.000 OA
ENDBRANCH   7  27
BRANCH   4  30
ATOM     30  C   UNL     1       2.768  30.818  78.891  0.00  0.00    +0.000 C 
BRANCH  30  31
ATOM     31  C   UNL     1       3.036  30.421  77.418  0.00  0.00    +0.000 C 
ATOM     32  C   UNL     1       3.920  29.163  77.366  0.00  0.00    +0.000 C 
ATOM     33  C   UNL     1       1.778  30.127  76.601  0.00  0.00    +0.000 C 
ENDBRANCH  30  31
ENDBRANCH   4  30
TORSDOF 7
ENDMDL
