MODEL 1
REMARK VINA RESULT:      -7.0      0.000      0.000
REMARK  Name = 
REMARK  8 active torsions:
REMARK  status: ('A' for Active; 'I' for Inactive)
REMARK    1  A    between atoms: C_7  and  C_8
REMARK    2  A    between atoms: C_11  and  C_13
REMARK    3  A    between atoms: C_11  and  C_15
REMARK    4  A    between atoms: C_12  and  C_16
REMARK    5  A    between atoms: C_15  and  C_20
REMARK    6  A    between atoms: C_17  and  C_23
REMARK    7  A    between atoms: C_20  and  C_24
REMARK    8  A    between atoms: C_20  and  C_25
REMARK                            x       y       z     vdW  Elec       q    Type
REMARK                         _______ _______ _______ _____ _____    ______ ____
ROOT
ATOM      1  C   UNL     1       7.332  32.027  76.916  0.00  0.00    +0.000 C 
ATOM      2  O   UNL     1       6.361  32.113  76.161  0.00  0.00    +0.000 OA
ATOM      3  N   UNL     1       7.166  31.780  78.308  0.00  0.00    +0.000 N 
ATOM      4  C   UNL     1       8.123  32.059  79.431  0.00  0.00    +0.000 C 
ATOM      5  C   UNL     1       5.777  31.943  78.847  0.00  0.00    +0.000 C 
ATOM      6  C   UNL     1       7.330  31.376  80.599  0.00  0.00    +0.000 C 
ATOM      7  C   UNL     1       5.863  31.719  80.368  0.00  0.00    +0.000 C 
ENDROOT
BRANCH   1  14
ATOM      8 CL   UNL     1      12.747  33.345  74.633  0.00  0.00    +0.000 Cl
ATOM      9  C   UNL     1      11.177  32.965  75.220  0.00  0.00    +0.000 A 
ATOM     10  C   UNL     1      10.275  33.978  75.522  0.00  0.00    +0.000 A 
ATOM     11  C   UNL     1      10.796  31.639  75.354  0.00  0.00    +0.000 A 
ATOM     12  C   UNL     1       9.019  33.649  76.043  0.00  0.00    +0.000 A 
ATOM     13  C   UNL     1       9.510  31.322  75.796  0.00  0.00    +0.000 A 
ATOM     14  C   UNL     1       8.651  32.305  76.248  0.00  0.00    +0.000 A 
ENDBRANCH   1  14
BRANCH   5  15
ATOM     15  C   UNL     1       4.696  31.156  78.165  0.00  0.00    +0.000 A 
ATOM     16  S   UNL     1       3.199  31.945  77.824  0.00  0.00    +0.000 S 
ATOM     17  C   UNL     1       4.684  29.855  77.710  0.00  0.00    +0.000 A 
ATOM     18  C   UNL     1       2.576  30.566  77.037  0.00  0.00    +0.000 A 
ATOM     19  C   UNL     1       3.474  29.524  77.034  0.00  0.00    +0.000 A 
ENDBRANCH   5  15
BRANCH   4  20
ATOM     20  C   UNL     1       9.467  31.296  79.556  0.00  0.00    +0.000 C 
ATOM     21  O   UNL     1       9.574  30.125  79.886  0.00  0.00    +0.000 OA
ATOM     22  O   UNL     1      10.548  32.005  79.135  0.00  0.00    +0.000 OA
ENDBRANCH   4  20
BRANCH   7  23
ATOM     23  C   UNL     1       4.977  30.625  80.932  0.00  0.00    +0.000 C 
ATOM     24  O   UNL     1       5.325  29.463  81.072  0.00  0.00    +0.000 OA
ATOM     25  O   UNL     1       3.757  31.056  81.319  0.00  0.00    +0.000 OA
ENDBRANCH   7  23
BRANCH   4  26
ATOM     26  C   UNL     1       8.276  33.572  79.835  0.00  0.00    +0.000 C 
BRANCH  26  27
ATOM     27  C   UNL     1       8.602  33.982  81.287  0.00  0.00    +0.000 C 
ATOM     28  C   UNL     1       9.924  34.742  81.429  0.00  0.00    +0.000 C 
ATOM     29  C   UNL     1       7.524  34.954  81.799  0.00  0.00    +0.000 C 
ENDBRANCH  26  27
ENDBRANCH   4  26
TORSDOF 6
ENDMDL
MODEL 2
REMARK VINA RESULT:      -6.9      1.106      1.644
REMARK  Name = 
REMARK  8 active torsions:
REMARK  status: ('A' for Active; 'I' for Inactive)
REMARK    1  A    between atoms: C_7  and  C_8
REMARK    2  A    between atoms: C_11  and  C_13
REMARK    3  A    between atoms: C_11  and  C_15
REMARK    4  A    between atoms: C_12  and  C_16
REMARK    5  A    between atoms: C_15  and  C_20
REMARK    6  A    between atoms: C_17  and  C_23
REMARK    7  A    between atoms: C_20  and  C_24
REMARK    8  A    between atoms: C_20  and  C_25
REMARK                            x       y       z     vdW  Elec       q    Type
REMARK                         _______ _______ _______ _____ _____    ______ ____
ROOT
ATOM      1  C   UNL     1       6.532  31.854  77.255  0.00  0.00    +0.000 C 
ATOM      2  O   UNL     1       5.587  32.256  76.572  0.00  0.00    +0.000 OA
ATOM      3  N   UNL     1       6.317  31.186  78.492  0.00  0.00    +0.000 N 
ATOM      4  C   UNL     1       7.268  31.011  79.643  0.00  0.00    +0.000 C 
ATOM      5  C   UNL     1       4.934  31.275  79.060  0.00  0.00    +0.000 C 
ATOM      6  C   UNL     1       6.400  30.052  80.529  0.00  0.00    +0.000 C 
ATOM      7  C   UNL     1       4.968  30.567  80.426  0.00  0.00    +0.000 C 
ENDROOT
BRANCH   1  14
ATOM      8 CL   UNL     1      12.027  33.558  75.471  0.00  0.00    +0.000 Cl
ATOM      9  C   UNL     1      10.440  33.068  75.913  0.00  0.00    +0.000 A 
ATOM     10  C   UNL     1       9.450  34.015  76.145  0.00  0.00    +0.000 A 
ATOM     11  C   UNL     1      10.137  31.718  75.999  0.00  0.00    +0.000 A 
ATOM     12  C   UNL     1       8.178  33.597  76.550  0.00  0.00    +0.000 A 
ATOM     13  C   UNL     1       8.842  31.311  76.323  0.00  0.00    +0.000 A 
ATOM     14  C   UNL     1       7.884  32.229  76.708  0.00  0.00    +0.000 A 
ENDBRANCH   1  14
BRANCH   5  15
ATOM     15  C   UNL     1       3.811  30.839  78.164  0.00  0.00    +0.000 A 
ATOM     16  S   UNL     1       2.374  31.795  78.125  0.00  0.00    +0.000 S 
ATOM     17  C   UNL     1       3.718  29.770  77.297  0.00  0.00    +0.000 A 
ATOM     18  C   UNL     1       1.671  30.806  76.925  0.00  0.00    +0.000 A 
ATOM     19  C   UNL     1       2.498  29.769  76.562  0.00  0.00    +0.000 A 
ENDBRANCH   5  15
BRANCH   4  20
ATOM     20  C   UNL     1       8.547  30.145  79.509  0.00  0.00    +0.000 C 
ATOM     21  O   UNL     1       9.686  30.587  79.489  0.00  0.00    +0.000 OA
ATOM     22  O   UNL     1       8.317  28.806  79.543  0.00  0.00    +0.000 OA
ENDBRANCH   4  20
BRANCH   7  23
ATOM     23  C   UNL     1       3.990  29.422  80.610  0.00  0.00    +0.000 C 
ATOM     24  O   UNL     1       2.833  29.559  80.977  0.00  0.00    +0.000 OA
ATOM     25  O   UNL     1       4.496  28.214  80.287  0.00  0.00    +0.000 OA
ENDBRANCH   7  23
BRANCH   4  26
ATOM     26  C   UNL     1       7.526  32.296  80.514  0.00  0.00    +0.000 C 
BRANCH  26  27
ATOM     27  C   UNL     1       8.181  33.554  79.904  0.00  0.00    +0.000 C 
ATOM     28  C   UNL     1       7.304  34.806  79.992  0.00  0.00    +0.000 C 
ATOM     29  C   UNL     1       9.455  33.901  80.695  0.00  0.00    +0.000 C 
ENDBRANCH  26  27
ENDBRANCH   4  26
TORSDOF 6
ENDMDL
MODEL 3
REMARK VINA RESULT:      -6.6      3.018      5.484
REMARK  Name = 
REMARK  8 active torsions:
REMARK  status: ('A' for Active; 'I' for Inactive)
REMARK    1  A    between atoms: C_7  and  C_8
REMARK    2  A    between atoms: C_11  and  C_13
REMARK    3  A    between atoms: C_11  and  C_15
REMARK    4  A    between atoms: C_12  and  C_16
REMARK    5  A    between atoms: C_15  and  C_20
REMARK    6  A    between atoms: C_17  and  C_23
REMARK    7  A    between atoms: C_20  and  C_24
REMARK    8  A    between atoms: C_20  and  C_25
REMARK                            x       y       z     vdW  Elec       q    Type
REMARK                         _______ _______ _______ _____ _____    ______ ____
ROOT
ATOM      1  C   UNL     1       8.653  34.323  77.678  0.00  0.00    +0.000 C 
ATOM      2  O   UNL     1       9.380  34.885  78.500  0.00  0.00    +0.000 OA
ATOM      3  N   UNL     1       7.237  34.448  77.736  0.00  0.00    +0.000 N 
ATOM      4  C   UNL     1       6.190  33.549  77.144  0.00  0.00    +0.000 C 
ATOM      5  C   UNL     1       6.676  35.023  79.000  0.00  0.00    +0.000 C 
ATOM      6  C   UNL     1       4.921  34.410  77.469  0.00  0.00    +0.000 C 
ATOM      7  C   UNL     1       5.143  34.975  78.868  0.00  0.00    +0.000 C 
ENDROOT
BRANCH   1  14
ATOM      8 CL   UNL     1      12.013  30.909  74.026  0.00  0.00    +0.000 Cl
ATOM      9  C   UNL     1      11.005  31.885  75.019  0.00  0.00    +0.000 A 
ATOM     10  C   UNL     1      11.112  33.270  74.983  0.00  0.00    +0.000 A 
ATOM     11  C   UNL     1      10.055  31.287  75.831  0.00  0.00    +0.000 A 
ATOM     12  C   UNL     1      10.315  34.045  75.833  0.00  0.00    +0.000 A 
ATOM     13  C   UNL     1       9.208  32.074  76.613  0.00  0.00    +0.000 A 
ATOM     14  C   UNL     1       9.396  33.439  76.711  0.00  0.00    +0.000 A 
ENDBRANCH   1  14
BRANCH   5  15
ATOM     15  C   UNL     1       7.219  36.356  79.431  0.00  0.00    +0.000 A 
ATOM     16  S   UNL     1       7.603  36.584  81.098  0.00  0.00    +0.000 S 
ATOM     17  C   UNL     1       7.508  37.486  78.696  0.00  0.00    +0.000 A 
ATOM     18  C   UNL     1       8.192  38.160  80.814  0.00  0.00    +0.000 A 
ATOM     19  C   UNL     1       8.097  38.514  79.487  0.00  0.00    +0.000 A 
ENDBRANCH   5  15
BRANCH   4  20
ATOM     20  C   UNL     1       6.017  33.410  75.609  0.00  0.00    +0.000 C 
ATOM     21  O   UNL     1       5.520  32.445  75.050  0.00  0.00    +0.000 OA
ATOM     22  O   UNL     1       6.352  34.527  74.911  0.00  0.00    +0.000 OA
ENDBRANCH   4  20
BRANCH   7  23
ATOM     23  C   UNL     1       4.417  36.298  79.016  0.00  0.00    +0.000 C 
ATOM     24  O   UNL     1       4.164  37.051  78.089  0.00  0.00    +0.000 OA
ATOM     25  O   UNL     1       4.025  36.567  80.280  0.00  0.00    +0.000 OA
ENDBRANCH   7  23
BRANCH   4  26
ATOM     26  C   UNL     1       5.982  32.172  77.877  0.00  0.00    +0.000 C 
BRANCH  26  27
ATOM     27  C   UNL     1       4.577  31.550  78.024  0.00  0.00    +0.000 C 
ATOM     28  C   UNL     1       4.462  30.145  77.427  0.00  0.00    +0.000 C 
ATOM     29  C   UNL     1       4.248  31.379  79.518  0.00  0.00    +0.000 C 
ENDBRANCH  26  27
ENDBRANCH   4  26
TORSDOF 6
ENDMDL
MODEL 4
REMARK VINA RESULT:      -6.3      3.670      6.119
REMARK  Name = 
REMARK  8 active torsions:
REMARK  status: ('A' for Active; 'I' for Inactive)
REMARK    1  A    between atoms: C_7  and  C_8
REMARK    2  A    between atoms: C_11  and  C_13
REMARK    3  A    between atoms: C_11  and  C_15
REMARK    4  A    between atoms: C_12  and  C_16
REMARK    5  A    between atoms: C_15  and  C_20
REMARK    6  A    between atoms: C_17  and  C_23
REMARK    7  A    between atoms: C_20  and  C_24
REMARK    8  A    between atoms: C_20  and  C_25
REMARK                            x       y       z     vdW  Elec       q    Type
REMARK                         _______ _______ _______ _____ _____    ______ ____
ROOT
ATOM      1  C   UNL     1       6.500  34.344  79.915  0.00  0.00    +0.000 C 
ATOM      2  O   UNL     1       7.126  33.561  80.633  0.00  0.00    +0.000 OA
ATOM      3  N   UNL     1       6.051  33.962  78.620  0.00  0.00    +0.000 N 
ATOM      4  C   UNL     1       5.677  34.838  77.459  0.00  0.00    +0.000 C 
ATOM      5  C   UNL     1       6.639  32.701  78.063  0.00  0.00    +0.000 C 
ATOM      6  C   UNL     1       5.139  33.733  76.486  0.00  0.00    +0.000 C 
ATOM      7  C   UNL     1       6.083  32.545  76.636  0.00  0.00    +0.000 C 
ENDROOT
BRANCH   1  14
ATOM      8 CL   UNL     1       5.932  39.677  82.656  0.00  0.00    +0.000 Cl
ATOM      9  C   UNL     1       6.068  38.184  81.816  0.00  0.00    +0.000 A 
ATOM     10  C   UNL     1       5.026  37.265  81.843  0.00  0.00    +0.000 A 
ATOM     11  C   UNL     1       7.208  37.914  81.075  0.00  0.00    +0.000 A 
ATOM     12  C   UNL     1       5.176  36.035  81.191  0.00  0.00    +0.000 A 
ATOM     13  C   UNL     1       7.311  36.719  80.361  0.00  0.00    +0.000 A 
ATOM     14  C   UNL     1       6.360  35.726  80.495  0.00  0.00    +0.000 A 
ENDBRANCH   1  14
BRANCH   5  15
ATOM     15  C   UNL     1       6.517  31.470  78.914  0.00  0.00    +0.000 A 
ATOM     16  S   UNL     1       7.886  30.427  79.049  0.00  0.00    +0.000 S 
ATOM     17  C   UNL     1       5.463  31.004  79.672  0.00  0.00    +0.000 A 
ATOM     18  C   UNL     1       7.079  29.401  80.146  0.00  0.00    +0.000 A 
ATOM     19  C   UNL     1       5.796  29.829  80.405  0.00  0.00    +0.000 A 
ENDBRANCH   5  15
BRANCH   4  20
ATOM     20  C   UNL     1       4.432  35.760  77.511  0.00  0.00    +0.000 C 
ATOM     21  O   UNL     1       4.408  36.867  78.027  0.00  0.00    +0.000 OA
ATOM     22  O   UNL     1       3.366  35.293  76.809  0.00  0.00    +0.000 OA
ENDBRANCH   4  20
BRANCH   7  23
ATOM     23  C   UNL     1       5.344  31.253  76.345  0.00  0.00    +0.000 C 
ATOM     24  O   UNL     1       5.882  30.222  75.972  0.00  0.00    +0.000 OA
ATOM     25  O   UNL     1       4.016  31.319  76.578  0.00  0.00    +0.000 OA
ENDBRANCH   7  23
BRANCH   4  26
ATOM     26  C   UNL     1       6.879  35.529  76.713  0.00  0.00    +0.000 C 
BRANCH  26  27
ATOM     27  C   UNL     1       8.309  35.485  77.293  0.00  0.00    +0.000 C 
ATOM     28  C   UNL     1       9.264  34.587  76.503  0.00  0.00    +0.000 C 
ATOM     29  C   UNL     1       8.932  36.891  77.223  0.00  0.00    +0.000 C 
ENDBRANCH  26  27
ENDBRANCH   4  26
TORSDOF 6
ENDMDL
MODEL 5
REMARK VINA RESULT:      -6.3      1.633      2.247
REMARK  Name = 
REMARK  8 active torsions:
REMARK  status: ('A' for Active; 'I' for Inactive)
REMARK    1  A    between atoms: C_7  and  C_8
REMARK    2  A    between atoms: C_11  and  C_13
REMARK    3  A    between atoms: C_11  and  C_15
REMARK    4  A    between atoms: C_12  and  C_16
REMARK    5  A    between atoms: C_15  and  C_20
REMARK    6  A    between atoms: C_17  and  C_23
REMARK    7  A    between atoms: C_20  and  C_24
REMARK    8  A    between atoms: C_20  and  C_25
REMARK                            x       y       z     vdW  Elec       q    Type
REMARK                         _______ _______ _______ _____ _____    ______ ____
ROOT
ATOM      1  C   UNL     1       7.415  32.347  76.881  0.00  0.00    +0.000 C 
ATOM      2  O   UNL     1       6.602  31.977  76.031  0.00  0.00    +0.000 OA
ATOM      3  N   UNL     1       7.021  32.584  78.227  0.00  0.00    +0.000 N 
ATOM      4  C   UNL     1       7.705  33.417  79.274  0.00  0.00    +0.000 C 
ATOM      5  C   UNL     1       5.546  32.666  78.478  0.00  0.00    +0.000 C 
ATOM      6  C   UNL     1       6.796  33.058  80.500  0.00  0.00    +0.000 C 
ATOM      7  C   UNL     1       5.368  33.017  79.967  0.00  0.00    +0.000 C 
ENDROOT
BRANCH   1  14
ATOM      8 CL   UNL     1      12.807  33.153  74.321  0.00  0.00    +0.000 Cl
ATOM      9  C   UNL     1      11.298  32.936  75.114  0.00  0.00    +0.000 A 
ATOM     10  C   UNL     1      10.906  31.675  75.546  0.00  0.00    +0.000 A 
ATOM     11  C   UNL     1      10.486  34.033  75.357  0.00  0.00    +0.000 A 
ATOM     12  C   UNL     1       9.652  31.512  76.146  0.00  0.00    +0.000 A 
ATOM     13  C   UNL     1       9.275  33.870  76.032  0.00  0.00    +0.000 A 
ATOM     14  C   UNL     1       8.793  32.611  76.334  0.00  0.00    +0.000 A 
ENDBRANCH   1  14
BRANCH   5  15
ATOM     15  C   UNL     1       4.720  31.502  78.013  0.00  0.00    +0.000 A 
ATOM     16  S   UNL     1       5.319  29.908  78.294  0.00  0.00    +0.000 S 
ATOM     17  C   UNL     1       3.489  31.466  77.392  0.00  0.00    +0.000 A 
ATOM     18  C   UNL     1       3.918  29.194  77.633  0.00  0.00    +0.000 A 
ATOM     19  C   UNL     1       3.014  30.137  77.200  0.00  0.00    +0.000 A 
ENDBRANCH   5  15
BRANCH   4  20
ATOM     20  C   UNL     1       9.085  33.013  79.852  0.00  0.00    +0.000 C 
ATOM     21  O   UNL     1       9.591  31.907  79.736  0.00  0.00    +0.000 OA
ATOM     22  O   UNL     1       9.776  34.043  80.408  0.00  0.00    +0.000 OA
ENDBRANCH   4  20
BRANCH   7  23
ATOM     23  C   UNL     1       4.534  32.050  80.786  0.00  0.00    +0.000 C 
ATOM     24  O   UNL     1       4.996  31.127  81.438  0.00  0.00    +0.000 OA
ATOM     25  O   UNL     1       3.212  32.322  80.772  0.00  0.00    +0.000 OA
ENDBRANCH   7  23
BRANCH   4  26
ATOM     26  C   UNL     1       7.589  34.976  79.086  0.00  0.00    +0.000 C 
BRANCH  26  27
ATOM     27  C   UNL     1       7.248  35.591  77.712  0.00  0.00    +0.000 C 
ATOM     28  C   UNL     1       5.790  36.040  77.585  0.00  0.00    +0.000 C 
ATOM     29  C   UNL     1       8.080  36.869  77.503  0.00  0.00    +0.000 C 
ENDBRANCH  26  27
ENDBRANCH   4  26
TORSDOF 6
ENDMDL
MODEL 6
REMARK VINA RESULT:      -6.1      2.909      5.451
REMARK  Name = 
REMARK  8 active torsions:
REMARK  status: ('A' for Active; 'I' for Inactive)
REMARK    1  A    between atoms: C_7  and  C_8
REMARK    2  A    between atoms: C_11  and  C_13
REMARK    3  A    between atoms: C_11  and  C_15
REMARK    4  A    between atoms: C_12  and  C_16
REMARK    5  A    between atoms: C_15  and  C_20
REMARK    6  A    between atoms: C_17  and  C_23
REMARK    7  A    between atoms: C_20  and  C_24
REMARK    8  A    between atoms: C_20  and  C_25
REMARK                            x       y       z     vdW  Elec       q    Type
REMARK                         _______ _______ _______ _____ _____    ______ ____
ROOT
ATOM      1  C   UNL     1       7.329  33.667  79.936  0.00  0.00    +0.000 C 
ATOM      2  O   UNL     1       7.182  32.875  80.869  0.00  0.00    +0.000 OA
ATOM      3  N   UNL     1       7.333  33.224  78.584  0.00  0.00    +0.000 N 
ATOM      4  C   UNL     1       7.905  33.906  77.374  0.00  0.00    +0.000 C 
ATOM      5  C   UNL     1       7.466  31.747  78.374  0.00  0.00    +0.000 C 
ATOM      6  C   UNL     1       7.382  32.921  76.272  0.00  0.00    +0.000 C 
ATOM      7  C   UNL     1       7.539  31.520  76.853  0.00  0.00    +0.000 C 
ENDROOT
BRANCH   1  14
ATOM      8 CL   UNL     1       8.719  39.355  81.348  0.00  0.00    +0.000 Cl
ATOM      9  C   UNL     1       8.299  37.724  81.011  0.00  0.00    +0.000 A 
ATOM     10  C   UNL     1       9.227  36.706  81.195  0.00  0.00    +0.000 A 
ATOM     11  C   UNL     1       7.014  37.418  80.589  0.00  0.00    +0.000 A 
ATOM     12  C   UNL     1       8.880  35.390  80.869  0.00  0.00    +0.000 A 
ATOM     13  C   UNL     1       6.655  36.091  80.347  0.00  0.00    +0.000 A 
ATOM     14  C   UNL     1       7.598  35.083  80.374  0.00  0.00    +0.000 A 
ENDBRANCH   1  14
BRANCH   5  15
ATOM     15  C   UNL     1       6.469  30.876  79.082  0.00  0.00    +0.000 A 
ATOM     16  S   UNL     1       7.044  29.468  79.898  0.00  0.00    +0.000 S 
ATOM     17  C   UNL     1       5.105  31.013  79.233  0.00  0.00    +0.000 A 
ATOM     18  C   UNL     1       5.486  29.088  80.479  0.00  0.00    +0.000 A 
ATOM     19  C   UNL     1       4.544  30.000  80.063  0.00  0.00    +0.000 A 
ENDBRANCH   5  15
BRANCH   4  20
ATOM     20  C   UNL     1       7.306  35.232  76.835  0.00  0.00    +0.000 C 
ATOM     21  O   UNL     1       6.195  35.341  76.339  0.00  0.00    +0.000 OA
ATOM     22  O   UNL     1       8.075  36.326  77.076  0.00  0.00    +0.000 OA
ENDBRANCH   4  20
BRANCH   7  23
ATOM     23  C   UNL     1       6.494  30.592  76.264  0.00  0.00    +0.000 C 
ATOM     24  O   UNL     1       5.401  30.957  75.860  0.00  0.00    +0.000 OA
ATOM     25  O   UNL     1       6.891  29.305  76.180  0.00  0.00    +0.000 OA
ENDBRANCH   7  23
BRANCH   4  26
ATOM     26  C   UNL     1       9.475  33.893  77.262  0.00  0.00    +0.000 C 
BRANCH  26  27
ATOM     27  C   UNL     1      10.176  33.720  75.898  0.00  0.00    +0.000 C 
ATOM     28  C   UNL     1      11.131  34.865  75.550  0.00  0.00    +0.000 C 
ATOM     29  C   UNL     1      11.058  32.459  75.933  0.00  0.00    +0.000 C 
ENDBRANCH  26  27
ENDBRANCH   4  26
TORSDOF 6
ENDMDL
MODEL 7
REMARK VINA RESULT:      -6.0      4.424      6.819
REMARK  Name = 
REMARK  8 active torsions:
REMARK  status: ('A' for Active; 'I' for Inactive)
REMARK    1  A    between atoms: C_7  and  C_8
REMARK    2  A    between atoms: C_11  and  C_13
REMARK    3  A    between atoms: C_11  and  C_15
REMARK    4  A    between atoms: C_12  and  C_16
REMARK    5  A    between atoms: C_15  and  C_20
REMARK    6  A    between atoms: C_17  and  C_23
REMARK    7  A    between atoms: C_20  and  C_24
REMARK    8  A    between atoms: C_20  and  C_25
REMARK                            x       y       z     vdW  Elec       q    Type
REMARK                         _______ _______ _______ _____ _____    ______ ____
ROOT
ATOM      1  C   UNL     1       4.110  33.591  80.459  0.00  0.00    +0.000 C 
ATOM      2  O   UNL     1       4.199  32.644  81.243  0.00  0.00    +0.000 OA
ATOM      3  N   UNL     1       4.802  33.588  79.216  0.00  0.00    +0.000 N 
ATOM      4  C   UNL     1       5.176  34.755  78.346  0.00  0.00    +0.000 C 
ATOM      5  C   UNL     1       5.867  32.547  79.055  0.00  0.00    +0.000 C 
ATOM      6  C   UNL     1       5.739  33.966  77.114  0.00  0.00    +0.000 C 
ATOM      7  C   UNL     1       6.530  32.797  77.689  0.00  0.00    +0.000 C 
ENDROOT
BRANCH   1  14
ATOM      8 CL   UNL     1       1.146  38.497  82.307  0.00  0.00    +0.000 Cl
ATOM      9  C   UNL     1       1.972  37.065  81.839  0.00  0.00    +0.000 A 
ATOM     10  C   UNL     1       3.309  36.885  82.170  0.00  0.00    +0.000 A 
ATOM     11  C   UNL     1       1.288  36.069  81.160  0.00  0.00    +0.000 A 
ATOM     12  C   UNL     1       3.977  35.733  81.738  0.00  0.00    +0.000 A 
ATOM     13  C   UNL     1       1.943  34.887  80.807  0.00  0.00    +0.000 A 
ATOM     14  C   UNL     1       3.306  34.748  80.988  0.00  0.00    +0.000 A 
ENDBRANCH   1  14
BRANCH   5  15
ATOM     15  C   UNL     1       5.455  31.122  79.292  0.00  0.00    +0.000 A 
ATOM     16  S   UNL     1       6.476  30.123  80.260  0.00  0.00    +0.000 S 
ATOM     17  C   UNL     1       4.335  30.432  78.878  0.00  0.00    +0.000 A 
ATOM     18  C   UNL     1       5.396  28.807  80.157  0.00  0.00    +0.000 A 
ATOM     19  C   UNL     1       4.286  29.108  79.401  0.00  0.00    +0.000 A 
ENDBRANCH   5  15
BRANCH   4  20
ATOM     20  C   UNL     1       4.096  35.608  77.632  0.00  0.00    +0.000 C 
ATOM     21  O   UNL     1       3.520  35.282  76.606  0.00  0.00    +0.000 OA
ATOM     22  O   UNL     1       3.730  36.724  78.315  0.00  0.00    +0.000 OA
ENDBRANCH   4  20
BRANCH   7  23
ATOM     23  C   UNL     1       6.518  31.632  76.717  0.00  0.00    +0.000 C 
ATOM     24  O   UNL     1       5.644  31.440  75.886  0.00  0.00    +0.000 OA
ATOM     25  O   UNL     1       7.597  30.828  76.815  0.00  0.00    +0.000 OA
ENDBRANCH   7  23
BRANCH   4  26
ATOM     26  C   UNL     1       6.362  35.645  78.874  0.00  0.00    +0.000 C 
BRANCH  26  27
ATOM     27  C   UNL     1       6.963  36.769  78.005  0.00  0.00    +0.000 C 
ATOM     28  C   UNL     1       6.991  38.134  78.698  0.00  0.00    +0.000 C 
ATOM     29  C   UNL     1       8.438  36.446  77.699  0.00  0.00    +0.000 C 
ENDBRANCH  26  27
ENDBRANCH   4  26
TORSDOF 6
ENDMDL
MODEL 8
REMARK VINA RESULT:      -6.0      2.948      5.482
REMARK  Name = 
REMARK  8 active torsions:
REMARK  status: ('A' for Active; 'I' for Inactive)
REMARK    1  A    between atoms: C_7  and  C_8
REMARK    2  A    between atoms: C_11  and  C_13
REMARK    3  A    between atoms: C_11  and  C_15
REMARK    4  A    between atoms: C_12  and  C_16
REMARK    5  A    between atoms: C_15  and  C_20
REMARK    6  A    between atoms: C_17  and  C_23
REMARK    7  A    between atoms: C_20  and  C_24
REMARK    8  A    between atoms: C_20  and  C_25
REMARK                            x       y       z     vdW  Elec       q    Type
REMARK                         _______ _______ _______ _____ _____    ______ ____
ROOT
ATOM      1  C   UNL     1       7.310  34.047  79.648  0.00  0.00    +0.000 C 
ATOM      2  O   UNL     1       6.553  33.344  80.321  0.00  0.00    +0.000 OA
ATOM      3  N   UNL     1       7.341  33.950  78.229  0.00  0.00    +0.000 N 
ATOM      4  C   UNL     1       8.432  34.365  77.283  0.00  0.00    +0.000 C 
ATOM      5  C   UNL     1       6.656  32.758  77.633  0.00  0.00    +0.000 C 
ATOM      6  C   UNL     1       7.684  34.114  75.927  0.00  0.00    +0.000 C 
ATOM      7  C   UNL     1       6.900  32.820  76.114  0.00  0.00    +0.000 C 
ENDROOT
BRANCH   1  14
ATOM      8 CL   UNL     1      10.679  37.500  83.254  0.00  0.00    +0.000 Cl
ATOM      9  C   UNL     1       9.754  36.538  82.171  0.00  0.00    +0.000 A 
ATOM     10  C   UNL     1       8.586  37.038  81.608  0.00  0.00    +0.000 A 
ATOM     11  C   UNL     1      10.199  35.271  81.827  0.00  0.00    +0.000 A 
ATOM     12  C   UNL     1       7.823  36.222  80.766  0.00  0.00    +0.000 A 
ATOM     13  C   UNL     1       9.473  34.498  80.919  0.00  0.00    +0.000 A 
ATOM     14  C   UNL     1       8.234  34.908  80.467  0.00  0.00    +0.000 A 
ENDBRANCH   1  14
BRANCH   5  15
ATOM     15  C   UNL     1       5.222  32.544  78.022  0.00  0.00    +0.000 A 
ATOM     16  S   UNL     1       4.738  30.968  78.531  0.00  0.00    +0.000 S 
ATOM     17  C   UNL     1       4.165  33.428  78.076  0.00  0.00    +0.000 A 
ATOM     18  C   UNL     1       3.148  31.491  78.862  0.00  0.00    +0.000 A 
ATOM     19  C   UNL     1       2.978  32.830  78.588  0.00  0.00    +0.000 A 
ENDBRANCH   5  15
BRANCH   4  20
ATOM     20  C   UNL     1       8.812  35.856  77.092  0.00  0.00    +0.000 C 
ATOM     21  O   UNL     1       9.899  36.252  76.700  0.00  0.00    +0.000 OA
ATOM     22  O   UNL     1       7.778  36.719  77.274  0.00  0.00    +0.000 OA
ENDBRANCH   4  20
BRANCH   7  23
ATOM     23  C   UNL     1       5.661  32.832  75.238  0.00  0.00    +0.000 C 
ATOM     24  O   UNL     1       5.193  33.835  74.724  0.00  0.00    +0.000 OA
ATOM     25  O   UNL     1       5.127  31.609  75.032  0.00  0.00    +0.000 OA
ENDBRANCH   7  23
BRANCH   4  26
ATOM     26  C   UNL     1       9.702  33.436  77.259  0.00  0.00    +0.000 C 
BRANCH  26  27
ATOM     27  C   UNL     1      10.433  33.118  75.937  0.00  0.00    +0.000 C 
ATOM     28  C   UNL     1      11.921  33.477  75.957  0.00  0.00    +0.000 C 
ATOM     29  C   UNL     1      10.391  31.600  75.682  0.00  0.00    +0.000 C 
ENDBRANCH  26  27
ENDBRANCH   4  26
TORSDOF 6
ENDMDL
MODEL 9
REMARK VINA RESULT:      -5.8      1.338      1.866
REMARK  Name = 
REMARK  8 active torsions:
REMARK  status: ('A' for Active; 'I' for Inactive)
REMARK    1  A    between atoms: C_7  and  C_8
REMARK    2  A    between atoms: C_11  and  C_13
REMARK    3  A    between atoms: C_11  and  C_15
REMARK    4  A    between atoms: C_12  and  C_16
REMARK    5  A    between atoms: C_15  and  C_20
REMARK    6  A    between atoms: C_17  and  C_23
REMARK    7  A    between atoms: C_20  and  C_24
REMARK    8  A    between atoms: C_20  and  C_25
REMARK                            x       y       z     vdW  Elec       q    Type
REMARK                         _______ _______ _______ _____ _____    ______ ____
ROOT
ATOM      1  C   UNL     1       7.091  32.939  77.426  0.00  0.00    +0.000 C 
ATOM      2  O   UNL     1       6.289  32.691  76.523  0.00  0.00    +0.000 OA
ATOM      3  N   UNL     1       6.766  32.696  78.790  0.00  0.00    +0.000 N 
ATOM      4  C   UNL     1       7.378  33.297  80.023  0.00  0.00    +0.000 C 
ATOM      5  C   UNL     1       5.321  32.430  79.087  0.00  0.00    +0.000 C 
ATOM      6  C   UNL     1       6.639  32.435  81.104  0.00  0.00    +0.000 C 
ATOM      7  C   UNL     1       5.201  32.292  80.615  0.00  0.00    +0.000 C 
ENDROOT
BRANCH   1  14
ATOM      8 CL   UNL     1      12.046  35.454  75.103  0.00  0.00    +0.000 Cl
ATOM      9  C   UNL     1      10.665  34.732  75.827  0.00  0.00    +0.000 A 
ATOM     10  C   UNL     1      10.495  33.353  75.796  0.00  0.00    +0.000 A 
ATOM     11  C   UNL     1       9.736  35.527  76.480  0.00  0.00    +0.000 A 
ATOM     12  C   UNL     1       9.341  32.788  76.350  0.00  0.00    +0.000 A 
ATOM     13  C   UNL     1       8.631  34.945  77.101  0.00  0.00    +0.000 A 
ATOM     14  C   UNL     1       8.359  33.598  76.953  0.00  0.00    +0.000 A 
ENDBRANCH   1  14
BRANCH   5  15
ATOM     15  C   UNL     1       4.669  31.322  78.311  0.00  0.00    +0.000 A 
ATOM     16  S   UNL     1       3.087  31.587  77.675  0.00  0.00    +0.000 S 
ATOM     17  C   UNL     1       5.136  30.070  77.971  0.00  0.00    +0.000 A 
ATOM     18  C   UNL     1       3.064  30.059  76.918  0.00  0.00    +0.000 A 
ATOM     19  C   UNL     1       4.224  29.354  77.143  0.00  0.00    +0.000 A 
ENDBRANCH   5  15
BRANCH   4  20
ATOM     20  C   UNL     1       8.847  33.000  80.422  0.00  0.00    +0.000 C 
ATOM     21  O   UNL     1       9.814  33.187  79.700  0.00  0.00    +0.000 OA
ATOM     22  O   UNL     1       9.004  32.625  81.718  0.00  0.00    +0.000 OA
ENDBRANCH   4  20
BRANCH   7  23
ATOM     23  C   UNL     1       4.606  30.992  81.124  0.00  0.00    +0.000 C 
ATOM     24  O   UNL     1       5.255  29.984  81.355  0.00  0.00    +0.000 OA
ATOM     25  O   UNL     1       3.276  31.051  81.347  0.00  0.00    +0.000 OA
ENDBRANCH   7  23
BRANCH   4  26
ATOM     26  C   UNL     1       6.989  34.793  80.316  0.00  0.00    +0.000 C 
BRANCH  26  27
ATOM     27  C   UNL     1       8.059  35.834  80.708  0.00  0.00    +0.000 C 
ATOM     28  C   UNL     1       7.911  37.172  79.980  0.00  0.00    +0.000 C 
ATOM     29  C   UNL     1       7.918  36.174  82.203  0.00  0.00    +0.000 C 
ENDBRANCH  26  27
ENDBRANCH   4  26
TORSDOF 6
ENDMDL
