MODEL 1
REMARK VINA RESULT:      -7.3      0.000      0.000
REMARK  Name = 
REMARK  9 active torsions:
REMARK  status: ('A' for Active; 'I' for Inactive)
REMARK    1  A    between atoms: C_2  and  C_5
REMARK    2  A    between atoms: C_8  and  C_11
REMARK    3  A    between atoms: C_9  and  C_14
REMARK    4  A    between atoms: C_10  and  C_15
REMARK    5  A    between atoms: C_10  and  C_16
REMARK    6  A    between atoms: C_16  and  C_23
REMARK    7  A    between atoms: C_23  and  C_26
REMARK    8  A    between atoms: C_23  and  C_27
REMARK    9  A    between atoms: C_28  and  N_29
REMARK                            x       y       z     vdW  Elec       q    Type
REMARK                         _______ _______ _______ _____ _____    ______ ____
ROOT
ATOM      1  C   UNL     1       7.067  33.468  78.903  0.00  0.00    +0.000 C 
ATOM      2  N   UNL     1       6.468  33.160  77.589  0.00  0.00    +0.000 N 
ATOM      3  C   UNL     1       6.160  32.716  79.872  0.00  0.00    +0.000 C 
ATOM      4  C   UNL     1       7.108  33.114  76.353  0.00  0.00    +0.000 C 
ATOM      5  C   UNL     1       4.991  32.963  77.728  0.00  0.00    +0.000 C 
ATOM      6  C   UNL     1       4.769  32.877  79.273  0.00  0.00    +0.000 C 
ATOM      7  O   UNL     1       6.431  33.115  75.321  0.00  0.00    +0.000 OA
ENDROOT
BRANCH   4   8
ATOM      8  C   UNL     1       8.590  33.066  76.201  0.00  0.00    +0.000 A 
ATOM      9  C   UNL     1       9.331  31.888  76.092  0.00  0.00    +0.000 A 
ATOM     10  C   UNL     1       9.267  34.293  76.063  0.00  0.00    +0.000 A 
ATOM     11  C   UNL     1      10.724  31.912  76.056  0.00  0.00    +0.000 A 
ATOM     12  C   UNL     1      10.662  34.334  75.945  0.00  0.00    +0.000 A 
ATOM     13  C   UNL     1      11.389  33.138  75.991  0.00  0.00    +0.000 A 
BRANCH  13  14
ATOM     14  N   UNL     1      12.852  33.159  75.948  0.00  0.00    +0.000 N 
ATOM     15  O   UNL     1      13.429  34.190  76.319  0.00  0.00    +0.000 OA
ATOM     16  O   UNL     1      13.426  32.137  75.543  0.00  0.00    +0.000 OA
ENDBRANCH  13  14
ENDBRANCH   4   8
BRANCH   1  18
ATOM     17  S   UNL     1       8.698  35.597  79.647  0.00  0.00    +0.000 S 
ATOM     18  C   UNL     1       7.198  34.970  79.059  0.00  0.00    +0.000 A 
ATOM     19  C   UNL     1       8.170  37.211  79.512  0.00  0.00    +0.000 A 
ATOM     20  C   UNL     1       6.312  36.005  78.814  0.00  0.00    +0.000 A 
ATOM     21  C   UNL     1       6.881  37.291  79.045  0.00  0.00    +0.000 A 
ENDBRANCH   1  18
BRANCH   3  22
ATOM     22  C   UNL     1       6.403  33.100  81.309  0.00  0.00    +0.000 C 
ATOM     23  O   UNL     1       5.630  33.799  81.948  0.00  0.00    +0.000 OA
ATOM     24  O   UNL     1       7.602  32.741  81.809  0.00  0.00    +0.000 OA
ENDBRANCH   3  22
BRANCH   5  25
ATOM     25  C   UNL     1       4.177  34.188  77.193  0.00  0.00    +0.000 C 
ATOM     26  O   UNL     1       4.463  34.793  76.166  0.00  0.00    +0.000 OA
ATOM     27  O   UNL     1       3.178  34.620  77.991  0.00  0.00    +0.000 OA
ENDBRANCH   5  25
BRANCH   5  28
ATOM     28  C   UNL     1       4.404  31.713  77.003  0.00  0.00    +0.000 C 
BRANCH  28  29
ATOM     29  C   UNL     1       4.911  30.300  77.370  0.00  0.00    +0.000 C 
ATOM     30  C   UNL     1       3.735  29.313  77.309  0.00  0.00    +0.000 C 
ATOM     31  C   UNL     1       6.014  29.766  76.461  0.00  0.00    +0.000 C 
ENDBRANCH  28  29
ENDBRANCH   5  28
TORSDOF 7
ENDMDL
MODEL 2
REMARK VINA RESULT:      -7.0      2.711      5.218
REMARK  Name = 
REMARK  9 active torsions:
REMARK  status: ('A' for Active; 'I' for Inactive)
REMARK    1  A    between atoms: C_2  and  C_5
REMARK    2  A    between atoms: C_8  and  C_11
REMARK    3  A    between atoms: C_9  and  C_14
REMARK    4  A    between atoms: C_10  and  C_15
REMARK    5  A    between atoms: C_10  and  C_16
REMARK    6  A    between atoms: C_16  and  C_23
REMARK    7  A    between atoms: C_23  and  C_26
REMARK    8  A    between atoms: C_23  and  C_27
REMARK    9  A    between atoms: C_28  and  N_29
REMARK                            x       y       z     vdW  Elec       q    Type
REMARK                         _______ _______ _______ _____ _____    ______ ____
ROOT
ATOM      1  C   UNL     1       7.391  32.937  79.200  0.00  0.00    +0.000 C 
ATOM      2  N   UNL     1       7.514  33.222  77.757  0.00  0.00    +0.000 N 
ATOM      3  C   UNL     1       8.201  31.653  79.360  0.00  0.00    +0.000 C 
ATOM      4  C   UNL     1       7.451  34.463  77.127  0.00  0.00    +0.000 C 
ATOM      5  C   UNL     1       7.647  31.946  76.986  0.00  0.00    +0.000 C 
ATOM      6  C   UNL     1       7.899  30.868  78.090  0.00  0.00    +0.000 C 
ATOM      7  O   UNL     1       7.296  34.514  75.904  0.00  0.00    +0.000 OA
ENDROOT
BRANCH   4   8
ATOM      8  C   UNL     1       7.559  35.757  77.860  0.00  0.00    +0.000 A 
ATOM      9  C   UNL     1       8.642  36.117  78.663  0.00  0.00    +0.000 A 
ATOM     10  C   UNL     1       6.545  36.710  77.645  0.00  0.00    +0.000 A 
ATOM     11  C   UNL     1       8.632  37.299  79.402  0.00  0.00    +0.000 A 
ATOM     12  C   UNL     1       6.559  37.938  78.318  0.00  0.00    +0.000 A 
ATOM     13  C   UNL     1       7.584  38.205  79.235  0.00  0.00    +0.000 A 
BRANCH  13  14
ATOM     14  N   UNL     1       7.580  39.448  80.007  0.00  0.00    +0.000 N 
ATOM     15  O   UNL     1       6.502  40.040  80.148  0.00  0.00    +0.000 OA
ATOM     16  O   UNL     1       8.661  39.830  80.480  0.00  0.00    +0.000 OA
ENDBRANCH  13  14
ENDBRANCH   4   8
BRANCH   1  18
ATOM     17  S   UNL     1       5.317  34.231  80.530  0.00  0.00    +0.000 S 
ATOM     18  C   UNL     1       5.926  32.915  79.588  0.00  0.00    +0.000 A 
ATOM     19  C   UNL     1       3.732  33.605  80.527  0.00  0.00    +0.000 A 
ATOM     20  C   UNL     1       4.915  32.006  79.328  0.00  0.00    +0.000 A 
ATOM     21  C   UNL     1       3.650  32.419  79.841  0.00  0.00    +0.000 A 
ENDBRANCH   1  18
BRANCH   3  22
ATOM     22  C   UNL     1       7.998  31.004  80.704  0.00  0.00    +0.000 C 
ATOM     23  O   UNL     1       8.374  31.514  81.750  0.00  0.00    +0.000 OA
ATOM     24  O   UNL     1       7.501  29.752  80.673  0.00  0.00    +0.000 OA
ENDBRANCH   3  22
BRANCH   5  25
ATOM     25  C   UNL     1       6.328  31.567  76.235  0.00  0.00    +0.000 C 
ATOM     26  O   UNL     1       5.507  32.392  75.851  0.00  0.00    +0.000 OA
ATOM     27  O   UNL     1       6.082  30.245  76.117  0.00  0.00    +0.000 OA
ENDBRANCH   5  25
BRANCH   5  28
ATOM     28  C   UNL     1       8.773  31.922  75.907  0.00  0.00    +0.000 C 
BRANCH  28  29
ATOM     29  C   UNL     1      10.253  31.810  76.338  0.00  0.00    +0.000 C 
ATOM     30  C   UNL     1      11.104  31.429  75.117  0.00  0.00    +0.000 C 
ATOM     31  C   UNL     1      10.837  33.087  76.934  0.00  0.00    +0.000 C 
ENDBRANCH  28  29
ENDBRANCH   5  28
TORSDOF 7
ENDMDL
MODEL 3
REMARK VINA RESULT:      -6.9      2.300      4.796
REMARK  Name = 
REMARK  9 active torsions:
REMARK  status: ('A' for Active; 'I' for Inactive)
REMARK    1  A    between atoms: C_2  and  C_5
REMARK    2  A    between atoms: C_8  and  C_11
REMARK    3  A    between atoms: C_9  and  C_14
REMARK    4  A    between atoms: C_10  and  C_15
REMARK    5  A    between atoms: C_10  and  C_16
REMARK    6  A    between atoms: C_16  and  C_23
REMARK    7  A    between atoms: C_23  and  C_26
REMARK    8  A    between atoms: C_23  and  C_27
REMARK    9  A    between atoms: C_28  and  N_29
REMARK                            x       y       z     vdW  Elec       q    Type
REMARK                         _______ _______ _______ _____ _____    ______ ____
ROOT
ATOM      1  C   UNL     1       6.952  33.089  78.213  0.00  0.00    +0.000 C 
ATOM      2  N   UNL     1       7.956  32.444  79.081  0.00  0.00    +0.000 N 
ATOM      3  C   UNL     1       6.158  33.946  79.195  0.00  0.00    +0.000 C 
ATOM      4  C   UNL     1       9.225  31.994  78.725  0.00  0.00    +0.000 C 
ATOM      5  C   UNL     1       7.400  32.245  80.457  0.00  0.00    +0.000 C 
ATOM      6  C   UNL     1       6.084  33.089  80.453  0.00  0.00    +0.000 C 
ATOM      7  O   UNL     1       9.834  31.235  79.484  0.00  0.00    +0.000 OA
ENDROOT
BRANCH   4   8
ATOM      8  C   UNL     1       9.901  32.379  77.453  0.00  0.00    +0.000 A 
ATOM      9  C   UNL     1       9.871  31.615  76.285  0.00  0.00    +0.000 A 
ATOM     10  C   UNL     1      10.527  33.639  77.407  0.00  0.00    +0.000 A 
ATOM     11  C   UNL     1      10.610  31.982  75.162  0.00  0.00    +0.000 A 
ATOM     12  C   UNL     1      11.207  34.062  76.258  0.00  0.00    +0.000 A 
ATOM     13  C   UNL     1      11.286  33.204  75.154  0.00  0.00    +0.000 A 
BRANCH  13  14
ATOM     14  N   UNL     1      12.056  33.590  73.971  0.00  0.00    +0.000 N 
ATOM     15  O   UNL     1      11.983  34.765  73.588  0.00  0.00    +0.000 OA
ATOM     16  O   UNL     1      12.743  32.712  73.425  0.00  0.00    +0.000 OA
ENDBRANCH  13  14
ENDBRANCH   4   8
BRANCH   1  18
ATOM     17  S   UNL     1       5.628  32.453  75.850  0.00  0.00    +0.000 S 
ATOM     18  C   UNL     1       6.212  32.030  77.422  0.00  0.00    +0.000 A 
ATOM     19  C   UNL     1       5.015  30.888  75.568  0.00  0.00    +0.000 A 
ATOM     20  C   UNL     1       5.888  30.717  77.713  0.00  0.00    +0.000 A 
ATOM     21  C   UNL     1       5.229  30.054  76.637  0.00  0.00    +0.000 A 
ENDBRANCH   1  18
BRANCH   3  22
ATOM     22  C   UNL     1       4.892  34.496  78.592  0.00  0.00    +0.000 C 
ATOM     23  O   UNL     1       4.881  35.453  77.831  0.00  0.00    +0.000 OA
ATOM     24  O   UNL     1       3.748  33.955  79.056  0.00  0.00    +0.000 OA
ENDBRANCH   3  22
BRANCH   5  25
ATOM     25  C   UNL     1       7.014  30.754  80.730  0.00  0.00    +0.000 C 
ATOM     26  O   UNL     1       7.797  29.819  80.604  0.00  0.00    +0.000 OA
ATOM     27  O   UNL     1       5.715  30.530  81.023  0.00  0.00    +0.000 OA
ENDBRANCH   5  25
BRANCH   5  28
ATOM     28  C   UNL     1       8.336  32.665  81.632  0.00  0.00    +0.000 C 
BRANCH  28  29
ATOM     29  C   UNL     1       8.635  34.160  81.884  0.00  0.00    +0.000 C 
ATOM     30  C   UNL     1       8.709  34.409  83.398  0.00  0.00    +0.000 C 
ATOM     31  C   UNL     1       9.937  34.658  81.266  0.00  0.00    +0.000 C 
ENDBRANCH  28  29
ENDBRANCH   5  28
TORSDOF 7
ENDMDL
MODEL 4
REMARK VINA RESULT:      -6.9      2.676      6.494
REMARK  Name = 
REMARK  9 active torsions:
REMARK  status: ('A' for Active; 'I' for Inactive)
REMARK    1  A    between atoms: C_2  and  C_5
REMARK    2  A    between atoms: C_8  and  C_11
REMARK    3  A    between atoms: C_9  and  C_14
REMARK    4  A    between atoms: C_10  and  C_15
REMARK    5  A    between atoms: C_10  and  C_16
REMARK    6  A    between atoms: C_16  and  C_23
REMARK    7  A    between atoms: C_23  and  C_26
REMARK    8  A    between atoms: C_23  and  C_27
REMARK    9  A    between atoms: C_28  and  N_29
REMARK                            x       y       z     vdW  Elec       q    Type
REMARK                         _______ _______ _______ _____ _____    ______ ____
ROOT
ATOM      1  C   UNL     1       8.144  34.150  77.381  0.00  0.00    +0.000 C 
ATOM      2  N   UNL     1       8.854  33.093  76.635  0.00  0.00    +0.000 N 
ATOM      3  C   UNL     1       8.614  35.427  76.690  0.00  0.00    +0.000 C 
ATOM      4  C   UNL     1       8.457  31.772  76.446  0.00  0.00    +0.000 C 
ATOM      5  C   UNL     1      10.167  33.608  76.132  0.00  0.00    +0.000 C 
ATOM      6  C   UNL     1      10.078  35.151  76.369  0.00  0.00    +0.000 C 
ATOM      7  O   UNL     1       9.278  30.945  76.040  0.00  0.00    +0.000 OA
ENDROOT
BRANCH   4   8
ATOM      8  C   UNL     1       7.072  31.288  76.716  0.00  0.00    +0.000 A 
ATOM      9  C   UNL     1       5.967  31.583  75.916  0.00  0.00    +0.000 A 
ATOM     10  C   UNL     1       6.895  30.400  77.794  0.00  0.00    +0.000 A 
ATOM     11  C   UNL     1       4.683  31.185  76.282  0.00  0.00    +0.000 A 
ATOM     12  C   UNL     1       5.621  29.923  78.129  0.00  0.00    +0.000 A 
ATOM     13  C   UNL     1       4.511  30.360  77.396  0.00  0.00    +0.000 A 
BRANCH  13  14
ATOM     14  N   UNL     1       3.162  29.938  77.774  0.00  0.00    +0.000 N 
ATOM     15  O   UNL     1       2.931  29.738  78.974  0.00  0.00    +0.000 OA
ATOM     16  O   UNL     1       2.327  29.811  76.866  0.00  0.00    +0.000 OA
ENDBRANCH  13  14
ENDBRANCH   4   8
BRANCH   1  18
ATOM     17  S   UNL     1       7.112  33.485  79.879  0.00  0.00    +0.000 S 
ATOM     18  C   UNL     1       8.416  33.993  78.863  0.00  0.00    +0.000 A 
ATOM     19  C   UNL     1       8.094  33.472  81.271  0.00  0.00    +0.000 A 
ATOM     20  C   UNL     1       9.561  34.182  79.617  0.00  0.00    +0.000 A 
ATOM     21  C   UNL     1       9.383  33.853  80.993  0.00  0.00    +0.000 A 
ENDBRANCH   1  18
BRANCH   3  22
ATOM     22  C   UNL     1       8.240  36.671  77.453  0.00  0.00    +0.000 C 
ATOM     23  O   UNL     1       7.080  37.002  77.651  0.00  0.00    +0.000 OA
ATOM     24  O   UNL     1       9.267  37.478  77.783  0.00  0.00    +0.000 OA
ENDBRANCH   3  22
BRANCH   5  25
ATOM     25  C   UNL     1      11.374  33.063  76.965  0.00  0.00    +0.000 C 
ATOM     26  O   UNL     1      11.320  32.046  77.648  0.00  0.00    +0.000 OA
ATOM     27  O   UNL     1      12.477  33.841  76.975  0.00  0.00    +0.000 OA
ENDBRANCH   5  25
BRANCH   5  28
ATOM     28  C   UNL     1      10.496  33.283  74.643  0.00  0.00    +0.000 C 
BRANCH  28  29
ATOM     29  C   UNL     1      11.906  32.783  74.256  0.00  0.00    +0.000 C 
ATOM     30  C   UNL     1      11.805  31.336  73.751  0.00  0.00    +0.000 C 
ATOM     31  C   UNL     1      12.595  33.607  73.172  0.00  0.00    +0.000 C 
ENDBRANCH  28  29
ENDBRANCH   5  28
TORSDOF 7
ENDMDL
MODEL 5
REMARK VINA RESULT:      -6.9      2.996      6.302
REMARK  Name = 
REMARK  9 active torsions:
REMARK  status: ('A' for Active; 'I' for Inactive)
REMARK    1  A    between atoms: C_2  and  C_5
REMARK    2  A    between atoms: C_8  and  C_11
REMARK    3  A    between atoms: C_9  and  C_14
REMARK    4  A    between atoms: C_10  and  C_15
REMARK    5  A    between atoms: C_10  and  C_16
REMARK    6  A    between atoms: C_16  and  C_23
REMARK    7  A    between atoms: C_23  and  C_26
REMARK    8  A    between atoms: C_23  and  C_27
REMARK    9  A    between atoms: C_28  and  N_29
REMARK                            x       y       z     vdW  Elec       q    Type
REMARK                         _______ _______ _______ _____ _____    ______ ____
ROOT
ATOM      1  C   UNL     1       6.805  32.807  77.274  0.00  0.00    +0.000 C 
ATOM      2  N   UNL     1       8.070  33.057  77.992  0.00  0.00    +0.000 N 
ATOM      3  C   UNL     1       7.166  33.134  75.828  0.00  0.00    +0.000 C 
ATOM      4  C   UNL     1       8.509  32.465  79.174  0.00  0.00    +0.000 C 
ATOM      5  C   UNL     1       8.847  34.139  77.309  0.00  0.00    +0.000 C 
ATOM      6  C   UNL     1       8.104  34.328  75.946  0.00  0.00    +0.000 C 
ATOM      7  O   UNL     1       9.449  32.972  79.792  0.00  0.00    +0.000 OA
ENDROOT
BRANCH   4   8
ATOM      8  C   UNL     1       7.893  31.235  79.749  0.00  0.00    +0.000 A 
ATOM      9  C   UNL     1       8.183  29.938  79.320  0.00  0.00    +0.000 A 
ATOM     10  C   UNL     1       7.040  31.394  80.857  0.00  0.00    +0.000 A 
ATOM     11  C   UNL     1       7.495  28.838  79.830  0.00  0.00    +0.000 A 
ATOM     12  C   UNL     1       6.402  30.290  81.436  0.00  0.00    +0.000 A 
ATOM     13  C   UNL     1       6.597  29.018  80.884  0.00  0.00    +0.000 A 
BRANCH  13  14
ATOM     14  N   UNL     1       5.881  27.860  81.421  0.00  0.00    +0.000 N 
ATOM     15  O   UNL     1       6.463  27.154  82.256  0.00  0.00    +0.000 OA
ATOM     16  O   UNL     1       4.729  27.659  81.009  0.00  0.00    +0.000 OA
ENDBRANCH  13  14
ENDBRANCH   4   8
BRANCH   1  18
ATOM     17  S   UNL     1       4.412  32.706  78.692  0.00  0.00    +0.000 S 
ATOM     18  C   UNL     1       5.687  33.592  77.930  0.00  0.00    +0.000 A 
ATOM     19  C   UNL     1       3.627  34.126  79.213  0.00  0.00    +0.000 A 
ATOM     20  C   UNL     1       5.462  34.952  78.054  0.00  0.00    +0.000 A 
ATOM     21  C   UNL     1       4.297  35.257  78.816  0.00  0.00    +0.000 A 
ENDBRANCH   1  18
BRANCH   3  22
ATOM     22  C   UNL     1       5.957  33.220  74.934  0.00  0.00    +0.000 C 
ATOM     23  O   UNL     1       5.117  32.335  74.867  0.00  0.00    +0.000 OA
ATOM     24  O   UNL     1       5.930  34.278  74.099  0.00  0.00    +0.000 OA
ENDBRANCH   3  22
BRANCH   5  25
ATOM     25  C   UNL     1       8.780  35.496  78.085  0.00  0.00    +0.000 C 
ATOM     26  O   UNL     1       8.495  35.582  79.274  0.00  0.00    +0.000 OA
ATOM     27  O   UNL     1       8.959  36.607  77.338  0.00  0.00    +0.000 OA
ENDBRANCH   5  25
BRANCH   5  28
ATOM     28  C   UNL     1      10.364  33.848  77.090  0.00  0.00    +0.000 C 
BRANCH  28  29
ATOM     29  C   UNL     1      10.848  33.245  75.752  0.00  0.00    +0.000 C 
ATOM     30  C   UNL     1      12.330  33.596  75.551  0.00  0.00    +0.000 C 
ATOM     31  C   UNL     1      10.710  31.730  75.653  0.00  0.00    +0.000 C 
ENDBRANCH  28  29
ENDBRANCH   5  28
TORSDOF 7
ENDMDL
MODEL 6
REMARK VINA RESULT:      -6.7      1.836      5.023
REMARK  Name = 
REMARK  9 active torsions:
REMARK  status: ('A' for Active; 'I' for Inactive)
REMARK    1  A    between atoms: C_2  and  C_5
REMARK    2  A    between atoms: C_8  and  C_11
REMARK    3  A    between atoms: C_9  and  C_14
REMARK    4  A    between atoms: C_10  and  C_15
REMARK    5  A    between atoms: C_10  and  C_16
REMARK    6  A    between atoms: C_16  and  C_23
REMARK    7  A    between atoms: C_23  and  C_26
REMARK    8  A    between atoms: C_23  and  C_27
REMARK    9  A    between atoms: C_28  and  N_29
REMARK                            x       y       z     vdW  Elec       q    Type
REMARK                         _______ _______ _______ _____ _____    ______ ____
ROOT
ATOM      1  C   UNL     1       6.883  34.115  77.586  0.00  0.00    +0.000 C 
ATOM      2  N   UNL     1       7.929  34.398  78.588  0.00  0.00    +0.000 N 
ATOM      3  C   UNL     1       5.901  35.265  77.790  0.00  0.00    +0.000 C 
ATOM      4  C   UNL     1       9.274  34.040  78.538  0.00  0.00    +0.000 C 
ATOM      5  C   UNL     1       7.336  35.092  79.775  0.00  0.00    +0.000 C 
ATOM      6  C   UNL     1       5.899  35.483  79.298  0.00  0.00    +0.000 C 
ATOM      7  O   UNL     1       9.956  34.103  79.564  0.00  0.00    +0.000 OA
ENDROOT
BRANCH   4   8
ATOM      8  C   UNL     1       9.948  33.570  77.294  0.00  0.00    +0.000 A 
ATOM      9  C   UNL     1      10.107  32.227  76.945  0.00  0.00    +0.000 A 
ATOM     10  C   UNL     1      10.363  34.549  76.372  0.00  0.00    +0.000 A 
ATOM     11  C   UNL     1      10.838  31.855  75.819  0.00  0.00    +0.000 A 
ATOM     12  C   UNL     1      11.029  34.190  75.193  0.00  0.00    +0.000 A 
ATOM     13  C   UNL     1      11.307  32.840  74.947  0.00  0.00    +0.000 A 
BRANCH  13  14
ATOM     14  N   UNL     1      12.069  32.445  73.762  0.00  0.00    +0.000 N 
ATOM     15  O   UNL     1      12.374  31.251  73.639  0.00  0.00    +0.000 OA
ATOM     16  O   UNL     1      12.361  33.334  72.948  0.00  0.00    +0.000 OA
ENDBRANCH  13  14
ENDBRANCH   4   8
BRANCH   1  18
ATOM     17  S   UNL     1       6.541  31.602  76.440  0.00  0.00    +0.000 S 
ATOM     18  C   UNL     1       6.378  32.698  77.768  0.00  0.00    +0.000 A 
ATOM     19  C   UNL     1       5.873  30.307  77.323  0.00  0.00    +0.000 A 
ATOM     20  C   UNL     1       5.779  32.062  78.841  0.00  0.00    +0.000 A 
ATOM     21  C   UNL     1       5.518  30.682  78.595  0.00  0.00    +0.000 A 
ENDBRANCH   1  18
BRANCH   3  22
ATOM     22  C   UNL     1       4.597  35.049  77.066  0.00  0.00    +0.000 C 
ATOM     23  O   UNL     1       4.528  34.504  75.974  0.00  0.00    +0.000 OA
ATOM     24  O   UNL     1       3.518  35.624  77.633  0.00  0.00    +0.000 OA
ENDBRANCH   3  22
BRANCH   5  25
ATOM     25  C   UNL     1       7.190  34.138  81.006  0.00  0.00    +0.000 C 
ATOM     26  O   UNL     1       7.990  33.247  81.270  0.00  0.00    +0.000 OA
ATOM     27  O   UNL     1       6.058  34.283  81.728  0.00  0.00    +0.000 OA
ENDBRANCH   5  25
BRANCH   5  28
ATOM     28  C   UNL     1       8.118  36.338  80.291  0.00  0.00    +0.000 C 
BRANCH  28  29
ATOM     29  C   UNL     1       8.060  37.666  79.503  0.00  0.00    +0.000 C 
ATOM     30  C   UNL     1       8.684  38.782  80.355  0.00  0.00    +0.000 C 
ATOM     31  C   UNL     1       8.789  37.640  78.164  0.00  0.00    +0.000 C 
ENDBRANCH  28  29
ENDBRANCH   5  28
TORSDOF 7
ENDMDL
MODEL 7
REMARK VINA RESULT:      -6.5      2.240      3.217
REMARK  Name = 
REMARK  9 active torsions:
REMARK  status: ('A' for Active; 'I' for Inactive)
REMARK    1  A    between atoms: C_2  and  C_5
REMARK    2  A    between atoms: C_8  and  C_11
REMARK    3  A    between atoms: C_9  and  C_14
REMARK    4  A    between atoms: C_10  and  C_15
REMARK    5  A    between atoms: C_10  and  C_16
REMARK    6  A    between atoms: C_16  and  C_23
REMARK    7  A    between atoms: C_23  and  C_26
REMARK    8  A    between atoms: C_23  and  C_27
REMARK    9  A    between atoms: C_28  and  N_29
REMARK                            x       y       z     vdW  Elec       q    Type
REMARK                         _______ _______ _______ _____ _____    ______ ____
ROOT
ATOM      1  C   UNL     1       6.849  30.909  79.256  0.00  0.00    +0.000 C 
ATOM      2  N   UNL     1       6.023  31.767  78.383  0.00  0.00    +0.000 N 
ATOM      3  C   UNL     1       5.930  29.722  79.529  0.00  0.00    +0.000 C 
ATOM      4  C   UNL     1       6.462  32.674  77.422  0.00  0.00    +0.000 C 
ATOM      5  C   UNL     1       4.573  31.599  78.714  0.00  0.00    +0.000 C 
ATOM      6  C   UNL     1       4.547  30.349  79.654  0.00  0.00    +0.000 C 
ATOM      7  O   UNL     1       5.672  33.509  76.973  0.00  0.00    +0.000 OA
ENDROOT
BRANCH   4   8
ATOM      8  C   UNL     1       7.858  32.700  76.899  0.00  0.00    +0.000 A 
ATOM      9  C   UNL     1       8.662  33.840  76.863  0.00  0.00    +0.000 A 
ATOM     10  C   UNL     1       8.426  31.473  76.507  0.00  0.00    +0.000 A 
ATOM     11  C   UNL     1       9.921  33.818  76.265  0.00  0.00    +0.000 A 
ATOM     12  C   UNL     1       9.722  31.417  75.979  0.00  0.00    +0.000 A 
ATOM     13  C   UNL     1      10.447  32.605  75.815  0.00  0.00    +0.000 A 
BRANCH  13  14
ATOM     14  N   UNL     1      11.771  32.583  75.194  0.00  0.00    +0.000 N 
ATOM     15  O   UNL     1      12.625  31.824  75.673  0.00  0.00    +0.000 OA
ATOM     16  O   UNL     1      11.957  33.327  74.220  0.00  0.00    +0.000 OA
ENDBRANCH  13  14
ENDBRANCH   4   8
BRANCH   1  18
ATOM     17  S   UNL     1       8.967  32.321  80.380  0.00  0.00    +0.000 S 
ATOM     18  C   UNL     1       7.347  31.719  80.435  0.00  0.00    +0.000 A 
ATOM     19  C   UNL     1       8.811  33.112  81.881  0.00  0.00    +0.000 A 
ATOM     20  C   UNL     1       6.737  32.099  81.618  0.00  0.00    +0.000 A 
ATOM     21  C   UNL     1       7.567  32.925  82.432  0.00  0.00    +0.000 A 
ENDBRANCH   1  18
BRANCH   3  22
ATOM     22  C   UNL     1       6.447  28.831  80.629  0.00  0.00    +0.000 C 
ATOM     23  O   UNL     1       7.489  28.199  80.535  0.00  0.00    +0.000 OA
ATOM     24  O   UNL     1       5.613  28.659  81.674  0.00  0.00    +0.000 OA
ENDBRANCH   3  22
BRANCH   5  25
ATOM     25  C   UNL     1       4.005  32.816  79.517  0.00  0.00    +0.000 C 
ATOM     26  O   UNL     1       3.946  33.954  79.067  0.00  0.00    +0.000 OA
ATOM     27  O   UNL     1       3.665  32.564  80.799  0.00  0.00    +0.000 OA
ENDBRANCH   5  25
BRANCH   5  28
ATOM     28  C   UNL     1       3.618  31.409  77.496  0.00  0.00    +0.000 C 
BRANCH  28  29
ATOM     29  C   UNL     1       2.331  30.567  77.649  0.00  0.00    +0.000 C 
ATOM     30  C   UNL     1       1.239  31.433  78.296  0.00  0.00    +0.000 C 
ATOM     31  C   UNL     1       1.775  30.017  76.340  0.00  0.00    +0.000 C 
ENDBRANCH  28  29
ENDBRANCH   5  28
TORSDOF 7
ENDMDL
MODEL 8
REMARK VINA RESULT:      -6.2      2.844      5.750
REMARK  Name = 
REMARK  9 active torsions:
REMARK  status: ('A' for Active; 'I' for Inactive)
REMARK    1  A    between atoms: C_2  and  C_5
REMARK    2  A    between atoms: C_8  and  C_11
REMARK    3  A    between atoms: C_9  and  C_14
REMARK    4  A    between atoms: C_10  and  C_15
REMARK    5  A    between atoms: C_10  and  C_16
REMARK    6  A    between atoms: C_16  and  C_23
REMARK    7  A    between atoms: C_23  and  C_26
REMARK    8  A    between atoms: C_23  and  C_27
REMARK    9  A    between atoms: C_28  and  N_29
REMARK                            x       y       z     vdW  Elec       q    Type
REMARK                         _______ _______ _______ _____ _____    ______ ____
ROOT
ATOM      1  C   UNL     1       6.810  33.414  77.652  0.00  0.00    +0.000 C 
ATOM      2  N   UNL     1       7.062  32.863  78.998  0.00  0.00    +0.000 N 
ATOM      3  C   UNL     1       5.759  32.462  77.089  0.00  0.00    +0.000 C 
ATOM      4  C   UNL     1       7.492  33.549  80.131  0.00  0.00    +0.000 C 
ATOM      5  C   UNL     1       6.863  31.379  78.996  0.00  0.00    +0.000 C 
ATOM      6  C   UNL     1       6.178  31.097  77.618  0.00  0.00    +0.000 C 
ATOM      7  O   UNL     1       7.918  32.913  81.099  0.00  0.00    +0.000 OA
ENDROOT
BRANCH   4   8
ATOM      8  C   UNL     1       7.471  35.036  80.243  0.00  0.00    +0.000 A 
ATOM      9  C   UNL     1       6.338  35.824  80.034  0.00  0.00    +0.000 A 
ATOM     10  C   UNL     1       8.650  35.669  80.680  0.00  0.00    +0.000 A 
ATOM     11  C   UNL     1       6.412  37.216  80.052  0.00  0.00    +0.000 A 
ATOM     12  C   UNL     1       8.720  37.064  80.784  0.00  0.00    +0.000 A 
ATOM     13  C   UNL     1       7.609  37.835  80.420  0.00  0.00    +0.000 A 
BRANCH  13  14
ATOM     14  N   UNL     1       7.681  39.296  80.445  0.00  0.00    +0.000 N 
ATOM     15  O   UNL     1       8.803  39.822  80.438  0.00  0.00    +0.000 OA
ATOM     16  O   UNL     1       6.610  39.921  80.467  0.00  0.00    +0.000 OA
ENDBRANCH  13  14
ENDBRANCH   4   8
BRANCH   1  18
ATOM     17  S   UNL     1       8.928  35.083  76.966  0.00  0.00    +0.000 S 
ATOM     18  C   UNL     1       8.124  33.554  76.910  0.00  0.00    +0.000 A 
ATOM     19  C   UNL     1      10.244  34.517  76.042  0.00  0.00    +0.000 A 
ATOM     20  C   UNL     1       8.857  32.657  76.152  0.00  0.00    +0.000 A 
ATOM     21  C   UNL     1      10.087  33.201  75.681  0.00  0.00    +0.000 A 
ENDBRANCH   1  18
BRANCH   3  22
ATOM     22  C   UNL     1       5.537  32.653  75.611  0.00  0.00    +0.000 C 
ATOM     23  O   UNL     1       5.556  33.751  75.074  0.00  0.00    +0.000 OA
ATOM     24  O   UNL     1       5.173  31.546  74.933  0.00  0.00    +0.000 OA
ENDBRANCH   3  22
BRANCH   5  25
ATOM     25  C   UNL     1       8.219  30.600  79.027  0.00  0.00    +0.000 C 
ATOM     26  O   UNL     1       9.268  31.051  78.582  0.00  0.00    +0.000 OA
ATOM     27  O   UNL     1       8.155  29.333  79.490  0.00  0.00    +0.000 OA
ENDBRANCH   5  25
BRANCH   5  28
ATOM     28  C   UNL     1       6.016  30.808  80.175  0.00  0.00    +0.000 C 
BRANCH  28  29
ATOM     29  C   UNL     1       4.605  30.239  79.906  0.00  0.00    +0.000 C 
ATOM     30  C   UNL     1       4.590  28.745  80.263  0.00  0.00    +0.000 C 
ATOM     31  C   UNL     1       3.488  30.917  80.692  0.00  0.00    +0.000 C 
ENDBRANCH  28  29
ENDBRANCH   5  28
TORSDOF 7
ENDMDL
MODEL 9
REMARK VINA RESULT:      -6.2      2.714      5.266
REMARK  Name = 
REMARK  9 active torsions:
REMARK  status: ('A' for Active; 'I' for Inactive)
REMARK    1  A    between atoms: C_2  and  C_5
REMARK    2  A    between atoms: C_8  and  C_11
REMARK    3  A    between atoms: C_9  and  C_14
REMARK    4  A    between atoms: C_10  and  C_15
REMARK    5  A    between atoms: C_10  and  C_16
REMARK    6  A    between atoms: C_16  and  C_23
REMARK    7  A    between atoms: C_23  and  C_26
REMARK    8  A    between atoms: C_23  and  C_27
REMARK    9  A    between atoms: C_28  and  N_29
REMARK                            x       y       z     vdW  Elec       q    Type
REMARK                         _______ _______ _______ _____ _____    ______ ____
ROOT
ATOM      1  C   UNL     1       6.505  33.005  78.992  0.00  0.00    +0.000 C 
ATOM      2  N   UNL     1       7.093  33.619  77.786  0.00  0.00    +0.000 N 
ATOM      3  C   UNL     1       6.917  31.541  78.861  0.00  0.00    +0.000 C 
ATOM      4  C   UNL     1       7.500  34.940  77.616  0.00  0.00    +0.000 C 
ATOM      5  C   UNL     1       7.139  32.624  76.668  0.00  0.00    +0.000 C 
ATOM      6  C   UNL     1       6.811  31.264  77.367  0.00  0.00    +0.000 C 
ATOM      7  O   UNL     1       7.712  35.367  76.477  0.00  0.00    +0.000 OA
ENDROOT
BRANCH   4   8
ATOM      8  C   UNL     1       7.694  35.888  78.751  0.00  0.00    +0.000 A 
ATOM      9  C   UNL     1       8.629  35.710  79.772  0.00  0.00    +0.000 A 
ATOM     10  C   UNL     1       6.950  37.083  78.732  0.00  0.00    +0.000 A 
ATOM     11  C   UNL     1       8.687  36.580  80.858  0.00  0.00    +0.000 A 
ATOM     12  C   UNL     1       7.055  38.011  79.776  0.00  0.00    +0.000 A 
ATOM     13  C   UNL     1       7.892  37.728  80.862  0.00  0.00    +0.000 A 
BRANCH  13  14
ATOM     14  N   UNL     1       7.960  38.644  82.001  0.00  0.00    +0.000 N 
ATOM     15  O   UNL     1       7.579  39.810  81.832  0.00  0.00    +0.000 OA
ATOM     16  O   UNL     1       8.393  38.192  83.072  0.00  0.00    +0.000 OA
ENDBRANCH  13  14
ENDBRANCH   4   8
BRANCH   1  18
ATOM     17  S   UNL     1       4.499  34.459  80.260  0.00  0.00    +0.000 S 
ATOM     18  C   UNL     1       5.028  33.333  79.058  0.00  0.00    +0.000 A 
ATOM     19  C   UNL     1       2.879  34.383  79.735  0.00  0.00    +0.000 A 
ATOM     20  C   UNL     1       3.949  32.892  78.311  0.00  0.00    +0.000 A 
ATOM     21  C   UNL     1       2.723  33.518  78.679  0.00  0.00    +0.000 A 
ENDBRANCH   1  18
BRANCH   3  22
ATOM     22  C   UNL     1       6.199  30.648  79.838  0.00  0.00    +0.000 C 
ATOM     23  O   UNL     1       6.357  30.726  81.048  0.00  0.00    +0.000 OA
ATOM     24  O   UNL     1       5.474  29.654  79.288  0.00  0.00    +0.000 OA
ENDBRANCH   3  22
BRANCH   5  25
ATOM     25  C   UNL     1       6.034  32.890  75.593  0.00  0.00    +0.000 C 
ATOM     26  O   UNL     1       5.808  33.996  75.114  0.00  0.00    +0.000 OA
ATOM     27  O   UNL     1       5.254  31.833  75.282  0.00  0.00    +0.000 OA
ENDBRANCH   5  25
BRANCH   5  28
ATOM     28  C   UNL     1       8.485  32.547  75.885  0.00  0.00    +0.000 C 
BRANCH  28  29
ATOM     29  C   UNL     1       9.682  31.772  76.483  0.00  0.00    +0.000 C 
ATOM     30  C   UNL     1      10.663  31.417  75.356  0.00  0.00    +0.000 C 
ATOM     31  C   UNL     1      10.457  32.531  77.554  0.00  0.00    +0.000 C 
ENDBRANCH  28  29
ENDBRANCH   5  28
TORSDOF 7
ENDMDL
