MODEL 1
REMARK VINA RESULT:      -7.7      0.000      0.000
REMARK  Name = 
REMARK  9 active torsions:
REMARK  status: ('A' for Active; 'I' for Inactive)
REMARK    1  A    between atoms: C_2  and  C_5
REMARK    2  A    between atoms: C_8  and  C_11
REMARK    3  A    between atoms: C_9  and  C_14
REMARK    4  A    between atoms: C_10  and  C_15
REMARK    5  A    between atoms: C_10  and  C_16
REMARK    6  A    between atoms: C_16  and  C_23
REMARK    7  A    between atoms: C_23  and  C_26
REMARK    8  A    between atoms: C_23  and  C_27
REMARK    9  A    between atoms: C_24  and  C_29
REMARK                            x       y       z     vdW  Elec       q    Type
REMARK                         _______ _______ _______ _____ _____    ______ ____
ROOT
ATOM      1  C   UNL     1       8.111  33.103  78.953  0.00  0.00    +0.000 C 
ATOM      2  N   UNL     1       7.377  33.290  77.677  0.00  0.00    +0.000 N 
ATOM      3  C   UNL     1       7.247  32.105  79.738  0.00  0.00    +0.000 C 
ATOM      4  C   UNL     1       7.914  33.533  76.410  0.00  0.00    +0.000 C 
ATOM      5  C   UNL     1       5.921  32.973  77.860  0.00  0.00    +0.000 C 
ATOM      6  C   UNL     1       5.820  32.478  79.336  0.00  0.00    +0.000 C 
ATOM      7  O   UNL     1       7.169  33.683  75.438  0.00  0.00    +0.000 OA
ENDROOT
BRANCH   4   8
ATOM      8  C   UNL     1       9.378  33.583  76.137  0.00  0.00    +0.000 A 
ATOM      9  C   UNL     1      10.013  32.463  75.573  0.00  0.00    +0.000 A 
ATOM     10  C   UNL     1      10.112  34.752  76.306  0.00  0.00    +0.000 A 
ATOM     11  C   UNL     1      11.396  32.496  75.273  0.00  0.00    +0.000 A 
ATOM     12  C   UNL     1      11.493  34.775  76.101  0.00  0.00    +0.000 A 
ATOM     13  C   UNL     1      12.131  33.645  75.598  0.00  0.00    +0.000 A 
BRANCH  11  14
ATOM     14  C   UNL     1      12.100  31.353  74.594  0.00  0.00    +0.000 C 
ATOM     15  F   UNL     1      12.526  31.632  73.332  0.00  0.00    +0.000 F 
ATOM     16  F   UNL     1      13.210  30.957  75.282  0.00  0.00    +0.000 F 
ATOM     17  F   UNL     1      11.318  30.241  74.488  0.00  0.00    +0.000 F 
ENDBRANCH  11  14
ENDBRANCH   4   8
BRANCH   1  19
ATOM     18  S   UNL     1       9.593  34.644  80.867  0.00  0.00    +0.000 S 
ATOM     19  C   UNL     1       8.349  34.418  79.704  0.00  0.00    +0.000 A 
ATOM     20  C   UNL     1       9.312  36.321  80.980  0.00  0.00    +0.000 A 
ATOM     21  C   UNL     1       7.685  35.620  79.491  0.00  0.00    +0.000 A 
ATOM     22  C   UNL     1       8.224  36.707  80.236  0.00  0.00    +0.000 A 
ENDBRANCH   1  19
BRANCH   3  23
ATOM     23  C   UNL     1       7.596  32.061  81.212  0.00  0.00    +0.000 C 
ATOM     24  O   UNL     1       8.554  31.431  81.642  0.00  0.00    +0.000 OA
ATOM     25  O   UNL     1       6.725  32.662  82.046  0.00  0.00    +0.000 OA
ENDBRANCH   3  23
BRANCH   5  26
ATOM     26  C   UNL     1       5.047  34.256  77.685  0.00  0.00    +0.000 C 
ATOM     27  O   UNL     1       4.763  35.015  78.606  0.00  0.00    +0.000 OA
ATOM     28  O   UNL     1       4.499  34.420  76.461  0.00  0.00    +0.000 OA
ENDBRANCH   5  26
BRANCH   5  29
ATOM     29  C   UNL     1       5.292  31.909  76.899  0.00  0.00    +0.000 C 
BRANCH  29  30
ATOM     30  C   UNL     1       5.510  30.401  77.152  0.00  0.00    +0.000 C 
ATOM     31  C   UNL     1       4.186  29.654  76.924  0.00  0.00    +0.000 C 
ATOM     32  C   UNL     1       6.573  29.769  76.258  0.00  0.00    +0.000 C 
ENDBRANCH  29  30
ENDBRANCH   5  29
TORSDOF 7
ENDMDL
MODEL 2
REMARK VINA RESULT:      -7.3      1.575      2.111
REMARK  Name = 
REMARK  9 active torsions:
REMARK  status: ('A' for Active; 'I' for Inactive)
REMARK    1  A    between atoms: C_2  and  C_5
REMARK    2  A    between atoms: C_8  and  C_11
REMARK    3  A    between atoms: C_9  and  C_14
REMARK    4  A    between atoms: C_10  and  C_15
REMARK    5  A    between atoms: C_10  and  C_16
REMARK    6  A    between atoms: C_16  and  C_23
REMARK    7  A    between atoms: C_23  and  C_26
REMARK    8  A    between atoms: C_23  and  C_27
REMARK    9  A    between atoms: C_24  and  C_29
REMARK                            x       y       z     vdW  Elec       q    Type
REMARK                         _______ _______ _______ _____ _____    ______ ____
ROOT
ATOM      1  C   UNL     1       7.455  32.750  78.983  0.00  0.00    +0.000 C 
ATOM      2  N   UNL     1       6.677  33.030  77.751  0.00  0.00    +0.000 N 
ATOM      3  C   UNL     1       6.497  31.921  79.850  0.00  0.00    +0.000 C 
ATOM      4  C   UNL     1       7.160  33.159  76.446  0.00  0.00    +0.000 C 
ATOM      5  C   UNL     1       5.205  32.957  78.034  0.00  0.00    +0.000 C 
ATOM      6  C   UNL     1       5.124  32.512  79.527  0.00  0.00    +0.000 C 
ATOM      7  O   UNL     1       6.385  33.410  75.519  0.00  0.00    +0.000 OA
ENDROOT
BRANCH   4   8
ATOM      8  C   UNL     1       8.592  32.967  76.080  0.00  0.00    +0.000 A 
ATOM      9  C   UNL     1       9.411  34.092  75.888  0.00  0.00    +0.000 A 
ATOM     10  C   UNL     1       9.173  31.704  76.046  0.00  0.00    +0.000 A 
ATOM     11  C   UNL     1      10.782  33.937  75.572  0.00  0.00    +0.000 A 
ATOM     12  C   UNL     1      10.500  31.528  75.649  0.00  0.00    +0.000 A 
ATOM     13  C   UNL     1      11.295  32.644  75.401  0.00  0.00    +0.000 A 
BRANCH  11  14
ATOM     14  C   UNL     1      11.716  35.110  75.439  0.00  0.00    +0.000 C 
ATOM     15  F   UNL     1      12.175  35.315  74.174  0.00  0.00    +0.000 F 
ATOM     16  F   UNL     1      11.120  36.280  75.812  0.00  0.00    +0.000 F 
ATOM     17  F   UNL     1      12.823  34.995  76.226  0.00  0.00    +0.000 F 
ENDBRANCH  11  14
ENDBRANCH   4   8
BRANCH   1  19
ATOM     18  S   UNL     1       9.396  34.106  80.604  0.00  0.00    +0.000 S 
ATOM     19  C   UNL     1       7.951  34.023  79.679  0.00  0.00    +0.000 A 
ATOM     20  C   UNL     1       9.308  35.800  80.763  0.00  0.00    +0.000 A 
ATOM     21  C   UNL     1       7.383  35.288  79.584  0.00  0.00    +0.000 A 
ATOM     22  C   UNL     1       8.150  36.304  80.222  0.00  0.00    +0.000 A 
ENDBRANCH   1  19
BRANCH   3  23
ATOM     23  C   UNL     1       6.932  31.847  81.299  0.00  0.00    +0.000 C 
ATOM     24  O   UNL     1       7.808  31.084  81.685  0.00  0.00    +0.000 OA
ATOM     25  O   UNL     1       6.221  32.590  82.169  0.00  0.00    +0.000 OA
ENDBRANCH   3  23
BRANCH   5  26
ATOM     26  C   UNL     1       4.539  34.361  77.878  0.00  0.00    +0.000 C 
ATOM     27  O   UNL     1       4.391  34.927  76.799  0.00  0.00    +0.000 OA
ATOM     28  O   UNL     1       4.244  34.994  79.035  0.00  0.00    +0.000 OA
ENDBRANCH   5  26
BRANCH   5  29
ATOM     29  C   UNL     1       4.350  31.991  77.146  0.00  0.00    +0.000 C 
BRANCH  29  30
ATOM     30  C   UNL     1       4.467  30.461  77.319  0.00  0.00    +0.000 C 
ATOM     31  C   UNL     1       3.136  29.804  76.917  0.00  0.00    +0.000 C 
ATOM     32  C   UNL     1       5.581  29.826  76.491  0.00  0.00    +0.000 C 
ENDBRANCH  29  30
ENDBRANCH   5  29
TORSDOF 7
ENDMDL
MODEL 3
REMARK VINA RESULT:      -7.2      1.890      4.762
REMARK  Name = 
REMARK  9 active torsions:
REMARK  status: ('A' for Active; 'I' for Inactive)
REMARK    1  A    between atoms: C_2  and  C_5
REMARK    2  A    between atoms: C_8  and  C_11
REMARK    3  A    between atoms: C_9  and  C_14
REMARK    4  A    between atoms: C_10  and  C_15
REMARK    5  A    between atoms: C_10  and  C_16
REMARK    6  A    between atoms: C_16  and  C_23
REMARK    7  A    between atoms: C_23  and  C_26
REMARK    8  A    between atoms: C_23  and  C_27
REMARK    9  A    between atoms: C_24  and  C_29
REMARK                            x       y       z     vdW  Elec       q    Type
REMARK                         _______ _______ _______ _____ _____    ______ ____
ROOT
ATOM      1  C   UNL     1       6.862  33.713  77.833  0.00  0.00    +0.000 C 
ATOM      2  N   UNL     1       7.773  33.034  78.787  0.00  0.00    +0.000 N 
ATOM      3  C   UNL     1       5.921  34.529  78.730  0.00  0.00    +0.000 C 
ATOM      4  C   UNL     1       9.119  32.709  78.600  0.00  0.00    +0.000 C 
ATOM      5  C   UNL     1       7.119  32.906  80.133  0.00  0.00    +0.000 C 
ATOM      6  C   UNL     1       5.756  33.647  79.968  0.00  0.00    +0.000 C 
ATOM      7  O   UNL     1       9.746  32.127  79.489  0.00  0.00    +0.000 OA
ENDROOT
BRANCH   4   8
ATOM      8  C   UNL     1       9.885  33.067  77.373  0.00  0.00    +0.000 A 
ATOM      9  C   UNL     1      10.446  32.045  76.588  0.00  0.00    +0.000 A 
ATOM     10  C   UNL     1       9.954  34.377  76.912  0.00  0.00    +0.000 A 
ATOM     11  C   UNL     1      11.150  32.356  75.400  0.00  0.00    +0.000 A 
ATOM     12  C   UNL     1      10.719  34.711  75.793  0.00  0.00    +0.000 A 
ATOM     13  C   UNL     1      11.324  33.702  75.049  0.00  0.00    +0.000 A 
BRANCH  11  14
ATOM     14  C   UNL     1      11.695  31.292  74.485  0.00  0.00    +0.000 C 
ATOM     15  F   UNL     1      11.002  30.121  74.519  0.00  0.00    +0.000 F 
ATOM     16  F   UNL     1      11.690  31.690  73.180  0.00  0.00    +0.000 F 
ATOM     17  F   UNL     1      12.990  30.970  74.765  0.00  0.00    +0.000 F 
ENDBRANCH  11  14
ENDBRANCH   4   8
BRANCH   1  19
ATOM     18  S   UNL     1       5.638  33.108  75.309  0.00  0.00    +0.000 S 
ATOM     19  C   UNL     1       6.123  32.733  76.914  0.00  0.00    +0.000 A 
ATOM     20  C   UNL     1       5.169  31.503  74.976  0.00  0.00    +0.000 A 
ATOM     21  C   UNL     1       5.833  31.403  77.191  0.00  0.00    +0.000 A 
ATOM     22  C   UNL     1       5.269  30.702  76.088  0.00  0.00    +0.000 A 
ENDBRANCH   1  19
BRANCH   3  23
ATOM     23  C   UNL     1       4.677  34.996  78.003  0.00  0.00    +0.000 C 
ATOM     24  O   UNL     1       4.683  35.948  77.233  0.00  0.00    +0.000 OA
ATOM     25  O   UNL     1       3.528  34.376  78.336  0.00  0.00    +0.000 OA
ENDBRANCH   3  23
BRANCH   5  26
ATOM     26  C   UNL     1       6.852  31.406  80.479  0.00  0.00    +0.000 C 
ATOM     27  O   UNL     1       5.847  30.797  80.130  0.00  0.00    +0.000 OA
ATOM     28  O   UNL     1       7.749  30.837  81.315  0.00  0.00    +0.000 OA
ENDBRANCH   5  26
BRANCH   5  29
ATOM     29  C   UNL     1       7.893  33.484  81.365  0.00  0.00    +0.000 C 
BRANCH  29  30
ATOM     30  C   UNL     1       8.453  34.923  81.330  0.00  0.00    +0.000 C 
ATOM     31  C   UNL     1       7.812  35.742  82.463  0.00  0.00    +0.000 C 
ATOM     32  C   UNL     1       9.970  35.003  81.485  0.00  0.00    +0.000 C 
ENDBRANCH  29  30
ENDBRANCH   5  29
TORSDOF 7
ENDMDL
MODEL 4
REMARK VINA RESULT:      -7.1      1.794      2.224
REMARK  Name = 
REMARK  9 active torsions:
REMARK  status: ('A' for Active; 'I' for Inactive)
REMARK    1  A    between atoms: C_2  and  C_5
REMARK    2  A    between atoms: C_8  and  C_11
REMARK    3  A    between atoms: C_9  and  C_14
REMARK    4  A    between atoms: C_10  and  C_15
REMARK    5  A    between atoms: C_10  and  C_16
REMARK    6  A    between atoms: C_16  and  C_23
REMARK    7  A    between atoms: C_23  and  C_26
REMARK    8  A    between atoms: C_23  and  C_27
REMARK    9  A    between atoms: C_24  and  C_29
REMARK                            x       y       z     vdW  Elec       q    Type
REMARK                         _______ _______ _______ _____ _____    ______ ____
ROOT
ATOM      1  C   UNL     1       7.852  33.657  78.952  0.00  0.00    +0.000 C 
ATOM      2  N   UNL     1       7.282  32.646  78.026  0.00  0.00    +0.000 N 
ATOM      3  C   UNL     1       7.474  33.141  80.347  0.00  0.00    +0.000 C 
ATOM      4  C   UNL     1       7.793  32.232  76.793  0.00  0.00    +0.000 C 
ATOM      5  C   UNL     1       6.141  31.923  78.680  0.00  0.00    +0.000 C 
ATOM      6  C   UNL     1       6.103  32.499  80.130  0.00  0.00    +0.000 C 
ATOM      7  O   UNL     1       7.194  31.385  76.125  0.00  0.00    +0.000 OA
ENDROOT
BRANCH   4   8
ATOM      8  C   UNL     1       9.080  32.731  76.231  0.00  0.00    +0.000 A 
ATOM      9  C   UNL     1      10.010  31.811  75.716  0.00  0.00    +0.000 A 
ATOM     10  C   UNL     1       9.334  34.090  76.084  0.00  0.00    +0.000 A 
ATOM     11  C   UNL     1      11.225  32.261  75.146  0.00  0.00    +0.000 A 
ATOM     12  C   UNL     1      10.563  34.549  75.608  0.00  0.00    +0.000 A 
ATOM     13  C   UNL     1      11.508  33.634  75.152  0.00  0.00    +0.000 A 
BRANCH  11  14
ATOM     14  C   UNL     1      12.212  31.320  74.509  0.00  0.00    +0.000 C 
ATOM     15  F   UNL     1      13.312  31.070  75.270  0.00  0.00    +0.000 F 
ATOM     16  F   UNL     1      11.658  30.102  74.244  0.00  0.00    +0.000 F 
ATOM     17  F   UNL     1      12.680  31.778  73.313  0.00  0.00    +0.000 F 
ENDBRANCH  11  14
ENDBRANCH   4   8
BRANCH   1  19
ATOM     18  S   UNL     1       8.322  36.483  78.787  0.00  0.00    +0.000 S 
ATOM     19  C   UNL     1       7.343  35.076  78.673  0.00  0.00    +0.000 A 
ATOM     20  C   UNL     1       7.121  37.486  78.112  0.00  0.00    +0.000 A 
ATOM     21  C   UNL     1       6.082  35.420  78.200  0.00  0.00    +0.000 A 
ATOM     22  C   UNL     1       5.949  36.805  77.896  0.00  0.00    +0.000 A 
ENDBRANCH   1  19
BRANCH   3  23
ATOM     23  C   UNL     1       7.616  34.199  81.422  0.00  0.00    +0.000 C 
ATOM     24  O   UNL     1       8.702  34.532  81.878  0.00  0.00    +0.000 OA
ATOM     25  O   UNL     1       6.467  34.680  81.935  0.00  0.00    +0.000 OA
ENDBRANCH   3  23
BRANCH   5  26
ATOM     26  C   UNL     1       4.793  32.248  77.961  0.00  0.00    +0.000 C 
ATOM     27  O   UNL     1       4.720  32.652  76.805  0.00  0.00    +0.000 OA
ATOM     28  O   UNL     1       3.691  32.184  78.741  0.00  0.00    +0.000 OA
ENDBRANCH   5  26
BRANCH   5  29
ATOM     29  C   UNL     1       6.216  30.360  78.732  0.00  0.00    +0.000 C 
BRANCH  29  30
ATOM     30  C   UNL     1       5.794  29.599  80.008  0.00  0.00    +0.000 C 
ATOM     31  C   UNL     1       4.468  28.866  79.743  0.00  0.00    +0.000 C 
ATOM     32  C   UNL     1       6.817  28.574  80.489  0.00  0.00    +0.000 C 
ENDBRANCH  29  30
ENDBRANCH   5  29
TORSDOF 7
ENDMDL
MODEL 5
REMARK VINA RESULT:      -7.0      1.296      1.512
REMARK  Name = 
REMARK  9 active torsions:
REMARK  status: ('A' for Active; 'I' for Inactive)
REMARK    1  A    between atoms: C_2  and  C_5
REMARK    2  A    between atoms: C_8  and  C_11
REMARK    3  A    between atoms: C_9  and  C_14
REMARK    4  A    between atoms: C_10  and  C_15
REMARK    5  A    between atoms: C_10  and  C_16
REMARK    6  A    between atoms: C_16  and  C_23
REMARK    7  A    between atoms: C_23  and  C_26
REMARK    8  A    between atoms: C_23  and  C_27
REMARK    9  A    between atoms: C_24  and  C_29
REMARK                            x       y       z     vdW  Elec       q    Type
REMARK                         _______ _______ _______ _____ _____    ______ ____
ROOT
ATOM      1  C   UNL     1       6.863  33.906  79.240  0.00  0.00    +0.000 C 
ATOM      2  N   UNL     1       6.202  34.164  77.936  0.00  0.00    +0.000 N 
ATOM      3  C   UNL     1       5.888  32.978  79.977  0.00  0.00    +0.000 C 
ATOM      4  C   UNL     1       6.810  34.371  76.695  0.00  0.00    +0.000 C 
ATOM      5  C   UNL     1       4.719  33.966  78.055  0.00  0.00    +0.000 C 
ATOM      6  C   UNL     1       4.514  33.470  79.520  0.00  0.00    +0.000 C 
ATOM      7  O   UNL     1       6.122  34.589  75.695  0.00  0.00    +0.000 OA
ENDROOT
BRANCH   4   8
ATOM      8  C   UNL     1       8.284  34.302  76.484  0.00  0.00    +0.000 A 
ATOM      9  C   UNL     1       8.860  33.101  76.035  0.00  0.00    +0.000 A 
ATOM     10  C   UNL     1       9.091  35.429  76.597  0.00  0.00    +0.000 A 
ATOM     11  C   UNL     1      10.253  33.019  75.795  0.00  0.00    +0.000 A 
ATOM     12  C   UNL     1      10.477  35.344  76.452  0.00  0.00    +0.000 A 
ATOM     13  C   UNL     1      11.053  34.138  76.064  0.00  0.00    +0.000 A 
BRANCH  11  14
ATOM     14  C   UNL     1      10.901  31.781  75.236  0.00  0.00    +0.000 C 
ATOM     15  F   UNL     1      11.152  31.840  73.899  0.00  0.00    +0.000 F 
ATOM     16  F   UNL     1      12.104  31.523  75.828  0.00  0.00    +0.000 F 
ATOM     17  F   UNL     1      10.150  30.660  75.427  0.00  0.00    +0.000 F 
ENDBRANCH  11  14
ENDBRANCH   4   8
BRANCH   1  19
ATOM     18  S   UNL     1       8.763  35.678  80.459  0.00  0.00    +0.000 S 
ATOM     19  C   UNL     1       7.176  35.192  80.014  0.00  0.00    +0.000 A 
ATOM     20  C   UNL     1       8.244  37.207  81.001  0.00  0.00    +0.000 A 
ATOM     21  C   UNL     1       6.267  36.181  80.371  0.00  0.00    +0.000 A 
ATOM     22  C   UNL     1       6.876  37.328  80.955  0.00  0.00    +0.000 A 
ENDBRANCH   1  19
BRANCH   3  23
ATOM     23  C   UNL     1       6.169  32.894  81.463  0.00  0.00    +0.000 C 
ATOM     24  O   UNL     1       7.190  32.388  81.912  0.00  0.00    +0.000 OA
ATOM     25  O   UNL     1       5.178  33.305  82.278  0.00  0.00    +0.000 OA
ENDBRANCH   3  23
BRANCH   5  26
ATOM     26  C   UNL     1       3.961  35.319  77.858  0.00  0.00    +0.000 C 
ATOM     27  O   UNL     1       3.859  36.173  78.731  0.00  0.00    +0.000 OA
ATOM     28  O   UNL     1       3.298  35.445  76.687  0.00  0.00    +0.000 OA
ENDBRANCH   5  26
BRANCH   5  29
ATOM     29  C   UNL     1       4.045  32.965  77.056  0.00  0.00    +0.000 C 
BRANCH  29  30
ATOM     30  C   UNL     1       4.449  31.474  77.054  0.00  0.00    +0.000 C 
ATOM     31  C   UNL     1       3.184  30.609  77.183  0.00  0.00    +0.000 C 
ATOM     32  C   UNL     1       5.199  31.035  75.800  0.00  0.00    +0.000 C 
ENDBRANCH  29  30
ENDBRANCH   5  29
TORSDOF 7
ENDMDL
MODEL 6
REMARK VINA RESULT:      -6.8      2.201      4.787
REMARK  Name = 
REMARK  9 active torsions:
REMARK  status: ('A' for Active; 'I' for Inactive)
REMARK    1  A    between atoms: C_2  and  C_5
REMARK    2  A    between atoms: C_8  and  C_11
REMARK    3  A    between atoms: C_9  and  C_14
REMARK    4  A    between atoms: C_10  and  C_15
REMARK    5  A    between atoms: C_10  and  C_16
REMARK    6  A    between atoms: C_16  and  C_23
REMARK    7  A    between atoms: C_23  and  C_26
REMARK    8  A    between atoms: C_23  and  C_27
REMARK    9  A    between atoms: C_24  and  C_29
REMARK                            x       y       z     vdW  Elec       q    Type
REMARK                         _______ _______ _______ _____ _____    ______ ____
ROOT
ATOM      1  C   UNL     1       6.783  32.860  78.497  0.00  0.00    +0.000 C 
ATOM      2  N   UNL     1       7.838  32.099  79.211  0.00  0.00    +0.000 N 
ATOM      3  C   UNL     1       5.907  33.431  79.622  0.00  0.00    +0.000 C 
ATOM      4  C   UNL     1       9.170  31.919  78.826  0.00  0.00    +0.000 C 
ATOM      5  C   UNL     1       7.357  31.687  80.571  0.00  0.00    +0.000 C 
ATOM      6  C   UNL     1       5.942  32.336  80.689  0.00  0.00    +0.000 C 
ATOM      7  O   UNL     1       9.931  31.242  79.523  0.00  0.00    +0.000 OA
ENDROOT
BRANCH   4   8
ATOM      8  C   UNL     1       9.763  32.545  77.611  0.00  0.00    +0.000 A 
ATOM      9  C   UNL     1      10.514  31.753  76.725  0.00  0.00    +0.000 A 
ATOM     10  C   UNL     1       9.490  33.862  77.261  0.00  0.00    +0.000 A 
ATOM     11  C   UNL     1      11.061  32.315  75.547  0.00  0.00    +0.000 A 
ATOM     12  C   UNL     1      10.094  34.457  76.152  0.00  0.00    +0.000 A 
ATOM     13  C   UNL     1      10.886  33.685  75.306  0.00  0.00    +0.000 A 
BRANCH  11  14
ATOM     14  C   UNL     1      11.801  31.489  74.529  0.00  0.00    +0.000 C 
ATOM     15  F   UNL     1      11.796  32.017  73.274  0.00  0.00    +0.000 F 
ATOM     16  F   UNL     1      13.115  31.329  74.860  0.00  0.00    +0.000 F 
ATOM     17  F   UNL     1      11.297  30.229  74.407  0.00  0.00    +0.000 F 
ENDBRANCH  11  14
ENDBRANCH   4   8
BRANCH   1  19
ATOM     18  S   UNL     1       5.649  32.485  75.888  0.00  0.00    +0.000 S 
ATOM     19  C   UNL     1       5.999  32.000  77.498  0.00  0.00    +0.000 A 
ATOM     20  C   UNL     1       5.035  30.953  75.461  0.00  0.00    +0.000 A 
ATOM     21  C   UNL     1       5.557  30.698  77.701  0.00  0.00    +0.000 A 
ATOM     22  C   UNL     1       4.987  30.104  76.540  0.00  0.00    +0.000 A 
ENDBRANCH   1  19
BRANCH   3  23
ATOM     23  C   UNL     1       4.561  33.918  79.127  0.00  0.00    +0.000 C 
ATOM     24  O   UNL     1       4.430  34.955  78.491  0.00  0.00    +0.000 OA
ATOM     25  O   UNL     1       3.490  33.203  79.524  0.00  0.00    +0.000 OA
ENDBRANCH   3  23
BRANCH   5  26
ATOM     26  C   UNL     1       7.221  30.134  80.665  0.00  0.00    +0.000 C 
ATOM     27  O   UNL     1       7.809  29.354  79.923  0.00  0.00    +0.000 OA
ATOM     28  O   UNL     1       6.297  29.686  81.545  0.00  0.00    +0.000 OA
ENDBRANCH   5  26
BRANCH   5  29
ATOM     29  C   UNL     1       8.235  32.102  81.800  0.00  0.00    +0.000 C 
BRANCH  29  30
ATOM     30  C   UNL     1       7.579  32.708  83.060  0.00  0.00    +0.000 C 
ATOM     31  C   UNL     1       7.744  31.731  84.235  0.00  0.00    +0.000 C 
ATOM     32  C   UNL     1       8.161  34.056  83.476  0.00  0.00    +0.000 C 
ENDBRANCH  29  30
ENDBRANCH   5  29
TORSDOF 7
ENDMDL
MODEL 7
REMARK VINA RESULT:      -6.7      3.689      5.756
REMARK  Name = 
REMARK  9 active torsions:
REMARK  status: ('A' for Active; 'I' for Inactive)
REMARK    1  A    between atoms: C_2  and  C_5
REMARK    2  A    between atoms: C_8  and  C_11
REMARK    3  A    between atoms: C_9  and  C_14
REMARK    4  A    between atoms: C_10  and  C_15
REMARK    5  A    between atoms: C_10  and  C_16
REMARK    6  A    between atoms: C_16  and  C_23
REMARK    7  A    between atoms: C_23  and  C_26
REMARK    8  A    between atoms: C_23  and  C_27
REMARK    9  A    between atoms: C_24  and  C_29
REMARK                            x       y       z     vdW  Elec       q    Type
REMARK                         _______ _______ _______ _____ _____    ______ ____
ROOT
ATOM      1  C   UNL     1       6.667  32.741  79.218  0.00  0.00    +0.000 C 
ATOM      2  N   UNL     1       6.695  33.431  77.904  0.00  0.00    +0.000 N 
ATOM      3  C   UNL     1       7.497  31.469  78.991  0.00  0.00    +0.000 C 
ATOM      4  C   UNL     1       6.687  34.807  77.661  0.00  0.00    +0.000 C 
ATOM      5  C   UNL     1       6.953  32.445  76.802  0.00  0.00    +0.000 C 
ATOM      6  C   UNL     1       7.179  31.091  77.544  0.00  0.00    +0.000 C 
ATOM      7  O   UNL     1       6.699  35.233  76.503  0.00  0.00    +0.000 OA
ENDROOT
BRANCH   4   8
ATOM      8  C   UNL     1       6.708  35.830  78.744  0.00  0.00    +0.000 A 
ATOM      9  C   UNL     1       7.819  36.683  78.865  0.00  0.00    +0.000 A 
ATOM     10  C   UNL     1       5.605  36.050  79.562  0.00  0.00    +0.000 A 
ATOM     11  C   UNL     1       7.849  37.685  79.864  0.00  0.00    +0.000 A 
ATOM     12  C   UNL     1       5.653  36.972  80.609  0.00  0.00    +0.000 A 
ATOM     13  C   UNL     1       6.779  37.776  80.764  0.00  0.00    +0.000 A 
BRANCH  11  14
ATOM     14  C   UNL     1       8.979  38.674  79.979  0.00  0.00    +0.000 C 
ATOM     15  F   UNL     1       9.896  38.362  80.935  0.00  0.00    +0.000 F 
ATOM     16  F   UNL     1       9.680  38.784  78.813  0.00  0.00    +0.000 F 
ATOM     17  F   UNL     1       8.548  39.934  80.268  0.00  0.00    +0.000 F 
ENDBRANCH  11  14
ENDBRANCH   4   8
BRANCH   1  19
ATOM     18  S   UNL     1       4.783  32.468  81.366  0.00  0.00    +0.000 S 
ATOM     19  C   UNL     1       5.243  32.453  79.711  0.00  0.00    +0.000 A 
ATOM     20  C   UNL     1       3.125  32.320  81.003  0.00  0.00    +0.000 A 
ATOM     21  C   UNL     1       4.122  32.247  78.916  0.00  0.00    +0.000 A 
ATOM     22  C   UNL     1       2.910  32.152  79.656  0.00  0.00    +0.000 A 
ENDBRANCH   1  19
BRANCH   3  23
ATOM     23  C   UNL     1       7.287  30.431  80.074  0.00  0.00    +0.000 C 
ATOM     24  O   UNL     1       7.840  30.497  81.164  0.00  0.00    +0.000 OA
ATOM     25  O   UNL     1       6.543  29.361  79.732  0.00  0.00    +0.000 OA
ENDBRANCH   3  23
BRANCH   5  26
ATOM     26  C   UNL     1       5.707  32.319  75.868  0.00  0.00    +0.000 C 
ATOM     27  O   UNL     1       5.296  33.230  75.156  0.00  0.00    +0.000 OA
ATOM     28  O   UNL     1       5.011  31.167  75.984  0.00  0.00    +0.000 OA
ENDBRANCH   5  26
BRANCH   5  29
ATOM     29  C   UNL     1       8.159  32.735  75.847  0.00  0.00    +0.000 C 
BRANCH  29  30
ATOM     30  C   UNL     1       9.591  32.860  76.413  0.00  0.00    +0.000 C 
ATOM     31  C   UNL     1      10.480  31.776  75.780  0.00  0.00    +0.000 C 
ATOM     32  C   UNL     1      10.242  34.217  76.161  0.00  0.00    +0.000 C 
ENDBRANCH  29  30
ENDBRANCH   5  29
TORSDOF 7
ENDMDL
MODEL 8
REMARK VINA RESULT:      -6.6      2.188      5.276
REMARK  Name = 
REMARK  9 active torsions:
REMARK  status: ('A' for Active; 'I' for Inactive)
REMARK    1  A    between atoms: C_2  and  C_5
REMARK    2  A    between atoms: C_8  and  C_11
REMARK    3  A    between atoms: C_9  and  C_14
REMARK    4  A    between atoms: C_10  and  C_15
REMARK    5  A    between atoms: C_10  and  C_16
REMARK    6  A    between atoms: C_16  and  C_23
REMARK    7  A    between atoms: C_23  and  C_26
REMARK    8  A    between atoms: C_23  and  C_27
REMARK    9  A    between atoms: C_24  and  C_29
REMARK                            x       y       z     vdW  Elec       q    Type
REMARK                         _______ _______ _______ _____ _____    ______ ____
ROOT
ATOM      1  C   UNL     1       6.391  34.125  78.101  0.00  0.00    +0.000 C 
ATOM      2  N   UNL     1       7.482  34.346  79.082  0.00  0.00    +0.000 N 
ATOM      3  C   UNL     1       5.464  35.334  78.295  0.00  0.00    +0.000 C 
ATOM      4  C   UNL     1       8.828  33.990  78.958  0.00  0.00    +0.000 C 
ATOM      5  C   UNL     1       7.008  35.224  80.204  0.00  0.00    +0.000 C 
ATOM      6  C   UNL     1       5.554  35.614  79.795  0.00  0.00    +0.000 C 
ATOM      7  O   UNL     1       9.620  34.229  79.873  0.00  0.00    +0.000 OA
ENDROOT
BRANCH   4   8
ATOM      8  C   UNL     1       9.398  33.358  77.735  0.00  0.00    +0.000 A 
ATOM      9  C   UNL     1      10.341  34.065  76.969  0.00  0.00    +0.000 A 
ATOM     10  C   UNL     1       9.120  32.038  77.399  0.00  0.00    +0.000 A 
ATOM     11  C   UNL     1      10.922  33.475  75.821  0.00  0.00    +0.000 A 
ATOM     12  C   UNL     1       9.614  31.471  76.223  0.00  0.00    +0.000 A 
ATOM     13  C   UNL     1      10.503  32.195  75.432  0.00  0.00    +0.000 A 
BRANCH  11  14
ATOM     14  C   UNL     1      11.994  34.161  75.018  0.00  0.00    +0.000 C 
ATOM     15  F   UNL     1      13.145  33.444  74.898  0.00  0.00    +0.000 F 
ATOM     16  F   UNL     1      11.586  34.426  73.743  0.00  0.00    +0.000 F 
ATOM     17  F   UNL     1      12.357  35.365  75.544  0.00  0.00    +0.000 F 
ENDBRANCH  11  14
ENDBRANCH   4   8
BRANCH   1  19
ATOM     18  S   UNL     1       5.190  31.765  76.997  0.00  0.00    +0.000 S 
ATOM     19  C   UNL     1       5.679  32.781  78.293  0.00  0.00    +0.000 A 
ATOM     20  C   UNL     1       4.762  30.486  78.038  0.00  0.00    +0.000 A 
ATOM     21  C   UNL     1       5.421  32.151  79.504  0.00  0.00    +0.000 A 
ATOM     22  C   UNL     1       4.878  30.843  79.360  0.00  0.00    +0.000 A 
ENDBRANCH   1  19
BRANCH   3  23
ATOM     23  C   UNL     1       4.097  35.130  77.676  0.00  0.00    +0.000 C 
ATOM     24  O   UNL     1       3.901  35.214  76.470  0.00  0.00    +0.000 OA
ATOM     25  O   UNL     1       3.076  34.960  78.538  0.00  0.00    +0.000 OA
ENDBRANCH   3  23
BRANCH   5  26
ATOM     26  C   UNL     1       6.971  34.432  81.550  0.00  0.00    +0.000 C 
ATOM     27  O   UNL     1       6.016  33.752  81.912  0.00  0.00    +0.000 OA
ATOM     28  O   UNL     1       8.019  34.645  82.376  0.00  0.00    +0.000 OA
ENDBRANCH   5  26
BRANCH   5  29
ATOM     29  C   UNL     1       7.840  36.516  80.506  0.00  0.00    +0.000 C 
BRANCH  29  30
ATOM     30  C   UNL     1       7.126  37.840  80.856  0.00  0.00    +0.000 C 
ATOM     31  C   UNL     1       7.548  38.283  82.267  0.00  0.00    +0.000 C 
ATOM     32  C   UNL     1       7.425  38.982  79.889  0.00  0.00    +0.000 C 
ENDBRANCH  29  30
ENDBRANCH   5  29
TORSDOF 7
ENDMDL
MODEL 9
REMARK VINA RESULT:      -6.6      3.756      6.875
REMARK  Name = 
REMARK  9 active torsions:
REMARK  status: ('A' for Active; 'I' for Inactive)
REMARK    1  A    between atoms: C_2  and  C_5
REMARK    2  A    between atoms: C_8  and  C_11
REMARK    3  A    between atoms: C_9  and  C_14
REMARK    4  A    between atoms: C_10  and  C_15
REMARK    5  A    between atoms: C_10  and  C_16
REMARK    6  A    between atoms: C_16  and  C_23
REMARK    7  A    between atoms: C_23  and  C_26
REMARK    8  A    between atoms: C_23  and  C_27
REMARK    9  A    between atoms: C_24  and  C_29
REMARK                            x       y       z     vdW  Elec       q    Type
REMARK                         _______ _______ _______ _____ _____    ______ ____
ROOT
ATOM      1  C   UNL     1       6.587  33.780  79.717  0.00  0.00    +0.000 C 
ATOM      2  N   UNL     1       6.198  34.861  78.777  0.00  0.00    +0.000 N 
ATOM      3  C   UNL     1       7.635  34.435  80.627  0.00  0.00    +0.000 C 
ATOM      4  C   UNL     1       4.946  35.078  78.194  0.00  0.00    +0.000 C 
ATOM      5  C   UNL     1       7.297  35.878  78.667  0.00  0.00    +0.000 C 
ATOM      6  C   UNL     1       8.370  35.394  79.690  0.00  0.00    +0.000 C 
ATOM      7  O   UNL     1       4.780  36.019  77.414  0.00  0.00    +0.000 OA
ENDROOT
BRANCH   4   8
ATOM      8  C   UNL     1       3.748  34.245  78.494  0.00  0.00    +0.000 A 
ATOM      9  C   UNL     1       3.547  33.048  77.785  0.00  0.00    +0.000 A 
ATOM     10  C   UNL     1       2.890  34.552  79.544  0.00  0.00    +0.000 A 
ATOM     11  C   UNL     1       2.434  32.221  78.074  0.00  0.00    +0.000 A 
ATOM     12  C   UNL     1       1.740  33.797  79.783  0.00  0.00    +0.000 A 
ATOM     13  C   UNL     1       1.510  32.643  79.039  0.00  0.00    +0.000 A 
BRANCH  11  14
ATOM     14  C   UNL     1       2.223  30.892  77.399  0.00  0.00    +0.000 C 
ATOM     15  F   UNL     1       2.033  29.855  78.260  0.00  0.00    +0.000 F 
ATOM     16  F   UNL     1       1.129  30.903  76.583  0.00  0.00    +0.000 F 
ATOM     17  F   UNL     1       3.270  30.532  76.604  0.00  0.00    +0.000 F 
ENDBRANCH  11  14
ENDBRANCH   4   8
BRANCH   1  19
ATOM     18  S   UNL     1       6.373  30.978  79.138  0.00  0.00    +0.000 S 
ATOM     19  C   UNL     1       7.105  32.526  79.002  0.00  0.00    +0.000 A 
ATOM     20  C   UNL     1       7.355  30.305  77.918  0.00  0.00    +0.000 A 
ATOM     21  C   UNL     1       8.147  32.473  78.085  0.00  0.00    +0.000 A 
ATOM     22  C   UNL     1       8.304  31.195  77.477  0.00  0.00    +0.000 A 
ENDBRANCH   1  19
BRANCH   3  23
ATOM     23  C   UNL     1       8.446  33.423  81.410  0.00  0.00    +0.000 C 
ATOM     24  O   UNL     1       7.970  32.767  82.328  0.00  0.00    +0.000 OA
ATOM     25  O   UNL     1       9.760  33.362  81.117  0.00  0.00    +0.000 OA
ENDBRANCH   3  23
BRANCH   5  26
ATOM     26  C   UNL     1       7.914  35.875  77.231  0.00  0.00    +0.000 C 
ATOM     27  O   UNL     1       7.714  34.988  76.408  0.00  0.00    +0.000 OA
ATOM     28  O   UNL     1       8.806  36.859  76.983  0.00  0.00    +0.000 OA
ENDBRANCH   5  26
BRANCH   5  29
ATOM     29  C   UNL     1       6.925  37.372  78.955  0.00  0.00    +0.000 C 
BRANCH  29  30
ATOM     30  C   UNL     1       7.140  37.973  80.361  0.00  0.00    +0.000 C 
ATOM     31  C   UNL     1       7.326  39.495  80.235  0.00  0.00    +0.000 C 
ATOM     32  C   UNL     1       5.990  37.713  81.330  0.00  0.00    +0.000 C 
ENDBRANCH  29  30
ENDBRANCH   5  29
TORSDOF 7
ENDMDL
