MODEL 1
REMARK VINA RESULT:      -6.8      0.000      0.000
REMARK  Name = 
REMARK  8 active torsions:
REMARK  status: ('A' for Active; 'I' for Inactive)
REMARK    1  A    between atoms: C_2  and  C_5
REMARK    2  A    between atoms: C_8  and  C_11
REMARK    3  A    between atoms: C_9  and  C_14
REMARK    4  A    between atoms: C_10  and  C_15
REMARK    5  A    between atoms: C_10  and  C_16
REMARK    6  A    between atoms: C_16  and  C_23
REMARK    7  A    between atoms: C_23  and  C_26
REMARK    8  A    between atoms: C_23  and  C_27
REMARK                            x       y       z     vdW  Elec       q    Type
REMARK                         _______ _______ _______ _____ _____    ______ ____
ROOT
ATOM      1  C   UNL     1       5.604  32.650  78.697  0.00  0.00    +0.000 C 
ATOM      2  N   UNL     1       5.150  33.630  77.681  0.00  0.00    +0.000 N 
ATOM      3  C   UNL     1       7.135  32.731  78.631  0.00  0.00    +0.000 C 
ATOM      4  C   UNL     1       3.999  34.418  77.718  0.00  0.00    +0.000 C 
ATOM      5  C   UNL     1       6.214  33.845  76.644  0.00  0.00    +0.000 C 
ATOM      6  C   UNL     1       7.415  32.984  77.149  0.00  0.00    +0.000 C 
ATOM      7  O   UNL     1       3.747  35.193  76.793  0.00  0.00    +0.000 OA
ENDROOT
BRANCH   4   8
ATOM      8  C   UNL     1       3.060  34.428  78.865  0.00  0.00    +0.000 A 
ATOM      9  C   UNL     1       3.102  35.498  79.763  0.00  0.00    +0.000 A 
ATOM     10  C   UNL     1       2.077  33.466  79.027  0.00  0.00    +0.000 A 
ATOM     11  C   UNL     1       2.221  35.492  80.834  0.00  0.00    +0.000 A 
ATOM     12  C   UNL     1       1.277  33.513  80.153  0.00  0.00    +0.000 A 
ATOM     13  N   UNL     1       1.335  34.501  81.066  0.00  0.00    +0.000 NA
ENDBRANCH   4   8
BRANCH   1  15
ATOM     14  S   UNL     1       4.175  30.333  79.610  0.00  0.00    +0.000 S 
ATOM     15  C   UNL     1       5.055  31.241  78.446  0.00  0.00    +0.000 A 
ATOM     16  C   UNL     1       3.778  29.107  78.497  0.00  0.00    +0.000 A 
ATOM     17  C   UNL     1       5.096  30.541  77.245  0.00  0.00    +0.000 A 
ATOM     18  C   UNL     1       4.381  29.309  77.279  0.00  0.00    +0.000 A 
ENDBRANCH   1  15
BRANCH   3  19
ATOM     19  C   UNL     1       7.813  31.560  79.306  0.00  0.00    +0.000 C 
ATOM     20  O   UNL     1       7.806  31.404  80.521  0.00  0.00    +0.000 OA
ATOM     21  O   UNL     1       8.530  30.750  78.503  0.00  0.00    +0.000 OA
ENDBRANCH   3  19
BRANCH   5  22
ATOM     22  C   UNL     1       5.741  33.317  75.254  0.00  0.00    +0.000 C 
ATOM     23  O   UNL     1       5.257  32.202  75.082  0.00  0.00    +0.000 OA
ATOM     24  O   UNL     1       6.007  34.126  74.204  0.00  0.00    +0.000 OA
ENDBRANCH   5  22
BRANCH   5  25
ATOM     25  C   UNL     1       6.680  35.316  76.383  0.00  0.00    +0.000 C 
BRANCH  25  26
ATOM     26  C   UNL     1       7.187  36.196  77.546  0.00  0.00    +0.000 C 
ATOM     27  C   UNL     1       8.629  36.642  77.248  0.00  0.00    +0.000 C 
ATOM     28  C   UNL     1       6.343  37.442  77.791  0.00  0.00    +0.000 C 
ENDBRANCH  25  26
ENDBRANCH   5  25
TORSDOF 6
ENDMDL
MODEL 2
REMARK VINA RESULT:      -6.7      2.049      3.299
REMARK  Name = 
REMARK  8 active torsions:
REMARK  status: ('A' for Active; 'I' for Inactive)
REMARK    1  A    between atoms: C_2  and  C_5
REMARK    2  A    between atoms: C_8  and  C_11
REMARK    3  A    between atoms: C_9  and  C_14
REMARK    4  A    between atoms: C_10  and  C_15
REMARK    5  A    between atoms: C_10  and  C_16
REMARK    6  A    between atoms: C_16  and  C_23
REMARK    7  A    between atoms: C_23  and  C_26
REMARK    8  A    between atoms: C_23  and  C_27
REMARK                            x       y       z     vdW  Elec       q    Type
REMARK                         _______ _______ _______ _____ _____    ______ ____
ROOT
ATOM      1  C   UNL     1       6.322  32.279  79.196  0.00  0.00    +0.000 C 
ATOM      2  N   UNL     1       6.392  32.330  77.715  0.00  0.00    +0.000 N 
ATOM      3  C   UNL     1       7.605  31.543  79.602  0.00  0.00    +0.000 C 
ATOM      4  C   UNL     1       5.909  33.335  76.876  0.00  0.00    +0.000 C 
ATOM      5  C   UNL     1       7.259  31.221  77.191  0.00  0.00    +0.000 C 
ATOM      6  C   UNL     1       7.804  30.525  78.479  0.00  0.00    +0.000 C 
ATOM      7  O   UNL     1       6.038  33.239  75.654  0.00  0.00    +0.000 OA
ENDROOT
BRANCH   4   8
ATOM      8  C   UNL     1       5.286  34.581  77.382  0.00  0.00    +0.000 A 
ATOM      9  C   UNL     1       6.060  35.742  77.457  0.00  0.00    +0.000 A 
ATOM     10  C   UNL     1       3.938  34.663  77.690  0.00  0.00    +0.000 A 
ATOM     11  C   UNL     1       5.464  36.899  77.935  0.00  0.00    +0.000 A 
ATOM     12  C   UNL     1       3.443  35.845  78.209  0.00  0.00    +0.000 A 
ATOM     13  N   UNL     1       4.181  36.962  78.348  0.00  0.00    +0.000 NA
ENDBRANCH   4   8
BRANCH   1  15
ATOM     14  S   UNL     1       3.934  32.344  80.787  0.00  0.00    +0.000 S 
ATOM     15  C   UNL     1       5.042  31.603  79.703  0.00  0.00    +0.000 A 
ATOM     16  C   UNL     1       2.790  31.092  80.626  0.00  0.00    +0.000 A 
ATOM     17  C   UNL     1       4.547  30.367  79.303  0.00  0.00    +0.000 A 
ATOM     18  C   UNL     1       3.264  30.066  79.846  0.00  0.00    +0.000 A 
ENDBRANCH   1  15
BRANCH   3  19
ATOM     19  C   UNL     1       7.568  31.047  81.030  0.00  0.00    +0.000 C 
ATOM     20  O   UNL     1       7.702  31.793  81.992  0.00  0.00    +0.000 OA
ATOM     21  O   UNL     1       7.494  29.712  81.189  0.00  0.00    +0.000 OA
ENDBRANCH   3  19
BRANCH   5  22
ATOM     22  C   UNL     1       6.411  30.203  76.366  0.00  0.00    +0.000 C 
ATOM     23  O   UNL     1       5.199  30.310  76.199  0.00  0.00    +0.000 OA
ATOM     24  O   UNL     1       7.075  29.108  75.934  0.00  0.00    +0.000 OA
ENDBRANCH   5  22
BRANCH   5  25
ATOM     25  C   UNL     1       8.446  31.616  76.251  0.00  0.00    +0.000 C 
BRANCH  25  26
ATOM     26  C   UNL     1       9.687  32.339  76.818  0.00  0.00    +0.000 C 
ATOM     27  C   UNL     1      10.918  31.963  75.973  0.00  0.00    +0.000 C 
ATOM     28  C   UNL     1       9.566  33.859  76.832  0.00  0.00    +0.000 C 
ENDBRANCH  25  26
ENDBRANCH   5  25
TORSDOF 6
ENDMDL
MODEL 3
REMARK VINA RESULT:      -6.4      2.718      5.302
REMARK  Name = 
REMARK  8 active torsions:
REMARK  status: ('A' for Active; 'I' for Inactive)
REMARK    1  A    between atoms: C_2  and  C_5
REMARK    2  A    between atoms: C_8  and  C_11
REMARK    3  A    between atoms: C_9  and  C_14
REMARK    4  A    between atoms: C_10  and  C_15
REMARK    5  A    between atoms: C_10  and  C_16
REMARK    6  A    between atoms: C_16  and  C_23
REMARK    7  A    between atoms: C_23  and  C_26
REMARK    8  A    between atoms: C_23  and  C_27
REMARK                            x       y       z     vdW  Elec       q    Type
REMARK                         _______ _______ _______ _____ _____    ______ ____
ROOT
ATOM      1  C   UNL     1       6.269  33.247  77.898  0.00  0.00    +0.000 C 
ATOM      2  N   UNL     1       7.394  32.297  77.725  0.00  0.00    +0.000 N 
ATOM      3  C   UNL     1       6.602  34.394  76.934  0.00  0.00    +0.000 C 
ATOM      4  C   UNL     1       7.352  30.905  77.818  0.00  0.00    +0.000 C 
ATOM      5  C   UNL     1       8.613  33.011  77.217  0.00  0.00    +0.000 C 
ATOM      6  C   UNL     1       8.127  34.479  76.996  0.00  0.00    +0.000 C 
ATOM      7  O   UNL     1       8.376  30.240  77.652  0.00  0.00    +0.000 OA
ENDROOT
BRANCH   4   8
ATOM      8  C   UNL     1       6.099  30.147  78.052  0.00  0.00    +0.000 A 
ATOM      9  C   UNL     1       5.775  29.763  79.356  0.00  0.00    +0.000 A 
ATOM     10  C   UNL     1       5.188  29.891  77.040  0.00  0.00    +0.000 A 
ATOM     11  C   UNL     1       4.603  29.051  79.559  0.00  0.00    +0.000 A 
ATOM     12  C   UNL     1       4.071  29.129  77.327  0.00  0.00    +0.000 A 
ATOM     13  N   UNL     1       3.765  28.694  78.563  0.00  0.00    +0.000 NA
ENDBRANCH   4   8
BRANCH   1  15
ATOM     14  S   UNL     1       4.583  33.750  80.166  0.00  0.00    +0.000 S 
ATOM     15  C   UNL     1       6.095  33.700  79.352  0.00  0.00    +0.000 A 
ATOM     16  C   UNL     1       5.296  34.100  81.673  0.00  0.00    +0.000 A 
ATOM     17  C   UNL     1       7.113  34.037  80.239  0.00  0.00    +0.000 A 
ATOM     18  C   UNL     1       6.653  34.284  81.564  0.00  0.00    +0.000 A 
ENDBRANCH   1  15
BRANCH   3  19
ATOM     19  C   UNL     1       5.796  35.644  77.211  0.00  0.00    +0.000 C 
ATOM     20  O   UNL     1       4.589  35.707  77.014  0.00  0.00    +0.000 OA
ATOM     21  O   UNL     1       6.501  36.730  77.580  0.00  0.00    +0.000 OA
ENDBRANCH   3  19
BRANCH   5  22
ATOM     22  C   UNL     1       9.748  32.992  78.289  0.00  0.00    +0.000 C 
ATOM     23  O   UNL     1      10.195  31.961  78.784  0.00  0.00    +0.000 OA
ATOM     24  O   UNL     1      10.140  34.204  78.742  0.00  0.00    +0.000 OA
ENDBRANCH   5  22
BRANCH   5  25
ATOM     25  C   UNL     1       9.279  32.463  75.911  0.00  0.00    +0.000 C 
BRANCH  25  26
ATOM     26  C   UNL     1      10.803  32.591  75.695  0.00  0.00    +0.000 C 
ATOM     27  C   UNL     1      11.295  31.393  74.863  0.00  0.00    +0.000 C 
ATOM     28  C   UNL     1      11.220  33.872  74.981  0.00  0.00    +0.000 C 
ENDBRANCH  25  26
ENDBRANCH   5  25
TORSDOF 6
ENDMDL
MODEL 4
REMARK VINA RESULT:      -6.3      2.868      6.330
REMARK  Name = 
REMARK  8 active torsions:
REMARK  status: ('A' for Active; 'I' for Inactive)
REMARK    1  A    between atoms: C_2  and  C_5
REMARK    2  A    between atoms: C_8  and  C_11
REMARK    3  A    between atoms: C_9  and  C_14
REMARK    4  A    between atoms: C_10  and  C_15
REMARK    5  A    between atoms: C_10  and  C_16
REMARK    6  A    between atoms: C_16  and  C_23
REMARK    7  A    between atoms: C_23  and  C_26
REMARK    8  A    between atoms: C_23  and  C_27
REMARK                            x       y       z     vdW  Elec       q    Type
REMARK                         _______ _______ _______ _____ _____    ______ ____
ROOT
ATOM      1  C   UNL     1       7.898  32.938  79.097  0.00  0.00    +0.000 C 
ATOM      2  N   UNL     1       7.199  33.108  77.800  0.00  0.00    +0.000 N 
ATOM      3  C   UNL     1       6.957  32.038  79.909  0.00  0.00    +0.000 C 
ATOM      4  C   UNL     1       7.776  33.255  76.538  0.00  0.00    +0.000 C 
ATOM      5  C   UNL     1       5.722  32.896  77.966  0.00  0.00    +0.000 C 
ATOM      6  C   UNL     1       5.565  32.485  79.465  0.00  0.00    +0.000 C 
ATOM      7  O   UNL     1       7.063  33.391  75.541  0.00  0.00    +0.000 OA
ENDROOT
BRANCH   4   8
ATOM      8  C   UNL     1       9.239  33.196  76.304  0.00  0.00    +0.000 A 
ATOM      9  C   UNL     1       9.988  34.370  76.412  0.00  0.00    +0.000 A 
ATOM     10  C   UNL     1       9.906  32.003  76.080  0.00  0.00    +0.000 A 
ATOM     11  C   UNL     1      11.355  34.300  76.187  0.00  0.00    +0.000 A 
ATOM     12  C   UNL     1      11.262  32.037  75.815  0.00  0.00    +0.000 A 
ATOM     13  N   UNL     1      11.999  33.162  75.853  0.00  0.00    +0.000 NA
ENDBRANCH   4   8
BRANCH   1  15
ATOM     14  S   UNL     1       9.523  34.518  80.860  0.00  0.00    +0.000 S 
ATOM     15  C   UNL     1       8.208  34.275  79.780  0.00  0.00    +0.000 A 
ATOM     16  C   UNL     1       9.277  36.202  80.935  0.00  0.00    +0.000 A 
ATOM     17  C   UNL     1       7.553  35.483  79.566  0.00  0.00    +0.000 A 
ATOM     18  C   UNL     1       8.154  36.584  80.242  0.00  0.00    +0.000 A 
ENDBRANCH   1  15
BRANCH   3  19
ATOM     19  C   UNL     1       7.280  32.037  81.387  0.00  0.00    +0.000 C 
ATOM     20  O   UNL     1       8.192  31.372  81.862  0.00  0.00    +0.000 OA
ATOM     21  O   UNL     1       6.431  32.722  82.176  0.00  0.00    +0.000 OA
ENDBRANCH   3  19
BRANCH   5  22
ATOM     22  C   UNL     1       4.944  34.223  77.704  0.00  0.00    +0.000 C 
ATOM     23  O   UNL     1       4.680  35.040  78.583  0.00  0.00    +0.000 OA
ATOM     24  O   UNL     1       4.459  34.375  76.451  0.00  0.00    +0.000 OA
ENDBRANCH   5  22
BRANCH   5  25
ATOM     25  C   UNL     1       5.037  31.834  77.043  0.00  0.00    +0.000 C 
BRANCH  25  26
ATOM     26  C   UNL     1       5.343  30.331  77.217  0.00  0.00    +0.000 C 
ATOM     27  C   UNL     1       4.045  29.527  77.021  0.00  0.00    +0.000 C 
ATOM     28  C   UNL     1       6.387  29.796  76.244  0.00  0.00    +0.000 C 
ENDBRANCH  25  26
ENDBRANCH   5  25
TORSDOF 6
ENDMDL
MODEL 5
REMARK VINA RESULT:      -6.2      2.855      4.660
REMARK  Name = 
REMARK  8 active torsions:
REMARK  status: ('A' for Active; 'I' for Inactive)
REMARK    1  A    between atoms: C_2  and  C_5
REMARK    2  A    between atoms: C_8  and  C_11
REMARK    3  A    between atoms: C_9  and  C_14
REMARK    4  A    between atoms: C_10  and  C_15
REMARK    5  A    between atoms: C_10  and  C_16
REMARK    6  A    between atoms: C_16  and  C_23
REMARK    7  A    between atoms: C_23  and  C_26
REMARK    8  A    between atoms: C_23  and  C_27
REMARK                            x       y       z     vdW  Elec       q    Type
REMARK                         _______ _______ _______ _____ _____    ______ ____
ROOT
ATOM      1  C   UNL     1       5.495  31.686  79.636  0.00  0.00    +0.000 C 
ATOM      2  N   UNL     1       6.775  32.407  79.839  0.00  0.00    +0.000 N 
ATOM      3  C   UNL     1       5.530  30.567  80.685  0.00  0.00    +0.000 C 
ATOM      4  C   UNL     1       7.018  33.770  79.663  0.00  0.00    +0.000 C 
ATOM      5  C   UNL     1       7.791  31.505  80.478  0.00  0.00    +0.000 C 
ATOM      6  C   UNL     1       7.008  30.181  80.745  0.00  0.00    +0.000 C 
ATOM      7  O   UNL     1       8.143  34.231  79.868  0.00  0.00    +0.000 OA
ENDROOT
BRANCH   4   8
ATOM      8  C   UNL     1       5.961  34.740  79.292  0.00  0.00    +0.000 A 
ATOM      9  C   UNL     1       5.757  35.033  77.941  0.00  0.00    +0.000 A 
ATOM     10  C   UNL     1       5.102  35.294  80.227  0.00  0.00    +0.000 A 
ATOM     11  C   UNL     1       4.766  35.946  77.609  0.00  0.00    +0.000 A 
ATOM     12  C   UNL     1       4.179  36.234  79.810  0.00  0.00    +0.000 A 
ATOM     13  N   UNL     1       4.000  36.580  78.521  0.00  0.00    +0.000 NA
ENDBRANCH   4   8
BRANCH   1  15
ATOM     14  S   UNL     1       3.993  31.571  77.192  0.00  0.00    +0.000 S 
ATOM     15  C   UNL     1       5.326  31.174  78.200  0.00  0.00    +0.000 A 
ATOM     16  C   UNL     1       4.688  30.840  75.819  0.00  0.00    +0.000 A 
ATOM     17  C   UNL     1       6.243  30.414  77.482  0.00  0.00    +0.000 A 
ATOM     18  C   UNL     1       5.869  30.207  76.123  0.00  0.00    +0.000 A 
ENDBRANCH   1  15
BRANCH   3  19
ATOM     19  C   UNL     1       4.509  29.484  80.419  0.00  0.00    +0.000 C 
ATOM     20  O   UNL     1       3.315  29.633  80.648  0.00  0.00    +0.000 OA
ATOM     21  O   UNL     1       5.000  28.295  80.023  0.00  0.00    +0.000 OA
ENDBRANCH   3  19
BRANCH   5  22
ATOM     22  C   UNL     1       8.972  31.225  79.496  0.00  0.00    +0.000 C 
ATOM     23  O   UNL     1       8.975  31.582  78.321  0.00  0.00    +0.000 OA
ATOM     24  O   UNL     1       9.963  30.447  79.985  0.00  0.00    +0.000 OA
ENDBRANCH   5  22
BRANCH   5  25
ATOM     25  C   UNL     1       8.470  32.004  81.797  0.00  0.00    +0.000 C 
BRANCH  25  26
ATOM     26  C   UNL     1       7.617  32.328  83.043  0.00  0.00    +0.000 C 
ATOM     27  C   UNL     1       8.180  31.558  84.251  0.00  0.00    +0.000 C 
ATOM     28  C   UNL     1       7.579  33.810  83.398  0.00  0.00    +0.000 C 
ENDBRANCH  25  26
ENDBRANCH   5  25
TORSDOF 6
ENDMDL
MODEL 6
REMARK VINA RESULT:      -6.2      1.793      2.313
REMARK  Name = 
REMARK  8 active torsions:
REMARK  status: ('A' for Active; 'I' for Inactive)
REMARK    1  A    between atoms: C_2  and  C_5
REMARK    2  A    between atoms: C_8  and  C_11
REMARK    3  A    between atoms: C_9  and  C_14
REMARK    4  A    between atoms: C_10  and  C_15
REMARK    5  A    between atoms: C_10  and  C_16
REMARK    6  A    between atoms: C_16  and  C_23
REMARK    7  A    between atoms: C_23  and  C_26
REMARK    8  A    between atoms: C_23  and  C_27
REMARK                            x       y       z     vdW  Elec       q    Type
REMARK                         _______ _______ _______ _____ _____    ______ ____
ROOT
ATOM      1  C   UNL     1       5.771  32.191  79.062  0.00  0.00    +0.000 C 
ATOM      2  N   UNL     1       5.183  33.552  79.005  0.00  0.00    +0.000 N 
ATOM      3  C   UNL     1       7.198  32.382  78.531  0.00  0.00    +0.000 C 
ATOM      4  C   UNL     1       4.240  34.106  79.870  0.00  0.00    +0.000 C 
ATOM      5  C   UNL     1       5.892  34.388  77.978  0.00  0.00    +0.000 C 
ATOM      6  C   UNL     1       7.039  33.463  77.462  0.00  0.00    +0.000 C 
ATOM      7  O   UNL     1       3.838  35.258  79.696  0.00  0.00    +0.000 OA
ENDROOT
BRANCH   4   8
ATOM      8  C   UNL     1       3.718  33.395  81.062  0.00  0.00    +0.000 A 
ATOM      9  C   UNL     1       2.590  32.582  80.924  0.00  0.00    +0.000 A 
ATOM     10  C   UNL     1       4.365  33.427  82.287  0.00  0.00    +0.000 A 
ATOM     11  C   UNL     1       2.112  31.926  82.048  0.00  0.00    +0.000 A 
ATOM     12  C   UNL     1       3.785  32.784  83.364  0.00  0.00    +0.000 A 
ATOM     13  N   UNL     1       2.666  32.043  83.273  0.00  0.00    +0.000 NA
ENDBRANCH   4   8
BRANCH   1  15
ATOM     14  S   UNL     1       4.673  29.551  78.800  0.00  0.00    +0.000 S 
ATOM     15  C   UNL     1       4.956  31.162  78.270  0.00  0.00    +0.000 A 
ATOM     16  C   UNL     1       3.570  29.228  77.542  0.00  0.00    +0.000 A 
ATOM     17  C   UNL     1       4.260  31.392  77.088  0.00  0.00    +0.000 A 
ATOM     18  C   UNL     1       3.481  30.278  76.661  0.00  0.00    +0.000 A 
ENDBRANCH   1  15
BRANCH   3  19
ATOM     19  C   UNL     1       7.859  31.076  78.148  0.00  0.00    +0.000 C 
ATOM     20  O   UNL     1       8.289  30.286  78.979  0.00  0.00    +0.000 OA
ATOM     21  O   UNL     1       8.055  30.879  76.830  0.00  0.00    +0.000 OA
ENDBRANCH   3  19
BRANCH   5  22
ATOM     22  C   UNL     1       4.933  34.740  76.799  0.00  0.00    +0.000 C 
ATOM     23  O   UNL     1       3.900  35.390  76.936  0.00  0.00    +0.000 OA
ATOM     24  O   UNL     1       5.243  34.178  75.609  0.00  0.00    +0.000 OA
ENDBRANCH   5  22
BRANCH   5  25
ATOM     25  C   UNL     1       6.479  35.761  78.447  0.00  0.00    +0.000 C 
BRANCH  25  26
ATOM     26  C   UNL     1       6.985  36.791  77.414  0.00  0.00    +0.000 C 
ATOM     27  C   UNL     1       6.378  38.168  77.738  0.00  0.00    +0.000 C 
ATOM     28  C   UNL     1       8.502  36.936  77.377  0.00  0.00    +0.000 C 
ENDBRANCH  25  26
ENDBRANCH   5  25
TORSDOF 6
ENDMDL
MODEL 7
REMARK VINA RESULT:      -6.1      1.724      2.198
REMARK  Name = 
REMARK  8 active torsions:
REMARK  status: ('A' for Active; 'I' for Inactive)
REMARK    1  A    between atoms: C_2  and  C_5
REMARK    2  A    between atoms: C_8  and  C_11
REMARK    3  A    between atoms: C_9  and  C_14
REMARK    4  A    between atoms: C_10  and  C_15
REMARK    5  A    between atoms: C_10  and  C_16
REMARK    6  A    between atoms: C_16  and  C_23
REMARK    7  A    between atoms: C_23  and  C_26
REMARK    8  A    between atoms: C_23  and  C_27
REMARK                            x       y       z     vdW  Elec       q    Type
REMARK                         _______ _______ _______ _____ _____    ______ ____
ROOT
ATOM      1  C   UNL     1       6.299  32.860  79.013  0.00  0.00    +0.000 C 
ATOM      2  N   UNL     1       6.148  33.777  77.857  0.00  0.00    +0.000 N 
ATOM      3  C   UNL     1       7.588  32.087  78.707  0.00  0.00    +0.000 C 
ATOM      4  C   UNL     1       5.599  35.060  77.857  0.00  0.00    +0.000 C 
ATOM      5  C   UNL     1       6.866  33.232  76.656  0.00  0.00    +0.000 C 
ATOM      6  C   UNL     1       7.561  31.937  77.186  0.00  0.00    +0.000 C 
ATOM      7  O   UNL     1       5.537  35.709  76.810  0.00  0.00    +0.000 OA
ENDROOT
BRANCH   4   8
ATOM      8  C   UNL     1       5.125  35.738  79.087  0.00  0.00    +0.000 A 
ATOM      9  C   UNL     1       6.033  36.495  79.832  0.00  0.00    +0.000 A 
ATOM     10  C   UNL     1       3.795  35.731  79.471  0.00  0.00    +0.000 A 
ATOM     11  C   UNL     1       5.576  37.121  80.983  0.00  0.00    +0.000 A 
ATOM     12  C   UNL     1       3.442  36.340  80.661  0.00  0.00    +0.000 A 
ATOM     13  N   UNL     1       4.307  37.026  81.431  0.00  0.00    +0.000 NA
ENDBRANCH   4   8
BRANCH   1  15
ATOM     14  S   UNL     1       4.415  31.568  80.751  0.00  0.00    +0.000 S 
ATOM     15  C   UNL     1       5.076  31.957  79.214  0.00  0.00    +0.000 A 
ATOM     16  C   UNL     1       3.055  30.793  80.079  0.00  0.00    +0.000 A 
ATOM     17  C   UNL     1       4.280  31.411  78.213  0.00  0.00    +0.000 A 
ATOM     18  C   UNL     1       3.132  30.728  78.708  0.00  0.00    +0.000 A 
ENDBRANCH   1  15
BRANCH   3  19
ATOM     19  C   UNL     1       7.739  30.843  79.554  0.00  0.00    +0.000 C 
ATOM     20  O   UNL     1       7.486  29.722  79.132  0.00  0.00    +0.000 OA
ATOM     21  O   UNL     1       8.060  31.046  80.846  0.00  0.00    +0.000 OA
ENDBRANCH   3  19
BRANCH   5  22
ATOM     22  C   UNL     1       5.851  32.857  75.532  0.00  0.00    +0.000 C 
ATOM     23  O   UNL     1       5.270  31.777  75.475  0.00  0.00    +0.000 OA
ATOM     24  O   UNL     1       5.730  33.761  74.533  0.00  0.00    +0.000 OA
ENDBRANCH   5  22
BRANCH   5  25
ATOM     25  C   UNL     1       7.918  34.160  75.961  0.00  0.00    +0.000 C 
BRANCH  25  26
ATOM     26  C   UNL     1       9.124  34.709  76.754  0.00  0.00    +0.000 C 
ATOM     27  C   UNL     1      10.408  34.487  75.935  0.00  0.00    +0.000 C 
ATOM     28  C   UNL     1       9.021  36.193  77.087  0.00  0.00    +0.000 C 
ENDBRANCH  25  26
ENDBRANCH   5  25
TORSDOF 6
ENDMDL
MODEL 8
REMARK VINA RESULT:      -6.1      2.703      5.382
REMARK  Name = 
REMARK  8 active torsions:
REMARK  status: ('A' for Active; 'I' for Inactive)
REMARK    1  A    between atoms: C_2  and  C_5
REMARK    2  A    between atoms: C_8  and  C_11
REMARK    3  A    between atoms: C_9  and  C_14
REMARK    4  A    between atoms: C_10  and  C_15
REMARK    5  A    between atoms: C_10  and  C_16
REMARK    6  A    between atoms: C_16  and  C_23
REMARK    7  A    between atoms: C_23  and  C_26
REMARK    8  A    between atoms: C_23  and  C_27
REMARK                            x       y       z     vdW  Elec       q    Type
REMARK                         _______ _______ _______ _____ _____    ______ ____
ROOT
ATOM      1  C   UNL     1       6.572  32.958  77.958  0.00  0.00    +0.000 C 
ATOM      2  N   UNL     1       5.918  31.715  78.434  0.00  0.00    +0.000 N 
ATOM      3  C   UNL     1       5.587  33.523  76.926  0.00  0.00    +0.000 C 
ATOM      4  C   UNL     1       5.986  31.156  79.710  0.00  0.00    +0.000 C 
ATOM      5  C   UNL     1       4.962  31.195  77.399  0.00  0.00    +0.000 C 
ATOM      6  C   UNL     1       5.003  32.272  76.270  0.00  0.00    +0.000 C 
ATOM      7  O   UNL     1       5.387  30.107  79.961  0.00  0.00    +0.000 OA
ENDROOT
BRANCH   4   8
ATOM      8  C   UNL     1       6.706  31.794  80.837  0.00  0.00    +0.000 A 
ATOM      9  C   UNL     1       5.977  32.531  81.774  0.00  0.00    +0.000 A 
ATOM     10  C   UNL     1       8.062  31.607  81.052  0.00  0.00    +0.000 A 
ATOM     11  C   UNL     1       6.664  33.126  82.822  0.00  0.00    +0.000 A 
ATOM     12  C   UNL     1       8.671  32.283  82.093  0.00  0.00    +0.000 A 
ATOM     13  N   UNL     1       8.003  33.047  82.976  0.00  0.00    +0.000 NA
ENDBRANCH   4   8
BRANCH   1  15
ATOM     14  S   UNL     1       9.390  33.509  77.951  0.00  0.00    +0.000 S 
ATOM     15  C   UNL     1       7.975  32.708  77.393  0.00  0.00    +0.000 A 
ATOM     16  C   UNL     1      10.428  32.528  77.023  0.00  0.00    +0.000 A 
ATOM     17  C   UNL     1       8.324  31.757  76.440  0.00  0.00    +0.000 A 
ATOM     18  C   UNL     1       9.728  31.666  76.214  0.00  0.00    +0.000 A 
ENDBRANCH   1  15
BRANCH   3  19
ATOM     19  C   UNL     1       6.209  34.581  76.042  0.00  0.00    +0.000 C 
ATOM     20  O   UNL     1       6.518  35.690  76.458  0.00  0.00    +0.000 OA
ATOM     21  O   UNL     1       6.300  34.277  74.733  0.00  0.00    +0.000 OA
ENDBRANCH   3  19
BRANCH   5  22
ATOM     22  C   UNL     1       5.455  29.826  76.834  0.00  0.00    +0.000 C 
ATOM     23  O   UNL     1       6.494  29.693  76.193  0.00  0.00    +0.000 OA
ATOM     24  O   UNL     1       4.600  28.791  76.989  0.00  0.00    +0.000 OA
ENDBRANCH   5  22
BRANCH   5  25
ATOM     25  C   UNL     1       3.484  30.940  77.847  0.00  0.00    +0.000 C 
BRANCH  25  26
ATOM     26  C   UNL     1       2.542  32.125  78.149  0.00  0.00    +0.000 C 
ATOM     27  C   UNL     1       1.129  31.585  78.435  0.00  0.00    +0.000 C 
ATOM     28  C   UNL     1       2.977  32.974  79.338  0.00  0.00    +0.000 C 
ENDBRANCH  25  26
ENDBRANCH   5  25
TORSDOF 6
ENDMDL
MODEL 9
REMARK VINA RESULT:      -6.1      2.471      5.867
REMARK  Name = 
REMARK  8 active torsions:
REMARK  status: ('A' for Active; 'I' for Inactive)
REMARK    1  A    between atoms: C_2  and  C_5
REMARK    2  A    between atoms: C_8  and  C_11
REMARK    3  A    between atoms: C_9  and  C_14
REMARK    4  A    between atoms: C_10  and  C_15
REMARK    5  A    between atoms: C_10  and  C_16
REMARK    6  A    between atoms: C_16  and  C_23
REMARK    7  A    between atoms: C_23  and  C_26
REMARK    8  A    between atoms: C_23  and  C_27
REMARK                            x       y       z     vdW  Elec       q    Type
REMARK                         _______ _______ _______ _____ _____    ______ ____
ROOT
ATOM      1  C   UNL     1       5.363  34.403  79.184  0.00  0.00    +0.000 C 
ATOM      2  N   UNL     1       5.471  33.121  78.446  0.00  0.00    +0.000 N 
ATOM      3  C   UNL     1       3.912  34.844  78.951  0.00  0.00    +0.000 C 
ATOM      4  C   UNL     1       6.253  32.014  78.777  0.00  0.00    +0.000 C 
ATOM      5  C   UNL     1       4.446  33.057  77.351  0.00  0.00    +0.000 C 
ATOM      6  C   UNL     1       3.622  34.372  77.526  0.00  0.00    +0.000 C 
ATOM      7  O   UNL     1       6.243  31.010  78.062  0.00  0.00    +0.000 OA
ENDROOT
BRANCH   4   8
ATOM      8  C   UNL     1       7.075  31.942  80.009  0.00  0.00    +0.000 A 
ATOM      9  C   UNL     1       8.377  32.449  79.982  0.00  0.00    +0.000 A 
ATOM     10  C   UNL     1       6.568  31.482  81.213  0.00  0.00    +0.000 A 
ATOM     11  C   UNL     1       9.136  32.372  81.141  0.00  0.00    +0.000 A 
ATOM     12  C   UNL     1       7.414  31.394  82.302  0.00  0.00    +0.000 A 
ATOM     13  N   UNL     1       8.691  31.819  82.288  0.00  0.00    +0.000 NA
ENDBRANCH   4   8
BRANCH   1  15
ATOM     14  S   UNL     1       7.485  36.240  79.789  0.00  0.00    +0.000 S 
ATOM     15  C   UNL     1       6.399  35.437  78.727  0.00  0.00    +0.000 A 
ATOM     16  C   UNL     1       8.357  36.955  78.512  0.00  0.00    +0.000 A 
ATOM     17  C   UNL     1       6.677  35.801  77.413  0.00  0.00    +0.000 A 
ATOM     18  C   UNL     1       7.787  36.686  77.292  0.00  0.00    +0.000 A 
ENDBRANCH   1  15
BRANCH   3  19
ATOM     19  C   UNL     1       3.681  36.299  79.293  0.00  0.00    +0.000 C 
ATOM     20  O   UNL     1       3.561  37.167  78.437  0.00  0.00    +0.000 OA
ATOM     21  O   UNL     1       3.730  36.612  80.602  0.00  0.00    +0.000 OA
ENDBRANCH   3  19
BRANCH   5  22
ATOM     22  C   UNL     1       5.136  33.055  75.951  0.00  0.00    +0.000 C 
ATOM     23  O   UNL     1       5.485  34.077  75.367  0.00  0.00    +0.000 OA
ATOM     24  O   UNL     1       5.225  31.849  75.348  0.00  0.00    +0.000 OA
ENDBRANCH   5  22
BRANCH   5  25
ATOM     25  C   UNL     1       3.487  31.820  77.332  0.00  0.00    +0.000 C 
BRANCH  25  26
ATOM     26  C   UNL     1       2.512  31.567  78.502  0.00  0.00    +0.000 C 
ATOM     27  C   UNL     1       1.130  31.196  77.935  0.00  0.00    +0.000 C 
ATOM     28  C   UNL     1       2.955  30.454  79.446  0.00  0.00    +0.000 C 
ENDBRANCH  25  26
ENDBRANCH   5  25
TORSDOF 6
ENDMDL
