MODEL 1
REMARK VINA RESULT:      -6.8      0.000      0.000
REMARK  Name = 
REMARK  8 active torsions:
REMARK  status: ('A' for Active; 'I' for Inactive)
REMARK    1  A    between atoms: C_2  and  C_5
REMARK    2  A    between atoms: C_8  and  C_11
REMARK    3  A    between atoms: C_9  and  C_14
REMARK    4  A    between atoms: C_10  and  C_15
REMARK    5  A    between atoms: C_10  and  C_16
REMARK    6  A    between atoms: C_16  and  C_23
REMARK    7  A    between atoms: C_23  and  C_26
REMARK    8  A    between atoms: C_23  and  C_27
REMARK                            x       y       z     vdW  Elec       q    Type
REMARK                         _______ _______ _______ _____ _____    ______ ____
ROOT
ATOM      1  C   UNL     1       5.607  32.647  78.690  0.00  0.00    +0.000 C 
ATOM      2  N   UNL     1       5.147  33.629  77.677  0.00  0.00    +0.000 N 
ATOM      3  C   UNL     1       7.138  32.725  78.617  0.00  0.00    +0.000 C 
ATOM      4  C   UNL     1       3.997  34.422  77.718  0.00  0.00    +0.000 C 
ATOM      5  C   UNL     1       6.209  33.842  76.637  0.00  0.00    +0.000 C 
ATOM      6  C   UNL     1       7.410  32.981  77.135  0.00  0.00    +0.000 C 
ATOM      7  O   UNL     1       3.741  35.191  76.792  0.00  0.00    +0.000 OA
ENDROOT
BRANCH   4   8
ATOM      8  C   UNL     1       3.061  34.428  78.871  0.00  0.00    +0.000 A 
ATOM      9  C   UNL     1       3.108  35.494  79.774  0.00  0.00    +0.000 A 
ATOM     10  C   UNL     1       2.077  33.466  79.032  0.00  0.00    +0.000 A 
ATOM     11  C   UNL     1       2.238  35.480  80.851  0.00  0.00    +0.000 A 
ATOM     12  C   UNL     1       1.289  33.504  80.166  0.00  0.00    +0.000 A 
ATOM     13  N   UNL     1       1.357  34.485  81.085  0.00  0.00    +0.000 NA
ENDBRANCH   4   8
BRANCH   1  15
ATOM     14  S   UNL     1       4.184  30.333  79.614  0.00  0.00    +0.000 S 
ATOM     15  C   UNL     1       5.058  31.238  78.443  0.00  0.00    +0.000 A 
ATOM     16  C   UNL     1       3.776  29.107  78.502  0.00  0.00    +0.000 A 
ATOM     17  C   UNL     1       5.090  30.538  77.242  0.00  0.00    +0.000 A 
ATOM     18  C   UNL     1       4.372  29.309  77.281  0.00  0.00    +0.000 A 
ENDBRANCH   1  15
BRANCH   3  19
ATOM     19  C   UNL     1       7.816  31.550  79.286  0.00  0.00    +0.000 C 
ATOM     20  O   UNL     1       7.813  31.392  80.501  0.00  0.00    +0.000 OA
ATOM     21  O   UNL     1       8.527  30.739  78.481  0.00  0.00    +0.000 OA
ENDBRANCH   3  19
BRANCH   5  22
ATOM     22  C   UNL     1       5.736  33.310  75.247  0.00  0.00    +0.000 C 
ATOM     23  O   UNL     1       5.261  32.195  75.075  0.00  0.00    +0.000 OA
ATOM     24  O   UNL     1       6.007  34.118  74.198  0.00  0.00    +0.000 OA
ENDBRANCH   5  22
BRANCH   5  25
ATOM     25  C   UNL     1       6.678  35.314  76.378  0.00  0.00    +0.000 C 
BRANCH  25  26
ATOM     26  C   UNL     1       7.183  36.190  77.544  0.00  0.00    +0.000 C 
ATOM     27  C   UNL     1       8.627  36.634  77.253  0.00  0.00    +0.000 C 
ATOM     28  C   UNL     1       6.341  37.439  77.788  0.00  0.00    +0.000 C 
ENDBRANCH  25  26
ENDBRANCH   5  25
TORSDOF 6
ENDMDL
MODEL 2
REMARK VINA RESULT:      -6.6      2.054      3.334
REMARK  Name = 
REMARK  8 active torsions:
REMARK  status: ('A' for Active; 'I' for Inactive)
REMARK    1  A    between atoms: C_2  and  C_5
REMARK    2  A    between atoms: C_8  and  C_11
REMARK    3  A    between atoms: C_9  and  C_14
REMARK    4  A    between atoms: C_10  and  C_15
REMARK    5  A    between atoms: C_10  and  C_16
REMARK    6  A    between atoms: C_16  and  C_23
REMARK    7  A    between atoms: C_23  and  C_26
REMARK    8  A    between atoms: C_23  and  C_27
REMARK                            x       y       z     vdW  Elec       q    Type
REMARK                         _______ _______ _______ _____ _____    ______ ____
ROOT
ATOM      1  C   UNL     1       6.398  32.321  79.165  0.00  0.00    +0.000 C 
ATOM      2  N   UNL     1       6.449  32.374  77.683  0.00  0.00    +0.000 N 
ATOM      3  C   UNL     1       7.685  31.580  79.556  0.00  0.00    +0.000 C 
ATOM      4  C   UNL     1       5.961  33.384  76.849  0.00  0.00    +0.000 C 
ATOM      5  C   UNL     1       7.309  31.264  77.149  0.00  0.00    +0.000 C 
ATOM      6  C   UNL     1       7.868  30.566  78.427  0.00  0.00    +0.000 C 
ATOM      7  O   UNL     1       6.070  33.285  75.626  0.00  0.00    +0.000 OA
ENDROOT
BRANCH   4   8
ATOM      8  C   UNL     1       5.341  34.630  77.366  0.00  0.00    +0.000 A 
ATOM      9  C   UNL     1       6.111  35.796  77.417  0.00  0.00    +0.000 A 
ATOM     10  C   UNL     1       4.001  34.704  77.710  0.00  0.00    +0.000 A 
ATOM     11  C   UNL     1       5.524  36.948  77.913  0.00  0.00    +0.000 A 
ATOM     12  C   UNL     1       3.517  35.882  78.247  0.00  0.00    +0.000 A 
ATOM     13  N   UNL     1       4.254  37.002  78.366  0.00  0.00    +0.000 NA
ENDBRANCH   4   8
BRANCH   1  15
ATOM     14  S   UNL     1       4.063  32.369  80.832  0.00  0.00    +0.000 S 
ATOM     15  C   UNL     1       5.126  31.647  79.690  0.00  0.00    +0.000 A 
ATOM     16  C   UNL     1       2.892  31.142  80.661  0.00  0.00    +0.000 A 
ATOM     17  C   UNL     1       4.597  30.434  79.263  0.00  0.00    +0.000 A 
ATOM     18  C   UNL     1       3.327  30.136  79.834  0.00  0.00    +0.000 A 
ENDBRANCH   1  15
BRANCH   3  19
ATOM     19  C   UNL     1       7.660  31.080  80.983  0.00  0.00    +0.000 C 
ATOM     20  O   UNL     1       7.491  29.899  81.265  0.00  0.00    +0.000 OA
ATOM     21  O   UNL     1       7.721  32.022  81.942  0.00  0.00    +0.000 OA
ENDBRANCH   3  19
BRANCH   5  22
ATOM     22  C   UNL     1       6.451  30.244  76.338  0.00  0.00    +0.000 C 
ATOM     23  O   UNL     1       5.250  30.376  76.138  0.00  0.00    +0.000 OA
ATOM     24  O   UNL     1       7.095  29.113  75.971  0.00  0.00    +0.000 OA
ENDBRANCH   5  22
BRANCH   5  25
ATOM     25  C   UNL     1       8.488  31.661  76.198  0.00  0.00    +0.000 C 
BRANCH  25  26
ATOM     26  C   UNL     1       9.717  32.417  76.749  0.00  0.00    +0.000 C 
ATOM     27  C   UNL     1      10.965  32.000  75.951  0.00  0.00    +0.000 C 
ATOM     28  C   UNL     1       9.591  33.936  76.676  0.00  0.00    +0.000 C 
ENDBRANCH  25  26
ENDBRANCH   5  25
TORSDOF 6
ENDMDL
MODEL 3
REMARK VINA RESULT:      -6.4      2.969      5.597
REMARK  Name = 
REMARK  8 active torsions:
REMARK  status: ('A' for Active; 'I' for Inactive)
REMARK    1  A    between atoms: C_2  and  C_5
REMARK    2  A    between atoms: C_8  and  C_11
REMARK    3  A    between atoms: C_9  and  C_14
REMARK    4  A    between atoms: C_10  and  C_15
REMARK    5  A    between atoms: C_10  and  C_16
REMARK    6  A    between atoms: C_16  and  C_23
REMARK    7  A    between atoms: C_23  and  C_26
REMARK    8  A    between atoms: C_23  and  C_27
REMARK                            x       y       z     vdW  Elec       q    Type
REMARK                         _______ _______ _______ _____ _____    ______ ____
ROOT
ATOM      1  C   UNL     1       6.945  32.147  77.542  0.00  0.00    +0.000 C 
ATOM      2  N   UNL     1       8.337  32.180  78.056  0.00  0.00    +0.000 N 
ATOM      3  C   UNL     1       7.103  32.319  76.025  0.00  0.00    +0.000 C 
ATOM      4  C   UNL     1       8.857  31.489  79.154  0.00  0.00    +0.000 C 
ATOM      5  C   UNL     1       9.229  32.918  77.099  0.00  0.00    +0.000 C 
ATOM      6  C   UNL     1       8.297  33.264  75.897  0.00  0.00    +0.000 C 
ATOM      7  O   UNL     1      10.041  31.623  79.466  0.00  0.00    +0.000 OA
ENDROOT
BRANCH   4   8
ATOM      8  C   UNL     1       8.056  30.536  79.963  0.00  0.00    +0.000 A 
ATOM      9  C   UNL     1       7.358  31.015  81.075  0.00  0.00    +0.000 A 
ATOM     10  C   UNL     1       7.898  29.208  79.602  0.00  0.00    +0.000 A 
ATOM     11  C   UNL     1       6.625  30.113  81.827  0.00  0.00    +0.000 A 
ATOM     12  C   UNL     1       7.192  28.370  80.443  0.00  0.00    +0.000 A 
ATOM     13  N   UNL     1       6.561  28.793  81.555  0.00  0.00    +0.000 NA
ENDBRANCH   4   8
BRANCH   1  15
ATOM     14  S   UNL     1       4.472  32.900  78.789  0.00  0.00    +0.000 S 
ATOM     15  C   UNL     1       6.051  33.213  78.185  0.00  0.00    +0.000 A 
ATOM     16  C   UNL     1       4.331  34.446  79.492  0.00  0.00    +0.000 A 
ATOM     17  C   UNL     1       6.404  34.529  78.463  0.00  0.00    +0.000 A 
ATOM     18  C   UNL     1       5.411  35.241  79.195  0.00  0.00    +0.000 A 
ENDBRANCH   1  15
BRANCH   3  19
ATOM     19  C   UNL     1       5.806  32.693  75.342  0.00  0.00    +0.000 C 
ATOM     20  O   UNL     1       4.912  31.881  75.135  0.00  0.00    +0.000 OA
ATOM     21  O   UNL     1       5.729  33.949  74.865  0.00  0.00    +0.000 OA
ENDBRANCH   3  19
BRANCH   5  22
ATOM     22  C   UNL     1       9.754  34.240  77.742  0.00  0.00    +0.000 C 
ATOM     23  O   UNL     1       9.956  34.376  78.941  0.00  0.00    +0.000 OA
ATOM     24  O   UNL     1       9.850  35.292  76.899  0.00  0.00    +0.000 OA
ENDBRANCH   5  22
BRANCH   5  25
ATOM     25  C   UNL     1      10.507  32.172  76.587  0.00  0.00    +0.000 C 
BRANCH  25  26
ATOM     26  C   UNL     1      10.970  32.329  75.122  0.00  0.00    +0.000 C 
ATOM     27  C   UNL     1      12.094  33.378  75.058  0.00  0.00    +0.000 C 
ATOM     28  C   UNL     1      11.488  31.038  74.496  0.00  0.00    +0.000 C 
ENDBRANCH  25  26
ENDBRANCH   5  25
TORSDOF 6
ENDMDL
MODEL 4
REMARK VINA RESULT:      -6.4      2.708      5.296
REMARK  Name = 
REMARK  8 active torsions:
REMARK  status: ('A' for Active; 'I' for Inactive)
REMARK    1  A    between atoms: C_2  and  C_5
REMARK    2  A    between atoms: C_8  and  C_11
REMARK    3  A    between atoms: C_9  and  C_14
REMARK    4  A    between atoms: C_10  and  C_15
REMARK    5  A    between atoms: C_10  and  C_16
REMARK    6  A    between atoms: C_16  and  C_23
REMARK    7  A    between atoms: C_23  and  C_26
REMARK    8  A    between atoms: C_23  and  C_27
REMARK                            x       y       z     vdW  Elec       q    Type
REMARK                         _______ _______ _______ _____ _____    ______ ____
ROOT
ATOM      1  C   UNL     1       6.254  33.251  77.911  0.00  0.00    +0.000 C 
ATOM      2  N   UNL     1       7.380  32.301  77.740  0.00  0.00    +0.000 N 
ATOM      3  C   UNL     1       6.587  34.400  76.949  0.00  0.00    +0.000 C 
ATOM      4  C   UNL     1       7.341  30.906  77.831  0.00  0.00    +0.000 C 
ATOM      5  C   UNL     1       8.597  33.019  77.232  0.00  0.00    +0.000 C 
ATOM      6  C   UNL     1       8.111  34.484  77.009  0.00  0.00    +0.000 C 
ATOM      7  O   UNL     1       8.367  30.245  77.672  0.00  0.00    +0.000 OA
ENDROOT
BRANCH   4   8
ATOM      8  C   UNL     1       6.087  30.147  78.069  0.00  0.00    +0.000 A 
ATOM      9  C   UNL     1       5.763  29.771  79.375  0.00  0.00    +0.000 A 
ATOM     10  C   UNL     1       5.178  29.882  77.057  0.00  0.00    +0.000 A 
ATOM     11  C   UNL     1       4.597  29.052  79.580  0.00  0.00    +0.000 A 
ATOM     12  C   UNL     1       4.068  29.112  77.346  0.00  0.00    +0.000 A 
ATOM     13  N   UNL     1       3.764  28.682  78.585  0.00  0.00    +0.000 NA
ENDBRANCH   4   8
BRANCH   1  15
ATOM     14  S   UNL     1       4.563  33.749  80.176  0.00  0.00    +0.000 S 
ATOM     15  C   UNL     1       6.078  33.707  79.363  0.00  0.00    +0.000 A 
ATOM     16  C   UNL     1       5.274  34.100  81.684  0.00  0.00    +0.000 A 
ATOM     17  C   UNL     1       7.092  34.047  80.251  0.00  0.00    +0.000 A 
ATOM     18  C   UNL     1       6.630  34.292  81.576  0.00  0.00    +0.000 A 
ENDBRANCH   1  15
BRANCH   3  19
ATOM     19  C   UNL     1       5.781  35.649  77.228  0.00  0.00    +0.000 C 
ATOM     20  O   UNL     1       4.577  35.719  77.012  0.00  0.00    +0.000 OA
ATOM     21  O   UNL     1       6.480  36.729  77.625  0.00  0.00    +0.000 OA
ENDBRANCH   3  19
BRANCH   5  22
ATOM     22  C   UNL     1       9.732  33.009  78.304  0.00  0.00    +0.000 C 
ATOM     23  O   UNL     1      10.184  31.986  78.801  0.00  0.00    +0.000 OA
ATOM     24  O   UNL     1      10.105  34.226  78.760  0.00  0.00    +0.000 OA
ENDBRANCH   5  22
BRANCH   5  25
ATOM     25  C   UNL     1       9.261  32.471  75.923  0.00  0.00    +0.000 C 
BRANCH  25  26
ATOM     26  C   UNL     1      10.785  32.599  75.706  0.00  0.00    +0.000 C 
ATOM     27  C   UNL     1      11.280  31.400  74.880  0.00  0.00    +0.000 C 
ATOM     28  C   UNL     1      11.200  33.878  74.985  0.00  0.00    +0.000 C 
ENDBRANCH  25  26
ENDBRANCH   5  25
TORSDOF 6
ENDMDL
MODEL 5
REMARK VINA RESULT:      -6.4      2.943      6.444
REMARK  Name = 
REMARK  8 active torsions:
REMARK  status: ('A' for Active; 'I' for Inactive)
REMARK    1  A    between atoms: C_2  and  C_5
REMARK    2  A    between atoms: C_8  and  C_11
REMARK    3  A    between atoms: C_9  and  C_14
REMARK    4  A    between atoms: C_10  and  C_15
REMARK    5  A    between atoms: C_10  and  C_16
REMARK    6  A    between atoms: C_16  and  C_23
REMARK    7  A    between atoms: C_23  and  C_26
REMARK    8  A    between atoms: C_23  and  C_27
REMARK                            x       y       z     vdW  Elec       q    Type
REMARK                         _______ _______ _______ _____ _____    ______ ____
ROOT
ATOM      1  C   UNL     1       7.973  32.879  79.195  0.00  0.00    +0.000 C 
ATOM      2  N   UNL     1       7.353  33.091  77.864  0.00  0.00    +0.000 N 
ATOM      3  C   UNL     1       6.948  32.022  79.951  0.00  0.00    +0.000 C 
ATOM      4  C   UNL     1       8.001  33.216  76.631  0.00  0.00    +0.000 C 
ATOM      5  C   UNL     1       5.861  32.949  77.954  0.00  0.00    +0.000 C 
ATOM      6  C   UNL     1       5.605  32.537  79.436  0.00  0.00    +0.000 C 
ATOM      7  O   UNL     1       7.349  33.398  75.603  0.00  0.00    +0.000 OA
ENDROOT
BRANCH   4   8
ATOM      8  C   UNL     1       9.473  33.091  76.476  0.00  0.00    +0.000 A 
ATOM      9  C   UNL     1       9.995  31.921  75.916  0.00  0.00    +0.000 A 
ATOM     10  C   UNL     1      10.341  34.128  76.776  0.00  0.00    +0.000 A 
ATOM     11  C   UNL     1      11.370  31.813  75.788  0.00  0.00    +0.000 A 
ATOM     12  C   UNL     1      11.700  33.909  76.667  0.00  0.00    +0.000 A 
ATOM     13  N   UNL     1      12.234  32.769  76.190  0.00  0.00    +0.000 NA
ENDBRANCH   4   8
BRANCH   1  15
ATOM     14  S   UNL     1       9.594  34.366  81.038  0.00  0.00    +0.000 S 
ATOM     15  C   UNL     1       8.311  34.193  79.908  0.00  0.00    +0.000 A 
ATOM     16  C   UNL     1       9.418  36.059  81.123  0.00  0.00    +0.000 A 
ATOM     17  C   UNL     1       7.717  35.430  79.684  0.00  0.00    +0.000 A 
ATOM     18  C   UNL     1       8.340  36.496  80.395  0.00  0.00    +0.000 A 
ENDBRANCH   1  15
BRANCH   3  19
ATOM     19  C   UNL     1       7.193  32.000  81.443  0.00  0.00    +0.000 C 
ATOM     20  O   UNL     1       8.041  31.283  81.962  0.00  0.00    +0.000 OA
ATOM     21  O   UNL     1       6.346  32.730  82.193  0.00  0.00    +0.000 OA
ENDBRANCH   3  19
BRANCH   5  22
ATOM     22  C   UNL     1       5.158  34.313  77.669  0.00  0.00    +0.000 C 
ATOM     23  O   UNL     1       4.942  35.156  78.530  0.00  0.00    +0.000 OA
ATOM     24  O   UNL     1       4.672  34.461  76.416  0.00  0.00    +0.000 OA
ENDBRANCH   5  22
BRANCH   5  25
ATOM     25  C   UNL     1       5.177  31.923  76.988  0.00  0.00    +0.000 C 
BRANCH  25  26
ATOM     26  C   UNL     1       5.392  30.406  77.179  0.00  0.00    +0.000 C 
ATOM     27  C   UNL     1       4.065  29.672  76.923  0.00  0.00    +0.000 C 
ATOM     28  C   UNL     1       6.450  29.812  76.254  0.00  0.00    +0.000 C 
ENDBRANCH  25  26
ENDBRANCH   5  25
TORSDOF 6
ENDMDL
MODEL 6
REMARK VINA RESULT:      -6.4      2.634      4.948
REMARK  Name = 
REMARK  8 active torsions:
REMARK  status: ('A' for Active; 'I' for Inactive)
REMARK    1  A    between atoms: C_2  and  C_5
REMARK    2  A    between atoms: C_8  and  C_11
REMARK    3  A    between atoms: C_9  and  C_14
REMARK    4  A    between atoms: C_10  and  C_15
REMARK    5  A    between atoms: C_10  and  C_16
REMARK    6  A    between atoms: C_16  and  C_23
REMARK    7  A    between atoms: C_23  and  C_26
REMARK    8  A    between atoms: C_23  and  C_27
REMARK                            x       y       z     vdW  Elec       q    Type
REMARK                         _______ _______ _______ _____ _____    ______ ____
ROOT
ATOM      1  C   UNL     1       7.327  33.618  78.233  0.00  0.00    +0.000 C 
ATOM      2  N   UNL     1       6.139  32.946  77.650  0.00  0.00    +0.000 N 
ATOM      3  C   UNL     1       6.972  35.111  78.184  0.00  0.00    +0.000 C 
ATOM      4  C   UNL     1       5.619  31.692  77.985  0.00  0.00    +0.000 C 
ATOM      5  C   UNL     1       5.392  33.891  76.754  0.00  0.00    +0.000 C 
ATOM      6  C   UNL     1       6.159  35.241  76.896  0.00  0.00    +0.000 C 
ATOM      7  O   UNL     1       4.623  31.259  77.405  0.00  0.00    +0.000 OA
ENDROOT
BRANCH   4   8
ATOM      8  C   UNL     1       6.185  30.845  79.065  0.00  0.00    +0.000 A 
ATOM      9  C   UNL     1       7.267  30.011  78.772  0.00  0.00    +0.000 A 
ATOM     10  C   UNL     1       5.741  30.921  80.376  0.00  0.00    +0.000 A 
ATOM     11  C   UNL     1       7.776  29.217  79.786  0.00  0.00    +0.000 A 
ATOM     12  C   UNL     1       6.273  30.052  81.308  0.00  0.00    +0.000 A 
ATOM     13  N   UNL     1       7.274  29.193  81.039  0.00  0.00    +0.000 NA
ENDBRANCH   4   8
BRANCH   1  15
ATOM     14  S   UNL     1      10.123  32.975  78.274  0.00  0.00    +0.000 S 
ATOM     15  C   UNL     1       8.624  33.277  77.490  0.00  0.00    +0.000 A 
ATOM     16  C   UNL     1      10.884  32.473  76.834  0.00  0.00    +0.000 A 
ATOM     17  C   UNL     1       8.762  33.067  76.123  0.00  0.00    +0.000 A 
ATOM     18  C   UNL     1      10.062  32.624  75.745  0.00  0.00    +0.000 A 
ENDBRANCH   1  15
BRANCH   3  19
ATOM     19  C   UNL     1       8.177  36.005  78.374  0.00  0.00    +0.000 C 
ATOM     20  O   UNL     1       8.699  36.185  79.468  0.00  0.00    +0.000 OA
ATOM     21  O   UNL     1       8.584  36.689  77.289  0.00  0.00    +0.000 OA
ENDBRANCH   3  19
BRANCH   5  22
ATOM     22  C   UNL     1       5.460  33.413  75.269  0.00  0.00    +0.000 C 
ATOM     23  O   UNL     1       5.122  32.295  74.901  0.00  0.00    +0.000 OA
ATOM     24  O   UNL     1       6.050  34.277  74.412  0.00  0.00    +0.000 OA
ENDBRANCH   5  22
BRANCH   5  25
ATOM     25  C   UNL     1       3.869  34.108  77.048  0.00  0.00    +0.000 C 
BRANCH  25  26
ATOM     26  C   UNL     1       3.386  34.421  78.481  0.00  0.00    +0.000 C 
ATOM     27  C   UNL     1       2.690  35.794  78.489  0.00  0.00    +0.000 C 
ATOM     28  C   UNL     1       2.412  33.391  79.043  0.00  0.00    +0.000 C 
ENDBRANCH  25  26
ENDBRANCH   5  25
TORSDOF 6
ENDMDL
MODEL 7
REMARK VINA RESULT:      -6.2      2.274      3.399
REMARK  Name = 
REMARK  8 active torsions:
REMARK  status: ('A' for Active; 'I' for Inactive)
REMARK    1  A    between atoms: C_2  and  C_5
REMARK    2  A    between atoms: C_8  and  C_11
REMARK    3  A    between atoms: C_9  and  C_14
REMARK    4  A    between atoms: C_10  and  C_15
REMARK    5  A    between atoms: C_10  and  C_16
REMARK    6  A    between atoms: C_16  and  C_23
REMARK    7  A    between atoms: C_23  and  C_26
REMARK    8  A    between atoms: C_23  and  C_27
REMARK                            x       y       z     vdW  Elec       q    Type
REMARK                         _______ _______ _______ _____ _____    ______ ____
ROOT
ATOM      1  C   UNL     1       6.694  32.069  79.456  0.00  0.00    +0.000 C 
ATOM      2  N   UNL     1       6.962  32.282  78.012  0.00  0.00    +0.000 N 
ATOM      3  C   UNL     1       7.602  33.089  80.157  0.00  0.00    +0.000 C 
ATOM      4  C   UNL     1       6.065  32.142  76.948  0.00  0.00    +0.000 C 
ATOM      5  C   UNL     1       8.319  32.895  77.817  0.00  0.00    +0.000 C 
ATOM      6  C   UNL     1       8.842  33.133  79.267  0.00  0.00    +0.000 C 
ATOM      7  O   UNL     1       6.437  32.348  75.793  0.00  0.00    +0.000 OA
ENDROOT
BRANCH   4   8
ATOM      8  C   UNL     1       4.634  31.796  77.139  0.00  0.00    +0.000 A 
ATOM      9  C   UNL     1       3.790  32.726  77.751  0.00  0.00    +0.000 A 
ATOM     10  C   UNL     1       4.083  30.624  76.646  0.00  0.00    +0.000 A 
ATOM     11  C   UNL     1       2.460  32.385  77.934  0.00  0.00    +0.000 A 
ATOM     12  C   UNL     1       2.759  30.344  76.923  0.00  0.00    +0.000 A 
ATOM     13  N   UNL     1       1.938  31.196  77.567  0.00  0.00    +0.000 NA
ENDBRANCH   4   8
BRANCH   1  15
ATOM     14  S   UNL     1       5.928  29.760  80.978  0.00  0.00    +0.000 S 
ATOM     15  C   UNL     1       6.949  30.623  79.898  0.00  0.00    +0.000 A 
ATOM     16  C   UNL     1       6.749  28.287  80.728  0.00  0.00    +0.000 A 
ATOM     17  C   UNL     1       7.952  29.782  79.432  0.00  0.00    +0.000 A 
ATOM     18  C   UNL     1       7.849  28.449  79.923  0.00  0.00    +0.000 A 
ENDBRANCH   1  15
BRANCH   3  19
ATOM     19  C   UNL     1       7.777  32.798  81.631  0.00  0.00    +0.000 C 
ATOM     20  O   UNL     1       6.891  32.998  82.453  0.00  0.00    +0.000 OA
ATOM     21  O   UNL     1       9.008  32.410  82.016  0.00  0.00    +0.000 OA
ENDBRANCH   3  19
BRANCH   5  22
ATOM     22  C   UNL     1       9.273  31.901  77.081  0.00  0.00    +0.000 C 
ATOM     23  O   UNL     1       8.879  30.986  76.371  0.00  0.00    +0.000 OA
ATOM     24  O   UNL     1      10.584  32.028  77.385  0.00  0.00    +0.000 OA
ENDBRANCH   5  22
BRANCH   5  25
ATOM     25  C   UNL     1       8.396  34.226  76.995  0.00  0.00    +0.000 C 
BRANCH  25  26
ATOM     26  C   UNL     1       7.817  35.536  77.571  0.00  0.00    +0.000 C 
ATOM     27  C   UNL     1       8.751  36.703  77.208  0.00  0.00    +0.000 C 
ATOM     28  C   UNL     1       6.418  35.869  77.061  0.00  0.00    +0.000 C 
ENDBRANCH  25  26
ENDBRANCH   5  25
TORSDOF 6
ENDMDL
MODEL 8
REMARK VINA RESULT:      -6.1      1.779      2.356
REMARK  Name = 
REMARK  8 active torsions:
REMARK  status: ('A' for Active; 'I' for Inactive)
REMARK    1  A    between atoms: C_2  and  C_5
REMARK    2  A    between atoms: C_8  and  C_11
REMARK    3  A    between atoms: C_9  and  C_14
REMARK    4  A    between atoms: C_10  and  C_15
REMARK    5  A    between atoms: C_10  and  C_16
REMARK    6  A    between atoms: C_16  and  C_23
REMARK    7  A    between atoms: C_23  and  C_26
REMARK    8  A    between atoms: C_23  and  C_27
REMARK                            x       y       z     vdW  Elec       q    Type
REMARK                         _______ _______ _______ _____ _____    ______ ____
ROOT
ATOM      1  C   UNL     1       5.753  32.178  79.050  0.00  0.00    +0.000 C 
ATOM      2  N   UNL     1       5.160  33.537  78.993  0.00  0.00    +0.000 N 
ATOM      3  C   UNL     1       7.178  32.371  78.514  0.00  0.00    +0.000 C 
ATOM      4  C   UNL     1       4.218  34.094  79.863  0.00  0.00    +0.000 C 
ATOM      5  C   UNL     1       5.867  34.373  77.964  0.00  0.00    +0.000 C 
ATOM      6  C   UNL     1       7.014  33.451  77.446  0.00  0.00    +0.000 C 
ATOM      7  O   UNL     1       3.810  35.242  79.683  0.00  0.00    +0.000 OA
ENDROOT
BRANCH   4   8
ATOM      8  C   UNL     1       3.698  33.379  81.056  0.00  0.00    +0.000 A 
ATOM      9  C   UNL     1       2.573  32.562  80.917  0.00  0.00    +0.000 A 
ATOM     10  C   UNL     1       4.343  33.417  82.282  0.00  0.00    +0.000 A 
ATOM     11  C   UNL     1       2.092  31.911  82.040  0.00  0.00    +0.000 A 
ATOM     12  C   UNL     1       3.760  32.779  83.360  0.00  0.00    +0.000 A 
ATOM     13  N   UNL     1       2.641  32.036  83.267  0.00  0.00    +0.000 NA
ENDBRANCH   4   8
BRANCH   1  15
ATOM     14  S   UNL     1       4.665  29.535  78.797  0.00  0.00    +0.000 S 
ATOM     15  C   UNL     1       4.941  31.145  78.262  0.00  0.00    +0.000 A 
ATOM     16  C   UNL     1       3.557  29.206  77.545  0.00  0.00    +0.000 A 
ATOM     17  C   UNL     1       4.240  31.370  77.082  0.00  0.00    +0.000 A 
ATOM     18  C   UNL     1       3.463  30.253  76.661  0.00  0.00    +0.000 A 
ENDBRANCH   1  15
BRANCH   3  19
ATOM     19  C   UNL     1       7.838  31.065  78.128  0.00  0.00    +0.000 C 
ATOM     20  O   UNL     1       7.937  30.695  76.964  0.00  0.00    +0.000 OA
ATOM     21  O   UNL     1       8.215  30.269  79.145  0.00  0.00    +0.000 OA
ENDBRANCH   3  19
BRANCH   5  22
ATOM     22  C   UNL     1       4.909  34.718  76.781  0.00  0.00    +0.000 C 
ATOM     23  O   UNL     1       3.869  35.350  76.915  0.00  0.00    +0.000 OA
ATOM     24  O   UNL     1       5.230  34.155  75.595  0.00  0.00    +0.000 OA
ENDBRANCH   5  22
BRANCH   5  25
ATOM     25  C   UNL     1       6.455  35.746  78.434  0.00  0.00    +0.000 C 
BRANCH  25  26
ATOM     26  C   UNL     1       6.974  36.769  77.400  0.00  0.00    +0.000 C 
ATOM     27  C   UNL     1       6.384  38.154  77.720  0.00  0.00    +0.000 C 
ATOM     28  C   UNL     1       8.494  36.896  77.366  0.00  0.00    +0.000 C 
ENDBRANCH  25  26
ENDBRANCH   5  25
TORSDOF 6
ENDMDL
MODEL 9
REMARK VINA RESULT:      -6.1      2.274      5.291
REMARK  Name = 
REMARK  8 active torsions:
REMARK  status: ('A' for Active; 'I' for Inactive)
REMARK    1  A    between atoms: C_2  and  C_5
REMARK    2  A    between atoms: C_8  and  C_11
REMARK    3  A    between atoms: C_9  and  C_14
REMARK    4  A    between atoms: C_10  and  C_15
REMARK    5  A    between atoms: C_10  and  C_16
REMARK    6  A    between atoms: C_16  and  C_23
REMARK    7  A    between atoms: C_23  and  C_26
REMARK    8  A    between atoms: C_23  and  C_27
REMARK                            x       y       z     vdW  Elec       q    Type
REMARK                         _______ _______ _______ _____ _____    ______ ____
ROOT
ATOM      1  C   UNL     1       5.460  33.688  78.528  0.00  0.00    +0.000 C 
ATOM      2  N   UNL     1       6.731  33.022  78.905  0.00  0.00    +0.000 N 
ATOM      3  C   UNL     1       5.907  34.906  77.708  0.00  0.00    +0.000 C 
ATOM      4  C   UNL     1       6.960  31.653  79.072  0.00  0.00    +0.000 C 
ATOM      5  C   UNL     1       7.863  34.009  78.891  0.00  0.00    +0.000 C 
ATOM      6  C   UNL     1       7.209  35.331  78.384  0.00  0.00    +0.000 C 
ATOM      7  O   UNL     1       8.076  31.246  79.397  0.00  0.00    +0.000 OA
ENDROOT
BRANCH   4   8
ATOM      8  C   UNL     1       5.918  30.624  78.827  0.00  0.00    +0.000 A 
ATOM      9  C   UNL     1       5.593  30.292  77.509  0.00  0.00    +0.000 A 
ATOM     10  C   UNL     1       5.324  29.911  79.856  0.00  0.00    +0.000 A 
ATOM     11  C   UNL     1       4.611  29.340  77.295  0.00  0.00    +0.000 A 
ATOM     12  C   UNL     1       4.315  29.018  79.550  0.00  0.00    +0.000 A 
ATOM     13  N   UNL     1       3.938  28.726  78.291  0.00  0.00    +0.000 NA
ENDBRANCH   4   8
BRANCH   1  15
ATOM     14  S   UNL     1       3.091  33.316  80.104  0.00  0.00    +0.000 S 
ATOM     15  C   UNL     1       4.601  34.055  79.743  0.00  0.00    +0.000 A 
ATOM     16  C   UNL     1       2.975  34.078  81.624  0.00  0.00    +0.000 A 
ATOM     17  C   UNL     1       4.943  34.938  80.760  0.00  0.00    +0.000 A 
ATOM     18  C   UNL     1       4.002  34.965  81.829  0.00  0.00    +0.000 A 
ENDBRANCH   1  15
BRANCH   3  19
ATOM     19  C   UNL     1       4.808  35.932  77.540  0.00  0.00    +0.000 C 
ATOM     20  O   UNL     1       4.865  37.048  78.043  0.00  0.00    +0.000 OA
ATOM     21  O   UNL     1       3.701  35.514  76.899  0.00  0.00    +0.000 OA
ENDBRANCH   3  19
BRANCH   5  22
ATOM     22  C   UNL     1       8.420  34.230  80.333  0.00  0.00    +0.000 C 
ATOM     23  O   UNL     1       7.842  34.888  81.188  0.00  0.00    +0.000 OA
ATOM     24  O   UNL     1       9.667  33.754  80.548  0.00  0.00    +0.000 OA
ENDBRANCH   5  22
BRANCH   5  25
ATOM     25  C   UNL     1       9.113  33.659  78.015  0.00  0.00    +0.000 C 
BRANCH  25  26
ATOM     26  C   UNL     1       8.967  33.458  76.491  0.00  0.00    +0.000 C 
ATOM     27  C   UNL     1      10.076  34.245  75.770  0.00  0.00    +0.000 C 
ATOM     28  C   UNL     1       9.055  32.000  76.050  0.00  0.00    +0.000 C 
ENDBRANCH  25  26
ENDBRANCH   5  25
TORSDOF 6
ENDMDL
