MODEL 1
REMARK VINA RESULT:      -7.0      0.000      0.000
REMARK  Name = 
REMARK  8 active torsions:
REMARK  status: ('A' for Active; 'I' for Inactive)
REMARK    1  A    between atoms: C_7  and  C_8
REMARK    2  A    between atoms: C_11  and  C_13
REMARK    3  A    between atoms: C_11  and  C_15
REMARK    4  A    between atoms: C_12  and  C_16
REMARK    5  A    between atoms: C_15  and  C_20
REMARK    6  A    between atoms: C_17  and  C_23
REMARK    7  A    between atoms: C_20  and  C_24
REMARK    8  A    between atoms: C_20  and  C_25
REMARK                            x       y       z     vdW  Elec       q    Type
REMARK                         _______ _______ _______ _____ _____    ______ ____
ROOT
ATOM      1  C   UNL     1       7.374  32.068  76.910  0.00  0.00    +0.000 C 
ATOM      2  O   UNL     1       6.401  32.156  76.155  0.00  0.00    +0.000 OA
ATOM      3  N   UNL     1       7.218  31.818  78.304  0.00  0.00    +0.000 N 
ATOM      4  C   UNL     1       8.178  32.116  79.418  0.00  0.00    +0.000 C 
ATOM      5  C   UNL     1       5.835  31.965  78.852  0.00  0.00    +0.000 C 
ATOM      6  C   UNL     1       7.404  31.430  80.610  0.00  0.00    +0.000 C 
ATOM      7  C   UNL     1       5.918  31.743  80.376  0.00  0.00    +0.000 C 
ENDROOT
BRANCH   1  14
ATOM      8 CL   UNL     1      12.819  33.314  74.667  0.00  0.00    +0.000 Cl
ATOM      9  C   UNL     1      11.238  32.958  75.238  0.00  0.00    +0.000 A 
ATOM     10  C   UNL     1      10.351  33.983  75.539  0.00  0.00    +0.000 A 
ATOM     11  C   UNL     1      10.837  31.636  75.359  0.00  0.00    +0.000 A 
ATOM     12  C   UNL     1       9.085  33.672  76.052  0.00  0.00    +0.000 A 
ATOM     13  C   UNL     1       9.540  31.343  75.783  0.00  0.00    +0.000 A 
ATOM     14  C   UNL     1       8.687  32.333  76.244  0.00  0.00    +0.000 A 
ENDBRANCH   1  14
BRANCH   5  15
ATOM     15  C   UNL     1       4.764  31.156  78.179  0.00  0.00    +0.000 A 
ATOM     16  S   UNL     1       3.261  31.926  77.814  0.00  0.00    +0.000 S 
ATOM     17  C   UNL     1       4.774  29.852  77.727  0.00  0.00    +0.000 A 
ATOM     18  C   UNL     1       2.660  30.530  77.045  0.00  0.00    +0.000 A 
ATOM     19  C   UNL     1       3.570  29.500  77.052  0.00  0.00    +0.000 A 
ENDBRANCH   5  15
BRANCH   4  20
ATOM     20  C   UNL     1       9.538  31.378  79.536  0.00  0.00    +0.000 C 
ATOM     21  O   UNL     1       9.677  30.224  79.912  0.00  0.00    +0.000 OA
ATOM     22  O   UNL     1      10.601  32.092  79.067  0.00  0.00    +0.000 OA
ENDBRANCH   4  20
BRANCH   7  23
ATOM     23  C   UNL     1       5.062  30.627  80.935  0.00  0.00    +0.000 C 
ATOM     24  O   UNL     1       5.440  29.474  81.086  0.00  0.00    +0.000 OA
ATOM     25  O   UNL     1       3.826  31.027  81.308  0.00  0.00    +0.000 OA
ENDBRANCH   7  23
BRANCH   4  26
ATOM     26  C   UNL     1       8.314  33.633  79.822  0.00  0.00    +0.000 C 
BRANCH  26  27
ATOM     27  C   UNL     1       8.653  34.048  81.271  0.00  0.00    +0.000 C 
ATOM     28  C   UNL     1       9.978  34.803  81.401  0.00  0.00    +0.000 C 
ATOM     29  C   UNL     1       7.584  35.029  81.787  0.00  0.00    +0.000 C 
ENDBRANCH  26  27
ENDBRANCH   4  26
TORSDOF 6
ENDMDL
MODEL 2
REMARK VINA RESULT:      -6.9      1.117      1.664
REMARK  Name = 
REMARK  8 active torsions:
REMARK  status: ('A' for Active; 'I' for Inactive)
REMARK    1  A    between atoms: C_7  and  C_8
REMARK    2  A    between atoms: C_11  and  C_13
REMARK    3  A    between atoms: C_11  and  C_15
REMARK    4  A    between atoms: C_12  and  C_16
REMARK    5  A    between atoms: C_15  and  C_20
REMARK    6  A    between atoms: C_17  and  C_23
REMARK    7  A    between atoms: C_20  and  C_24
REMARK    8  A    between atoms: C_20  and  C_25
REMARK                            x       y       z     vdW  Elec       q    Type
REMARK                         _______ _______ _______ _____ _____    ______ ____
ROOT
ATOM      1  C   UNL     1       6.557  31.892  77.270  0.00  0.00    +0.000 C 
ATOM      2  O   UNL     1       5.613  32.305  76.590  0.00  0.00    +0.000 OA
ATOM      3  N   UNL     1       6.347  31.213  78.505  0.00  0.00    +0.000 N 
ATOM      4  C   UNL     1       7.302  31.046  79.651  0.00  0.00    +0.000 C 
ATOM      5  C   UNL     1       4.968  31.290  79.077  0.00  0.00    +0.000 C 
ATOM      6  C   UNL     1       6.445  30.076  80.554  0.00  0.00    +0.000 C 
ATOM      7  C   UNL     1       4.995  30.575  80.443  0.00  0.00    +0.000 C 
ENDROOT
BRANCH   1  14
ATOM      8 CL   UNL     1      12.087  33.499  75.519  0.00  0.00    +0.000 Cl
ATOM      9  C   UNL     1      10.488  33.040  75.948  0.00  0.00    +0.000 A 
ATOM     10  C   UNL     1       9.519  34.006  76.190  0.00  0.00    +0.000 A 
ATOM     11  C   UNL     1      10.157  31.695  76.012  0.00  0.00    +0.000 A 
ATOM     12  C   UNL     1       8.235  33.611  76.588  0.00  0.00    +0.000 A 
ATOM     13  C   UNL     1       8.849  31.317  76.319  0.00  0.00    +0.000 A 
ATOM     14  C   UNL     1       7.904  32.247  76.722  0.00  0.00    +0.000 A 
ENDBRANCH   1  14
BRANCH   5  15
ATOM     15  C   UNL     1       3.851  30.841  78.180  0.00  0.00    +0.000 A 
ATOM     16  S   UNL     1       2.406  31.788  78.131  0.00  0.00    +0.000 S 
ATOM     17  C   UNL     1       3.776  29.781  77.299  0.00  0.00    +0.000 A 
ATOM     18  C   UNL     1       1.720  30.794  76.931  0.00  0.00    +0.000 A 
ATOM     19  C   UNL     1       2.558  29.769  76.563  0.00  0.00    +0.000 A 
ENDBRANCH   5  15
BRANCH   4  20
ATOM     20  C   UNL     1       8.593  30.196  79.514  0.00  0.00    +0.000 C 
ATOM     21  O   UNL     1       9.729  30.646  79.510  0.00  0.00    +0.000 OA
ATOM     22  O   UNL     1       8.376  28.850  79.510  0.00  0.00    +0.000 OA
ENDBRANCH   4  20
BRANCH   7  23
ATOM     23  C   UNL     1       4.037  29.415  80.607  0.00  0.00    +0.000 C 
ATOM     24  O   UNL     1       2.877  29.521  80.979  0.00  0.00    +0.000 OA
ATOM     25  O   UNL     1       4.567  28.221  80.256  0.00  0.00    +0.000 OA
ENDBRANCH   7  23
BRANCH   4  26
ATOM     26  C   UNL     1       7.552  32.329  80.531  0.00  0.00    +0.000 C 
BRANCH  26  27
ATOM     27  C   UNL     1       8.176  33.605  79.926  0.00  0.00    +0.000 C 
ATOM     28  C   UNL     1       7.274  34.837  80.022  0.00  0.00    +0.000 C 
ATOM     29  C   UNL     1       9.445  33.979  80.715  0.00  0.00    +0.000 C 
ENDBRANCH  26  27
ENDBRANCH   4  26
TORSDOF 6
ENDMDL
MODEL 3
REMARK VINA RESULT:      -6.8      1.110      1.537
REMARK  Name = 
REMARK  8 active torsions:
REMARK  status: ('A' for Active; 'I' for Inactive)
REMARK    1  A    between atoms: C_7  and  C_8
REMARK    2  A    between atoms: C_11  and  C_13
REMARK    3  A    between atoms: C_11  and  C_15
REMARK    4  A    between atoms: C_12  and  C_16
REMARK    5  A    between atoms: C_15  and  C_20
REMARK    6  A    between atoms: C_17  and  C_23
REMARK    7  A    between atoms: C_20  and  C_24
REMARK    8  A    between atoms: C_20  and  C_25
REMARK                            x       y       z     vdW  Elec       q    Type
REMARK                         _______ _______ _______ _____ _____    ______ ____
ROOT
ATOM      1  C   UNL     1       6.720  32.119  77.201  0.00  0.00    +0.000 C 
ATOM      2  O   UNL     1       5.790  32.521  76.494  0.00  0.00    +0.000 OA
ATOM      3  N   UNL     1       6.489  31.557  78.490  0.00  0.00    +0.000 N 
ATOM      4  C   UNL     1       7.444  31.439  79.640  0.00  0.00    +0.000 C 
ATOM      5  C   UNL     1       5.120  31.749  79.060  0.00  0.00    +0.000 C 
ATOM      6  C   UNL     1       6.550  30.591  80.626  0.00  0.00    +0.000 C 
ATOM      7  C   UNL     1       5.125  31.151  80.481  0.00  0.00    +0.000 C 
ENDROOT
BRANCH   1  14
ATOM      8 CL   UNL     1      12.303  33.303  75.290  0.00  0.00    +0.000 Cl
ATOM      9  C   UNL     1      10.689  32.959  75.765  0.00  0.00    +0.000 A 
ATOM     10  C   UNL     1       9.766  33.986  75.918  0.00  0.00    +0.000 A 
ATOM     11  C   UNL     1      10.298  31.643  75.956  0.00  0.00    +0.000 A 
ATOM     12  C   UNL     1       8.468  33.689  76.356  0.00  0.00    +0.000 A 
ATOM     13  C   UNL     1       8.976  31.355  76.301  0.00  0.00    +0.000 A 
ATOM     14  C   UNL     1       8.077  32.360  76.618  0.00  0.00    +0.000 A 
ENDBRANCH   1  14
BRANCH   5  15
ATOM     15  C   UNL     1       3.974  31.284  78.210  0.00  0.00    +0.000 A 
ATOM     16  S   UNL     1       4.113  29.760  77.406  0.00  0.00    +0.000 S 
ATOM     17  C   UNL     1       2.739  31.854  77.976  0.00  0.00    +0.000 A 
ATOM     18  C   UNL     1       2.532  29.872  76.784  0.00  0.00    +0.000 A 
ATOM     19  C   UNL     1       1.901  31.028  77.175  0.00  0.00    +0.000 A 
ENDBRANCH   5  15
BRANCH   4  20
ATOM     20  C   UNL     1       8.691  30.518  79.568  0.00  0.00    +0.000 C 
ATOM     21  O   UNL     1       9.848  30.899  79.657  0.00  0.00    +0.000 OA
ATOM     22  O   UNL     1       8.398  29.187  79.509  0.00  0.00    +0.000 OA
ENDBRANCH   4  20
BRANCH   7  23
ATOM     23  C   UNL     1       4.113  30.057  80.747  0.00  0.00    +0.000 C 
ATOM     24  O   UNL     1       4.343  28.861  80.645  0.00  0.00    +0.000 OA
ATOM     25  O   UNL     1       2.913  30.520  81.164  0.00  0.00    +0.000 OA
ENDBRANCH   7  23
BRANCH   4  26
ATOM     26  C   UNL     1       7.766  32.777  80.408  0.00  0.00    +0.000 C 
BRANCH  26  27
ATOM     27  C   UNL     1       8.535  33.928  79.724  0.00  0.00    +0.000 C 
ATOM     28  C   UNL     1       7.711  35.206  79.556  0.00  0.00    +0.000 C 
ATOM     29  C   UNL     1       9.731  34.339  80.603  0.00  0.00    +0.000 C 
ENDBRANCH  26  27
ENDBRANCH   4  26
TORSDOF 6
ENDMDL
MODEL 4
REMARK VINA RESULT:      -6.6      2.999      5.481
REMARK  Name = 
REMARK  8 active torsions:
REMARK  status: ('A' for Active; 'I' for Inactive)
REMARK    1  A    between atoms: C_7  and  C_8
REMARK    2  A    between atoms: C_11  and  C_13
REMARK    3  A    between atoms: C_11  and  C_15
REMARK    4  A    between atoms: C_12  and  C_16
REMARK    5  A    between atoms: C_15  and  C_20
REMARK    6  A    between atoms: C_17  and  C_23
REMARK    7  A    between atoms: C_20  and  C_24
REMARK    8  A    between atoms: C_20  and  C_25
REMARK                            x       y       z     vdW  Elec       q    Type
REMARK                         _______ _______ _______ _____ _____    ______ ____
ROOT
ATOM      1  C   UNL     1       8.640  34.305  77.722  0.00  0.00    +0.000 C 
ATOM      2  O   UNL     1       9.373  34.845  78.556  0.00  0.00    +0.000 OA
ATOM      3  N   UNL     1       7.223  34.444  77.771  0.00  0.00    +0.000 N 
ATOM      4  C   UNL     1       6.177  33.551  77.171  0.00  0.00    +0.000 C 
ATOM      5  C   UNL     1       6.657  35.016  79.031  0.00  0.00    +0.000 C 
ATOM      6  C   UNL     1       4.894  34.413  77.493  0.00  0.00    +0.000 C 
ATOM      7  C   UNL     1       5.121  34.987  78.900  0.00  0.00    +0.000 C 
ENDROOT
BRANCH   1  14
ATOM      8 CL   UNL     1      11.987  30.934  74.025  0.00  0.00    +0.000 Cl
ATOM      9  C   UNL     1      10.980  31.900  75.027  0.00  0.00    +0.000 A 
ATOM     10  C   UNL     1      11.079  33.285  74.997  0.00  0.00    +0.000 A 
ATOM     11  C   UNL     1      10.037  31.290  75.839  0.00  0.00    +0.000 A 
ATOM     12  C   UNL     1      10.285  34.053  75.859  0.00  0.00    +0.000 A 
ATOM     13  C   UNL     1       9.189  32.073  76.624  0.00  0.00    +0.000 A 
ATOM     14  C   UNL     1       9.368  33.442  76.739  0.00  0.00    +0.000 A 
ENDBRANCH   1  14
BRANCH   5  15
ATOM     15  C   UNL     1       7.205  36.346  79.462  0.00  0.00    +0.000 A 
ATOM     16  S   UNL     1       7.588  36.574  81.132  0.00  0.00    +0.000 S 
ATOM     17  C   UNL     1       7.525  37.467  78.725  0.00  0.00    +0.000 A 
ATOM     18  C   UNL     1       8.190  38.141  80.845  0.00  0.00    +0.000 A 
ATOM     19  C   UNL     1       8.115  38.491  79.518  0.00  0.00    +0.000 A 
ENDBRANCH   5  15
BRANCH   4  20
ATOM     20  C   UNL     1       6.014  33.411  75.634  0.00  0.00    +0.000 C 
ATOM     21  O   UNL     1       5.533  32.441  75.068  0.00  0.00    +0.000 OA
ATOM     22  O   UNL     1       6.353  34.530  74.934  0.00  0.00    +0.000 OA
ENDBRANCH   4  20
BRANCH   7  23
ATOM     23  C   UNL     1       4.416  36.321  79.032  0.00  0.00    +0.000 C 
ATOM     24  O   UNL     1       4.183  37.075  78.099  0.00  0.00    +0.000 OA
ATOM     25  O   UNL     1       4.013  36.597  80.292  0.00  0.00    +0.000 OA
ENDBRANCH   7  23
BRANCH   4  26
ATOM     26  C   UNL     1       5.951  32.171  77.899  0.00  0.00    +0.000 C 
BRANCH  26  27
ATOM     27  C   UNL     1       4.532  31.594  78.096  0.00  0.00    +0.000 C 
ATOM     28  C   UNL     1       4.334  30.216  77.463  0.00  0.00    +0.000 C 
ATOM     29  C   UNL     1       4.270  31.383  79.599  0.00  0.00    +0.000 C 
ENDBRANCH  26  27
ENDBRANCH   4  26
TORSDOF 6
ENDMDL
MODEL 5
REMARK VINA RESULT:      -6.5      1.489      2.139
REMARK  Name = 
REMARK  8 active torsions:
REMARK  status: ('A' for Active; 'I' for Inactive)
REMARK    1  A    between atoms: C_7  and  C_8
REMARK    2  A    between atoms: C_11  and  C_13
REMARK    3  A    between atoms: C_11  and  C_15
REMARK    4  A    between atoms: C_12  and  C_16
REMARK    5  A    between atoms: C_15  and  C_20
REMARK    6  A    between atoms: C_17  and  C_23
REMARK    7  A    between atoms: C_20  and  C_24
REMARK    8  A    between atoms: C_20  and  C_25
REMARK                            x       y       z     vdW  Elec       q    Type
REMARK                         _______ _______ _______ _____ _____    ______ ____
ROOT
ATOM      1  C   UNL     1       7.388  32.259  76.967  0.00  0.00    +0.000 C 
ATOM      2  O   UNL     1       6.583  31.850  76.125  0.00  0.00    +0.000 OA
ATOM      3  N   UNL     1       7.003  32.483  78.321  0.00  0.00    +0.000 N 
ATOM      4  C   UNL     1       7.658  33.365  79.343  0.00  0.00    +0.000 C 
ATOM      5  C   UNL     1       5.534  32.487  78.600  0.00  0.00    +0.000 C 
ATOM      6  C   UNL     1       6.791  32.979  80.604  0.00  0.00    +0.000 C 
ATOM      7  C   UNL     1       5.349  32.837  80.090  0.00  0.00    +0.000 C 
ENDROOT
BRANCH   1  14
ATOM      8 CL   UNL     1      12.697  33.284  74.323  0.00  0.00    +0.000 Cl
ATOM      9  C   UNL     1      11.214  33.003  75.144  0.00  0.00    +0.000 A 
ATOM     10  C   UNL     1      10.873  31.722  75.562  0.00  0.00    +0.000 A 
ATOM     11  C   UNL     1      10.374  34.069  75.422  0.00  0.00    +0.000 A 
ATOM     12  C   UNL     1       9.636  31.506  76.184  0.00  0.00    +0.000 A 
ATOM     13  C   UNL     1       9.188  33.852  76.125  0.00  0.00    +0.000 A 
ATOM     14  C   UNL     1       8.742  32.572  76.414  0.00  0.00    +0.000 A 
ENDBRANCH   1  14
BRANCH   5  15
ATOM     15  C   UNL     1       4.772  31.269  78.164  0.00  0.00    +0.000 A 
ATOM     16  S   UNL     1       3.220  31.488  77.435  0.00  0.00    +0.000 S 
ATOM     17  C   UNL     1       5.120  29.933  78.192  0.00  0.00    +0.000 A 
ATOM     18  C   UNL     1       3.048  29.818  77.150  0.00  0.00    +0.000 A 
ATOM     19  C   UNL     1       4.136  29.101  77.586  0.00  0.00    +0.000 A 
ENDBRANCH   5  15
BRANCH   4  20
ATOM     20  C   UNL     1       9.073  33.052  79.897  0.00  0.00    +0.000 C 
ATOM     21  O   UNL     1       9.801  33.861  80.452  0.00  0.00    +0.000 OA
ATOM     22  O   UNL     1       9.421  31.736  79.824  0.00  0.00    +0.000 OA
ENDBRANCH   4  20
BRANCH   7  23
ATOM     23  C   UNL     1       4.602  31.820  80.926  0.00  0.00    +0.000 C 
ATOM     24  O   UNL     1       5.126  30.875  81.499  0.00  0.00    +0.000 OA
ATOM     25  O   UNL     1       3.278  32.072  81.030  0.00  0.00    +0.000 OA
ENDBRANCH   7  23
BRANCH   4  26
ATOM     26  C   UNL     1       7.450  34.916  79.148  0.00  0.00    +0.000 C 
BRANCH  26  27
ATOM     27  C   UNL     1       6.840  35.484  77.849  0.00  0.00    +0.000 C 
ATOM     28  C   UNL     1       5.397  35.967  78.005  0.00  0.00    +0.000 C 
ATOM     29  C   UNL     1       7.632  36.732  77.414  0.00  0.00    +0.000 C 
ENDBRANCH  26  27
ENDBRANCH   4  26
TORSDOF 6
ENDMDL
MODEL 6
REMARK VINA RESULT:      -6.3      3.671      6.118
REMARK  Name = 
REMARK  8 active torsions:
REMARK  status: ('A' for Active; 'I' for Inactive)
REMARK    1  A    between atoms: C_7  and  C_8
REMARK    2  A    between atoms: C_11  and  C_13
REMARK    3  A    between atoms: C_11  and  C_15
REMARK    4  A    between atoms: C_12  and  C_16
REMARK    5  A    between atoms: C_15  and  C_20
REMARK    6  A    between atoms: C_17  and  C_23
REMARK    7  A    between atoms: C_20  and  C_24
REMARK    8  A    between atoms: C_20  and  C_25
REMARK                            x       y       z     vdW  Elec       q    Type
REMARK                         _______ _______ _______ _____ _____    ______ ____
ROOT
ATOM      1  C   UNL     1       6.520  34.344  79.907  0.00  0.00    +0.000 C 
ATOM      2  O   UNL     1       7.159  33.571  80.626  0.00  0.00    +0.000 OA
ATOM      3  N   UNL     1       6.070  33.959  78.611  0.00  0.00    +0.000 N 
ATOM      4  C   UNL     1       5.702  34.838  77.452  0.00  0.00    +0.000 C 
ATOM      5  C   UNL     1       6.658  32.703  78.052  0.00  0.00    +0.000 C 
ATOM      6  C   UNL     1       5.165  33.736  76.458  0.00  0.00    +0.000 C 
ATOM      7  C   UNL     1       6.108  32.533  76.622  0.00  0.00    +0.000 C 
ENDROOT
BRANCH   1  14
ATOM      8 CL   UNL     1       5.869  39.646  82.682  0.00  0.00    +0.000 Cl
ATOM      9  C   UNL     1       6.024  38.163  81.830  0.00  0.00    +0.000 A 
ATOM     10  C   UNL     1       4.996  37.229  81.848  0.00  0.00    +0.000 A 
ATOM     11  C   UNL     1       7.169  37.917  81.087  0.00  0.00    +0.000 A 
ATOM     12  C   UNL     1       5.163  36.004  81.188  0.00  0.00    +0.000 A 
ATOM     13  C   UNL     1       7.282  36.732  80.359  0.00  0.00    +0.000 A 
ATOM     14  C   UNL     1       6.350  35.714  80.484  0.00  0.00    +0.000 A 
ENDBRANCH   1  14
BRANCH   5  15
ATOM     15  C   UNL     1       6.527  31.472  78.903  0.00  0.00    +0.000 A 
ATOM     16  S   UNL     1       7.893  30.424  79.046  0.00  0.00    +0.000 S 
ATOM     17  C   UNL     1       5.476  31.022  79.676  0.00  0.00    +0.000 A 
ATOM     18  C   UNL     1       7.078  29.409  80.144  0.00  0.00    +0.000 A 
ATOM     19  C   UNL     1       5.803  29.847  80.409  0.00  0.00    +0.000 A 
ENDBRANCH   5  15
BRANCH   4  20
ATOM     20  C   UNL     1       4.461  35.768  77.501  0.00  0.00    +0.000 C 
ATOM     21  O   UNL     1       4.437  36.876  78.013  0.00  0.00    +0.000 OA
ATOM     22  O   UNL     1       3.384  35.295  76.810  0.00  0.00    +0.000 OA
ENDBRANCH   4  20
BRANCH   7  23
ATOM     23  C   UNL     1       5.357  31.248  76.345  0.00  0.00    +0.000 C 
ATOM     24  O   UNL     1       5.879  30.205  75.981  0.00  0.00    +0.000 OA
ATOM     25  O   UNL     1       4.029  31.336  76.584  0.00  0.00    +0.000 OA
ENDBRANCH   7  23
BRANCH   4  26
ATOM     26  C   UNL     1       6.905  35.530  76.703  0.00  0.00    +0.000 C 
BRANCH  26  27
ATOM     27  C   UNL     1       8.334  35.500  77.287  0.00  0.00    +0.000 C 
ATOM     28  C   UNL     1       9.299  34.602  76.510  0.00  0.00    +0.000 C 
ATOM     29  C   UNL     1       8.950  36.909  77.206  0.00  0.00    +0.000 C 
ENDBRANCH  26  27
ENDBRANCH   4  26
TORSDOF 6
ENDMDL
MODEL 7
REMARK VINA RESULT:      -6.2      2.928      5.405
REMARK  Name = 
REMARK  8 active torsions:
REMARK  status: ('A' for Active; 'I' for Inactive)
REMARK    1  A    between atoms: C_7  and  C_8
REMARK    2  A    between atoms: C_11  and  C_13
REMARK    3  A    between atoms: C_11  and  C_15
REMARK    4  A    between atoms: C_12  and  C_16
REMARK    5  A    between atoms: C_15  and  C_20
REMARK    6  A    between atoms: C_17  and  C_23
REMARK    7  A    between atoms: C_20  and  C_24
REMARK    8  A    between atoms: C_20  and  C_25
REMARK                            x       y       z     vdW  Elec       q    Type
REMARK                         _______ _______ _______ _____ _____    ______ ____
ROOT
ATOM      1  C   UNL     1       7.196  33.630  79.830  0.00  0.00    +0.000 C 
ATOM      2  O   UNL     1       7.074  32.864  80.791  0.00  0.00    +0.000 OA
ATOM      3  N   UNL     1       7.259  33.144  78.492  0.00  0.00    +0.000 N 
ATOM      4  C   UNL     1       7.836  33.818  77.282  0.00  0.00    +0.000 C 
ATOM      5  C   UNL     1       7.471  31.673  78.331  0.00  0.00    +0.000 C 
ATOM      6  C   UNL     1       7.405  32.773  76.180  0.00  0.00    +0.000 C 
ATOM      7  C   UNL     1       7.600  31.389  76.820  0.00  0.00    +0.000 C 
ENDROOT
BRANCH   1  14
ATOM      8 CL   UNL     1       8.095  39.476  80.945  0.00  0.00    +0.000 Cl
ATOM      9  C   UNL     1       7.825  37.797  80.699  0.00  0.00    +0.000 A 
ATOM     10  C   UNL     1       8.876  36.893  80.795  0.00  0.00    +0.000 A 
ATOM     11  C   UNL     1       6.541  37.341  80.443  0.00  0.00    +0.000 A 
ATOM     12  C   UNL     1       8.644  35.536  80.540  0.00  0.00    +0.000 A 
ATOM     13  C   UNL     1       6.310  35.974  80.284  0.00  0.00    +0.000 A 
ATOM     14  C   UNL     1       7.356  35.067  80.213  0.00  0.00    +0.000 A 
ENDBRANCH   1  14
BRANCH   5  15
ATOM     15  C   UNL     1       6.490  30.779  79.034  0.00  0.00    +0.000 A 
ATOM     16  S   UNL     1       7.099  29.418  79.907  0.00  0.00    +0.000 S 
ATOM     17  C   UNL     1       5.119  30.875  79.162  0.00  0.00    +0.000 A 
ATOM     18  C   UNL     1       5.544  28.995  80.457  0.00  0.00    +0.000 A 
ATOM     19  C   UNL     1       4.578  29.861  80.002  0.00  0.00    +0.000 A 
ENDBRANCH   5  15
BRANCH   4  20
ATOM     20  C   UNL     1       7.198  35.099  76.685  0.00  0.00    +0.000 C 
ATOM     21  O   UNL     1       6.124  35.140  76.103  0.00  0.00    +0.000 OA
ATOM     22  O   UNL     1       7.886  36.244  76.959  0.00  0.00    +0.000 OA
ENDBRANCH   4  20
BRANCH   7  23
ATOM     23  C   UNL     1       6.605  30.408  76.239  0.00  0.00    +0.000 C 
ATOM     24  O   UNL     1       6.775  29.198  76.185  0.00  0.00    +0.000 OA
ATOM     25  O   UNL     1       5.460  30.987  75.813  0.00  0.00    +0.000 OA
ENDBRANCH   7  23
BRANCH   4  26
ATOM     26  C   UNL     1       9.410  33.877  77.213  0.00  0.00    +0.000 C 
BRANCH  26  27
ATOM     27  C   UNL     1      10.158  33.719  75.871  0.00  0.00    +0.000 C 
ATOM     28  C   UNL     1      11.097  34.883  75.548  0.00  0.00    +0.000 C 
ATOM     29  C   UNL     1      11.071  32.479  75.937  0.00  0.00    +0.000 C 
ENDBRANCH  26  27
ENDBRANCH   4  26
TORSDOF 6
ENDMDL
MODEL 8
REMARK VINA RESULT:      -6.1      2.302      4.814
REMARK  Name = 
REMARK  8 active torsions:
REMARK  status: ('A' for Active; 'I' for Inactive)
REMARK    1  A    between atoms: C_7  and  C_8
REMARK    2  A    between atoms: C_11  and  C_13
REMARK    3  A    between atoms: C_11  and  C_15
REMARK    4  A    between atoms: C_12  and  C_16
REMARK    5  A    between atoms: C_15  and  C_20
REMARK    6  A    between atoms: C_17  and  C_23
REMARK    7  A    between atoms: C_20  and  C_24
REMARK    8  A    between atoms: C_20  and  C_25
REMARK                            x       y       z     vdW  Elec       q    Type
REMARK                         _______ _______ _______ _____ _____    ______ ____
ROOT
ATOM      1  C   UNL     1       7.639  32.844  78.544  0.00  0.00    +0.000 C 
ATOM      2  O   UNL     1       7.986  32.490  79.675  0.00  0.00    +0.000 OA
ATOM      3  N   UNL     1       6.271  33.080  78.222  0.00  0.00    +0.000 N 
ATOM      4  C   UNL     1       5.615  33.067  76.872  0.00  0.00    +0.000 C 
ATOM      5  C   UNL     1       5.264  32.598  79.216  0.00  0.00    +0.000 C 
ATOM      6  C   UNL     1       4.174  33.562  77.286  0.00  0.00    +0.000 C 
ATOM      7  C   UNL     1       3.866  32.872  78.625  0.00  0.00    +0.000 C 
ENDROOT
BRANCH   1  14
ATOM      8 CL   UNL     1      11.827  32.934  74.222  0.00  0.00    +0.000 Cl
ATOM      9  C   UNL     1      10.686  32.908  75.505  0.00  0.00    +0.000 A 
ATOM     10  C   UNL     1      10.231  31.699  76.018  0.00  0.00    +0.000 A 
ATOM     11  C   UNL     1      10.249  34.102  76.057  0.00  0.00    +0.000 A 
ATOM     12  C   UNL     1       9.262  31.699  77.030  0.00  0.00    +0.000 A 
ATOM     13  C   UNL     1       9.354  34.084  77.128  0.00  0.00    +0.000 A 
ATOM     14  C   UNL     1       8.760  32.908  77.555  0.00  0.00    +0.000 A 
ENDBRANCH   1  14
BRANCH   5  15
ATOM     15  C   UNL     1       5.433  33.087  80.625  0.00  0.00    +0.000 A 
ATOM     16  S   UNL     1       5.302  31.944  81.913  0.00  0.00    +0.000 S 
ATOM     17  C   UNL     1       5.741  34.343  81.109  0.00  0.00    +0.000 A 
ATOM     18  C   UNL     1       5.677  33.122  83.083  0.00  0.00    +0.000 A 
ATOM     19  C   UNL     1       5.905  34.356  82.523  0.00  0.00    +0.000 A 
ENDBRANCH   5  15
BRANCH   4  20
ATOM     20  C   UNL     1       5.953  34.132  75.796  0.00  0.00    +0.000 C 
ATOM     21  O   UNL     1       5.926  33.940  74.590  0.00  0.00    +0.000 OA
ATOM     22  O   UNL     1       6.182  35.379  76.298  0.00  0.00    +0.000 OA
ENDBRANCH   4  20
BRANCH   7  23
ATOM     23  C   UNL     1       2.951  33.745  79.456  0.00  0.00    +0.000 C 
ATOM     24  O   UNL     1       2.255  33.341  80.376  0.00  0.00    +0.000 OA
ATOM     25  O   UNL     1       3.000  35.054  79.120  0.00  0.00    +0.000 OA
ENDBRANCH   7  23
BRANCH   4  26
ATOM     26  C   UNL     1       5.402  31.646  76.224  0.00  0.00    +0.000 C 
BRANCH  26  27
ATOM     27  C   UNL     1       5.721  30.354  77.007  0.00  0.00    +0.000 C 
ATOM     28  C   UNL     1       4.514  29.434  77.198  0.00  0.00    +0.000 C 
ATOM     29  C   UNL     1       6.740  29.513  76.214  0.00  0.00    +0.000 C 
ENDBRANCH  26  27
ENDBRANCH   4  26
TORSDOF 6
ENDMDL
MODEL 9
REMARK VINA RESULT:      -5.9      2.074      4.580
REMARK  Name = 
REMARK  8 active torsions:
REMARK  status: ('A' for Active; 'I' for Inactive)
REMARK    1  A    between atoms: C_7  and  C_8
REMARK    2  A    between atoms: C_11  and  C_13
REMARK    3  A    between atoms: C_11  and  C_15
REMARK    4  A    between atoms: C_12  and  C_16
REMARK    5  A    between atoms: C_15  and  C_20
REMARK    6  A    between atoms: C_17  and  C_23
REMARK    7  A    between atoms: C_20  and  C_24
REMARK    8  A    between atoms: C_20  and  C_25
REMARK                            x       y       z     vdW  Elec       q    Type
REMARK                         _______ _______ _______ _____ _____    ______ ____
ROOT
ATOM      1  C   UNL     1       8.708  32.182  78.597  0.00  0.00    +0.000 C 
ATOM      2  O   UNL     1       9.182  31.518  79.524  0.00  0.00    +0.000 OA
ATOM      3  N   UNL     1       7.369  32.669  78.636  0.00  0.00    +0.000 N 
ATOM      4  C   UNL     1       6.492  33.075  77.489  0.00  0.00    +0.000 C 
ATOM      5  C   UNL     1       6.486  32.094  79.696  0.00  0.00    +0.000 C 
ATOM      6  C   UNL     1       5.260  33.638  78.299  0.00  0.00    +0.000 C 
ATOM      7  C   UNL     1       5.077  32.686  79.493  0.00  0.00    +0.000 C 
ENDROOT
BRANCH   1  14
ATOM      8 CL   UNL     1      12.783  32.682  74.195  0.00  0.00    +0.000 Cl
ATOM      9  C   UNL     1      11.574  32.583  75.412  0.00  0.00    +0.000 A 
ATOM     10  C   UNL     1      11.528  33.520  76.437  0.00  0.00    +0.000 A 
ATOM     11  C   UNL     1      10.617  31.582  75.345  0.00  0.00    +0.000 A 
ATOM     12  C   UNL     1      10.566  33.391  77.447  0.00  0.00    +0.000 A 
ATOM     13  C   UNL     1       9.608  31.522  76.308  0.00  0.00    +0.000 A 
ATOM     14  C   UNL     1       9.628  32.339  77.427  0.00  0.00    +0.000 A 
ENDBRANCH   1  14
BRANCH   5  15
ATOM     15  C   UNL     1       6.989  32.195  81.107  0.00  0.00    +0.000 A 
ATOM     16  S   UNL     1       6.823  30.819  82.139  0.00  0.00    +0.000 S 
ATOM     17  C   UNL     1       7.641  33.224  81.757  0.00  0.00    +0.000 A 
ATOM     18  C   UNL     1       7.636  31.599  83.416  0.00  0.00    +0.000 A 
ATOM     19  C   UNL     1       8.035  32.870  83.078  0.00  0.00    +0.000 A 
ENDBRANCH   5  15
BRANCH   4  20
ATOM     20  C   UNL     1       6.816  34.317  76.618  0.00  0.00    +0.000 C 
ATOM     21  O   UNL     1       7.620  35.188  76.915  0.00  0.00    +0.000 OA
ATOM     22  O   UNL     1       6.205  34.319  75.399  0.00  0.00    +0.000 OA
ENDBRANCH   4  20
BRANCH   7  23
ATOM     23  C   UNL     1       4.496  33.442  80.669  0.00  0.00    +0.000 C 
ATOM     24  O   UNL     1       4.622  34.644  80.851  0.00  0.00    +0.000 OA
ATOM     25  O   UNL     1       3.765  32.667  81.501  0.00  0.00    +0.000 OA
ENDBRANCH   7  23
BRANCH   4  26
ATOM     26  C   UNL     1       5.916  31.898  76.612  0.00  0.00    +0.000 C 
BRANCH  26  27
ATOM     27  C   UNL     1       5.919  30.442  77.127  0.00  0.00    +0.000 C 
ATOM     28  C   UNL     1       4.542  29.776  77.102  0.00  0.00    +0.000 C 
ATOM     29  C   UNL     1       6.797  29.574  76.205  0.00  0.00    +0.000 C 
ENDBRANCH  26  27
ENDBRANCH   4  26
TORSDOF 6
ENDMDL
