MODEL 1
REMARK VINA RESULT:      -7.4      0.000      0.000
REMARK  Name = 
REMARK  9 active torsions:
REMARK  status: ('A' for Active; 'I' for Inactive)
REMARK    1  A    between atoms: C_2  and  C_5
REMARK    2  A    between atoms: C_10  and  C_11
REMARK    3  A    between atoms: C_14  and  C_16
REMARK    4  A    between atoms: C_14  and  C_18
REMARK    5  A    between atoms: C_15  and  C_19
REMARK    6  A    between atoms: C_18  and  C_23
REMARK    7  A    between atoms: C_20  and  C_26
REMARK    8  A    between atoms: C_23  and  C_27
REMARK    9  A    between atoms: C_27  and  N_32
REMARK                            x       y       z     vdW  Elec       q    Type
REMARK                         _______ _______ _______ _____ _____    ______ ____
ROOT
ATOM      1  C   UNL     1       8.500  31.018  78.900  0.00  0.00    +0.000 C 
ATOM      2  O   UNL     1       8.996  29.981  79.319  0.00  0.00    +0.000 OA
ATOM      3  N   UNL     1       7.203  31.387  79.325  0.00  0.00    +0.000 N 
ATOM      4  C   UNL     1       6.586  30.783  80.556  0.00  0.00    +0.000 C 
ATOM      5  C   UNL     1       6.469  32.626  78.951  0.00  0.00    +0.000 C 
ATOM      6  C   UNL     1       5.099  31.192  80.325  0.00  0.00    +0.000 C 
ATOM      7  C   UNL     1       5.176  32.611  79.776  0.00  0.00    +0.000 C 
ENDROOT
BRANCH   1  13
ATOM      8  C   UNL     1      10.905  32.885  75.838  0.00  0.00    +0.000 A 
ATOM      9  C   UNL     1      10.787  33.463  77.110  0.00  0.00    +0.000 A 
ATOM     10  C   UNL     1      10.114  31.771  75.539  0.00  0.00    +0.000 A 
ATOM     11  C   UNL     1       9.955  32.880  78.080  0.00  0.00    +0.000 A 
ATOM     12  C   UNL     1       9.214  31.254  76.474  0.00  0.00    +0.000 A 
ATOM     13  C   UNL     1       9.204  31.727  77.783  0.00  0.00    +0.000 A 
BRANCH   8  15
ATOM     14  F   UNL     1      11.499  34.649  74.312  0.00  0.00    +0.000 F 
ATOM     15  C   UNL     1      11.837  33.416  74.776  0.00  0.00    +0.000 C 
ATOM     16  F   UNL     1      11.878  32.603  73.682  0.00  0.00    +0.000 F 
ATOM     17  F   UNL     1      13.125  33.515  75.208  0.00  0.00    +0.000 F 
ENDBRANCH   8  15
ENDBRANCH   1  13
BRANCH   5  18
ATOM     18  C   UNL     1       6.274  32.847  77.468  0.00  0.00    +0.000 A 
ATOM     19  C   UNL     1       6.648  34.032  76.817  0.00  0.00    +0.000 A 
ATOM     20  C   UNL     1       5.644  31.832  76.720  0.00  0.00    +0.000 A 
ATOM     21  C   UNL     1       6.366  34.208  75.463  0.00  0.00    +0.000 A 
ATOM     22  C   UNL     1       5.355  32.017  75.371  0.00  0.00    +0.000 A 
ATOM     23  C   UNL     1       5.715  33.205  74.744  0.00  0.00    +0.000 A 
ENDBRANCH   5  18
BRANCH   4  24
ATOM     24  C   UNL     1       6.490  29.232  80.717  0.00  0.00    +0.000 C 
ATOM     25  O   UNL     1       7.124  28.594  81.549  0.00  0.00    +0.000 OA
ATOM     26  O   UNL     1       5.513  28.659  79.987  0.00  0.00    +0.000 OA
ENDBRANCH   4  24
BRANCH   7  27
ATOM     27  C   UNL     1       3.929  33.133  79.101  0.00  0.00    +0.000 C 
ATOM     28  O   UNL     1       3.044  32.381  78.707  0.00  0.00    +0.000 OA
ATOM     29  O   UNL     1       3.823  34.466  78.967  0.00  0.00    +0.000 OA
ENDBRANCH   7  27
BRANCH   4  30
ATOM     30  C   UNL     1       7.117  31.426  81.866  0.00  0.00    +0.000 C 
BRANCH  30  31
ATOM     31  C   UNL     1       6.088  31.574  82.993  0.00  0.00    +0.000 C 
BRANCH  31  32
ATOM     32  C   UNL     1       6.617  31.108  84.353  0.00  0.00    +0.000 C 
BRANCH  32  33
ATOM     33  N   UNL     1       7.132  29.742  84.287  0.00  0.00    +0.000 N 
ATOM     34  H   UNL     1       6.493  29.164  83.741  0.00  0.00    +0.000 HD
ATOM     35  H   UNL     1       7.213  29.362  85.230  0.00  0.00    +0.000 HD
ATOM     36  H   UNL     1       8.050  29.746  83.841  0.00  0.00    +0.000 HD
ENDBRANCH  32  33
ENDBRANCH  31  32
ENDBRANCH  30  31
ENDBRANCH   4  30
TORSDOF 9
ENDMDL
MODEL 2
REMARK VINA RESULT:      -7.1      3.430      4.724
REMARK  Name = 
REMARK  9 active torsions:
REMARK  status: ('A' for Active; 'I' for Inactive)
REMARK    1  A    between atoms: C_2  and  C_5
REMARK    2  A    between atoms: C_10  and  C_11
REMARK    3  A    between atoms: C_14  and  C_16
REMARK    4  A    between atoms: C_14  and  C_18
REMARK    5  A    between atoms: C_15  and  C_19
REMARK    6  A    between atoms: C_18  and  C_23
REMARK    7  A    between atoms: C_20  and  C_26
REMARK    8  A    between atoms: C_23  and  C_27
REMARK    9  A    between atoms: C_27  and  N_32
REMARK                            x       y       z     vdW  Elec       q    Type
REMARK                         _______ _______ _______ _____ _____    ______ ____
ROOT
ATOM      1  C   UNL     1       8.982  34.890  78.811  0.00  0.00    +0.000 C 
ATOM      2  O   UNL     1       9.722  35.041  79.773  0.00  0.00    +0.000 OA
ATOM      3  N   UNL     1       7.663  35.396  78.864  0.00  0.00    +0.000 N 
ATOM      4  C   UNL     1       7.272  36.442  79.870  0.00  0.00    +0.000 C 
ATOM      5  C   UNL     1       6.650  35.339  77.777  0.00  0.00    +0.000 C 
ATOM      6  C   UNL     1       5.719  36.322  79.774  0.00  0.00    +0.000 C 
ATOM      7  C   UNL     1       5.444  36.138  78.288  0.00  0.00    +0.000 C 
ENDROOT
BRANCH   1  13
ATOM      8  C   UNL     1      10.722  32.364  75.771  0.00  0.00    +0.000 A 
ATOM      9  C   UNL     1      10.586  33.744  75.566  0.00  0.00    +0.000 A 
ATOM     10  C   UNL     1      10.152  31.804  76.919  0.00  0.00    +0.000 A 
ATOM     11  C   UNL     1       9.964  34.548  76.535  0.00  0.00    +0.000 A 
ATOM     12  C   UNL     1       9.448  32.593  77.832  0.00  0.00    +0.000 A 
ATOM     13  C   UNL     1       9.442  33.979  77.713  0.00  0.00    +0.000 A 
BRANCH   8  15
ATOM     14  F   UNL     1      10.853  30.242  74.642  0.00  0.00    +0.000 F 
ATOM     15  C   UNL     1      11.445  31.455  74.805  0.00  0.00    +0.000 C 
ATOM     16  F   UNL     1      12.722  31.198  75.209  0.00  0.00    +0.000 F 
ATOM     17  F   UNL     1      11.555  31.994  73.559  0.00  0.00    +0.000 F 
ENDBRANCH   8  15
ENDBRANCH   1  13
BRANCH   5  18
ATOM     18  C   UNL     1       6.322  33.956  77.261  0.00  0.00    +0.000 A 
ATOM     19  C   UNL     1       5.971  32.891  78.104  0.00  0.00    +0.000 A 
ATOM     20  C   UNL     1       6.422  33.720  75.875  0.00  0.00    +0.000 A 
ATOM     21  C   UNL     1       5.762  31.617  77.574  0.00  0.00    +0.000 A 
ATOM     22  C   UNL     1       6.221  32.446  75.353  0.00  0.00    +0.000 A 
ATOM     23  C   UNL     1       5.893  31.395  76.204  0.00  0.00    +0.000 A 
ENDBRANCH   5  18
BRANCH   4  24
ATOM     24  C   UNL     1       7.535  36.218  81.394  0.00  0.00    +0.000 C 
ATOM     25  O   UNL     1       8.441  36.761  82.014  0.00  0.00    +0.000 OA
ATOM     26  O   UNL     1       6.573  35.516  82.024  0.00  0.00    +0.000 OA
ENDBRANCH   4  24
BRANCH   7  27
ATOM     27  C   UNL     1       4.074  35.615  77.923  0.00  0.00    +0.000 C 
ATOM     28  O   UNL     1       3.655  35.648  76.770  0.00  0.00    +0.000 OA
ATOM     29  O   UNL     1       3.338  35.092  78.918  0.00  0.00    +0.000 OA
ENDBRANCH   7  27
BRANCH   4  30
ATOM     30  C   UNL     1       7.721  37.869  79.452  0.00  0.00    +0.000 C 
BRANCH  30  31
ATOM     31  C   UNL     1       7.075  39.020  80.232  0.00  0.00    +0.000 C 
BRANCH  31  32
ATOM     32  C   UNL     1       8.090  40.056  80.724  0.00  0.00    +0.000 C 
BRANCH  32  33
ATOM     33  N   UNL     1       9.410  39.461  80.921  0.00  0.00    +0.000 N 
ATOM     34  H   UNL     1      10.040  40.155  81.323  0.00  0.00    +0.000 HD
ATOM     35  H   UNL     1       9.779  39.147  80.024  0.00  0.00    +0.000 HD
ATOM     36  H   UNL     1       9.333  38.665  81.555  0.00  0.00    +0.000 HD
ENDBRANCH  32  33
ENDBRANCH  31  32
ENDBRANCH  30  31
ENDBRANCH   4  30
TORSDOF 9
ENDMDL
MODEL 3
REMARK VINA RESULT:      -6.8      2.141      3.630
REMARK  Name = 
REMARK  9 active torsions:
REMARK  status: ('A' for Active; 'I' for Inactive)
REMARK    1  A    between atoms: C_2  and  C_5
REMARK    2  A    between atoms: C_10  and  C_11
REMARK    3  A    between atoms: C_14  and  C_16
REMARK    4  A    between atoms: C_14  and  C_18
REMARK    5  A    between atoms: C_15  and  C_19
REMARK    6  A    between atoms: C_18  and  C_23
REMARK    7  A    between atoms: C_20  and  C_26
REMARK    8  A    between atoms: C_23  and  C_27
REMARK    9  A    between atoms: C_27  and  N_32
REMARK                            x       y       z     vdW  Elec       q    Type
REMARK                         _______ _______ _______ _____ _____    ______ ____
ROOT
ATOM      1  C   UNL     1       6.191  31.410  76.918  0.00  0.00    +0.000 C 
ATOM      2  O   UNL     1       5.414  31.070  76.036  0.00  0.00    +0.000 OA
ATOM      3  N   UNL     1       5.747  31.439  78.261  0.00  0.00    +0.000 N 
ATOM      4  C   UNL     1       4.511  30.696  78.687  0.00  0.00    +0.000 C 
ATOM      5  C   UNL     1       6.563  31.784  79.455  0.00  0.00    +0.000 C 
ATOM      6  C   UNL     1       4.265  31.378  80.067  0.00  0.00    +0.000 C 
ATOM      7  C   UNL     1       5.656  31.534  80.667  0.00  0.00    +0.000 C 
ENDROOT
BRANCH   1  13
ATOM      8  C   UNL     1       9.972  33.325  76.097  0.00  0.00    +0.000 A 
ATOM      9  C   UNL     1       8.763  33.974  75.812  0.00  0.00    +0.000 A 
ATOM     10  C   UNL     1       9.928  31.992  76.518  0.00  0.00    +0.000 A 
ATOM     11  C   UNL     1       7.539  33.320  76.027  0.00  0.00    +0.000 A 
ATOM     12  C   UNL     1       8.713  31.314  76.635  0.00  0.00    +0.000 A 
ATOM     13  C   UNL     1       7.507  31.995  76.502  0.00  0.00    +0.000 A 
BRANCH   8  15
ATOM     14  F   UNL     1      12.221  33.617  76.903  0.00  0.00    +0.000 F 
ATOM     15  C   UNL     1      11.319  33.996  75.960  0.00  0.00    +0.000 C 
ATOM     16  F   UNL     1      11.222  35.353  76.058  0.00  0.00    +0.000 F 
ATOM     17  F   UNL     1      11.906  33.756  74.755  0.00  0.00    +0.000 F 
ENDBRANCH   8  15
ENDBRANCH   1  13
BRANCH   5  18
ATOM     18  C   UNL     1       7.222  33.144  79.424  0.00  0.00    +0.000 A 
ATOM     19  C   UNL     1       6.531  34.319  79.093  0.00  0.00    +0.000 A 
ATOM     20  C   UNL     1       8.603  33.223  79.695  0.00  0.00    +0.000 A 
ATOM     21  C   UNL     1       7.214  35.532  79.001  0.00  0.00    +0.000 A 
ATOM     22  C   UNL     1       9.281  34.433  79.592  0.00  0.00    +0.000 A 
ATOM     23  C   UNL     1       8.586  35.587  79.244  0.00  0.00    +0.000 A 
ENDBRANCH   5  18
BRANCH   4  24
ATOM     24  C   UNL     1       3.152  30.924  77.949  0.00  0.00    +0.000 C 
ATOM     25  O   UNL     1       2.644  32.025  77.785  0.00  0.00    +0.000 OA
ATOM     26  O   UNL     1       2.662  29.825  77.342  0.00  0.00    +0.000 OA
ENDBRANCH   4  24
BRANCH   7  27
ATOM     27  C   UNL     1       5.780  32.501  81.823  0.00  0.00    +0.000 C 
ATOM     28  O   UNL     1       4.957  33.391  82.011  0.00  0.00    +0.000 OA
ATOM     29  O   UNL     1       6.825  32.329  82.649  0.00  0.00    +0.000 OA
ENDBRANCH   7  27
BRANCH   4  30
ATOM     30  C   UNL     1       4.766  29.176  78.883  0.00  0.00    +0.000 C 
BRANCH  30  31
ATOM     31  C   UNL     1       4.281  28.591  80.215  0.00  0.00    +0.000 C 
BRANCH  31  32
ATOM     32  C   UNL     1       5.394  27.898  81.006  0.00  0.00    +0.000 C 
BRANCH  32  33
ATOM     33  N   UNL     1       6.697  28.082  80.371  0.00  0.00    +0.000 N 
ATOM     34  H   UNL     1       7.192  28.849  80.825  0.00  0.00    +0.000 HD
ATOM     35  H   UNL     1       6.566  28.301  79.383  0.00  0.00    +0.000 HD
ATOM     36  H   UNL     1       7.243  27.225  80.461  0.00  0.00    +0.000 HD
ENDBRANCH  32  33
ENDBRANCH  31  32
ENDBRANCH  30  31
ENDBRANCH   4  30
TORSDOF 9
ENDMDL
MODEL 4
REMARK VINA RESULT:      -6.8      4.346      6.768
REMARK  Name = 
REMARK  9 active torsions:
REMARK  status: ('A' for Active; 'I' for Inactive)
REMARK    1  A    between atoms: C_2  and  C_5
REMARK    2  A    between atoms: C_10  and  C_11
REMARK    3  A    between atoms: C_14  and  C_16
REMARK    4  A    between atoms: C_14  and  C_18
REMARK    5  A    between atoms: C_15  and  C_19
REMARK    6  A    between atoms: C_18  and  C_23
REMARK    7  A    between atoms: C_20  and  C_26
REMARK    8  A    between atoms: C_23  and  C_27
REMARK    9  A    between atoms: C_27  and  N_32
REMARK                            x       y       z     vdW  Elec       q    Type
REMARK                         _______ _______ _______ _____ _____    ______ ____
ROOT
ATOM      1  C   UNL     1       6.868  35.392  77.417  0.00  0.00    +0.000 C 
ATOM      2  O   UNL     1       6.130  35.533  76.451  0.00  0.00    +0.000 OA
ATOM      3  N   UNL     1       7.172  34.089  77.874  0.00  0.00    +0.000 N 
ATOM      4  C   UNL     1       6.958  32.887  76.996  0.00  0.00    +0.000 C 
ATOM      5  C   UNL     1       8.078  33.736  78.999  0.00  0.00    +0.000 C 
ATOM      6  C   UNL     1       7.038  31.764  78.075  0.00  0.00    +0.000 C 
ATOM      7  C   UNL     1       8.167  32.204  78.998  0.00  0.00    +0.000 C 
ENDROOT
BRANCH   1  13
ATOM      8  C   UNL     1       7.947  38.655  80.031  0.00  0.00    +0.000 A 
ATOM      9  C   UNL     1       6.624  38.198  79.963  0.00  0.00    +0.000 A 
ATOM     10  C   UNL     1       8.879  38.128  79.130  0.00  0.00    +0.000 A 
ATOM     11  C   UNL     1       6.271  37.176  79.065  0.00  0.00    +0.000 A 
ATOM     12  C   UNL     1       8.501  37.184  78.174  0.00  0.00    +0.000 A 
ATOM     13  C   UNL     1       7.231  36.616  78.201  0.00  0.00    +0.000 A 
BRANCH   8  15
ATOM     14  F   UNL     1       8.519  40.945  80.500  0.00  0.00    +0.000 F 
ATOM     15  C   UNL     1       8.408  39.696  81.024  0.00  0.00    +0.000 C 
ATOM     16  F   UNL     1       9.633  39.396  81.542  0.00  0.00    +0.000 F 
ATOM     17  F   UNL     1       7.574  39.807  82.095  0.00  0.00    +0.000 F 
ENDBRANCH   8  15
ENDBRANCH   1  13
BRANCH   5  18
ATOM     18  C   UNL     1       7.730  34.350  80.336  0.00  0.00    +0.000 A 
ATOM     19  C   UNL     1       6.436  34.319  80.876  0.00  0.00    +0.000 A 
ATOM     20  C   UNL     1       8.745  35.025  81.044  0.00  0.00    +0.000 A 
ATOM     21  C   UNL     1       6.160  34.977  82.075  0.00  0.00    +0.000 A 
ATOM     22  C   UNL     1       8.462  35.688  82.235  0.00  0.00    +0.000 A 
ATOM     23  C   UNL     1       7.169  35.664  82.748  0.00  0.00    +0.000 A 
ENDBRANCH   5  18
BRANCH   4  24
ATOM     24  C   UNL     1       5.567  32.623  76.334  0.00  0.00    +0.000 C 
ATOM     25  O   UNL     1       4.522  32.529  76.965  0.00  0.00    +0.000 OA
ATOM     26  O   UNL     1       5.574  32.686  74.988  0.00  0.00    +0.000 OA
ENDBRANCH   4  24
BRANCH   7  27
ATOM     27  C   UNL     1       8.231  31.523  80.346  0.00  0.00    +0.000 C 
ATOM     28  O   UNL     1       9.260  31.508  81.014  0.00  0.00    +0.000 OA
ATOM     29  O   UNL     1       7.101  30.947  80.790  0.00  0.00    +0.000 OA
ENDBRANCH   7  27
BRANCH   4  30
ATOM     30  C   UNL     1       8.092  32.703  75.951  0.00  0.00    +0.000 C 
BRANCH  30  31
ATOM     31  C   UNL     1       8.977  31.466  76.148  0.00  0.00    +0.000 C 
BRANCH  31  32
ATOM     32  C   UNL     1      10.445  31.715  75.789  0.00  0.00    +0.000 C 
BRANCH  32  33
ATOM     33  N   UNL     1      11.229  32.078  76.967  0.00  0.00    +0.000 N 
ATOM     34  H   UNL     1      12.213  32.155  76.710  0.00  0.00    +0.000 HD
ATOM     35  H   UNL     1      11.121  31.361  77.683  0.00  0.00    +0.000 HD
ATOM     36  H   UNL     1      10.903  32.974  77.330  0.00  0.00    +0.000 HD
ENDBRANCH  32  33
ENDBRANCH  31  32
ENDBRANCH  30  31
ENDBRANCH   4  30
TORSDOF 9
ENDMDL
MODEL 5
REMARK VINA RESULT:      -6.8      2.166      4.671
REMARK  Name = 
REMARK  9 active torsions:
REMARK  status: ('A' for Active; 'I' for Inactive)
REMARK    1  A    between atoms: C_2  and  C_5
REMARK    2  A    between atoms: C_10  and  C_11
REMARK    3  A    between atoms: C_14  and  C_16
REMARK    4  A    between atoms: C_14  and  C_18
REMARK    5  A    between atoms: C_15  and  C_19
REMARK    6  A    between atoms: C_18  and  C_23
REMARK    7  A    between atoms: C_20  and  C_26
REMARK    8  A    between atoms: C_23  and  C_27
REMARK    9  A    between atoms: C_27  and  N_32
REMARK                            x       y       z     vdW  Elec       q    Type
REMARK                         _______ _______ _______ _____ _____    ______ ____
ROOT
ATOM      1  C   UNL     1       5.215  32.273  77.651  0.00  0.00    +0.000 C 
ATOM      2  O   UNL     1       4.291  32.809  77.055  0.00  0.00    +0.000 OA
ATOM      3  N   UNL     1       5.054  31.922  79.011  0.00  0.00    +0.000 N 
ATOM      4  C   UNL     1       3.687  31.811  79.628  0.00  0.00    +0.000 C 
ATOM      5  C   UNL     1       6.052  31.231  79.870  0.00  0.00    +0.000 C 
ATOM      6  C   UNL     1       4.085  31.825  81.136  0.00  0.00    +0.000 C 
ATOM      7  C   UNL     1       5.342  30.967  81.205  0.00  0.00    +0.000 C 
ENDROOT
BRANCH   1  13
ATOM      8  C   UNL     1       9.237  32.195  76.081  0.00  0.00    +0.000 A 
ATOM      9  C   UNL     1       8.577  33.411  76.302  0.00  0.00    +0.000 A 
ATOM     10  C   UNL     1       8.515  31.008  76.245  0.00  0.00    +0.000 A 
ATOM     11  C   UNL     1       7.247  33.425  76.756  0.00  0.00    +0.000 A 
ATOM     12  C   UNL     1       7.165  31.030  76.600  0.00  0.00    +0.000 A 
ATOM     13  C   UNL     1       6.548  32.221  76.968  0.00  0.00    +0.000 A 
BRANCH   8  15
ATOM     14  F   UNL     1      11.022  30.931  75.077  0.00  0.00    +0.000 F 
ATOM     15  C   UNL     1      10.687  32.109  75.666  0.00  0.00    +0.000 C 
ATOM     16  F   UNL     1      11.529  32.249  76.730  0.00  0.00    +0.000 F 
ATOM     17  F   UNL     1      11.041  33.086  74.786  0.00  0.00    +0.000 F 
ENDBRANCH   8  15
ENDBRANCH   1  13
BRANCH   5  18
ATOM     18  C   UNL     1       7.395  31.913  79.989  0.00  0.00    +0.000 A 
ATOM     19  C   UNL     1       7.534  33.287  80.238  0.00  0.00    +0.000 A 
ATOM     20  C   UNL     1       8.556  31.139  79.794  0.00  0.00    +0.000 A 
ATOM     21  C   UNL     1       8.800  33.873  80.254  0.00  0.00    +0.000 A 
ATOM     22  C   UNL     1       9.816  31.730  79.800  0.00  0.00    +0.000 A 
ATOM     23  C   UNL     1       9.936  33.097  80.029  0.00  0.00    +0.000 A 
ENDBRANCH   5  18
BRANCH   4  24
ATOM     24  C   UNL     1       2.674  32.998  79.535  0.00  0.00    +0.000 C 
ATOM     25  O   UNL     1       1.504  32.867  79.201  0.00  0.00    +0.000 OA
ATOM     26  O   UNL     1       3.139  34.162  80.028  0.00  0.00    +0.000 OA
ENDBRANCH   4  24
BRANCH   7  27
ATOM     27  C   UNL     1       6.175  31.103  82.459  0.00  0.00    +0.000 C 
ATOM     28  O   UNL     1       6.995  30.251  82.785  0.00  0.00    +0.000 OA
ATOM     29  O   UNL     1       5.989  32.212  83.195  0.00  0.00    +0.000 OA
ENDBRANCH   7  27
BRANCH   4  30
ATOM     30  C   UNL     1       2.980  30.474  79.278  0.00  0.00    +0.000 C 
BRANCH  30  31
ATOM     31  C   UNL     1       3.547  29.725  78.066  0.00  0.00    +0.000 C 
BRANCH  31  32
ATOM     32  C   UNL     1       2.622  29.772  76.845  0.00  0.00    +0.000 C 
BRANCH  32  33
ATOM     33  N   UNL     1       1.807  30.984  76.839  0.00  0.00    +0.000 N 
ATOM     34  H   UNL     1       1.363  31.100  77.750  0.00  0.00    +0.000 HD
ATOM     35  H   UNL     1       1.088  30.907  76.119  0.00  0.00    +0.000 HD
ATOM     36  H   UNL     1       2.399  31.792  76.645  0.00  0.00    +0.000 HD
ENDBRANCH  32  33
ENDBRANCH  31  32
ENDBRANCH  30  31
ENDBRANCH   4  30
TORSDOF 9
ENDMDL
MODEL 6
REMARK VINA RESULT:      -6.6      2.744      4.679
REMARK  Name = 
REMARK  9 active torsions:
REMARK  status: ('A' for Active; 'I' for Inactive)
REMARK    1  A    between atoms: C_2  and  C_5
REMARK    2  A    between atoms: C_10  and  C_11
REMARK    3  A    between atoms: C_14  and  C_16
REMARK    4  A    between atoms: C_14  and  C_18
REMARK    5  A    between atoms: C_15  and  C_19
REMARK    6  A    between atoms: C_18  and  C_23
REMARK    7  A    between atoms: C_20  and  C_26
REMARK    8  A    between atoms: C_23  and  C_27
REMARK    9  A    between atoms: C_27  and  N_32
REMARK                            x       y       z     vdW  Elec       q    Type
REMARK                         _______ _______ _______ _____ _____    ______ ____
ROOT
ATOM      1  C   UNL     1       5.045  34.010  79.866  0.00  0.00    +0.000 C 
ATOM      2  O   UNL     1       4.758  34.657  80.864  0.00  0.00    +0.000 OA
ATOM      3  N   UNL     1       4.370  32.795  79.608  0.00  0.00    +0.000 N 
ATOM      4  C   UNL     1       3.061  32.477  80.275  0.00  0.00    +0.000 C 
ATOM      5  C   UNL     1       4.562  31.909  78.429  0.00  0.00    +0.000 C 
ATOM      6  C   UNL     1       2.991  30.946  79.986  0.00  0.00    +0.000 C 
ATOM      7  C   UNL     1       3.505  30.805  78.560  0.00  0.00    +0.000 C 
ENDROOT
BRANCH   1  13
ATOM      8  C   UNL     1       8.589  34.788  77.524  0.00  0.00    +0.000 A 
ATOM      9  C   UNL     1       8.688  34.356  78.854  0.00  0.00    +0.000 A 
ATOM     10  C   UNL     1       7.322  35.099  77.020  0.00  0.00    +0.000 A 
ATOM     11  C   UNL     1       7.531  34.164  79.627  0.00  0.00    +0.000 A 
ATOM     12  C   UNL     1       6.183  35.000  77.822  0.00  0.00    +0.000 A 
ATOM     13  C   UNL     1       6.257  34.429  79.089  0.00  0.00    +0.000 A 
BRANCH   8  15
ATOM     14  F   UNL     1       9.626  34.377  75.392  0.00  0.00    +0.000 F 
ATOM     15  C   UNL     1       9.787  34.943  76.617  0.00  0.00    +0.000 C 
ATOM     16  F   UNL     1      10.905  34.373  77.150  0.00  0.00    +0.000 F 
ATOM     17  F   UNL     1      10.111  36.246  76.393  0.00  0.00    +0.000 F 
ENDBRANCH   8  15
ENDBRANCH   1  13
BRANCH   5  18
ATOM     18  C   UNL     1       5.974  31.415  78.207  0.00  0.00    +0.000 A 
ATOM     19  C   UNL     1       6.757  30.860  79.230  0.00  0.00    +0.000 A 
ATOM     20  C   UNL     1       6.539  31.564  76.925  0.00  0.00    +0.000 A 
ATOM     21  C   UNL     1       8.081  30.499  78.982  0.00  0.00    +0.000 A 
ATOM     22  C   UNL     1       7.864  31.211  76.685  0.00  0.00    +0.000 A 
ATOM     23  C   UNL     1       8.634  30.680  77.715  0.00  0.00    +0.000 A 
ENDBRANCH   5  18
BRANCH   4  24
ATOM     24  C   UNL     1       2.927  32.534  81.832  0.00  0.00    +0.000 C 
ATOM     25  O   UNL     1       1.933  32.950  82.413  0.00  0.00    +0.000 OA
ATOM     26  O   UNL     1       3.924  31.918  82.495  0.00  0.00    +0.000 OA
ENDBRANCH   4  24
BRANCH   7  27
ATOM     27  C   UNL     1       3.915  29.414  78.132  0.00  0.00    +0.000 C 
ATOM     28  O   UNL     1       4.029  29.109  76.949  0.00  0.00    +0.000 OA
ATOM     29  O   UNL     1       4.168  28.528  79.109  0.00  0.00    +0.000 OA
ENDBRANCH   7  27
BRANCH   4  30
ATOM     30  C   UNL     1       1.859  33.198  79.607  0.00  0.00    +0.000 C 
BRANCH  30  31
ATOM     31  C   UNL     1       1.668  34.668  80.001  0.00  0.00    +0.000 C 
BRANCH  31  32
ATOM     32  C   UNL     1       2.051  35.644  78.884  0.00  0.00    +0.000 C 
BRANCH  32  33
ATOM     33  N   UNL     1       2.823  36.771  79.400  0.00  0.00    +0.000 N 
ATOM     34  H   UNL     1       2.489  37.636  78.972  0.00  0.00    +0.000 HD
ATOM     35  H   UNL     1       3.809  36.640  79.175  0.00  0.00    +0.000 HD
ATOM     36  H   UNL     1       2.708  36.828  80.412  0.00  0.00    +0.000 HD
ENDBRANCH  32  33
ENDBRANCH  31  32
ENDBRANCH  30  31
ENDBRANCH   4  30
TORSDOF 9
ENDMDL
MODEL 7
REMARK VINA RESULT:      -6.5      2.200      3.531
REMARK  Name = 
REMARK  9 active torsions:
REMARK  status: ('A' for Active; 'I' for Inactive)
REMARK    1  A    between atoms: C_2  and  C_5
REMARK    2  A    between atoms: C_10  and  C_11
REMARK    3  A    between atoms: C_14  and  C_16
REMARK    4  A    between atoms: C_14  and  C_18
REMARK    5  A    between atoms: C_15  and  C_19
REMARK    6  A    between atoms: C_18  and  C_23
REMARK    7  A    between atoms: C_20  and  C_26
REMARK    8  A    between atoms: C_23  and  C_27
REMARK    9  A    between atoms: C_27  and  N_32
REMARK                            x       y       z     vdW  Elec       q    Type
REMARK                         _______ _______ _______ _____ _____    ______ ____
ROOT
ATOM      1  C   UNL     1       6.183  32.033  78.102  0.00  0.00    +0.000 C 
ATOM      2  O   UNL     1       5.592  31.100  77.575  0.00  0.00    +0.000 OA
ATOM      3  N   UNL     1       5.535  32.784  79.111  0.00  0.00    +0.000 N 
ATOM      4  C   UNL     1       4.332  32.241  79.832  0.00  0.00    +0.000 C 
ATOM      5  C   UNL     1       6.116  33.915  79.881  0.00  0.00    +0.000 C 
ATOM      6  C   UNL     1       3.805  33.559  80.478  0.00  0.00    +0.000 C 
ATOM      7  C   UNL     1       5.063  34.288  80.933  0.00  0.00    +0.000 C 
ENDROOT
BRANCH   1  13
ATOM      8  C   UNL     1       9.820  33.706  76.485  0.00  0.00    +0.000 A 
ATOM      9  C   UNL     1       8.613  33.796  75.778  0.00  0.00    +0.000 A 
ATOM     10  C   UNL     1       9.849  32.939  77.655  0.00  0.00    +0.000 A 
ATOM     11  C   UNL     1       7.448  33.196  76.284  0.00  0.00    +0.000 A 
ATOM     12  C   UNL     1       8.712  32.264  78.102  0.00  0.00    +0.000 A 
ATOM     13  C   UNL     1       7.479  32.472  77.492  0.00  0.00    +0.000 A 
BRANCH   8  15
ATOM     14  F   UNL     1      12.169  34.116  76.817  0.00  0.00    +0.000 F 
ATOM     15  C   UNL     1      11.090  34.389  76.036  0.00  0.00    +0.000 C 
ATOM     16  F   UNL     1      10.963  35.747  76.034  0.00  0.00    +0.000 F 
ATOM     17  F   UNL     1      11.448  34.052  74.766  0.00  0.00    +0.000 F 
ENDBRANCH   8  15
ENDBRANCH   1  13
BRANCH   5  18
ATOM     18  C   UNL     1       6.626  35.074  79.055  0.00  0.00    +0.000 A 
ATOM     19  C   UNL     1       5.882  35.659  78.019  0.00  0.00    +0.000 A 
ATOM     20  C   UNL     1       7.927  35.552  79.310  0.00  0.00    +0.000 A 
ATOM     21  C   UNL     1       6.442  36.670  77.239  0.00  0.00    +0.000 A 
ATOM     22  C   UNL     1       8.485  36.555  78.522  0.00  0.00    +0.000 A 
ATOM     23  C   UNL     1       7.741  37.112  77.486  0.00  0.00    +0.000 A 
ENDBRANCH   5  18
BRANCH   4  24
ATOM     24  C   UNL     1       3.088  31.734  79.033  0.00  0.00    +0.000 C 
ATOM     25  O   UNL     1       2.532  32.384  78.157  0.00  0.00    +0.000 OA
ATOM     26  O   UNL     1       2.777  30.442  79.256  0.00  0.00    +0.000 OA
ENDBRANCH   4  24
BRANCH   7  27
ATOM     27  C   UNL     1       4.904  35.758  81.249  0.00  0.00    +0.000 C 
ATOM     28  O   UNL     1       3.982  36.422  80.787  0.00  0.00    +0.000 OA
ATOM     29  O   UNL     1       5.811  36.303  82.077  0.00  0.00    +0.000 OA
ENDBRANCH   7  27
BRANCH   4  30
ATOM     30  C   UNL     1       4.710  31.220  80.939  0.00  0.00    +0.000 C 
BRANCH  30  31
ATOM     31  C   UNL     1       6.157  30.712  80.904  0.00  0.00    +0.000 C 
BRANCH  31  32
ATOM     32  C   UNL     1       6.258  29.212  80.611  0.00  0.00    +0.000 C 
BRANCH  32  33
ATOM     33  N   UNL     1       5.336  28.810  79.552  0.00  0.00    +0.000 N 
ATOM     34  H   UNL     1       4.375  28.931  79.873  0.00  0.00    +0.000 HD
ATOM     35  H   UNL     1       5.494  27.831  79.316  0.00  0.00    +0.000 HD
ATOM     36  H   UNL     1       5.493  29.389  78.726  0.00  0.00    +0.000 HD
ENDBRANCH  32  33
ENDBRANCH  31  32
ENDBRANCH  30  31
ENDBRANCH   4  30
TORSDOF 9
ENDMDL
MODEL 8
REMARK VINA RESULT:      -6.4      3.667      6.245
REMARK  Name = 
REMARK  9 active torsions:
REMARK  status: ('A' for Active; 'I' for Inactive)
REMARK    1  A    between atoms: C_2  and  C_5
REMARK    2  A    between atoms: C_10  and  C_11
REMARK    3  A    between atoms: C_14  and  C_16
REMARK    4  A    between atoms: C_14  and  C_18
REMARK    5  A    between atoms: C_15  and  C_19
REMARK    6  A    between atoms: C_18  and  C_23
REMARK    7  A    between atoms: C_20  and  C_26
REMARK    8  A    between atoms: C_23  and  C_27
REMARK    9  A    between atoms: C_27  and  N_32
REMARK                            x       y       z     vdW  Elec       q    Type
REMARK                         _______ _______ _______ _____ _____    ______ ____
ROOT
ATOM      1  C   UNL     1       5.003  34.837  79.250  0.00  0.00    +0.000 C 
ATOM      2  O   UNL     1       3.797  35.039  79.277  0.00  0.00    +0.000 OA
ATOM      3  N   UNL     1       5.484  33.507  79.275  0.00  0.00    +0.000 N 
ATOM      4  C   UNL     1       4.588  32.350  78.931  0.00  0.00    +0.000 C 
ATOM      5  C   UNL     1       6.907  33.080  79.206  0.00  0.00    +0.000 C 
ATOM      6  C   UNL     1       5.449  31.181  79.502  0.00  0.00    +0.000 C 
ATOM      7  C   UNL     1       6.880  31.548  79.134  0.00  0.00    +0.000 C 
ENDROOT
BRANCH   1  13
ATOM      8  C   UNL     1       7.904  37.960  79.940  0.00  0.00    +0.000 A 
ATOM      9  C   UNL     1       6.999  37.587  80.943  0.00  0.00    +0.000 A 
ATOM     10  C   UNL     1       7.752  37.399  78.667  0.00  0.00    +0.000 A 
ATOM     11  C   UNL     1       6.019  36.612  80.689  0.00  0.00    +0.000 A 
ATOM     12  C   UNL     1       6.716  36.504  78.393  0.00  0.00    +0.000 A 
ATOM     13  C   UNL     1       5.912  36.016  79.418  0.00  0.00    +0.000 A 
BRANCH   8  15
ATOM     14  F   UNL     1       9.844  38.617  81.202  0.00  0.00    +0.000 F 
ATOM     15  C   UNL     1       9.026  38.945  80.168  0.00  0.00    +0.000 C 
ATOM     16  F   UNL     1       8.556  40.195  80.442  0.00  0.00    +0.000 F 
ATOM     17  F   UNL     1       9.831  39.086  79.078  0.00  0.00    +0.000 F 
ENDBRANCH   8  15
ENDBRANCH   1  13
BRANCH   5  18
ATOM     18  C   UNL     1       7.812  33.650  80.274  0.00  0.00    +0.000 A 
ATOM     19  C   UNL     1       7.460  33.687  81.632  0.00  0.00    +0.000 A 
ATOM     20  C   UNL     1       9.042  34.211  79.877  0.00  0.00    +0.000 A 
ATOM     21  C   UNL     1       8.303  34.301  82.559  0.00  0.00    +0.000 A 
ATOM     22  C   UNL     1       9.875  34.832  80.804  0.00  0.00    +0.000 A 
ATOM     23  C   UNL     1       9.503  34.877  82.144  0.00  0.00    +0.000 A 
ENDBRANCH   5  18
BRANCH   4  24
ATOM     24  C   UNL     1       3.222  32.155  79.665  0.00  0.00    +0.000 C 
ATOM     25  O   UNL     1       2.138  32.162  79.096  0.00  0.00    +0.000 OA
ATOM     26  O   UNL     1       3.336  31.796  80.959  0.00  0.00    +0.000 OA
ENDBRANCH   4  24
BRANCH   7  27
ATOM     27  C   UNL     1       7.970  30.810  79.877  0.00  0.00    +0.000 C 
ATOM     28  O   UNL     1       7.781  30.327  80.989  0.00  0.00    +0.000 OA
ATOM     29  O   UNL     1       9.155  30.690  79.256  0.00  0.00    +0.000 OA
ENDBRANCH   7  27
BRANCH   4  30
ATOM     30  C   UNL     1       4.403  32.173  77.399  0.00  0.00    +0.000 C 
BRANCH  30  31
ATOM     31  C   UNL     1       4.452  30.728  76.890  0.00  0.00    +0.000 C 
BRANCH  31  32
ATOM     32  C   UNL     1       5.551  30.495  75.848  0.00  0.00    +0.000 C 
BRANCH  32  33
ATOM     33  N   UNL     1       6.436  29.401  76.239  0.00  0.00    +0.000 N 
ATOM     34  H   UNL     1       6.202  28.566  75.701  0.00  0.00    +0.000 HD
ATOM     35  H   UNL     1       6.319  29.207  77.234  0.00  0.00    +0.000 HD
ATOM     36  H   UNL     1       7.404  29.663  76.054  0.00  0.00    +0.000 HD
ENDBRANCH  32  33
ENDBRANCH  31  32
ENDBRANCH  30  31
ENDBRANCH   4  30
TORSDOF 9
ENDMDL
MODEL 9
REMARK VINA RESULT:      -6.3      2.778      4.247
REMARK  Name = 
REMARK  9 active torsions:
REMARK  status: ('A' for Active; 'I' for Inactive)
REMARK    1  A    between atoms: C_2  and  C_5
REMARK    2  A    between atoms: C_10  and  C_11
REMARK    3  A    between atoms: C_14  and  C_16
REMARK    4  A    between atoms: C_14  and  C_18
REMARK    5  A    between atoms: C_15  and  C_19
REMARK    6  A    between atoms: C_18  and  C_23
REMARK    7  A    between atoms: C_20  and  C_26
REMARK    8  A    between atoms: C_23  and  C_27
REMARK    9  A    between atoms: C_27  and  N_32
REMARK                            x       y       z     vdW  Elec       q    Type
REMARK                         _______ _______ _______ _____ _____    ______ ____
ROOT
ATOM      1  C   UNL     1       5.074  32.318  78.211  0.00  0.00    +0.000 C 
ATOM      2  O   UNL     1       4.094  31.749  77.748  0.00  0.00    +0.000 OA
ATOM      3  N   UNL     1       4.896  33.313  79.200  0.00  0.00    +0.000 N 
ATOM      4  C   UNL     1       3.616  33.412  79.981  0.00  0.00    +0.000 C 
ATOM      5  C   UNL     1       5.971  34.070  79.896  0.00  0.00    +0.000 C 
ATOM      6  C   UNL     1       3.789  34.843  80.577  0.00  0.00    +0.000 C 
ATOM      7  C   UNL     1       5.261  34.920  80.958  0.00  0.00    +0.000 C 
ENDROOT
BRANCH   1  13
ATOM      8  C   UNL     1       8.996  32.057  76.424  0.00  0.00    +0.000 A 
ATOM      9  C   UNL     1       7.952  32.722  75.768  0.00  0.00    +0.000 A 
ATOM     10  C   UNL     1       8.703  31.358  77.600  0.00  0.00    +0.000 A 
ATOM     11  C   UNL     1       6.664  32.750  76.328  0.00  0.00    +0.000 A 
ATOM     12  C   UNL     1       7.401  31.306  78.101  0.00  0.00    +0.000 A 
ATOM     13  C   UNL     1       6.395  32.087  77.541  0.00  0.00    +0.000 A 
BRANCH   8  15
ATOM     14  F   UNL     1      10.773  30.902  75.283  0.00  0.00    +0.000 F 
ATOM     15  C   UNL     1      10.418  32.052  75.915  0.00  0.00    +0.000 C 
ATOM     16  F   UNL     1      11.320  32.219  76.923  0.00  0.00    +0.000 F 
ATOM     17  F   UNL     1      10.664  33.060  75.032  0.00  0.00    +0.000 F 
ENDBRANCH   8  15
ENDBRANCH   1  13
BRANCH   5  18
ATOM     18  C   UNL     1       6.917  34.834  78.999  0.00  0.00    +0.000 A 
ATOM     19  C   UNL     1       6.477  35.708  77.993  0.00  0.00    +0.000 A 
ATOM     20  C   UNL     1       8.302  34.619  79.152  0.00  0.00    +0.000 A 
ATOM     21  C   UNL     1       7.399  36.320  77.143  0.00  0.00    +0.000 A 
ATOM     22  C   UNL     1       9.216  35.224  78.296  0.00  0.00    +0.000 A 
ATOM     23  C   UNL     1       8.763  36.074  77.291  0.00  0.00    +0.000 A 
ENDBRANCH   5  18
BRANCH   4  24
ATOM     24  C   UNL     1       2.240  33.515  79.246  0.00  0.00    +0.000 C 
ATOM     25  O   UNL     1       1.454  32.583  79.141  0.00  0.00    +0.000 OA
ATOM     26  O   UNL     1       1.899  34.768  78.887  0.00  0.00    +0.000 OA
ENDBRANCH   4  24
BRANCH   7  27
ATOM     27  C   UNL     1       5.815  36.304  81.205  0.00  0.00    +0.000 C 
ATOM     28  O   UNL     1       5.254  37.310  80.782  0.00  0.00    +0.000 OA
ATOM     29  O   UNL     1       6.944  36.387  81.929  0.00  0.00    +0.000 OA
ENDBRANCH   7  27
BRANCH   4  30
ATOM     30  C   UNL     1       3.533  32.366  81.126  0.00  0.00    +0.000 C 
BRANCH  30  31
ATOM     31  C   UNL     1       2.702  32.785  82.345  0.00  0.00    +0.000 C 
BRANCH  31  32
ATOM     32  C   UNL     1       1.554  31.818  82.649  0.00  0.00    +0.000 C 
BRANCH  32  33
ATOM     33  N   UNL     1       1.364  30.856  81.566  0.00  0.00    +0.000 N 
ATOM     34  H   UNL     1       2.249  30.390  81.366  0.00  0.00    +0.000 HD
ATOM     35  H   UNL     1       1.040  31.343  80.731  0.00  0.00    +0.000 HD
ATOM     36  H   UNL     1       0.671  30.161  81.846  0.00  0.00    +0.000 HD
ENDBRANCH  32  33
ENDBRANCH  31  32
ENDBRANCH  30  31
ENDBRANCH   4  30
TORSDOF 9
ENDMDL
