MODEL 1
REMARK VINA RESULT:      -7.0      0.000      0.000
REMARK  Name = 
REMARK  8 active torsions:
REMARK  status: ('A' for Active; 'I' for Inactive)
REMARK    1  A    between atoms: C_7  and  C_8
REMARK    2  A    between atoms: C_11  and  C_13
REMARK    3  A    between atoms: C_11  and  C_15
REMARK    4  A    between atoms: C_12  and  C_16
REMARK    5  A    between atoms: C_15  and  C_20
REMARK    6  A    between atoms: C_17  and  C_23
REMARK    7  A    between atoms: C_20  and  C_24
REMARK    8  A    between atoms: C_20  and  C_25
REMARK                            x       y       z     vdW  Elec       q    Type
REMARK                         _______ _______ _______ _____ _____    ______ ____
ROOT
ATOM      1  C   UNL     1       7.302  32.051  76.919  0.00  0.00    +0.000 C 
ATOM      2  O   UNL     1       6.332  32.147  76.165  0.00  0.00    +0.000 OA
ATOM      3  N   UNL     1       7.135  31.781  78.310  0.00  0.00    +0.000 N 
ATOM      4  C   UNL     1       8.095  32.036  79.431  0.00  0.00    +0.000 C 
ATOM      5  C   UNL     1       5.749  31.946  78.857  0.00  0.00    +0.000 C 
ATOM      6  C   UNL     1       7.305  31.344  80.594  0.00  0.00    +0.000 C 
ATOM      7  C   UNL     1       5.840  31.706  80.373  0.00  0.00    +0.000 C 
ENDROOT
BRANCH   1  14
ATOM      8 CL   UNL     1      12.746  33.374  74.717  0.00  0.00    +0.000 Cl
ATOM      9  C   UNL     1      11.174  32.993  75.276  0.00  0.00    +0.000 A 
ATOM     10  C   UNL     1      10.256  34.011  75.565  0.00  0.00    +0.000 A 
ATOM     11  C   UNL     1      10.788  31.667  75.410  0.00  0.00    +0.000 A 
ATOM     12  C   UNL     1       8.994  33.678  76.065  0.00  0.00    +0.000 A 
ATOM     13  C   UNL     1       9.491  31.355  75.825  0.00  0.00    +0.000 A 
ATOM     14  C   UNL     1       8.617  32.333  76.266  0.00  0.00    +0.000 A 
ENDBRANCH   1  14
BRANCH   5  15
ATOM     15  C   UNL     1       4.667  31.169  78.169  0.00  0.00    +0.000 A 
ATOM     16  S   UNL     1       3.163  31.953  77.850  0.00  0.00    +0.000 S 
ATOM     17  C   UNL     1       4.660  29.874  77.690  0.00  0.00    +0.000 A 
ATOM     18  C   UNL     1       2.543  30.582  77.044  0.00  0.00    +0.000 A 
ATOM     19  C   UNL     1       3.448  29.547  77.018  0.00  0.00    +0.000 A 
ENDBRANCH   5  15
BRANCH   4  20
ATOM     20  C   UNL     1       9.440  31.263  79.534  0.00  0.00    +0.000 C 
ATOM     21  O   UNL     1       9.544  30.086  79.833  0.00  0.00    +0.000 OA
ATOM     22  O   UNL     1      10.525  31.987  79.141  0.00  0.00    +0.000 OA
ENDBRANCH   4  20
BRANCH   7  23
ATOM     23  C   UNL     1       4.943  30.620  80.938  0.00  0.00    +0.000 C 
ATOM     24  O   UNL     1       5.276  29.450  81.066  0.00  0.00    +0.000 OA
ATOM     25  O   UNL     1       3.735  31.066  81.345  0.00  0.00    +0.000 OA
ENDBRANCH   7  23
BRANCH   4  26
ATOM     26  C   UNL     1       8.266  33.545  79.854  0.00  0.00    +0.000 C 
BRANCH  26  27
ATOM     27  C   UNL     1       8.626  33.936  81.303  0.00  0.00    +0.000 C 
ATOM     28  C   UNL     1       9.940  34.713  81.425  0.00  0.00    +0.000 C 
ATOM     29  C   UNL     1       7.552  34.886  81.861  0.00  0.00    +0.000 C 
ENDBRANCH  26  27
ENDBRANCH   4  26
TORSDOF 6
ENDMDL
MODEL 2
REMARK VINA RESULT:      -6.9      0.952      1.289
REMARK  Name = 
REMARK  8 active torsions:
REMARK  status: ('A' for Active; 'I' for Inactive)
REMARK    1  A    between atoms: C_7  and  C_8
REMARK    2  A    between atoms: C_11  and  C_13
REMARK    3  A    between atoms: C_11  and  C_15
REMARK    4  A    between atoms: C_12  and  C_16
REMARK    5  A    between atoms: C_15  and  C_20
REMARK    6  A    between atoms: C_17  and  C_23
REMARK    7  A    between atoms: C_20  and  C_24
REMARK    8  A    between atoms: C_20  and  C_25
REMARK                            x       y       z     vdW  Elec       q    Type
REMARK                         _______ _______ _______ _____ _____    ______ ____
ROOT
ATOM      1  C   UNL     1       7.072  32.167  77.002  0.00  0.00    +0.000 C 
ATOM      2  O   UNL     1       6.122  32.403  76.255  0.00  0.00    +0.000 OA
ATOM      3  N   UNL     1       6.869  31.770  78.358  0.00  0.00    +0.000 N 
ATOM      4  C   UNL     1       7.828  31.846  79.505  0.00  0.00    +0.000 C 
ATOM      5  C   UNL     1       5.490  31.971  78.908  0.00  0.00    +0.000 C 
ATOM      6  C   UNL     1       6.978  31.094  80.587  0.00  0.00    +0.000 C 
ATOM      7  C   UNL     1       5.543  31.574  80.393  0.00  0.00    +0.000 C 
ENDROOT
BRANCH   1  14
ATOM      8 CL   UNL     1      12.598  33.412  74.963  0.00  0.00    +0.000 Cl
ATOM      9  C   UNL     1      11.005  33.050  75.476  0.00  0.00    +0.000 A 
ATOM     10  C   UNL     1      10.073  34.076  75.680  0.00  0.00    +0.000 A 
ATOM     11  C   UNL     1      10.618  31.730  75.654  0.00  0.00    +0.000 A 
ATOM     12  C   UNL     1       8.793  33.761  76.143  0.00  0.00    +0.000 A 
ATOM     13  C   UNL     1       9.306  31.431  76.030  0.00  0.00    +0.000 A 
ATOM     14  C   UNL     1       8.412  32.424  76.391  0.00  0.00    +0.000 A 
ENDBRANCH   1  14
BRANCH   5  15
ATOM     15  C   UNL     1       4.368  31.342  78.137  0.00  0.00    +0.000 A 
ATOM     16  S   UNL     1       4.584  29.745  77.518  0.00  0.00    +0.000 S 
ATOM     17  C   UNL     1       3.108  31.821  77.838  0.00  0.00    +0.000 A 
ATOM     18  C   UNL     1       2.993  29.697  76.903  0.00  0.00    +0.000 A 
ATOM     19  C   UNL     1       2.309  30.863  77.152  0.00  0.00    +0.000 A 
ENDBRANCH   5  15
BRANCH   4  20
ATOM     20  C   UNL     1       9.118  30.978  79.539  0.00  0.00    +0.000 C 
ATOM     21  O   UNL     1       9.135  29.762  79.621  0.00  0.00    +0.000 OA
ATOM     22  O   UNL     1      10.265  31.687  79.347  0.00  0.00    +0.000 OA
ENDBRANCH   4  20
BRANCH   7  23
ATOM     23  C   UNL     1       4.569  30.499  80.839  0.00  0.00    +0.000 C 
ATOM     24  O   UNL     1       4.836  29.306  80.886  0.00  0.00    +0.000 OA
ATOM     25  O   UNL     1       3.371  30.977  81.235  0.00  0.00    +0.000 OA
ENDBRANCH   7  23
BRANCH   4  26
ATOM     26  C   UNL     1       8.091  33.289  80.080  0.00  0.00    +0.000 C 
BRANCH  26  27
ATOM     27  C   UNL     1       7.551  34.548  79.368  0.00  0.00    +0.000 C 
ATOM     28  C   UNL     1       6.429  35.256  80.131  0.00  0.00    +0.000 C 
ATOM     29  C   UNL     1       8.673  35.595  79.254  0.00  0.00    +0.000 C 
ENDBRANCH  26  27
ENDBRANCH   4  26
TORSDOF 6
ENDMDL
MODEL 3
REMARK VINA RESULT:      -6.8      1.104      1.639
REMARK  Name = 
REMARK  8 active torsions:
REMARK  status: ('A' for Active; 'I' for Inactive)
REMARK    1  A    between atoms: C_7  and  C_8
REMARK    2  A    between atoms: C_11  and  C_13
REMARK    3  A    between atoms: C_11  and  C_15
REMARK    4  A    between atoms: C_12  and  C_16
REMARK    5  A    between atoms: C_15  and  C_20
REMARK    6  A    between atoms: C_17  and  C_23
REMARK    7  A    between atoms: C_20  and  C_24
REMARK    8  A    between atoms: C_20  and  C_25
REMARK                            x       y       z     vdW  Elec       q    Type
REMARK                         _______ _______ _______ _____ _____    ______ ____
ROOT
ATOM      1  C   UNL     1       6.525  31.862  77.273  0.00  0.00    +0.000 C 
ATOM      2  O   UNL     1       5.585  32.263  76.585  0.00  0.00    +0.000 OA
ATOM      3  N   UNL     1       6.302  31.180  78.507  0.00  0.00    +0.000 N 
ATOM      4  C   UNL     1       7.245  30.996  79.655  0.00  0.00    +0.000 C 
ATOM      5  C   UNL     1       4.916  31.266  79.071  0.00  0.00    +0.000 C 
ATOM      6  C   UNL     1       6.378  30.033  80.535  0.00  0.00    +0.000 C 
ATOM      7  C   UNL     1       4.948  30.555  80.434  0.00  0.00    +0.000 C 
ENDROOT
BRANCH   1  14
ATOM      8 CL   UNL     1      12.061  33.540  75.608  0.00  0.00    +0.000 Cl
ATOM      9  C   UNL     1      10.468  33.061  76.013  0.00  0.00    +0.000 A 
ATOM     10  C   UNL     1       9.483  34.021  76.278  0.00  0.00    +0.000 A 
ATOM     11  C   UNL     1      10.136  31.715  76.042  0.00  0.00    +0.000 A 
ATOM     12  C   UNL     1       8.201  33.606  76.652  0.00  0.00    +0.000 A 
ATOM     13  C   UNL     1       8.826  31.323  76.330  0.00  0.00    +0.000 A 
ATOM     14  C   UNL     1       7.874  32.236  76.749  0.00  0.00    +0.000 A 
ENDBRANCH   1  14
BRANCH   5  15
ATOM     15  C   UNL     1       3.802  30.829  78.169  0.00  0.00    +0.000 A 
ATOM     16  S   UNL     1       2.356  31.770  78.125  0.00  0.00    +0.000 S 
ATOM     17  C   UNL     1       3.725  29.765  77.292  0.00  0.00    +0.000 A 
ATOM     18  C   UNL     1       1.669  30.781  76.915  0.00  0.00    +0.000 A 
ATOM     19  C   UNL     1       2.508  29.755  76.552  0.00  0.00    +0.000 A 
ENDBRANCH   5  15
BRANCH   4  20
ATOM     20  C   UNL     1       8.531  30.132  79.513  0.00  0.00    +0.000 C 
ATOM     21  O   UNL     1       9.665  30.575  79.480  0.00  0.00    +0.000 OA
ATOM     22  O   UNL     1       8.299  28.790  79.546  0.00  0.00    +0.000 OA
ENDBRANCH   4  20
BRANCH   7  23
ATOM     23  C   UNL     1       3.963  29.415  80.623  0.00  0.00    +0.000 C 
ATOM     24  O   UNL     1       2.806  29.560  80.991  0.00  0.00    +0.000 OA
ATOM     25  O   UNL     1       4.462  28.203  80.299  0.00  0.00    +0.000 OA
ENDBRANCH   7  23
BRANCH   4  26
ATOM     26  C   UNL     1       7.508  32.277  80.534  0.00  0.00    +0.000 C 
BRANCH  26  27
ATOM     27  C   UNL     1       8.137  33.551  79.930  0.00  0.00    +0.000 C 
ATOM     28  C   UNL     1       7.273  34.804  80.093  0.00  0.00    +0.000 C 
ATOM     29  C   UNL     1       9.449  33.875  80.667  0.00  0.00    +0.000 C 
ENDBRANCH  26  27
ENDBRANCH   4  26
TORSDOF 6
ENDMDL
MODEL 4
REMARK VINA RESULT:      -6.6      3.008      5.477
REMARK  Name = 
REMARK  8 active torsions:
REMARK  status: ('A' for Active; 'I' for Inactive)
REMARK    1  A    between atoms: C_7  and  C_8
REMARK    2  A    between atoms: C_11  and  C_13
REMARK    3  A    between atoms: C_11  and  C_15
REMARK    4  A    between atoms: C_12  and  C_16
REMARK    5  A    between atoms: C_15  and  C_20
REMARK    6  A    between atoms: C_17  and  C_23
REMARK    7  A    between atoms: C_20  and  C_24
REMARK    8  A    between atoms: C_20  and  C_25
REMARK                            x       y       z     vdW  Elec       q    Type
REMARK                         _______ _______ _______ _____ _____    ______ ____
ROOT
ATOM      1  C   UNL     1       8.648  34.345  77.697  0.00  0.00    +0.000 C 
ATOM      2  O   UNL     1       9.370  34.894  78.529  0.00  0.00    +0.000 OA
ATOM      3  N   UNL     1       7.227  34.460  77.757  0.00  0.00    +0.000 N 
ATOM      4  C   UNL     1       6.192  33.572  77.138  0.00  0.00    +0.000 C 
ATOM      5  C   UNL     1       6.658  34.992  79.037  0.00  0.00    +0.000 C 
ATOM      6  C   UNL     1       4.912  34.407  77.486  0.00  0.00    +0.000 C 
ATOM      7  C   UNL     1       5.128  34.926  78.903  0.00  0.00    +0.000 C 
ENDROOT
BRANCH   1  14
ATOM      8 CL   UNL     1      12.020  31.035  73.967  0.00  0.00    +0.000 Cl
ATOM      9  C   UNL     1      11.010  31.977  74.978  0.00  0.00    +0.000 A 
ATOM     10  C   UNL     1      11.087  33.375  74.956  0.00  0.00    +0.000 A 
ATOM     11  C   UNL     1      10.080  31.357  75.799  0.00  0.00    +0.000 A 
ATOM     12  C   UNL     1      10.285  34.122  75.824  0.00  0.00    +0.000 A 
ATOM     13  C   UNL     1       9.225  32.125  76.593  0.00  0.00    +0.000 A 
ATOM     14  C   UNL     1       9.384  33.495  76.710  0.00  0.00    +0.000 A 
ENDBRANCH   1  14
BRANCH   5  15
ATOM     15  C   UNL     1       7.184  36.318  79.499  0.00  0.00    +0.000 A 
ATOM     16  S   UNL     1       7.520  36.534  81.178  0.00  0.00    +0.000 S 
ATOM     17  C   UNL     1       7.496  37.456  78.782  0.00  0.00    +0.000 A 
ATOM     18  C   UNL     1       8.113  38.115  80.923  0.00  0.00    +0.000 A 
ATOM     19  C   UNL     1       8.056  38.479  79.599  0.00  0.00    +0.000 A 
ENDBRANCH   5  15
BRANCH   4  20
ATOM     20  C   UNL     1       6.029  33.475  75.595  0.00  0.00    +0.000 C 
ATOM     21  O   UNL     1       5.538  32.528  75.007  0.00  0.00    +0.000 OA
ATOM     22  O   UNL     1       6.379  34.612  74.931  0.00  0.00    +0.000 OA
ENDBRANCH   4  20
BRANCH   7  23
ATOM     23  C   UNL     1       4.377  36.230  79.100  0.00  0.00    +0.000 C 
ATOM     24  O   UNL     1       3.937  36.615  80.174  0.00  0.00    +0.000 OA
ATOM     25  O   UNL     1       4.271  36.975  77.979  0.00  0.00    +0.000 OA
ENDBRANCH   7  23
BRANCH   4  26
ATOM     26  C   UNL     1       5.999  32.167  77.826  0.00  0.00    +0.000 C 
BRANCH  26  27
ATOM     27  C   UNL     1       4.596  31.548  78.007  0.00  0.00    +0.000 C 
ATOM     28  C   UNL     1       4.432  30.183  77.334  0.00  0.00    +0.000 C 
ATOM     29  C   UNL     1       4.341  31.285  79.502  0.00  0.00    +0.000 C 
ENDBRANCH  26  27
ENDBRANCH   4  26
TORSDOF 6
ENDMDL
MODEL 5
REMARK VINA RESULT:      -6.3      3.657      6.098
REMARK  Name = 
REMARK  8 active torsions:
REMARK  status: ('A' for Active; 'I' for Inactive)
REMARK    1  A    between atoms: C_7  and  C_8
REMARK    2  A    between atoms: C_11  and  C_13
REMARK    3  A    between atoms: C_11  and  C_15
REMARK    4  A    between atoms: C_12  and  C_16
REMARK    5  A    between atoms: C_15  and  C_20
REMARK    6  A    between atoms: C_17  and  C_23
REMARK    7  A    between atoms: C_20  and  C_24
REMARK    8  A    between atoms: C_20  and  C_25
REMARK                            x       y       z     vdW  Elec       q    Type
REMARK                         _______ _______ _______ _____ _____    ______ ____
ROOT
ATOM      1  C   UNL     1       6.525  34.355  79.911  0.00  0.00    +0.000 C 
ATOM      2  O   UNL     1       7.144  33.575  80.635  0.00  0.00    +0.000 OA
ATOM      3  N   UNL     1       6.074  33.964  78.614  0.00  0.00    +0.000 N 
ATOM      4  C   UNL     1       5.701  34.834  77.455  0.00  0.00    +0.000 C 
ATOM      5  C   UNL     1       6.662  32.701  78.061  0.00  0.00    +0.000 C 
ATOM      6  C   UNL     1       5.163  33.731  76.481  0.00  0.00    +0.000 C 
ATOM      7  C   UNL     1       6.111  32.546  76.633  0.00  0.00    +0.000 C 
ENDROOT
BRANCH   1  14
ATOM      8 CL   UNL     1       5.989  39.709  82.611  0.00  0.00    +0.000 Cl
ATOM      9  C   UNL     1       6.116  38.215  81.783  0.00  0.00    +0.000 A 
ATOM     10  C   UNL     1       5.065  37.289  81.823  0.00  0.00    +0.000 A 
ATOM     11  C   UNL     1       7.248  37.932  81.035  0.00  0.00    +0.000 A 
ATOM     12  C   UNL     1       5.209  36.057  81.179  0.00  0.00    +0.000 A 
ATOM     13  C   UNL     1       7.335  36.732  80.324  0.00  0.00    +0.000 A 
ATOM     14  C   UNL     1       6.387  35.734  80.471  0.00  0.00    +0.000 A 
ENDBRANCH   1  14
BRANCH   5  15
ATOM     15  C   UNL     1       6.529  31.476  78.914  0.00  0.00    +0.000 A 
ATOM     16  S   UNL     1       7.891  30.428  79.072  0.00  0.00    +0.000 S 
ATOM     17  C   UNL     1       5.464  31.019  79.665  0.00  0.00    +0.000 A 
ATOM     18  C   UNL     1       7.065  29.410  80.165  0.00  0.00    +0.000 A 
ATOM     19  C   UNL     1       5.783  29.845  80.406  0.00  0.00    +0.000 A 
ENDBRANCH   5  15
BRANCH   4  20
ATOM     20  C   UNL     1       4.456  35.763  77.509  0.00  0.00    +0.000 C 
ATOM     21  O   UNL     1       4.436  36.870  78.019  0.00  0.00    +0.000 OA
ATOM     22  O   UNL     1       3.381  35.286  76.822  0.00  0.00    +0.000 OA
ENDBRANCH   4  20
BRANCH   7  23
ATOM     23  C   UNL     1       5.380  31.251  76.330  0.00  0.00    +0.000 C 
ATOM     24  O   UNL     1       5.927  30.222  75.960  0.00  0.00    +0.000 OA
ATOM     25  O   UNL     1       4.049  31.310  76.553  0.00  0.00    +0.000 OA
ENDBRANCH   7  23
BRANCH   4  26
ATOM     26  C   UNL     1       6.904  35.529  76.708  0.00  0.00    +0.000 C 
BRANCH  26  27
ATOM     27  C   UNL     1       8.337  35.482  77.280  0.00  0.00    +0.000 C 
ATOM     28  C   UNL     1       9.286  34.574  76.493  0.00  0.00    +0.000 C 
ATOM     29  C   UNL     1       8.969  36.882  77.195  0.00  0.00    +0.000 C 
ENDBRANCH  26  27
ENDBRANCH   4  26
TORSDOF 6
ENDMDL
MODEL 6
REMARK VINA RESULT:      -6.2      2.861      5.027
REMARK  Name = 
REMARK  8 active torsions:
REMARK  status: ('A' for Active; 'I' for Inactive)
REMARK    1  A    between atoms: C_7  and  C_8
REMARK    2  A    between atoms: C_11  and  C_13
REMARK    3  A    between atoms: C_11  and  C_15
REMARK    4  A    between atoms: C_12  and  C_16
REMARK    5  A    between atoms: C_15  and  C_20
REMARK    6  A    between atoms: C_17  and  C_23
REMARK    7  A    between atoms: C_20  and  C_24
REMARK    8  A    between atoms: C_20  and  C_25
REMARK                            x       y       z     vdW  Elec       q    Type
REMARK                         _______ _______ _______ _____ _____    ______ ____
ROOT
ATOM      1  C   UNL     1       6.069  33.808  79.595  0.00  0.00    +0.000 C 
ATOM      2  O   UNL     1       5.508  33.342  80.588  0.00  0.00    +0.000 OA
ATOM      3  N   UNL     1       6.174  33.060  78.384  0.00  0.00    +0.000 N 
ATOM      4  C   UNL     1       7.136  33.247  77.252  0.00  0.00    +0.000 C 
ATOM      5  C   UNL     1       5.870  31.595  78.481  0.00  0.00    +0.000 C 
ATOM      6  C   UNL     1       6.543  32.200  76.248  0.00  0.00    +0.000 C 
ATOM      7  C   UNL     1       6.149  30.993  77.094  0.00  0.00    +0.000 C 
ENDROOT
BRANCH   1  14
ATOM      8 CL   UNL     1       8.879  39.107  80.108  0.00  0.00    +0.000 Cl
ATOM      9  C   UNL     1       8.053  37.609  80.027  0.00  0.00    +0.000 A 
ATOM     10  C   UNL     1       8.691  36.424  80.418  0.00  0.00    +0.000 A 
ATOM     11  C   UNL     1       6.731  37.568  79.610  0.00  0.00    +0.000 A 
ATOM     12  C   UNL     1       8.014  35.207  80.299  0.00  0.00    +0.000 A 
ATOM     13  C   UNL     1       6.043  36.352  79.585  0.00  0.00    +0.000 A 
ATOM     14  C   UNL     1       6.690  35.150  79.813  0.00  0.00    +0.000 A 
ENDBRANCH   1  14
BRANCH   5  15
ATOM     15  C   UNL     1       4.537  31.229  79.060  0.00  0.00    +0.000 A 
ATOM     16  S   UNL     1       4.465  29.963  80.230  0.00  0.00    +0.000 S 
ATOM     17  C   UNL     1       3.285  31.769  78.838  0.00  0.00    +0.000 A 
ATOM     18  C   UNL     1       2.787  30.178  80.457  0.00  0.00    +0.000 A 
ATOM     19  C   UNL     1       2.284  31.182  79.663  0.00  0.00    +0.000 A 
ENDBRANCH   5  15
BRANCH   4  20
ATOM     20  C   UNL     1       7.093  34.518  76.357  0.00  0.00    +0.000 C 
ATOM     21  O   UNL     1       7.694  35.552  76.590  0.00  0.00    +0.000 OA
ATOM     22  O   UNL     1       6.403  34.351  75.194  0.00  0.00    +0.000 OA
ENDBRANCH   4  20
BRANCH   7  23
ATOM     23  C   UNL     1       5.000  30.250  76.438  0.00  0.00    +0.000 C 
ATOM     24  O   UNL     1       4.648  29.119  76.742  0.00  0.00    +0.000 OA
ATOM     25  O   UNL     1       4.347  30.971  75.501  0.00  0.00    +0.000 OA
ENDBRANCH   7  23
BRANCH   4  26
ATOM     26  C   UNL     1       8.618  32.793  77.534  0.00  0.00    +0.000 C 
BRANCH  26  27
ATOM     27  C   UNL     1       9.729  32.976  76.478  0.00  0.00    +0.000 C 
ATOM     28  C   UNL     1      11.023  33.570  77.039  0.00  0.00    +0.000 C 
ATOM     29  C   UNL     1      10.135  31.602  75.917  0.00  0.00    +0.000 C 
ENDBRANCH  26  27
ENDBRANCH   4  26
TORSDOF 6
ENDMDL
MODEL 7
REMARK VINA RESULT:      -6.2      2.152      4.704
REMARK  Name = 
REMARK  8 active torsions:
REMARK  status: ('A' for Active; 'I' for Inactive)
REMARK    1  A    between atoms: C_7  and  C_8
REMARK    2  A    between atoms: C_11  and  C_13
REMARK    3  A    between atoms: C_11  and  C_15
REMARK    4  A    between atoms: C_12  and  C_16
REMARK    5  A    between atoms: C_15  and  C_20
REMARK    6  A    between atoms: C_17  and  C_23
REMARK    7  A    between atoms: C_20  and  C_24
REMARK    8  A    between atoms: C_20  and  C_25
REMARK                            x       y       z     vdW  Elec       q    Type
REMARK                         _______ _______ _______ _____ _____    ______ ____
ROOT
ATOM      1  C   UNL     1       7.907  32.745  78.303  0.00  0.00    +0.000 C 
ATOM      2  O   UNL     1       8.364  32.401  79.394  0.00  0.00    +0.000 OA
ATOM      3  N   UNL     1       6.517  33.021  78.136  0.00  0.00    +0.000 N 
ATOM      4  C   UNL     1       5.714  33.035  76.872  0.00  0.00    +0.000 C 
ATOM      5  C   UNL     1       5.612  32.564  79.240  0.00  0.00    +0.000 C 
ATOM      6  C   UNL     1       4.358  33.571  77.447  0.00  0.00    +0.000 C 
ATOM      7  C   UNL     1       4.174  32.874  78.792  0.00  0.00    +0.000 C 
ENDROOT
BRANCH   1  14
ATOM      8 CL   UNL     1      12.263  32.910  74.152  0.00  0.00    +0.000 Cl
ATOM      9  C   UNL     1      10.976  32.863  75.280  0.00  0.00    +0.000 A 
ATOM     10  C   UNL     1      10.455  34.050  75.812  0.00  0.00    +0.000 A 
ATOM     11  C   UNL     1      10.417  31.648  75.643  0.00  0.00    +0.000 A 
ATOM     12  C   UNL     1       9.436  33.986  76.767  0.00  0.00    +0.000 A 
ATOM     13  C   UNL     1       9.338  31.611  76.531  0.00  0.00    +0.000 A 
ATOM     14  C   UNL     1       8.907  32.748  77.191  0.00  0.00    +0.000 A 
ENDBRANCH   1  14
BRANCH   5  15
ATOM     15  C   UNL     1       5.950  33.045  80.619  0.00  0.00    +0.000 A 
ATOM     16  S   UNL     1       5.893  31.919  81.925  0.00  0.00    +0.000 S 
ATOM     17  C   UNL     1       6.349  34.292  81.059  0.00  0.00    +0.000 A 
ATOM     18  C   UNL     1       6.440  33.086  83.044  0.00  0.00    +0.000 A 
ATOM     19  C   UNL     1       6.658  34.306  82.449  0.00  0.00    +0.000 A 
ENDBRANCH   5  15
BRANCH   4  20
ATOM     20  C   UNL     1       5.966  34.100  75.767  0.00  0.00    +0.000 C 
ATOM     21  O   UNL     1       5.871  33.894  74.570  0.00  0.00    +0.000 OA
ATOM     22  O   UNL     1       6.198  35.352  76.250  0.00  0.00    +0.000 OA
ENDBRANCH   4  20
BRANCH   7  23
ATOM     23  C   UNL     1       3.351  33.746  79.722  0.00  0.00    +0.000 C 
ATOM     24  O   UNL     1       2.730  33.327  80.688  0.00  0.00    +0.000 OA
ATOM     25  O   UNL     1       3.398  35.062  79.421  0.00  0.00    +0.000 OA
ENDBRANCH   7  23
BRANCH   4  26
ATOM     26  C   UNL     1       5.398  31.622  76.248  0.00  0.00    +0.000 C 
BRANCH  26  27
ATOM     27  C   UNL     1       5.705  30.319  77.017  0.00  0.00    +0.000 C 
ATOM     28  C   UNL     1       4.492  29.399  77.181  0.00  0.00    +0.000 C 
ATOM     29  C   UNL     1       6.729  29.486  76.227  0.00  0.00    +0.000 C 
ENDBRANCH  26  27
ENDBRANCH   4  26
TORSDOF 6
ENDMDL
MODEL 8
REMARK VINA RESULT:      -6.2      2.331      3.954
REMARK  Name = 
REMARK  8 active torsions:
REMARK  status: ('A' for Active; 'I' for Inactive)
REMARK    1  A    between atoms: C_7  and  C_8
REMARK    2  A    between atoms: C_11  and  C_13
REMARK    3  A    between atoms: C_11  and  C_15
REMARK    4  A    between atoms: C_12  and  C_16
REMARK    5  A    between atoms: C_15  and  C_20
REMARK    6  A    between atoms: C_17  and  C_23
REMARK    7  A    between atoms: C_20  and  C_24
REMARK    8  A    between atoms: C_20  and  C_25
REMARK                            x       y       z     vdW  Elec       q    Type
REMARK                         _______ _______ _______ _____ _____    ______ ____
ROOT
ATOM      1  C   UNL     1       7.711  31.008  78.514  0.00  0.00    +0.000 C 
ATOM      2  O   UNL     1       7.841  29.785  78.578  0.00  0.00    +0.000 OA
ATOM      3  N   UNL     1       6.561  31.660  79.053  0.00  0.00    +0.000 N 
ATOM      4  C   UNL     1       6.018  33.016  78.724  0.00  0.00    +0.000 C 
ATOM      5  C   UNL     1       5.397  30.779  79.393  0.00  0.00    +0.000 C 
ATOM      6  C   UNL     1       4.884  33.096  79.802  0.00  0.00    +0.000 C 
ATOM      7  C   UNL     1       4.258  31.705  79.849  0.00  0.00    +0.000 C 
ENDROOT
BRANCH   1  14
ATOM      8 CL   UNL     1      11.733  33.990  75.173  0.00  0.00    +0.000 Cl
ATOM      9  C   UNL     1      10.642  33.101  76.148  0.00  0.00    +0.000 A 
ATOM     10  C   UNL     1       9.973  31.985  75.628  0.00  0.00    +0.000 A 
ATOM     11  C   UNL     1      10.445  33.460  77.472  0.00  0.00    +0.000 A 
ATOM     12  C   UNL     1       9.051  31.302  76.428  0.00  0.00    +0.000 A 
ATOM     13  C   UNL     1       9.588  32.710  78.281  0.00  0.00    +0.000 A 
ATOM     14  C   UNL     1       8.796  31.703  77.757  0.00  0.00    +0.000 A 
ENDBRANCH   1  14
BRANCH   5  15
ATOM     15  C   UNL     1       5.678  29.636  80.322  0.00  0.00    +0.000 A 
ATOM     16  S   UNL     1       6.705  29.909  81.681  0.00  0.00    +0.000 S 
ATOM     17  C   UNL     1       5.215  28.335  80.306  0.00  0.00    +0.000 A 
ATOM     18  C   UNL     1       6.487  28.315  82.251  0.00  0.00    +0.000 A 
ATOM     19  C   UNL     1       5.659  27.584  81.432  0.00  0.00    +0.000 A 
ENDBRANCH   5  15
BRANCH   4  20
ATOM     20  C   UNL     1       6.806  34.309  79.079  0.00  0.00    +0.000 C 
ATOM     21  O   UNL     1       7.024  35.224  78.305  0.00  0.00    +0.000 OA
ATOM     22  O   UNL     1       7.147  34.403  80.395  0.00  0.00    +0.000 OA
ENDBRANCH   4  20
BRANCH   7  23
ATOM     23  C   UNL     1       3.683  31.439  81.228  0.00  0.00    +0.000 C 
ATOM     24  O   UNL     1       4.083  31.970  82.254  0.00  0.00    +0.000 OA
ATOM     25  O   UNL     1       2.638  30.584  81.228  0.00  0.00    +0.000 OA
ENDBRANCH   7  23
BRANCH   4  26
ATOM     26  C   UNL     1       5.303  33.145  77.325  0.00  0.00    +0.000 C 
BRANCH  26  27
ATOM     27  C   UNL     1       5.866  32.446  76.069  0.00  0.00    +0.000 C 
ATOM     28  C   UNL     1       5.082  31.198  75.653  0.00  0.00    +0.000 C 
ATOM     29  C   UNL     1       5.764  33.397  74.864  0.00  0.00    +0.000 C 
ENDBRANCH  26  27
ENDBRANCH   4  26
TORSDOF 6
ENDMDL
MODEL 9
REMARK VINA RESULT:      -6.1      2.978      5.469
REMARK  Name = 
REMARK  8 active torsions:
REMARK  status: ('A' for Active; 'I' for Inactive)
REMARK    1  A    between atoms: C_7  and  C_8
REMARK    2  A    between atoms: C_11  and  C_13
REMARK    3  A    between atoms: C_11  and  C_15
REMARK    4  A    between atoms: C_12  and  C_16
REMARK    5  A    between atoms: C_15  and  C_20
REMARK    6  A    between atoms: C_17  and  C_23
REMARK    7  A    between atoms: C_20  and  C_24
REMARK    8  A    between atoms: C_20  and  C_25
REMARK                            x       y       z     vdW  Elec       q    Type
REMARK                         _______ _______ _______ _____ _____    ______ ____
ROOT
ATOM      1  C   UNL     1       7.327  33.614  79.873  0.00  0.00    +0.000 C 
ATOM      2  O   UNL     1       7.184  32.842  80.822  0.00  0.00    +0.000 OA
ATOM      3  N   UNL     1       7.330  33.141  78.526  0.00  0.00    +0.000 N 
ATOM      4  C   UNL     1       7.887  33.805  77.306  0.00  0.00    +0.000 C 
ATOM      5  C   UNL     1       7.480  31.661  78.343  0.00  0.00    +0.000 C 
ATOM      6  C   UNL     1       7.378  32.796  76.221  0.00  0.00    +0.000 C 
ATOM      7  C   UNL     1       7.559  31.409  76.829  0.00  0.00    +0.000 C 
ENDROOT
BRANCH   1  14
ATOM      8 CL   UNL     1       8.100  39.240  81.869  0.00  0.00    +0.000 Cl
ATOM      9  C   UNL     1       7.899  37.662  81.236  0.00  0.00    +0.000 A 
ATOM     10  C   UNL     1       6.646  37.237  80.774  0.00  0.00    +0.000 A 
ATOM     11  C   UNL     1       8.988  36.809  81.143  0.00  0.00    +0.000 A 
ATOM     12  C   UNL     1       6.495  35.929  80.305  0.00  0.00    +0.000 A 
ATOM     13  C   UNL     1       8.833  35.536  80.587  0.00  0.00    +0.000 A 
ATOM     14  C   UNL     1       7.584  35.033  80.269  0.00  0.00    +0.000 A 
ENDBRANCH   1  14
BRANCH   5  15
ATOM     15  C   UNL     1       6.490  30.798  79.065  0.00  0.00    +0.000 A 
ATOM     16  S   UNL     1       7.067  29.409  79.911  0.00  0.00    +0.000 S 
ATOM     17  C   UNL     1       5.123  30.933  79.211  0.00  0.00    +0.000 A 
ATOM     18  C   UNL     1       5.507  29.033  80.494  0.00  0.00    +0.000 A 
ATOM     19  C   UNL     1       4.563  29.932  80.056  0.00  0.00    +0.000 A 
ENDBRANCH   5  15
BRANCH   4  20
ATOM     20  C   UNL     1       7.270  35.120  76.748  0.00  0.00    +0.000 C 
ATOM     21  O   UNL     1       6.183  35.200  76.205  0.00  0.00    +0.000 OA
ATOM     22  O   UNL     1       8.005  36.234  77.023  0.00  0.00    +0.000 OA
ENDBRANCH   4  20
BRANCH   7  23
ATOM     23  C   UNL     1       6.536  30.449  76.251  0.00  0.00    +0.000 C 
ATOM     24  O   UNL     1       5.423  30.779  75.866  0.00  0.00    +0.000 OA
ATOM     25  O   UNL     1       6.977  29.177  76.147  0.00  0.00    +0.000 OA
ENDBRANCH   7  23
BRANCH   4  26
ATOM     26  C   UNL     1       9.459  33.815  77.192  0.00  0.00    +0.000 C 
BRANCH  26  27
ATOM     27  C   UNL     1      10.166  33.654  75.829  0.00  0.00    +0.000 C 
ATOM     28  C   UNL     1      11.123  34.800  75.490  0.00  0.00    +0.000 C 
ATOM     29  C   UNL     1      11.050  32.395  75.855  0.00  0.00    +0.000 C 
ENDBRANCH  26  27
ENDBRANCH   4  26
TORSDOF 6
ENDMDL
