MODEL 1
REMARK VINA RESULT:      -7.3      0.000      0.000
REMARK  Name = 
REMARK  9 active torsions:
REMARK  status: ('A' for Active; 'I' for Inactive)
REMARK    1  A    between atoms: C_2  and  C_5
REMARK    2  A    between atoms: C_10  and  C_11
REMARK    3  A    between atoms: C_14  and  C_16
REMARK    4  A    between atoms: C_14  and  C_18
REMARK    5  A    between atoms: C_15  and  C_19
REMARK    6  A    between atoms: C_18  and  C_23
REMARK    7  A    between atoms: C_20  and  C_26
REMARK    8  A    between atoms: C_23  and  C_27
REMARK    9  A    between atoms: C_27  and  C_32
REMARK                            x       y       z     vdW  Elec       q    Type
REMARK                         _______ _______ _______ _____ _____    ______ ____
ROOT
ATOM      1  C   UNL     1       8.453  30.898  79.052  0.00  0.00    +0.000 C 
ATOM      2  O   UNL     1       8.949  29.822  79.408  0.00  0.00    +0.000 OA
ATOM      3  N   UNL     1       7.205  31.286  79.548  0.00  0.00    +0.000 N 
ATOM      4  C   UNL     1       6.607  30.622  80.760  0.00  0.00    +0.000 C 
ATOM      5  C   UNL     1       6.474  32.543  79.255  0.00  0.00    +0.000 C 
ATOM      6  C   UNL     1       5.136  31.106  80.641  0.00  0.00    +0.000 C 
ATOM      7  C   UNL     1       5.241  32.553  80.172  0.00  0.00    +0.000 C 
ENDROOT
BRANCH   1  13
ATOM      8  C   UNL     1      10.756  32.887  75.987  0.00  0.00    +0.000 A 
ATOM      9  C   UNL     1      10.714  33.395  77.294  0.00  0.00    +0.000 A 
ATOM     10  C   UNL     1       9.936  31.799  75.669  0.00  0.00    +0.000 A 
ATOM     11  C   UNL     1       9.922  32.770  78.273  0.00  0.00    +0.000 A 
ATOM     12  C   UNL     1       9.089  31.232  76.623  0.00  0.00    +0.000 A 
ATOM     13  C   UNL     1       9.148  31.645  77.954  0.00  0.00    +0.000 A 
BRANCH   8  15
ATOM     14  F   UNL     1      11.787  32.675  73.821  0.00  0.00    +0.000 F 
ATOM     15  C   UNL     1      11.644  33.471  74.915  0.00  0.00    +0.000 C 
ATOM     16  F   UNL     1      12.908  33.707  75.371  0.00  0.00    +0.000 F 
ATOM     17  F   UNL     1      11.191  34.670  74.454  0.00  0.00    +0.000 F 
ENDBRANCH   8  15
ENDBRANCH   1  13
BRANCH   5  18
ATOM     18  C   UNL     1       6.216  32.822  77.792  0.00  0.00    +0.000 A 
ATOM     19  C   UNL     1       5.620  31.885  76.937  0.00  0.00    +0.000 A 
ATOM     20  C   UNL     1       6.648  34.050  77.249  0.00  0.00    +0.000 A 
ATOM     21  C   UNL     1       5.518  32.145  75.570  0.00  0.00    +0.000 A 
ATOM     22  C   UNL     1       6.530  34.311  75.886  0.00  0.00    +0.000 A 
ATOM     23  C   UNL     1       5.975  33.352  75.045  0.00  0.00    +0.000 A 
ENDBRANCH   5  18
BRANCH   4  24
ATOM     24  C   UNL     1       6.463  29.074  80.813  0.00  0.00    +0.000 C 
ATOM     25  O   UNL     1       7.048  28.369  81.628  0.00  0.00    +0.000 OA
ATOM     26  O   UNL     1       5.512  28.571  79.995  0.00  0.00    +0.000 OA
ENDBRANCH   4  24
BRANCH   7  27
ATOM     27  C   UNL     1       3.972  33.066  79.537  0.00  0.00    +0.000 C 
ATOM     28  O   UNL     1       3.729  34.243  79.323  0.00  0.00    +0.000 OA
ATOM     29  O   UNL     1       3.105  32.082  79.203  0.00  0.00    +0.000 OA
ENDBRANCH   7  27
BRANCH   4  30
ATOM     30  C   UNL     1       7.214  31.152  82.097  0.00  0.00    +0.000 C 
BRANCH  30  31
ATOM     31  C   UNL     1       8.463  32.018  81.933  0.00  0.00    +0.000 C 
BRANCH  31  32
ATOM     32  C   UNL     1       8.242  33.459  82.394  0.00  0.00    +0.000 C 
ATOM     33  C   UNL     1       8.856  34.429  81.395  0.00  0.00    +0.000 C 
ENDBRANCH  31  32
ENDBRANCH  30  31
ENDBRANCH   4  30
TORSDOF 8
ENDMDL
MODEL 2
REMARK VINA RESULT:      -7.2      0.698      1.394
REMARK  Name = 
REMARK  9 active torsions:
REMARK  status: ('A' for Active; 'I' for Inactive)
REMARK    1  A    between atoms: C_2  and  C_5
REMARK    2  A    between atoms: C_10  and  C_11
REMARK    3  A    between atoms: C_14  and  C_16
REMARK    4  A    between atoms: C_14  and  C_18
REMARK    5  A    between atoms: C_15  and  C_19
REMARK    6  A    between atoms: C_18  and  C_23
REMARK    7  A    between atoms: C_20  and  C_26
REMARK    8  A    between atoms: C_23  and  C_27
REMARK    9  A    between atoms: C_27  and  C_32
REMARK                            x       y       z     vdW  Elec       q    Type
REMARK                         _______ _______ _______ _____ _____    ______ ____
ROOT
ATOM      1  C   UNL     1       7.870  30.576  79.237  0.00  0.00    +0.000 C 
ATOM      2  O   UNL     1       8.110  29.407  79.564  0.00  0.00    +0.000 OA
ATOM      3  N   UNL     1       6.665  31.172  79.621  0.00  0.00    +0.000 N 
ATOM      4  C   UNL     1       5.810  30.572  80.707  0.00  0.00    +0.000 C 
ATOM      5  C   UNL     1       6.222  32.560  79.345  0.00  0.00    +0.000 C 
ATOM      6  C   UNL     1       4.480  31.338  80.463  0.00  0.00    +0.000 C 
ATOM      7  C   UNL     1       4.910  32.760  80.119  0.00  0.00    +0.000 C 
ENDROOT
BRANCH   1  13
ATOM      8  C   UNL     1      10.342  32.672  76.383  0.00  0.00    +0.000 A 
ATOM      9  C   UNL     1       9.525  31.607  75.976  0.00  0.00    +0.000 A 
ATOM     10  C   UNL     1      10.435  32.957  77.750  0.00  0.00    +0.000 A 
ATOM     11  C   UNL     1       8.761  30.898  76.920  0.00  0.00    +0.000 A 
ATOM     12  C   UNL     1       9.738  32.197  78.693  0.00  0.00    +0.000 A 
ATOM     13  C   UNL     1       8.820  31.230  78.281  0.00  0.00    +0.000 A 
BRANCH   8  15
ATOM     14  F   UNL     1      12.284  34.018  75.915  0.00  0.00    +0.000 F 
ATOM     15  C   UNL     1      11.126  33.517  75.407  0.00  0.00    +0.000 C 
ATOM     16  F   UNL     1      10.410  34.596  74.976  0.00  0.00    +0.000 F 
ATOM     17  F   UNL     1      11.470  32.832  74.281  0.00  0.00    +0.000 F 
ENDBRANCH   8  15
ENDBRANCH   1  13
BRANCH   5  18
ATOM     18  C   UNL     1       6.201  32.960  77.887  0.00  0.00    +0.000 A 
ATOM     19  C   UNL     1       5.575  32.188  76.900  0.00  0.00    +0.000 A 
ATOM     20  C   UNL     1       6.890  34.125  77.494  0.00  0.00    +0.000 A 
ATOM     21  C   UNL     1       5.691  32.537  75.554  0.00  0.00    +0.000 A 
ATOM     22  C   UNL     1       6.991  34.479  76.151  0.00  0.00    +0.000 A 
ATOM     23  C   UNL     1       6.400  33.677  75.180  0.00  0.00    +0.000 A 
ENDBRANCH   5  18
BRANCH   4  24
ATOM     24  C   UNL     1       5.375  29.081  80.628  0.00  0.00    +0.000 C 
ATOM     25  O   UNL     1       4.860  28.581  79.635  0.00  0.00    +0.000 OA
ATOM     26  O   UNL     1       5.758  28.328  81.683  0.00  0.00    +0.000 OA
ENDBRANCH   4  24
BRANCH   7  27
ATOM     27  C   UNL     1       3.845  33.542  79.389  0.00  0.00    +0.000 C 
ATOM     28  O   UNL     1       3.852  34.753  79.242  0.00  0.00    +0.000 OA
ATOM     29  O   UNL     1       2.860  32.763  78.885  0.00  0.00    +0.000 OA
ENDBRANCH   7  27
BRANCH   4  30
ATOM     30  C   UNL     1       6.338  30.904  82.138  0.00  0.00    +0.000 C 
BRANCH  30  31
ATOM     31  C   UNL     1       7.737  31.519  82.178  0.00  0.00    +0.000 C 
BRANCH  31  32
ATOM     32  C   UNL     1       7.731  32.952  82.711  0.00  0.00    +0.000 C 
ATOM     33  C   UNL     1       8.614  33.838  81.843  0.00  0.00    +0.000 C 
ENDBRANCH  31  32
ENDBRANCH  30  31
ENDBRANCH   4  30
TORSDOF 8
ENDMDL
MODEL 3
REMARK VINA RESULT:      -7.2      4.019      6.422
REMARK  Name = 
REMARK  9 active torsions:
REMARK  status: ('A' for Active; 'I' for Inactive)
REMARK    1  A    between atoms: C_2  and  C_5
REMARK    2  A    between atoms: C_10  and  C_11
REMARK    3  A    between atoms: C_14  and  C_16
REMARK    4  A    between atoms: C_14  and  C_18
REMARK    5  A    between atoms: C_15  and  C_19
REMARK    6  A    between atoms: C_18  and  C_23
REMARK    7  A    between atoms: C_20  and  C_26
REMARK    8  A    between atoms: C_23  and  C_27
REMARK    9  A    between atoms: C_27  and  C_32
REMARK                            x       y       z     vdW  Elec       q    Type
REMARK                         _______ _______ _______ _____ _____    ______ ____
ROOT
ATOM      1  C   UNL     1       4.932  33.547  80.046  0.00  0.00    +0.000 C 
ATOM      2  O   UNL     1       3.942  34.081  80.560  0.00  0.00    +0.000 OA
ATOM      3  N   UNL     1       5.580  34.169  78.975  0.00  0.00    +0.000 N 
ATOM      4  C   UNL     1       5.340  35.621  78.656  0.00  0.00    +0.000 C 
ATOM      5  C   UNL     1       6.788  33.692  78.258  0.00  0.00    +0.000 C 
ATOM      6  C   UNL     1       5.941  35.691  77.225  0.00  0.00    +0.000 C 
ATOM      7  C   UNL     1       7.186  34.813  77.285  0.00  0.00    +0.000 C 
ENDROOT
BRANCH   1  13
ATOM      8  C   UNL     1       6.046  29.486  81.007  0.00  0.00    +0.000 A 
ATOM      9  C   UNL     1       4.848  29.759  80.331  0.00  0.00    +0.000 A 
ATOM     10  C   UNL     1       6.807  30.563  81.475  0.00  0.00    +0.000 A 
ATOM     11  C   UNL     1       4.468  31.086  80.066  0.00  0.00    +0.000 A 
ATOM     12  C   UNL     1       6.385  31.881  81.281  0.00  0.00    +0.000 A 
ATOM     13  C   UNL     1       5.270  32.156  80.491  0.00  0.00    +0.000 A 
BRANCH   8  15
ATOM     14  F   UNL     1       7.571  27.708  80.447  0.00  0.00    +0.000 F 
ATOM     15  C   UNL     1       6.541  28.082  81.253  0.00  0.00    +0.000 C 
ATOM     16  F   UNL     1       5.560  27.153  81.059  0.00  0.00    +0.000 F 
ATOM     17  F   UNL     1       6.974  27.895  82.532  0.00  0.00    +0.000 F 
ENDBRANCH   8  15
ENDBRANCH   1  13
BRANCH   5  18
ATOM     18  C   UNL     1       6.691  32.304  77.668  0.00  0.00    +0.000 A 
ATOM     19  C   UNL     1       5.598  31.884  76.897  0.00  0.00    +0.000 A 
ATOM     20  C   UNL     1       7.709  31.372  77.954  0.00  0.00    +0.000 A 
ATOM     21  C   UNL     1       5.498  30.556  76.481  0.00  0.00    +0.000 A 
ATOM     22  C   UNL     1       7.613  30.051  77.524  0.00  0.00    +0.000 A 
ATOM     23  C   UNL     1       6.501  29.641  76.797  0.00  0.00    +0.000 A 
ENDBRANCH   5  18
BRANCH   4  24
ATOM     24  C   UNL     1       3.891  36.149  78.453  0.00  0.00    +0.000 C 
ATOM     25  O   UNL     1       3.341  36.924  79.227  0.00  0.00    +0.000 OA
ATOM     26  O   UNL     1       3.335  35.818  77.267  0.00  0.00    +0.000 OA
ENDBRANCH   4  24
BRANCH   7  27
ATOM     27  C   UNL     1       7.653  34.349  75.926  0.00  0.00    +0.000 C 
ATOM     28  O   UNL     1       8.779  33.952  75.677  0.00  0.00    +0.000 OA
ATOM     29  O   UNL     1       6.685  34.399  74.982  0.00  0.00    +0.000 OA
ENDBRANCH   7  27
BRANCH   4  30
ATOM     30  C   UNL     1       6.137  36.582  79.593  0.00  0.00    +0.000 C 
BRANCH  30  31
ATOM     31  C   UNL     1       6.780  37.776  78.888  0.00  0.00    +0.000 C 
BRANCH  31  32
ATOM     32  C   UNL     1       7.320  38.815  79.871  0.00  0.00    +0.000 C 
ATOM     33  C   UNL     1       8.839  38.738  79.932  0.00  0.00    +0.000 C 
ENDBRANCH  31  32
ENDBRANCH  30  31
ENDBRANCH   4  30
TORSDOF 8
ENDMDL
MODEL 4
REMARK VINA RESULT:      -7.2      2.927      4.237
REMARK  Name = 
REMARK  9 active torsions:
REMARK  status: ('A' for Active; 'I' for Inactive)
REMARK    1  A    between atoms: C_2  and  C_5
REMARK    2  A    between atoms: C_10  and  C_11
REMARK    3  A    between atoms: C_14  and  C_16
REMARK    4  A    between atoms: C_14  and  C_18
REMARK    5  A    between atoms: C_15  and  C_19
REMARK    6  A    between atoms: C_18  and  C_23
REMARK    7  A    between atoms: C_20  and  C_26
REMARK    8  A    between atoms: C_23  and  C_27
REMARK    9  A    between atoms: C_27  and  C_32
REMARK                            x       y       z     vdW  Elec       q    Type
REMARK                         _______ _______ _______ _____ _____    ______ ____
ROOT
ATOM      1  C   UNL     1       8.533  35.049  79.019  0.00  0.00    +0.000 C 
ATOM      2  O   UNL     1       9.201  35.234  80.043  0.00  0.00    +0.000 OA
ATOM      3  N   UNL     1       7.205  35.485  78.968  0.00  0.00    +0.000 N 
ATOM      4  C   UNL     1       6.671  36.476  79.968  0.00  0.00    +0.000 C 
ATOM      5  C   UNL     1       6.269  35.375  77.823  0.00  0.00    +0.000 C 
ATOM      6  C   UNL     1       5.144  36.308  79.733  0.00  0.00    +0.000 C 
ATOM      7  C   UNL     1       5.001  36.148  78.223  0.00  0.00    +0.000 C 
ENDROOT
BRANCH   1  13
ATOM      8  C   UNL     1      10.600  32.692  76.049  0.00  0.00    +0.000 A 
ATOM      9  C   UNL     1      10.355  34.057  75.836  0.00  0.00    +0.000 A 
ATOM     10  C   UNL     1      10.051  32.086  77.184  0.00  0.00    +0.000 A 
ATOM     11  C   UNL     1       9.637  34.806  76.785  0.00  0.00    +0.000 A 
ATOM     12  C   UNL     1       9.269  32.815  78.083  0.00  0.00    +0.000 A 
ATOM     13  C   UNL     1       9.140  34.197  77.947  0.00  0.00    +0.000 A 
BRANCH   8  15
ATOM     14  F   UNL     1      11.606  32.421  73.877  0.00  0.00    +0.000 F 
ATOM     15  C   UNL     1      11.428  31.857  75.103  0.00  0.00    +0.000 C 
ATOM     16  F   UNL     1      10.863  30.636  74.872  0.00  0.00    +0.000 F 
ATOM     17  F   UNL     1      12.675  31.598  75.585  0.00  0.00    +0.000 F 
ENDBRANCH   8  15
ENDBRANCH   1  13
BRANCH   5  18
ATOM     18  C   UNL     1       6.053  33.978  77.288  0.00  0.00    +0.000 A 
ATOM     19  C   UNL     1       5.750  32.889  78.116  0.00  0.00    +0.000 A 
ATOM     20  C   UNL     1       6.225  33.747  75.908  0.00  0.00    +0.000 A 
ATOM     21  C   UNL     1       5.684  31.600  77.588  0.00  0.00    +0.000 A 
ATOM     22  C   UNL     1       6.143  32.459  75.382  0.00  0.00    +0.000 A 
ATOM     23  C   UNL     1       5.884  31.384  76.225  0.00  0.00    +0.000 A 
ENDBRANCH   5  18
BRANCH   4  24
ATOM     24  C   UNL     1       6.821  36.207  81.493  0.00  0.00    +0.000 C 
ATOM     25  O   UNL     1       7.324  37.007  82.273  0.00  0.00    +0.000 OA
ATOM     26  O   UNL     1       6.203  35.086  81.928  0.00  0.00    +0.000 OA
ENDBRANCH   4  24
BRANCH   7  27
ATOM     27  C   UNL     1       3.699  35.503  77.814  0.00  0.00    +0.000 C 
ATOM     28  O   UNL     1       3.261  35.486  76.675  0.00  0.00    +0.000 OA
ATOM     29  O   UNL     1       3.046  34.917  78.843  0.00  0.00    +0.000 OA
ENDBRANCH   7  27
BRANCH   4  30
ATOM     30  C   UNL     1       7.082  37.945  79.638  0.00  0.00    +0.000 C 
BRANCH  30  31
ATOM     31  C   UNL     1       8.531  38.117  79.184  0.00  0.00    +0.000 C 
BRANCH  31  32
ATOM     32  C   UNL     1       9.330  39.033  80.112  0.00  0.00    +0.000 C 
ATOM     33  C   UNL     1       8.408  40.056  80.759  0.00  0.00    +0.000 C 
ENDBRANCH  31  32
ENDBRANCH  30  31
ENDBRANCH   4  30
TORSDOF 8
ENDMDL
MODEL 5
REMARK VINA RESULT:      -6.9      2.829      4.424
REMARK  Name = 
REMARK  9 active torsions:
REMARK  status: ('A' for Active; 'I' for Inactive)
REMARK    1  A    between atoms: C_2  and  C_5
REMARK    2  A    between atoms: C_10  and  C_11
REMARK    3  A    between atoms: C_14  and  C_16
REMARK    4  A    between atoms: C_14  and  C_18
REMARK    5  A    between atoms: C_15  and  C_19
REMARK    6  A    between atoms: C_18  and  C_23
REMARK    7  A    between atoms: C_20  and  C_26
REMARK    8  A    between atoms: C_23  and  C_27
REMARK    9  A    between atoms: C_27  and  C_32
REMARK                            x       y       z     vdW  Elec       q    Type
REMARK                         _______ _______ _______ _____ _____    ______ ____
ROOT
ATOM      1  C   UNL     1       6.522  32.461  80.649  0.00  0.00    +0.000 C 
ATOM      2  O   UNL     1       6.736  32.006  81.780  0.00  0.00    +0.000 OA
ATOM      3  N   UNL     1       6.021  31.624  79.647  0.00  0.00    +0.000 N 
ATOM      4  C   UNL     1       5.403  30.291  79.981  0.00  0.00    +0.000 C 
ATOM      5  C   UNL     1       5.681  31.997  78.253  0.00  0.00    +0.000 C 
ATOM      6  C   UNL     1       5.394  29.632  78.575  0.00  0.00    +0.000 C 
ATOM      7  C   UNL     1       5.021  30.762  77.620  0.00  0.00    +0.000 C 
ENDROOT
BRANCH   1  13
ATOM      8  C   UNL     1       7.912  36.386  79.506  0.00  0.00    +0.000 A 
ATOM      9  C   UNL     1       8.824  35.361  79.801  0.00  0.00    +0.000 A 
ATOM     10  C   UNL     1       6.550  36.145  79.712  0.00  0.00    +0.000 A 
ATOM     11  C   UNL     1       8.364  34.101  80.221  0.00  0.00    +0.000 A 
ATOM     12  C   UNL     1       6.102  34.918  80.208  0.00  0.00    +0.000 A 
ATOM     13  C   UNL     1       6.990  33.856  80.370  0.00  0.00    +0.000 A 
BRANCH   8  15
ATOM     14  F   UNL     1       7.323  38.616  78.813  0.00  0.00    +0.000 F 
ATOM     15  C   UNL     1       8.344  37.733  78.980  0.00  0.00    +0.000 C 
ATOM     16  F   UNL     1       8.954  37.636  77.763  0.00  0.00    +0.000 F 
ATOM     17  F   UNL     1       9.248  38.349  79.793  0.00  0.00    +0.000 F 
ENDBRANCH   8  15
ENDBRANCH   1  13
BRANCH   5  18
ATOM     18  C   UNL     1       6.798  32.634  77.458  0.00  0.00    +0.000 A 
ATOM     19  C   UNL     1       8.090  32.095  77.402  0.00  0.00    +0.000 A 
ATOM     20  C   UNL     1       6.548  33.854  76.795  0.00  0.00    +0.000 A 
ATOM     21  C   UNL     1       9.115  32.788  76.757  0.00  0.00    +0.000 A 
ATOM     22  C   UNL     1       7.571  34.534  76.139  0.00  0.00    +0.000 A 
ATOM     23  C   UNL     1       8.857  34.006  76.130  0.00  0.00    +0.000 A 
ENDBRANCH   5  18
BRANCH   4  24
ATOM     24  C   UNL     1       6.184  29.261  80.846  0.00  0.00    +0.000 C 
ATOM     25  O   UNL     1       5.678  28.636  81.771  0.00  0.00    +0.000 OA
ATOM     26  O   UNL     1       7.427  28.980  80.397  0.00  0.00    +0.000 OA
ENDBRANCH   4  24
BRANCH   7  27
ATOM     27  C   UNL     1       5.414  30.485  76.189  0.00  0.00    +0.000 C 
ATOM     28  O   UNL     1       4.919  31.030  75.216  0.00  0.00    +0.000 OA
ATOM     29  O   UNL     1       6.400  29.565  76.073  0.00  0.00    +0.000 OA
ENDBRANCH   7  27
BRANCH   4  30
ATOM     30  C   UNL     1       3.934  30.422  80.495  0.00  0.00    +0.000 C 
BRANCH  30  31
ATOM     31  C   UNL     1       3.495  31.850  80.819  0.00  0.00    +0.000 C 
BRANCH  31  32
ATOM     32  C   UNL     1       2.343  32.324  79.933  0.00  0.00    +0.000 C 
ATOM     33  C   UNL     1       2.629  33.722  79.405  0.00  0.00    +0.000 C 
ENDBRANCH  31  32
ENDBRANCH  30  31
ENDBRANCH   4  30
TORSDOF 8
ENDMDL
MODEL 6
REMARK VINA RESULT:      -6.8      2.162      3.233
REMARK  Name = 
REMARK  9 active torsions:
REMARK  status: ('A' for Active; 'I' for Inactive)
REMARK    1  A    between atoms: C_2  and  C_5
REMARK    2  A    between atoms: C_10  and  C_11
REMARK    3  A    between atoms: C_14  and  C_16
REMARK    4  A    between atoms: C_14  and  C_18
REMARK    5  A    between atoms: C_15  and  C_19
REMARK    6  A    between atoms: C_18  and  C_23
REMARK    7  A    between atoms: C_20  and  C_26
REMARK    8  A    between atoms: C_23  and  C_27
REMARK    9  A    between atoms: C_27  and  C_32
REMARK                            x       y       z     vdW  Elec       q    Type
REMARK                         _______ _______ _______ _____ _____    ______ ____
ROOT
ATOM      1  C   UNL     1       7.575  31.318  77.094  0.00  0.00    +0.000 C 
ATOM      2  O   UNL     1       7.388  30.377  76.314  0.00  0.00    +0.000 OA
ATOM      3  N   UNL     1       6.599  31.640  78.042  0.00  0.00    +0.000 N 
ATOM      4  C   UNL     1       5.495  30.674  78.382  0.00  0.00    +0.000 C 
ATOM      5  C   UNL     1       6.662  32.709  79.067  0.00  0.00    +0.000 C 
ATOM      6  C   UNL     1       4.517  31.625  79.125  0.00  0.00    +0.000 C 
ATOM      7  C   UNL     1       5.417  32.536  79.953  0.00  0.00    +0.000 C 
ENDROOT
BRANCH   1  13
ATOM      8  C   UNL     1      11.184  33.531  76.238  0.00  0.00    +0.000 A 
ATOM      9  C   UNL     1      11.100  32.708  77.371  0.00  0.00    +0.000 A 
ATOM     10  C   UNL     1      10.033  33.718  75.464  0.00  0.00    +0.000 A 
ATOM     11  C   UNL     1       9.905  32.031  77.670  0.00  0.00    +0.000 A 
ATOM     12  C   UNL     1       8.825  33.107  75.810  0.00  0.00    +0.000 A 
ATOM     13  C   UNL     1       8.775  32.183  76.853  0.00  0.00    +0.000 A 
BRANCH   8  15
ATOM     14  F   UNL     1      13.531  33.922  76.610  0.00  0.00    +0.000 F 
ATOM     15  C   UNL     1      12.461  34.223  75.826  0.00  0.00    +0.000 C 
ATOM     16  F   UNL     1      12.341  35.582  75.865  0.00  0.00    +0.000 F 
ATOM     17  F   UNL     1      12.831  33.925  74.549  0.00  0.00    +0.000 F 
ENDBRANCH   8  15
ENDBRANCH   1  13
BRANCH   5  18
ATOM     18  C   UNL     1       6.914  34.104  78.542  0.00  0.00    +0.000 A 
ATOM     19  C   UNL     1       6.163  34.667  77.501  0.00  0.00    +0.000 A 
ATOM     20  C   UNL     1       7.987  34.847  79.076  0.00  0.00    +0.000 A 
ATOM     21  C   UNL     1       6.516  35.908  76.970  0.00  0.00    +0.000 A 
ATOM     22  C   UNL     1       8.326  36.092  78.552  0.00  0.00    +0.000 A 
ATOM     23  C   UNL     1       7.597  36.617  77.491  0.00  0.00    +0.000 A 
ENDBRANCH   5  18
BRANCH   4  24
ATOM     24  C   UNL     1       4.607  30.071  77.255  0.00  0.00    +0.000 C 
ATOM     25  O   UNL     1       4.329  28.880  77.180  0.00  0.00    +0.000 OA
ATOM     26  O   UNL     1       4.025  30.987  76.450  0.00  0.00    +0.000 OA
ENDBRANCH   4  24
BRANCH   7  27
ATOM     27  C   UNL     1       4.742  33.819  80.371  0.00  0.00    +0.000 C 
ATOM     28  O   UNL     1       3.744  34.282  79.843  0.00  0.00    +0.000 OA
ATOM     29  O   UNL     1       5.345  34.425  81.420  0.00  0.00    +0.000 OA
ENDBRANCH   7  27
BRANCH   4  30
ATOM     30  C   UNL     1       5.960  29.550  79.361  0.00  0.00    +0.000 C 
BRANCH  30  31
ATOM     31  C   UNL     1       4.949  29.191  80.449  0.00  0.00    +0.000 C 
BRANCH  31  32
ATOM     32  C   UNL     1       5.091  27.746  80.927  0.00  0.00    +0.000 C 
ATOM     33  C   UNL     1       6.350  27.594  81.768  0.00  0.00    +0.000 C 
ENDBRANCH  31  32
ENDBRANCH  30  31
ENDBRANCH   4  30
TORSDOF 8
ENDMDL
MODEL 7
REMARK VINA RESULT:      -6.8      4.028      6.415
REMARK  Name = 
REMARK  9 active torsions:
REMARK  status: ('A' for Active; 'I' for Inactive)
REMARK    1  A    between atoms: C_2  and  C_5
REMARK    2  A    between atoms: C_10  and  C_11
REMARK    3  A    between atoms: C_14  and  C_16
REMARK    4  A    between atoms: C_14  and  C_18
REMARK    5  A    between atoms: C_15  and  C_19
REMARK    6  A    between atoms: C_18  and  C_23
REMARK    7  A    between atoms: C_20  and  C_26
REMARK    8  A    between atoms: C_23  and  C_27
REMARK    9  A    between atoms: C_27  and  C_32
REMARK                            x       y       z     vdW  Elec       q    Type
REMARK                         _______ _______ _______ _____ _____    ______ ____
ROOT
ATOM      1  C   UNL     1       5.950  35.990  78.379  0.00  0.00    +0.000 C 
ATOM      2  O   UNL     1       5.664  37.092  77.896  0.00  0.00    +0.000 OA
ATOM      3  N   UNL     1       6.755  35.919  79.521  0.00  0.00    +0.000 N 
ATOM      4  C   UNL     1       6.990  37.130  80.384  0.00  0.00    +0.000 C 
ATOM      5  C   UNL     1       7.174  34.697  80.248  0.00  0.00    +0.000 C 
ATOM      6  C   UNL     1       8.205  36.639  81.220  0.00  0.00    +0.000 C 
ATOM      7  C   UNL     1       7.904  35.173  81.514  0.00  0.00    +0.000 C 
ENDROOT
BRANCH   1  13
ATOM      8  C   UNL     1       5.107  32.321  76.263  0.00  0.00    +0.000 A 
ATOM      9  C   UNL     1       6.049  33.234  75.766  0.00  0.00    +0.000 A 
ATOM     10  C   UNL     1       4.358  32.683  77.388  0.00  0.00    +0.000 A 
ATOM     11  C   UNL     1       6.281  34.449  76.434  0.00  0.00    +0.000 A 
ATOM     12  C   UNL     1       4.534  33.925  78.001  0.00  0.00    +0.000 A 
ATOM     13  C   UNL     1       5.562  34.774  77.594  0.00  0.00    +0.000 A 
BRANCH   8  15
ATOM     14  F   UNL     1       5.924  30.117  75.737  0.00  0.00    +0.000 F 
ATOM     15  C   UNL     1       4.870  30.970  75.631  0.00  0.00    +0.000 C 
ATOM     16  F   UNL     1       4.604  31.070  74.296  0.00  0.00    +0.000 F 
ATOM     17  F   UNL     1       3.801  30.320  76.170  0.00  0.00    +0.000 F 
ENDBRANCH   8  15
ENDBRANCH   1  13
BRANCH   5  18
ATOM     18  C   UNL     1       7.894  33.658  79.418  0.00  0.00    +0.000 A 
ATOM     19  C   UNL     1       8.969  33.975  78.576  0.00  0.00    +0.000 A 
ATOM     20  C   UNL     1       7.428  32.328  79.442  0.00  0.00    +0.000 A 
ATOM     21  C   UNL     1       9.517  33.004  77.738  0.00  0.00    +0.000 A 
ATOM     22  C   UNL     1       7.988  31.358  78.614  0.00  0.00    +0.000 A 
ATOM     23  C   UNL     1       9.026  31.699  77.754  0.00  0.00    +0.000 A 
ENDBRANCH   5  18
BRANCH   4  24
ATOM     24  C   UNL     1       7.513  38.452  79.753  0.00  0.00    +0.000 C 
ATOM     25  O   UNL     1       6.848  39.480  79.692  0.00  0.00    +0.000 OA
ATOM     26  O   UNL     1       8.823  38.435  79.420  0.00  0.00    +0.000 OA
ENDBRANCH   4  24
BRANCH   7  27
ATOM     27  C   UNL     1       9.132  34.377  81.886  0.00  0.00    +0.000 C 
ATOM     28  O   UNL     1      10.278  34.709  81.629  0.00  0.00    +0.000 OA
ATOM     29  O   UNL     1       8.848  33.240  82.561  0.00  0.00    +0.000 OA
ENDBRANCH   7  27
BRANCH   4  30
ATOM     30  C   UNL     1       5.795  37.427  81.343  0.00  0.00    +0.000 C 
BRANCH  30  31
ATOM     31  C   UNL     1       6.187  38.061  82.677  0.00  0.00    +0.000 C 
BRANCH  31  32
ATOM     32  C   UNL     1       5.450  39.375  82.940  0.00  0.00    +0.000 C 
ATOM     33  C   UNL     1       6.450  40.506  83.135  0.00  0.00    +0.000 C 
ENDBRANCH  31  32
ENDBRANCH  30  31
ENDBRANCH   4  30
TORSDOF 8
ENDMDL
MODEL 8
REMARK VINA RESULT:      -6.8      3.933      6.200
REMARK  Name = 
REMARK  9 active torsions:
REMARK  status: ('A' for Active; 'I' for Inactive)
REMARK    1  A    between atoms: C_2  and  C_5
REMARK    2  A    between atoms: C_10  and  C_11
REMARK    3  A    between atoms: C_14  and  C_16
REMARK    4  A    between atoms: C_14  and  C_18
REMARK    5  A    between atoms: C_15  and  C_19
REMARK    6  A    between atoms: C_18  and  C_23
REMARK    7  A    between atoms: C_20  and  C_26
REMARK    8  A    between atoms: C_23  and  C_27
REMARK    9  A    between atoms: C_27  and  C_32
REMARK                            x       y       z     vdW  Elec       q    Type
REMARK                         _______ _______ _______ _____ _____    ______ ____
ROOT
ATOM      1  C   UNL     1       8.314  34.155  79.665  0.00  0.00    +0.000 C 
ATOM      2  O   UNL     1       9.312  34.677  80.178  0.00  0.00    +0.000 OA
ATOM      3  N   UNL     1       7.404  34.945  78.955  0.00  0.00    +0.000 N 
ATOM      4  C   UNL     1       7.771  36.331  78.492  0.00  0.00    +0.000 C 
ATOM      5  C   UNL     1       6.178  34.492  78.256  0.00  0.00    +0.000 C 
ATOM      6  C   UNL     1       6.361  36.886  78.148  0.00  0.00    +0.000 C 
ATOM      7  C   UNL     1       5.631  35.714  77.502  0.00  0.00    +0.000 C 
ENDROOT
BRANCH   1  13
ATOM      8  C   UNL     1       7.193  30.083  80.565  0.00  0.00    +0.000 A 
ATOM      9  C   UNL     1       7.140  31.076  81.555  0.00  0.00    +0.000 A 
ATOM     10  C   UNL     1       7.736  30.414  79.318  0.00  0.00    +0.000 A 
ATOM     11  C   UNL     1       7.555  32.388  81.267  0.00  0.00    +0.000 A 
ATOM     12  C   UNL     1       8.222  31.698  79.062  0.00  0.00    +0.000 A 
ATOM     13  C   UNL     1       8.045  32.719  79.995  0.00  0.00    +0.000 A 
BRANCH   8  15
ATOM     14  F   UNL     1       5.535  28.389  80.139  0.00  0.00    +0.000 F 
ATOM     15  C   UNL     1       6.692  28.678  80.794  0.00  0.00    +0.000 C 
ATOM     16  F   UNL     1       6.445  28.431  82.113  0.00  0.00    +0.000 F 
ATOM     17  F   UNL     1       7.592  27.731  80.407  0.00  0.00    +0.000 F 
ENDBRANCH   8  15
ENDBRANCH   1  13
BRANCH   5  18
ATOM     18  C   UNL     1       5.183  33.736  79.107  0.00  0.00    +0.000 A 
ATOM     19  C   UNL     1       4.756  34.197  80.359  0.00  0.00    +0.000 A 
ATOM     20  C   UNL     1       4.712  32.487  78.652  0.00  0.00    +0.000 A 
ATOM     21  C   UNL     1       3.933  33.402  81.159  0.00  0.00    +0.000 A 
ATOM     22  C   UNL     1       3.879  31.704  79.447  0.00  0.00    +0.000 A 
ATOM     23  C   UNL     1       3.499  32.157  80.706  0.00  0.00    +0.000 A 
ENDBRANCH   5  18
BRANCH   4  24
ATOM     24  C   UNL     1       8.320  37.375  79.506  0.00  0.00    +0.000 C 
ATOM     25  O   UNL     1       9.183  38.198  79.226  0.00  0.00    +0.000 OA
ATOM     26  O   UNL     1       7.654  37.418  80.682  0.00  0.00    +0.000 OA
ENDBRANCH   4  24
BRANCH   7  27
ATOM     27  C   UNL     1       4.129  35.863  77.524  0.00  0.00    +0.000 C 
ATOM     28  O   UNL     1       3.360  35.254  76.798  0.00  0.00    +0.000 OA
ATOM     29  O   UNL     1       3.693  36.745  78.453  0.00  0.00    +0.000 OA
ENDBRANCH   7  27
BRANCH   4  30
ATOM     30  C   UNL     1       8.647  36.321  77.201  0.00  0.00    +0.000 C 
BRANCH  30  31
ATOM     31  C   UNL     1       9.542  35.092  77.044  0.00  0.00    +0.000 C 
BRANCH  31  32
ATOM     32  C   UNL     1       9.034  34.132  75.968  0.00  0.00    +0.000 C 
ATOM     33  C   UNL     1       9.869  32.859  75.965  0.00  0.00    +0.000 C 
ENDBRANCH  31  32
ENDBRANCH  30  31
ENDBRANCH   4  30
TORSDOF 8
ENDMDL
MODEL 9
REMARK VINA RESULT:      -6.7      1.779      2.935
REMARK  Name = 
REMARK  9 active torsions:
REMARK  status: ('A' for Active; 'I' for Inactive)
REMARK    1  A    between atoms: C_2  and  C_5
REMARK    2  A    between atoms: C_10  and  C_11
REMARK    3  A    between atoms: C_14  and  C_16
REMARK    4  A    between atoms: C_14  and  C_18
REMARK    5  A    between atoms: C_15  and  C_19
REMARK    6  A    between atoms: C_18  and  C_23
REMARK    7  A    between atoms: C_20  and  C_26
REMARK    8  A    between atoms: C_23  and  C_27
REMARK    9  A    between atoms: C_27  and  C_32
REMARK                            x       y       z     vdW  Elec       q    Type
REMARK                         _______ _______ _______ _____ _____    ______ ____
ROOT
ATOM      1  C   UNL     1       5.752  31.156  79.331  0.00  0.00    +0.000 C 
ATOM      2  O   UNL     1       5.373  30.050  79.735  0.00  0.00    +0.000 OA
ATOM      3  N   UNL     1       4.915  32.268  79.463  0.00  0.00    +0.000 N 
ATOM      4  C   UNL     1       3.727  32.244  80.390  0.00  0.00    +0.000 C 
ATOM      5  C   UNL     1       5.210  33.665  79.066  0.00  0.00    +0.000 C 
ATOM      6  C   UNL     1       2.954  33.490  79.878  0.00  0.00    +0.000 C 
ATOM      7  C   UNL     1       4.037  34.520  79.574  0.00  0.00    +0.000 C 
ENDROOT
BRANCH   1  13
ATOM      8  C   UNL     1       9.298  31.561  76.901  0.00  0.00    +0.000 A 
ATOM      9  C   UNL     1       8.188  30.843  76.433  0.00  0.00    +0.000 A 
ATOM     10  C   UNL     1       9.279  32.034  78.217  0.00  0.00    +0.000 A 
ATOM     11  C   UNL     1       7.057  30.673  77.250  0.00  0.00    +0.000 A 
ATOM     12  C   UNL     1       8.187  31.793  79.054  0.00  0.00    +0.000 A 
ATOM     13  C   UNL     1       7.029  31.201  78.549  0.00  0.00    +0.000 A 
BRANCH   8  15
ATOM     14  F   UNL     1      11.637  32.117  76.750  0.00  0.00    +0.000 F 
ATOM     15  C   UNL     1      10.509  31.839  76.042  0.00  0.00    +0.000 C 
ATOM     16  F   UNL     1      10.315  32.908  75.216  0.00  0.00    +0.000 F 
ATOM     17  F   UNL     1      10.822  30.796  75.224  0.00  0.00    +0.000 F 
ENDBRANCH   8  15
ENDBRANCH   1  13
BRANCH   5  18
ATOM     18  C   UNL     1       5.596  33.864  77.617  0.00  0.00    +0.000 A 
ATOM     19  C   UNL     1       4.874  33.298  76.558  0.00  0.00    +0.000 A 
ATOM     20  C   UNL     1       6.765  34.594  77.321  0.00  0.00    +0.000 A 
ATOM     21  C   UNL     1       5.344  33.407  75.249  0.00  0.00    +0.000 A 
ATOM     22  C   UNL     1       7.222  34.713  76.011  0.00  0.00    +0.000 A 
ATOM     23  C   UNL     1       6.516  34.110  74.976  0.00  0.00    +0.000 A 
ENDBRANCH   5  18
BRANCH   4  24
ATOM     24  C   UNL     1       2.671  31.107  80.279  0.00  0.00    +0.000 C 
ATOM     25  O   UNL     1       2.135  30.785  79.225  0.00  0.00    +0.000 OA
ATOM     26  O   UNL     1       2.505  30.384  81.409  0.00  0.00    +0.000 OA
ENDBRANCH   4  24
BRANCH   7  27
ATOM     27  C   UNL     1       3.578  35.607  78.633  0.00  0.00    +0.000 C 
ATOM     28  O   UNL     1       2.690  35.479  77.806  0.00  0.00    +0.000 OA
ATOM     29  O   UNL     1       4.243  36.774  78.798  0.00  0.00    +0.000 OA
ENDBRANCH   7  27
BRANCH   4  30
ATOM     30  C   UNL     1       4.125  32.465  81.883  0.00  0.00    +0.000 C 
BRANCH  30  31
ATOM     31  C   UNL     1       5.615  32.301  82.179  0.00  0.00    +0.000 C 
BRANCH  31  32
ATOM     32  C   UNL     1       6.241  33.570  82.757  0.00  0.00    +0.000 C 
ATOM     33  C   UNL     1       7.425  34.006  81.906  0.00  0.00    +0.000 C 
ENDBRANCH  31  32
ENDBRANCH  30  31
ENDBRANCH   4  30
TORSDOF 8
ENDMDL
