MODEL 1
REMARK VINA RESULT:      -7.9      0.000      0.000
REMARK  Name = 
REMARK  9 active torsions:
REMARK  status: ('A' for Active; 'I' for Inactive)
REMARK    1  A    between atoms: C_7  and  C_8
REMARK    2  A    between atoms: C_10  and  C_13
REMARK    3  A    between atoms: C_11  and  C_16
REMARK    4  A    between atoms: C_12  and  C_17
REMARK    5  A    between atoms: C_12  and  C_18
REMARK    6  A    between atoms: C_18  and  C_25
REMARK    7  A    between atoms: C_25  and  C_28
REMARK    8  A    between atoms: C_25  and  C_29
REMARK    9  A    between atoms: C_30  and  C_31
REMARK                            x       y       z     vdW  Elec       q    Type
REMARK                         _______ _______ _______ _____ _____    ______ ____
ROOT
ATOM      1  C   UNL     1       7.476  32.664  79.065  0.00  0.00    +0.000 C 
ATOM      2  N   UNL     1       6.727  32.973  77.807  0.00  0.00    +0.000 N 
ATOM      3  C   UNL     1       6.461  31.853  79.882  0.00  0.00    +0.000 C 
ATOM      4  C   UNL     1       7.248  33.125  76.516  0.00  0.00    +0.000 C 
ATOM      5  C   UNL     1       5.252  32.989  78.061  0.00  0.00    +0.000 C 
ATOM      6  C   UNL     1       5.119  32.499  79.540  0.00  0.00    +0.000 C 
ATOM      7  O   UNL     1       6.498  33.388  75.572  0.00  0.00    +0.000 OA
ENDROOT
BRANCH   1  14
ATOM      8 CL   UNL     1       9.840  37.580  81.772  0.00  0.00    +0.000 Cl
ATOM      9  C   UNL     1       9.139  36.183  81.055  0.00  0.00    +0.000 A 
ATOM     10  C   UNL     1       7.876  36.258  80.484  0.00  0.00    +0.000 A 
ATOM     11  C   UNL     1       9.833  34.980  81.043  0.00  0.00    +0.000 A 
ATOM     12  C   UNL     1       7.323  35.137  79.855  0.00  0.00    +0.000 A 
ATOM     13  C   UNL     1       9.257  33.850  80.447  0.00  0.00    +0.000 A 
ATOM     14  C   UNL     1       8.010  33.916  79.785  0.00  0.00    +0.000 A 
ENDBRANCH   1  14
BRANCH   4  15
ATOM     15  C   UNL     1       8.695  33.004  76.196  0.00  0.00    +0.000 A 
ATOM     16  C   UNL     1       9.529  34.126  76.261  0.00  0.00    +0.000 A 
ATOM     17  C   UNL     1       9.277  31.765  75.973  0.00  0.00    +0.000 A 
ATOM     18  C   UNL     1      10.902  34.008  75.991  0.00  0.00    +0.000 A 
ATOM     19  C   UNL     1      10.618  31.646  75.618  0.00  0.00    +0.000 A 
ATOM     20  C   UNL     1      11.452  32.769  75.625  0.00  0.00    +0.000 A 
BRANCH  20  21
ATOM     21  C   UNL     1      12.911  32.595  75.277  0.00  0.00    +0.000 C 
ATOM     22  F   UNL     1      13.323  31.298  75.260  0.00  0.00    +0.000 F 
ATOM     23  F   UNL     1      13.212  33.103  74.049  0.00  0.00    +0.000 F 
ATOM     24  F   UNL     1      13.728  33.240  76.157  0.00  0.00    +0.000 F 
ENDBRANCH  20  21
ENDBRANCH   4  15
BRANCH   3  25
ATOM     25  C   UNL     1       6.855  31.733  81.344  0.00  0.00    +0.000 C 
ATOM     26  O   UNL     1       6.357  32.430  82.221  0.00  0.00    +0.000 OA
ATOM     27  O   UNL     1       7.868  30.890  81.616  0.00  0.00    +0.000 OA
ENDBRANCH   3  25
BRANCH   5  28
ATOM     28  C   UNL     1       4.703  34.447  77.936  0.00  0.00    +0.000 C 
ATOM     29  O   UNL     1       4.574  35.202  78.896  0.00  0.00    +0.000 OA
ATOM     30  O   UNL     1       4.268  34.808  76.711  0.00  0.00    +0.000 OA
ENDBRANCH   5  28
BRANCH   5  31
ATOM     31  C   UNL     1       4.319  32.160  77.126  0.00  0.00    +0.000 C 
BRANCH  31  32
ATOM     32  C   UNL     1       4.218  30.629  77.262  0.00  0.00    +0.000 C 
ATOM     33  C   UNL     1       2.862  30.180  76.691  0.00  0.00    +0.000 C 
ATOM     34  C   UNL     1       5.330  29.877  76.542  0.00  0.00    +0.000 C 
ENDBRANCH  31  32
ENDBRANCH   5  31
TORSDOF 7
ENDMDL
MODEL 2
REMARK VINA RESULT:      -7.9      0.797      1.153
REMARK  Name = 
REMARK  9 active torsions:
REMARK  status: ('A' for Active; 'I' for Inactive)
REMARK    1  A    between atoms: C_7  and  C_8
REMARK    2  A    between atoms: C_10  and  C_13
REMARK    3  A    between atoms: C_11  and  C_16
REMARK    4  A    between atoms: C_12  and  C_17
REMARK    5  A    between atoms: C_12  and  C_18
REMARK    6  A    between atoms: C_18  and  C_25
REMARK    7  A    between atoms: C_25  and  C_28
REMARK    8  A    between atoms: C_25  and  C_29
REMARK    9  A    between atoms: C_30  and  C_31
REMARK                            x       y       z     vdW  Elec       q    Type
REMARK                         _______ _______ _______ _____ _____    ______ ____
ROOT
ATOM      1  C   UNL     1       7.315  32.095  79.037  0.00  0.00    +0.000 C 
ATOM      2  N   UNL     1       6.542  32.486  77.816  0.00  0.00    +0.000 N 
ATOM      3  C   UNL     1       6.332  31.191  79.794  0.00  0.00    +0.000 C 
ATOM      4  C   UNL     1       7.044  32.760  76.538  0.00  0.00    +0.000 C 
ATOM      5  C   UNL     1       5.071  32.441  78.085  0.00  0.00    +0.000 C 
ATOM      6  C   UNL     1       4.969  31.826  79.519  0.00  0.00    +0.000 C 
ATOM      7  O   UNL     1       6.276  33.080  75.627  0.00  0.00    +0.000 OA
ENDROOT
BRANCH   1  14
ATOM      8 CL   UNL     1       9.466  36.941  82.031  0.00  0.00    +0.000 Cl
ATOM      9  C   UNL     1       8.859  35.543  81.236  0.00  0.00    +0.000 A 
ATOM     10  C   UNL     1       7.512  35.222  81.334  0.00  0.00    +0.000 A 
ATOM     11  C   UNL     1       9.710  34.735  80.495  0.00  0.00    +0.000 A 
ATOM     12  C   UNL     1       7.003  34.114  80.647  0.00  0.00    +0.000 A 
ATOM     13  C   UNL     1       9.203  33.603  79.842  0.00  0.00    +0.000 A 
ATOM     14  C   UNL     1       7.824  33.297  79.855  0.00  0.00    +0.000 A 
ENDBRANCH   1  14
BRANCH   4  15
ATOM     15  C   UNL     1       8.490  32.706  76.195  0.00  0.00    +0.000 A 
ATOM     16  C   UNL     1       9.239  33.885  76.106  0.00  0.00    +0.000 A 
ATOM     17  C   UNL     1       9.158  31.494  76.102  0.00  0.00    +0.000 A 
ATOM     18  C   UNL     1      10.611  33.835  75.814  0.00  0.00    +0.000 A 
ATOM     19  C   UNL     1      10.498  31.431  75.727  0.00  0.00    +0.000 A 
ATOM     20  C   UNL     1      11.245  32.603  75.580  0.00  0.00    +0.000 A 
BRANCH  20  21
ATOM     21  C   UNL     1      12.707  32.495  75.215  0.00  0.00    +0.000 C 
ATOM     22  F   UNL     1      13.529  33.233  76.011  0.00  0.00    +0.000 F 
ATOM     23  F   UNL     1      13.163  31.214  75.287  0.00  0.00    +0.000 F 
ATOM     24  F   UNL     1      12.948  32.905  73.939  0.00  0.00    +0.000 F 
ENDBRANCH  20  21
ENDBRANCH   4  15
BRANCH   3  25
ATOM     25  C   UNL     1       6.746  30.961  81.237  0.00  0.00    +0.000 C 
ATOM     26  O   UNL     1       7.877  30.607  81.549  0.00  0.00    +0.000 OA
ATOM     27  O   UNL     1       5.769  31.062  82.156  0.00  0.00    +0.000 OA
ENDBRANCH   3  25
BRANCH   5  28
ATOM     28  C   UNL     1       4.481  33.888  78.088  0.00  0.00    +0.000 C 
ATOM     29  O   UNL     1       5.175  34.898  78.172  0.00  0.00    +0.000 OA
ATOM     30  O   UNL     1       3.135  33.974  78.099  0.00  0.00    +0.000 OA
ENDBRANCH   5  28
BRANCH   5  31
ATOM     31  C   UNL     1       4.149  31.667  77.094  0.00  0.00    +0.000 C 
BRANCH  31  32
ATOM     32  C   UNL     1       3.387  30.405  77.540  0.00  0.00    +0.000 C 
ATOM     33  C   UNL     1       2.031  30.376  76.815  0.00  0.00    +0.000 C 
ATOM     34  C   UNL     1       4.130  29.107  77.248  0.00  0.00    +0.000 C 
ENDBRANCH  31  32
ENDBRANCH   5  31
TORSDOF 7
ENDMDL
MODEL 3
REMARK VINA RESULT:      -7.6      2.650      5.414
REMARK  Name = 
REMARK  9 active torsions:
REMARK  status: ('A' for Active; 'I' for Inactive)
REMARK    1  A    between atoms: C_7  and  C_8
REMARK    2  A    between atoms: C_10  and  C_13
REMARK    3  A    between atoms: C_11  and  C_16
REMARK    4  A    between atoms: C_12  and  C_17
REMARK    5  A    between atoms: C_12  and  C_18
REMARK    6  A    between atoms: C_18  and  C_25
REMARK    7  A    between atoms: C_25  and  C_28
REMARK    8  A    between atoms: C_25  and  C_29
REMARK    9  A    between atoms: C_30  and  C_31
REMARK                            x       y       z     vdW  Elec       q    Type
REMARK                         _______ _______ _______ _____ _____    ______ ____
ROOT
ATOM      1  C   UNL     1       6.292  34.706  78.228  0.00  0.00    +0.000 C 
ATOM      2  N   UNL     1       7.269  35.053  79.307  0.00  0.00    +0.000 N 
ATOM      3  C   UNL     1       5.283  35.860  78.290  0.00  0.00    +0.000 C 
ATOM      4  C   UNL     1       8.640  34.772  79.343  0.00  0.00    +0.000 C 
ATOM      5  C   UNL     1       6.615  35.890  80.362  0.00  0.00    +0.000 C 
ATOM      6  C   UNL     1       5.194  36.186  79.781  0.00  0.00    +0.000 C 
ATOM      7  O   UNL     1       9.319  35.118  80.313  0.00  0.00    +0.000 OA
ENDROOT
BRANCH   1  14
ATOM      8 CL   UNL     1       4.080  29.073  78.898  0.00  0.00    +0.000 Cl
ATOM      9  C   UNL     1       4.657  30.677  78.677  0.00  0.00    +0.000 A 
ATOM     10  C   UNL     1       4.129  31.713  79.435  0.00  0.00    +0.000 A 
ATOM     11  C   UNL     1       5.652  30.940  77.744  0.00  0.00    +0.000 A 
ATOM     12  C   UNL     1       4.632  33.012  79.294  0.00  0.00    +0.000 A 
ATOM     13  C   UNL     1       6.123  32.249  77.578  0.00  0.00    +0.000 A 
ATOM     14  C   UNL     1       5.665  33.310  78.392  0.00  0.00    +0.000 A 
ENDBRANCH   1  14
BRANCH   4  15
ATOM     15  C   UNL     1       9.357  34.043  78.263  0.00  0.00    +0.000 A 
ATOM     16  C   UNL     1       9.775  34.720  77.111  0.00  0.00    +0.000 A 
ATOM     17  C   UNL     1       9.756  32.725  78.432  0.00  0.00    +0.000 A 
ATOM     18  C   UNL     1      10.480  34.042  76.104  0.00  0.00    +0.000 A 
ATOM     19  C   UNL     1      10.379  32.019  77.406  0.00  0.00    +0.000 A 
ATOM     20  C   UNL     1      10.752  32.669  76.226  0.00  0.00    +0.000 A 
BRANCH  20  21
ATOM     21  C   UNL     1      11.464  31.881  75.153  0.00  0.00    +0.000 C 
ATOM     22  F   UNL     1      10.864  30.698  74.849  0.00  0.00    +0.000 F 
ATOM     23  F   UNL     1      11.554  32.570  73.981  0.00  0.00    +0.000 F 
ATOM     24  F   UNL     1      12.745  31.577  75.505  0.00  0.00    +0.000 F 
ENDBRANCH  20  21
ENDBRANCH   4  15
BRANCH   3  25
ATOM     25  C   UNL     1       3.999  35.551  77.539  0.00  0.00    +0.000 C 
ATOM     26  O   UNL     1       3.994  35.121  76.392  0.00  0.00    +0.000 OA
ATOM     27  O   UNL     1       2.854  35.879  78.165  0.00  0.00    +0.000 OA
ENDBRANCH   3  25
BRANCH   5  28
ATOM     28  C   UNL     1       6.483  35.073  81.688  0.00  0.00    +0.000 C 
ATOM     29  O   UNL     1       6.606  33.852  81.742  0.00  0.00    +0.000 OA
ATOM     30  O   UNL     1       6.117  35.778  82.778  0.00  0.00    +0.000 OA
ENDBRANCH   5  28
BRANCH   5  31
ATOM     31  C   UNL     1       7.309  37.212  80.810  0.00  0.00    +0.000 C 
BRANCH  31  32
ATOM     32  C   UNL     1       7.539  38.363  79.812  0.00  0.00    +0.000 C 
ATOM     33  C   UNL     1       7.128  39.682  80.490  0.00  0.00    +0.000 C 
ATOM     34  C   UNL     1       8.983  38.481  79.338  0.00  0.00    +0.000 C 
ENDBRANCH  31  32
ENDBRANCH   5  31
TORSDOF 7
ENDMDL
MODEL 4
REMARK VINA RESULT:      -7.6      2.550      5.444
REMARK  Name = 
REMARK  9 active torsions:
REMARK  status: ('A' for Active; 'I' for Inactive)
REMARK    1  A    between atoms: C_7  and  C_8
REMARK    2  A    between atoms: C_10  and  C_13
REMARK    3  A    between atoms: C_11  and  C_16
REMARK    4  A    between atoms: C_12  and  C_17
REMARK    5  A    between atoms: C_12  and  C_18
REMARK    6  A    between atoms: C_18  and  C_25
REMARK    7  A    between atoms: C_25  and  C_28
REMARK    8  A    between atoms: C_25  and  C_29
REMARK    9  A    between atoms: C_30  and  C_31
REMARK                            x       y       z     vdW  Elec       q    Type
REMARK                         _______ _______ _______ _____ _____    ______ ____
ROOT
ATOM      1  C   UNL     1       6.937  34.308  77.640  0.00  0.00    +0.000 C 
ATOM      2  N   UNL     1       7.957  34.457  78.726  0.00  0.00    +0.000 N 
ATOM      3  C   UNL     1       5.942  35.436  77.942  0.00  0.00    +0.000 C 
ATOM      4  C   UNL     1       9.325  34.169  78.659  0.00  0.00    +0.000 C 
ATOM      5  C   UNL     1       7.350  35.096  79.935  0.00  0.00    +0.000 C 
ATOM      6  C   UNL     1       5.911  35.495  79.469  0.00  0.00    +0.000 C 
ATOM      7  O   UNL     1      10.042  34.338  79.649  0.00  0.00    +0.000 OA
ENDROOT
BRANCH   1  14
ATOM      8 CL   UNL     1       4.168  28.889  77.428  0.00  0.00    +0.000 Cl
ATOM      9  C   UNL     1       4.997  30.393  77.512  0.00  0.00    +0.000 A 
ATOM     10  C   UNL     1       5.965  30.704  76.566  0.00  0.00    +0.000 A 
ATOM     11  C   UNL     1       4.700  31.300  78.521  0.00  0.00    +0.000 A 
ATOM     12  C   UNL     1       6.606  31.947  76.601  0.00  0.00    +0.000 A 
ATOM     13  C   UNL     1       5.374  32.527  78.574  0.00  0.00    +0.000 A 
ATOM     14  C   UNL     1       6.303  32.906  77.579  0.00  0.00    +0.000 A 
ENDBRANCH   1  14
BRANCH   4  15
ATOM     15  C   UNL     1       9.994  33.640  77.442  0.00  0.00    +0.000 A 
ATOM     16  C   UNL     1      10.041  32.262  77.203  0.00  0.00    +0.000 A 
ATOM     17  C   UNL     1      10.453  34.494  76.450  0.00  0.00    +0.000 A 
ATOM     18  C   UNL     1      10.644  31.761  76.039  0.00  0.00    +0.000 A 
ATOM     19  C   UNL     1      11.130  34.011  75.332  0.00  0.00    +0.000 A 
ATOM     20  C   UNL     1      11.233  32.635  75.110  0.00  0.00    +0.000 A 
BRANCH  20  21
ATOM     21  C   UNL     1      11.936  32.148  73.866  0.00  0.00    +0.000 C 
ATOM     22  F   UNL     1      13.102  31.491  74.114  0.00  0.00    +0.000 F 
ATOM     23  F   UNL     1      11.166  31.289  73.140  0.00  0.00    +0.000 F 
ATOM     24  F   UNL     1      12.251  33.170  73.021  0.00  0.00    +0.000 F 
ENDBRANCH  20  21
ENDBRANCH   4  15
BRANCH   3  25
ATOM     25  C   UNL     1       4.629  35.268  77.198  0.00  0.00    +0.000 C 
ATOM     26  O   UNL     1       4.559  34.735  76.097  0.00  0.00    +0.000 OA
ATOM     27  O   UNL     1       3.550  35.837  77.766  0.00  0.00    +0.000 OA
ENDBRANCH   3  25
BRANCH   5  28
ATOM     28  C   UNL     1       7.259  34.059  81.101  0.00  0.00    +0.000 C 
ATOM     29  O   UNL     1       7.394  32.849  80.938  0.00  0.00    +0.000 OA
ATOM     30  O   UNL     1       6.912  34.558  82.306  0.00  0.00    +0.000 OA
ENDBRANCH   5  28
BRANCH   5  31
ATOM     31  C   UNL     1       8.072  36.318  80.582  0.00  0.00    +0.000 C 
BRANCH  31  32
ATOM     32  C   UNL     1       8.003  37.713  79.933  0.00  0.00    +0.000 C 
ATOM     33  C   UNL     1       8.568  38.739  80.931  0.00  0.00    +0.000 C 
ATOM     34  C   UNL     1       8.779  37.818  78.626  0.00  0.00    +0.000 C 
ENDBRANCH  31  32
ENDBRANCH   5  31
TORSDOF 7
ENDMDL
MODEL 5
REMARK VINA RESULT:      -7.3      3.998      5.904
REMARK  Name = 
REMARK  9 active torsions:
REMARK  status: ('A' for Active; 'I' for Inactive)
REMARK    1  A    between atoms: C_7  and  C_8
REMARK    2  A    between atoms: C_10  and  C_13
REMARK    3  A    between atoms: C_11  and  C_16
REMARK    4  A    between atoms: C_12  and  C_17
REMARK    5  A    between atoms: C_12  and  C_18
REMARK    6  A    between atoms: C_18  and  C_25
REMARK    7  A    between atoms: C_25  and  C_28
REMARK    8  A    between atoms: C_25  and  C_29
REMARK    9  A    between atoms: C_30  and  C_31
REMARK                            x       y       z     vdW  Elec       q    Type
REMARK                         _______ _______ _______ _____ _____    ______ ____
ROOT
ATOM      1  C   UNL     1       7.518  33.056  79.342  0.00  0.00    +0.000 C 
ATOM      2  N   UNL     1       7.543  33.379  77.880  0.00  0.00    +0.000 N 
ATOM      3  C   UNL     1       8.296  31.735  79.417  0.00  0.00    +0.000 C 
ATOM      4  C   UNL     1       7.558  34.645  77.284  0.00  0.00    +0.000 C 
ATOM      5  C   UNL     1       7.677  32.130  77.066  0.00  0.00    +0.000 C 
ATOM      6  C   UNL     1       7.906  31.008  78.131  0.00  0.00    +0.000 C 
ATOM      7  O   UNL     1       7.570  34.752  76.055  0.00  0.00    +0.000 OA
ENDROOT
BRANCH   1  14
ATOM      8 CL   UNL     1       1.892  33.073  81.670  0.00  0.00    +0.000 Cl
ATOM      9  C   UNL     1       3.491  33.018  81.041  0.00  0.00    +0.000 A 
ATOM     10  C   UNL     1       3.788  32.176  79.978  0.00  0.00    +0.000 A 
ATOM     11  C   UNL     1       4.487  33.814  81.592  0.00  0.00    +0.000 A 
ATOM     12  C   UNL     1       5.076  32.166  79.430  0.00  0.00    +0.000 A 
ATOM     13  C   UNL     1       5.785  33.770  81.066  0.00  0.00    +0.000 A 
ATOM     14  C   UNL     1       6.098  32.986  79.932  0.00  0.00    +0.000 A 
ENDBRANCH   1  14
BRANCH   4  15
ATOM     15  C   UNL     1       7.542  35.916  78.057  0.00  0.00    +0.000 A 
ATOM     16  C   UNL     1       8.699  36.697  78.156  0.00  0.00    +0.000 A 
ATOM     17  C   UNL     1       6.358  36.428  78.567  0.00  0.00    +0.000 A 
ATOM     18  C   UNL     1       8.679  37.913  78.857  0.00  0.00    +0.000 A 
ATOM     19  C   UNL     1       6.342  37.588  79.337  0.00  0.00    +0.000 A 
ATOM     20  C   UNL     1       7.505  38.350  79.491  0.00  0.00    +0.000 A 
BRANCH  20  21
ATOM     21  C   UNL     1       7.440  39.624  80.298  0.00  0.00    +0.000 C 
ATOM     22  F   UNL     1       6.665  40.592  79.737  0.00  0.00    +0.000 F 
ATOM     23  F   UNL     1       6.939  39.418  81.548  0.00  0.00    +0.000 F 
ATOM     24  F   UNL     1       8.670  40.181  80.477  0.00  0.00    +0.000 F 
ENDBRANCH  20  21
ENDBRANCH   4  15
BRANCH   3  25
ATOM     25  C   UNL     1       8.098  31.019  80.742  0.00  0.00    +0.000 C 
ATOM     26  O   UNL     1       8.551  31.447  81.797  0.00  0.00    +0.000 OA
ATOM     27  O   UNL     1       7.486  29.822  80.682  0.00  0.00    +0.000 OA
ENDBRANCH   3  25
BRANCH   5  28
ATOM     28  C   UNL     1       6.351  31.855  76.286  0.00  0.00    +0.000 C 
ATOM     29  O   UNL     1       5.538  32.733  76.008  0.00  0.00    +0.000 OA
ATOM     30  O   UNL     1       6.086  30.559  76.016  0.00  0.00    +0.000 OA
ENDBRANCH   5  28
BRANCH   5  31
ATOM     31  C   UNL     1       8.776  32.067  75.962  0.00  0.00    +0.000 C 
BRANCH  31  32
ATOM     32  C   UNL     1      10.258  31.862  76.330  0.00  0.00    +0.000 C 
ATOM     33  C   UNL     1      11.018  31.435  75.062  0.00  0.00    +0.000 C 
ATOM     34  C   UNL     1      10.922  33.106  76.908  0.00  0.00    +0.000 C 
ENDBRANCH  31  32
ENDBRANCH   5  31
TORSDOF 7
ENDMDL
MODEL 6
REMARK VINA RESULT:      -7.3      3.434      5.931
REMARK  Name = 
REMARK  9 active torsions:
REMARK  status: ('A' for Active; 'I' for Inactive)
REMARK    1  A    between atoms: C_7  and  C_8
REMARK    2  A    between atoms: C_10  and  C_13
REMARK    3  A    between atoms: C_11  and  C_16
REMARK    4  A    between atoms: C_12  and  C_17
REMARK    5  A    between atoms: C_12  and  C_18
REMARK    6  A    between atoms: C_18  and  C_25
REMARK    7  A    between atoms: C_25  and  C_28
REMARK    8  A    between atoms: C_25  and  C_29
REMARK    9  A    between atoms: C_30  and  C_31
REMARK                            x       y       z     vdW  Elec       q    Type
REMARK                         _______ _______ _______ _____ _____    ______ ____
ROOT
ATOM      1  C   UNL     1       6.214  33.674  77.304  0.00  0.00    +0.000 C 
ATOM      2  N   UNL     1       5.831  33.237  78.683  0.00  0.00    +0.000 N 
ATOM      3  C   UNL     1       5.072  33.127  76.437  0.00  0.00    +0.000 C 
ATOM      4  C   UNL     1       6.094  33.891  79.892  0.00  0.00    +0.000 C 
ATOM      5  C   UNL     1       4.981  32.006  78.629  0.00  0.00    +0.000 C 
ATOM      6  C   UNL     1       4.715  31.798  77.103  0.00  0.00    +0.000 C 
ATOM      7  O   UNL     1       5.717  33.398  80.959  0.00  0.00    +0.000 OA
ENDROOT
BRANCH   1  14
ATOM      8 CL   UNL     1      11.864  31.939  75.838  0.00  0.00    +0.000 Cl
ATOM      9  C   UNL     1      10.254  32.427  76.195  0.00  0.00    +0.000 A 
ATOM     10  C   UNL     1       9.236  31.485  76.221  0.00  0.00    +0.000 A 
ATOM     11  C   UNL     1       9.970  33.761  76.459  0.00  0.00    +0.000 A 
ATOM     12  C   UNL     1       7.933  31.869  76.561  0.00  0.00    +0.000 A 
ATOM     13  C   UNL     1       8.657  34.147  76.759  0.00  0.00    +0.000 A 
ATOM     14  C   UNL     1       7.615  33.200  76.875  0.00  0.00    +0.000 A 
ENDBRANCH   1  14
BRANCH   4  15
ATOM     15  C   UNL     1       6.837  35.176  79.985  0.00  0.00    +0.000 A 
ATOM     16  C   UNL     1       6.172  36.392  79.790  0.00  0.00    +0.000 A 
ATOM     17  C   UNL     1       8.157  35.210  80.409  0.00  0.00    +0.000 A 
ATOM     18  C   UNL     1       6.863  37.608  79.909  0.00  0.00    +0.000 A 
ATOM     19  C   UNL     1       8.876  36.402  80.446  0.00  0.00    +0.000 A 
ATOM     20  C   UNL     1       8.237  37.621  80.199  0.00  0.00    +0.000 A 
BRANCH  20  21
ATOM     21  C   UNL     1       9.039  38.897  80.291  0.00  0.00    +0.000 C 
ATOM     22  F   UNL     1       9.774  39.166  79.178  0.00  0.00    +0.000 F 
ATOM     23  F   UNL     1       8.250  39.988  80.496  0.00  0.00    +0.000 F 
ATOM     24  F   UNL     1       9.921  38.875  81.330  0.00  0.00    +0.000 F 
ENDBRANCH  20  21
ENDBRANCH   4  15
BRANCH   3  25
ATOM     25  C   UNL     1       5.414  33.127  74.957  0.00  0.00    +0.000 C 
ATOM     26  O   UNL     1       5.824  34.124  74.376  0.00  0.00    +0.000 OA
ATOM     27  O   UNL     1       5.139  31.993  74.287  0.00  0.00    +0.000 OA
ENDBRANCH   3  25
BRANCH   5  28
ATOM     28  C   UNL     1       5.770  30.784  79.199  0.00  0.00    +0.000 C 
ATOM     29  O   UNL     1       6.969  30.820  79.463  0.00  0.00    +0.000 OA
ATOM     30  O   UNL     1       5.078  29.629  79.292  0.00  0.00    +0.000 OA
ENDBRANCH   5  28
BRANCH   5  31
ATOM     31  C   UNL     1       3.639  31.984  79.424  0.00  0.00    +0.000 C 
BRANCH  31  32
ATOM     32  C   UNL     1       2.418  32.790  78.941  0.00  0.00    +0.000 C 
ATOM     33  C   UNL     1       1.165  31.913  79.101  0.00  0.00    +0.000 C 
ATOM     34  C   UNL     1       2.208  34.094  79.700  0.00  0.00    +0.000 C 
ENDBRANCH  31  32
ENDBRANCH   5  31
TORSDOF 7
ENDMDL
MODEL 7
REMARK VINA RESULT:      -7.2      1.513      2.286
REMARK  Name = 
REMARK  9 active torsions:
REMARK  status: ('A' for Active; 'I' for Inactive)
REMARK    1  A    between atoms: C_7  and  C_8
REMARK    2  A    between atoms: C_10  and  C_13
REMARK    3  A    between atoms: C_11  and  C_16
REMARK    4  A    between atoms: C_12  and  C_17
REMARK    5  A    between atoms: C_12  and  C_18
REMARK    6  A    between atoms: C_18  and  C_25
REMARK    7  A    between atoms: C_25  and  C_28
REMARK    8  A    between atoms: C_25  and  C_29
REMARK    9  A    between atoms: C_30  and  C_31
REMARK                            x       y       z     vdW  Elec       q    Type
REMARK                         _______ _______ _______ _____ _____    ______ ____
ROOT
ATOM      1  C   UNL     1       6.617  33.823  79.322  0.00  0.00    +0.000 C 
ATOM      2  N   UNL     1       5.816  33.660  78.068  0.00  0.00    +0.000 N 
ATOM      3  C   UNL     1       5.650  33.350  80.415  0.00  0.00    +0.000 C 
ATOM      4  C   UNL     1       6.286  33.347  76.788  0.00  0.00    +0.000 C 
ATOM      5  C   UNL     1       4.352  33.756  78.362  0.00  0.00    +0.000 C 
ATOM      6  C   UNL     1       4.283  33.823  79.922  0.00  0.00    +0.000 C 
ATOM      7  O   UNL     1       5.497  33.252  75.844  0.00  0.00    +0.000 OA
ENDROOT
BRANCH   1  14
ATOM      8 CL   UNL     1       8.546  39.505  80.359  0.00  0.00    +0.000 Cl
ATOM      9  C   UNL     1       8.014  37.908  80.009  0.00  0.00    +0.000 A 
ATOM     10  C   UNL     1       8.944  36.891  79.839  0.00  0.00    +0.000 A 
ATOM     11  C   UNL     1       6.658  37.631  79.899  0.00  0.00    +0.000 A 
ATOM     12  C   UNL     1       8.514  35.580  79.605  0.00  0.00    +0.000 A 
ATOM     13  C   UNL     1       6.234  36.324  79.624  0.00  0.00    +0.000 A 
ATOM     14  C   UNL     1       7.151  35.253  79.528  0.00  0.00    +0.000 A 
ENDBRANCH   1  14
BRANCH   4  15
ATOM     15  C   UNL     1       7.722  33.128  76.471  0.00  0.00    +0.000 A 
ATOM     16  C   UNL     1       8.238  31.830  76.387  0.00  0.00    +0.000 A 
ATOM     17  C   UNL     1       8.543  34.186  76.109  0.00  0.00    +0.000 A 
ATOM     18  C   UNL     1       9.586  31.620  76.057  0.00  0.00    +0.000 A 
ATOM     19  C   UNL     1       9.902  33.999  75.864  0.00  0.00    +0.000 A 
ATOM     20  C   UNL     1      10.443  32.710  75.832  0.00  0.00    +0.000 A 
BRANCH  20  21
ATOM     21  C   UNL     1      11.911  32.543  75.521  0.00  0.00    +0.000 C 
ATOM     22  F   UNL     1      12.274  33.029  74.303  0.00  0.00    +0.000 F 
ATOM     23  F   UNL     1      12.705  33.172  76.431  0.00  0.00    +0.000 F 
ATOM     24  F   UNL     1      12.292  31.235  75.535  0.00  0.00    +0.000 F 
ENDBRANCH  20  21
ENDBRANCH   4  15
BRANCH   3  25
ATOM     25  C   UNL     1       6.100  33.760  81.807  0.00  0.00    +0.000 C 
ATOM     26  O   UNL     1       7.117  33.318  82.328  0.00  0.00    +0.000 OA
ATOM     27  O   UNL     1       5.260  34.560  82.488  0.00  0.00    +0.000 OA
ENDBRANCH   3  25
BRANCH   5  28
ATOM     28  C   UNL     1       3.768  35.071  77.751  0.00  0.00    +0.000 C 
ATOM     29  O   UNL     1       4.414  35.820  77.023  0.00  0.00    +0.000 OA
ATOM     30  O   UNL     1       2.524  35.405  78.154  0.00  0.00    +0.000 OA
ENDBRANCH   5  28
BRANCH   5  31
ATOM     31  C   UNL     1       3.402  32.643  77.822  0.00  0.00    +0.000 C 
BRANCH  31  32
ATOM     32  C   UNL     1       2.793  31.592  78.769  0.00  0.00    +0.000 C 
ATOM     33  C   UNL     1       1.296  31.903  78.940  0.00  0.00    +0.000 C 
ATOM     34  C   UNL     1       2.946  30.160  78.272  0.00  0.00    +0.000 C 
ENDBRANCH  31  32
ENDBRANCH   5  31
TORSDOF 7
ENDMDL
MODEL 8
REMARK VINA RESULT:      -7.1      1.737      2.348
REMARK  Name = 
REMARK  9 active torsions:
REMARK  status: ('A' for Active; 'I' for Inactive)
REMARK    1  A    between atoms: C_7  and  C_8
REMARK    2  A    between atoms: C_10  and  C_13
REMARK    3  A    between atoms: C_11  and  C_16
REMARK    4  A    between atoms: C_12  and  C_17
REMARK    5  A    between atoms: C_12  and  C_18
REMARK    6  A    between atoms: C_18  and  C_25
REMARK    7  A    between atoms: C_25  and  C_28
REMARK    8  A    between atoms: C_25  and  C_29
REMARK    9  A    between atoms: C_30  and  C_31
REMARK                            x       y       z     vdW  Elec       q    Type
REMARK                         _______ _______ _______ _____ _____    ______ ____
ROOT
ATOM      1  C   UNL     1       7.886  32.987  79.600  0.00  0.00    +0.000 C 
ATOM      2  N   UNL     1       7.088  32.262  78.562  0.00  0.00    +0.000 N 
ATOM      3  C   UNL     1       7.510  32.259  80.897  0.00  0.00    +0.000 C 
ATOM      4  C   UNL     1       7.427  32.042  77.222  0.00  0.00    +0.000 C 
ATOM      5  C   UNL     1       5.863  31.653  79.169  0.00  0.00    +0.000 C 
ATOM      6  C   UNL     1       6.036  31.905  80.702  0.00  0.00    +0.000 C 
ATOM      7  O   UNL     1       6.656  31.427  76.480  0.00  0.00    +0.000 OA
ENDROOT
BRANCH   1  14
ATOM      8 CL   UNL     1       7.021  39.014  79.481  0.00  0.00    +0.000 Cl
ATOM      9  C   UNL     1       7.257  37.313  79.573  0.00  0.00    +0.000 A 
ATOM     10  C   UNL     1       6.162  36.467  79.681  0.00  0.00    +0.000 A 
ATOM     11  C   UNL     1       8.540  36.782  79.537  0.00  0.00    +0.000 A 
ATOM     12  C   UNL     1       6.346  35.080  79.705  0.00  0.00    +0.000 A 
ATOM     13  C   UNL     1       8.721  35.394  79.602  0.00  0.00    +0.000 A 
ATOM     14  C   UNL     1       7.623  34.504  79.628  0.00  0.00    +0.000 A 
ENDBRANCH   1  14
BRANCH   4  15
ATOM     15  C   UNL     1       8.688  32.530  76.603  0.00  0.00    +0.000 A 
ATOM     16  C   UNL     1       9.701  31.627  76.259  0.00  0.00    +0.000 A 
ATOM     17  C   UNL     1       8.831  33.855  76.220  0.00  0.00    +0.000 A 
ATOM     18  C   UNL     1      10.880  32.081  75.646  0.00  0.00    +0.000 A 
ATOM     19  C   UNL     1      10.028  34.332  75.691  0.00  0.00    +0.000 A 
ATOM     20  C   UNL     1      11.070  33.449  75.393  0.00  0.00    +0.000 A 
BRANCH  20  21
ATOM     21  C   UNL     1      12.337  33.996  74.780  0.00  0.00    +0.000 C 
ATOM     22  F   UNL     1      12.641  35.261  75.181  0.00  0.00    +0.000 F 
ATOM     23  F   UNL     1      13.425  33.234  75.079  0.00  0.00    +0.000 F 
ATOM     24  F   UNL     1      12.272  34.037  73.420  0.00  0.00    +0.000 F 
ENDBRANCH  20  21
ENDBRANCH   4  15
BRANCH   3  25
ATOM     25  C   UNL     1       7.909  33.039  82.138  0.00  0.00    +0.000 C 
ATOM     26  O   UNL     1       9.076  33.163  82.492  0.00  0.00    +0.000 OA
ATOM     27  O   UNL     1       6.898  33.501  82.897  0.00  0.00    +0.000 OA
ENDBRANCH   3  25
BRANCH   5  28
ATOM     28  C   UNL     1       4.586  32.391  78.653  0.00  0.00    +0.000 C 
ATOM     29  O   UNL     1       4.379  32.630  77.466  0.00  0.00    +0.000 OA
ATOM     30  O   UNL     1       3.751  32.858  79.605  0.00  0.00    +0.000 OA
ENDBRANCH   5  28
BRANCH   5  31
ATOM     31  C   UNL     1       5.557  30.149  78.895  0.00  0.00    +0.000 C 
BRANCH  31  32
ATOM     32  C   UNL     1       4.134  29.585  79.071  0.00  0.00    +0.000 C 
ATOM     33  C   UNL     1       3.691  28.962  77.736  0.00  0.00    +0.000 C 
ATOM     34  C   UNL     1       4.026  28.531  80.166  0.00  0.00    +0.000 C 
ENDBRANCH  31  32
ENDBRANCH   5  31
TORSDOF 7
ENDMDL
MODEL 9
REMARK VINA RESULT:      -6.8      2.584      5.628
REMARK  Name = 
REMARK  9 active torsions:
REMARK  status: ('A' for Active; 'I' for Inactive)
REMARK    1  A    between atoms: C_7  and  C_8
REMARK    2  A    between atoms: C_10  and  C_13
REMARK    3  A    between atoms: C_11  and  C_16
REMARK    4  A    between atoms: C_12  and  C_17
REMARK    5  A    between atoms: C_12  and  C_18
REMARK    6  A    between atoms: C_18  and  C_25
REMARK    7  A    between atoms: C_25  and  C_28
REMARK    8  A    between atoms: C_25  and  C_29
REMARK    9  A    between atoms: C_30  and  C_31
REMARK                            x       y       z     vdW  Elec       q    Type
REMARK                         _______ _______ _______ _____ _____    ______ ____
ROOT
ATOM      1  C   UNL     1       6.395  34.554  78.887  0.00  0.00    +0.000 C 
ATOM      2  N   UNL     1       7.170  34.130  80.095  0.00  0.00    +0.000 N 
ATOM      3  C   UNL     1       5.707  35.844  79.352  0.00  0.00    +0.000 C 
ATOM      4  C   UNL     1       8.390  33.445  80.132  0.00  0.00    +0.000 C 
ATOM      5  C   UNL     1       6.526  34.648  81.343  0.00  0.00    +0.000 C 
ATOM      6  C   UNL     1       5.380  35.574  80.821  0.00  0.00    +0.000 C 
ATOM      7  O   UNL     1       8.907  33.157  81.215  0.00  0.00    +0.000 OA
ENDROOT
BRANCH   1  14
ATOM      8 CL   UNL     1       2.797  30.109  76.795  0.00  0.00    +0.000 Cl
ATOM      9  C   UNL     1       3.775  31.404  77.365  0.00  0.00    +0.000 A 
ATOM     10  C   UNL     1       3.429  32.070  78.532  0.00  0.00    +0.000 A 
ATOM     11  C   UNL     1       4.911  31.783  76.662  0.00  0.00    +0.000 A 
ATOM     12  C   UNL     1       4.249  33.091  79.026  0.00  0.00    +0.000 A 
ATOM     13  C   UNL     1       5.707  32.832  77.140  0.00  0.00    +0.000 A 
ATOM     14  C   UNL     1       5.427  33.474  78.367  0.00  0.00    +0.000 A 
ENDBRANCH   1  14
BRANCH   4  15
ATOM     15  C   UNL     1       9.125  33.011  78.914  0.00  0.00    +0.000 A 
ATOM     16  C   UNL     1       8.765  31.830  78.256  0.00  0.00    +0.000 A 
ATOM     17  C   UNL     1      10.074  33.831  78.321  0.00  0.00    +0.000 A 
ATOM     18  C   UNL     1       9.436  31.434  77.087  0.00  0.00    +0.000 A 
ATOM     19  C   UNL     1      10.805  33.410  77.213  0.00  0.00    +0.000 A 
ATOM     20  C   UNL     1      10.494  32.204  76.578  0.00  0.00    +0.000 A 
BRANCH  20  21
ATOM     21  C   UNL     1      11.280  31.801  75.353  0.00  0.00    +0.000 C 
ATOM     22  F   UNL     1      12.617  31.678  75.574  0.00  0.00    +0.000 F 
ATOM     23  F   UNL     1      10.869  30.605  74.848  0.00  0.00    +0.000 F 
ATOM     24  F   UNL     1      11.145  32.700  74.339  0.00  0.00    +0.000 F 
ENDBRANCH  20  21
ENDBRANCH   4  15
BRANCH   3  25
ATOM     25  C   UNL     1       4.580  36.268  78.426  0.00  0.00    +0.000 C 
ATOM     26  O   UNL     1       4.705  36.299  77.207  0.00  0.00    +0.000 OA
ATOM     27  O   UNL     1       3.461  36.717  79.023  0.00  0.00    +0.000 OA
ENDBRANCH   3  25
BRANCH   5  28
ATOM     28  C   UNL     1       5.917  33.464  82.162  0.00  0.00    +0.000 C 
ATOM     29  O   UNL     1       5.732  32.345  81.692  0.00  0.00    +0.000 OA
ATOM     30  O   UNL     1       5.497  33.767  83.409  0.00  0.00    +0.000 OA
ENDBRANCH   5  28
BRANCH   5  31
ATOM     31  C   UNL     1       7.406  35.404  82.385  0.00  0.00    +0.000 C 
BRANCH  31  32
ATOM     32  C   UNL     1       8.130  36.711  82.010  0.00  0.00    +0.000 C 
ATOM     33  C   UNL     1       7.827  37.761  83.094  0.00  0.00    +0.000 C 
ATOM     34  C   UNL     1       9.641  36.558  81.881  0.00  0.00    +0.000 C 
ENDBRANCH  31  32
ENDBRANCH   5  31
TORSDOF 7
ENDMDL
