MODEL 1
REMARK VINA RESULT:      -6.9      0.000      0.000
REMARK  Name = 
REMARK  8 active torsions:
REMARK  status: ('A' for Active; 'I' for Inactive)
REMARK    1  A    between atoms: C_2  and  C_5
REMARK    2  A    between atoms: C_8  and  C_11
REMARK    3  A    between atoms: C_9  and  C_14
REMARK    4  A    between atoms: C_10  and  C_15
REMARK    5  A    between atoms: C_10  and  C_16
REMARK    6  A    between atoms: C_16  and  C_23
REMARK    7  A    between atoms: C_23  and  C_26
REMARK    8  A    between atoms: C_23  and  C_27
REMARK                            x       y       z     vdW  Elec       q    Type
REMARK                         _______ _______ _______ _____ _____    ______ ____
ROOT
ATOM      1  C   UNL     1       5.524  32.641  78.689  0.00  0.00    +0.000 C 
ATOM      2  N   UNL     1       5.074  33.607  77.656  0.00  0.00    +0.000 N 
ATOM      3  C   UNL     1       7.056  32.742  78.650  0.00  0.00    +0.000 C 
ATOM      4  C   UNL     1       3.907  34.378  77.662  0.00  0.00    +0.000 C 
ATOM      5  C   UNL     1       6.157  33.840  76.644  0.00  0.00    +0.000 C 
ATOM      6  C   UNL     1       7.359  32.997  77.173  0.00  0.00    +0.000 C 
ATOM      7  O   UNL     1       3.658  35.133  76.714  0.00  0.00    +0.000 OA
ENDROOT
BRANCH   4   8
ATOM      8  C   UNL     1       2.936  34.378  78.789  0.00  0.00    +0.000 A 
ATOM      9  C   UNL     1       2.857  35.503  79.625  0.00  0.00    +0.000 A 
ATOM     10  C   UNL     1       2.032  33.341  78.998  0.00  0.00    +0.000 A 
ATOM     11  C   UNL     1       1.949  35.537  80.692  0.00  0.00    +0.000 A 
ATOM     12  C   UNL     1       1.170  33.339  80.097  0.00  0.00    +0.000 A 
ATOM     13  C   UNL     1       1.129  34.439  80.947  0.00  0.00    +0.000 A 
ENDBRANCH   4   8
BRANCH   1  15
ATOM     14  S   UNL     1       4.228  30.263  79.638  0.00  0.00    +0.000 S 
ATOM     15  C   UNL     1       5.004  31.220  78.441  0.00  0.00    +0.000 A 
ATOM     16  C   UNL     1       3.804  29.046  78.522  0.00  0.00    +0.000 A 
ATOM     17  C   UNL     1       4.997  30.547  77.224  0.00  0.00    +0.000 A 
ATOM     18  C   UNL     1       4.325  29.292  77.275  0.00  0.00    +0.000 A 
ENDBRANCH   1  15
BRANCH   3  19
ATOM     19  C   UNL     1       7.741  31.581  79.342  0.00  0.00    +0.000 C 
ATOM     20  O   UNL     1       7.745  31.445  80.558  0.00  0.00    +0.000 OA
ATOM     21  O   UNL     1       8.454  30.758  78.548  0.00  0.00    +0.000 OA
ENDBRANCH   3  19
BRANCH   5  22
ATOM     22  C   UNL     1       5.738  33.305  75.239  0.00  0.00    +0.000 C 
ATOM     23  O   UNL     1       5.296  32.177  75.048  0.00  0.00    +0.000 OA
ATOM     24  O   UNL     1       6.022  34.121  74.201  0.00  0.00    +0.000 OA
ENDBRANCH   5  22
BRANCH   5  25
ATOM     25  C   UNL     1       6.603  35.320  76.403  0.00  0.00    +0.000 C 
BRANCH  25  26
ATOM     26  C   UNL     1       7.083  36.196  77.581  0.00  0.00    +0.000 C 
ATOM     27  C   UNL     1       8.517  36.675  77.296  0.00  0.00    +0.000 C 
ATOM     28  C   UNL     1       6.211  37.421  77.835  0.00  0.00    +0.000 C 
ENDBRANCH  25  26
ENDBRANCH   5  25
TORSDOF 6
ENDMDL
MODEL 2
REMARK VINA RESULT:      -6.6      2.246      4.209
REMARK  Name = 
REMARK  8 active torsions:
REMARK  status: ('A' for Active; 'I' for Inactive)
REMARK    1  A    between atoms: C_2  and  C_5
REMARK    2  A    between atoms: C_8  and  C_11
REMARK    3  A    between atoms: C_9  and  C_14
REMARK    4  A    between atoms: C_10  and  C_15
REMARK    5  A    between atoms: C_10  and  C_16
REMARK    6  A    between atoms: C_16  and  C_23
REMARK    7  A    between atoms: C_23  and  C_26
REMARK    8  A    between atoms: C_23  and  C_27
REMARK                            x       y       z     vdW  Elec       q    Type
REMARK                         _______ _______ _______ _____ _____    ______ ____
ROOT
ATOM      1  C   UNL     1       7.397  32.857  79.022  0.00  0.00    +0.000 C 
ATOM      2  N   UNL     1       7.346  32.821  77.538  0.00  0.00    +0.000 N 
ATOM      3  C   UNL     1       8.467  31.815  79.382  0.00  0.00    +0.000 C 
ATOM      4  C   UNL     1       7.073  33.883  76.671  0.00  0.00    +0.000 C 
ATOM      5  C   UNL     1       7.845  31.502  77.025  0.00  0.00    +0.000 C 
ATOM      6  C   UNL     1       8.292  30.739  78.310  0.00  0.00    +0.000 C 
ATOM      7  O   UNL     1       7.049  33.694  75.448  0.00  0.00    +0.000 OA
ENDROOT
BRANCH   4   8
ATOM      8  C   UNL     1       6.841  35.276  77.135  0.00  0.00    +0.000 A 
ATOM      9  C   UNL     1       5.547  35.664  77.517  0.00  0.00    +0.000 A 
ATOM     10  C   UNL     1       7.874  36.195  77.295  0.00  0.00    +0.000 A 
ATOM     11  C   UNL     1       5.295  36.968  77.965  0.00  0.00    +0.000 A 
ATOM     12  C   UNL     1       7.621  37.514  77.678  0.00  0.00    +0.000 A 
ATOM     13  C   UNL     1       6.329  37.902  78.013  0.00  0.00    +0.000 A 
ENDBRANCH   4   8
BRANCH   1  15
ATOM     14  S   UNL     1       5.358  33.535  80.923  0.00  0.00    +0.000 S 
ATOM     15  C   UNL     1       6.037  32.575  79.670  0.00  0.00    +0.000 A 
ATOM     16  C   UNL     1       3.863  32.717  80.867  0.00  0.00    +0.000 A 
ATOM     17  C   UNL     1       5.132  31.589  79.293  0.00  0.00    +0.000 A 
ATOM     18  C   UNL     1       3.893  31.659  79.992  0.00  0.00    +0.000 A 
ENDBRANCH   1  15
BRANCH   3  19
ATOM     19  C   UNL     1       8.422  31.404  80.839  0.00  0.00    +0.000 C 
ATOM     20  O   UNL     1       8.991  32.034  81.722  0.00  0.00    +0.000 OA
ATOM     21  O   UNL     1       7.816  30.231  81.103  0.00  0.00    +0.000 OA
ENDBRANCH   3  19
BRANCH   5  22
ATOM     22  C   UNL     1       6.702  30.702  76.327  0.00  0.00    +0.000 C 
ATOM     23  O   UNL     1       5.587  31.162  76.111  0.00  0.00    +0.000 OA
ATOM     24  O   UNL     1       6.970  29.398  76.091  0.00  0.00    +0.000 OA
ENDBRANCH   5  22
BRANCH   5  25
ATOM     25  C   UNL     1       9.015  31.537  75.987  0.00  0.00    +0.000 C 
BRANCH  25  26
ATOM     26  C   UNL     1      10.437  31.959  76.421  0.00  0.00    +0.000 C 
ATOM     27  C   UNL     1      11.434  31.564  75.320  0.00  0.00    +0.000 C 
ATOM     28  C   UNL     1      10.583  33.454  76.686  0.00  0.00    +0.000 C 
ENDBRANCH  25  26
ENDBRANCH   5  25
TORSDOF 6
ENDMDL
MODEL 3
REMARK VINA RESULT:      -6.5      2.744      6.431
REMARK  Name = 
REMARK  8 active torsions:
REMARK  status: ('A' for Active; 'I' for Inactive)
REMARK    1  A    between atoms: C_2  and  C_5
REMARK    2  A    between atoms: C_8  and  C_11
REMARK    3  A    between atoms: C_9  and  C_14
REMARK    4  A    between atoms: C_10  and  C_15
REMARK    5  A    between atoms: C_10  and  C_16
REMARK    6  A    between atoms: C_16  and  C_23
REMARK    7  A    between atoms: C_23  and  C_26
REMARK    8  A    between atoms: C_23  and  C_27
REMARK                            x       y       z     vdW  Elec       q    Type
REMARK                         _______ _______ _______ _____ _____    ______ ____
ROOT
ATOM      1  C   UNL     1       7.873  32.908  79.112  0.00  0.00    +0.000 C 
ATOM      2  N   UNL     1       7.178  33.112  77.816  0.00  0.00    +0.000 N 
ATOM      3  C   UNL     1       6.907  32.024  79.916  0.00  0.00    +0.000 C 
ATOM      4  C   UNL     1       7.759  33.263  76.553  0.00  0.00    +0.000 C 
ATOM      5  C   UNL     1       5.697  32.925  77.976  0.00  0.00    +0.000 C 
ATOM      6  C   UNL     1       5.526  32.506  79.469  0.00  0.00    +0.000 C 
ATOM      7  O   UNL     1       7.045  33.444  75.560  0.00  0.00    +0.000 OA
ENDROOT
BRANCH   4   8
ATOM      8  C   UNL     1       9.225  33.180  76.316  0.00  0.00    +0.000 A 
ATOM      9  C   UNL     1       9.785  31.957  75.910  0.00  0.00    +0.000 A 
ATOM     10  C   UNL     1      10.061  34.290  76.391  0.00  0.00    +0.000 A 
ATOM     11  C   UNL     1      11.161  31.846  75.672  0.00  0.00    +0.000 A 
ATOM     12  C   UNL     1      11.442  34.172  76.220  0.00  0.00    +0.000 A 
ATOM     13  C   UNL     1      11.994  32.948  75.861  0.00  0.00    +0.000 A 
ENDBRANCH   4   8
BRANCH   1  15
ATOM     14  S   UNL     1       9.569  34.430  80.855  0.00  0.00    +0.000 S 
ATOM     15  C   UNL     1       8.215  34.225  79.817  0.00  0.00    +0.000 A 
ATOM     16  C   UNL     1       9.335  36.114  80.980  0.00  0.00    +0.000 A 
ATOM     17  C   UNL     1       7.559  35.441  79.656  0.00  0.00    +0.000 A 
ATOM     18  C   UNL     1       8.191  36.520  80.337  0.00  0.00    +0.000 A 
ENDBRANCH   1  15
BRANCH   3  19
ATOM     19  C   UNL     1       7.224  32.001  81.397  0.00  0.00    +0.000 C 
ATOM     20  O   UNL     1       8.131  31.328  81.869  0.00  0.00    +0.000 OA
ATOM     21  O   UNL     1       6.372  32.675  82.193  0.00  0.00    +0.000 OA
ENDBRANCH   3  19
BRANCH   5  22
ATOM     22  C   UNL     1       4.932  34.263  77.730  0.00  0.00    +0.000 C 
ATOM     23  O   UNL     1       4.649  35.054  78.623  0.00  0.00    +0.000 OA
ATOM     24  O   UNL     1       4.467  34.441  76.474  0.00  0.00    +0.000 OA
ENDBRANCH   5  22
BRANCH   5  25
ATOM     25  C   UNL     1       5.005  31.879  77.041  0.00  0.00    +0.000 C 
BRANCH  25  26
ATOM     26  C   UNL     1       5.286  30.369  77.210  0.00  0.00    +0.000 C 
ATOM     27  C   UNL     1       3.982  29.588  76.978  0.00  0.00    +0.000 C 
ATOM     28  C   UNL     1       6.345  29.828  76.254  0.00  0.00    +0.000 C 
ENDBRANCH  25  26
ENDBRANCH   5  25
TORSDOF 6
ENDMDL
MODEL 4
REMARK VINA RESULT:      -6.4      2.835      5.646
REMARK  Name = 
REMARK  8 active torsions:
REMARK  status: ('A' for Active; 'I' for Inactive)
REMARK    1  A    between atoms: C_2  and  C_5
REMARK    2  A    between atoms: C_8  and  C_11
REMARK    3  A    between atoms: C_9  and  C_14
REMARK    4  A    between atoms: C_10  and  C_15
REMARK    5  A    between atoms: C_10  and  C_16
REMARK    6  A    between atoms: C_16  and  C_23
REMARK    7  A    between atoms: C_23  and  C_26
REMARK    8  A    between atoms: C_23  and  C_27
REMARK                            x       y       z     vdW  Elec       q    Type
REMARK                         _______ _______ _______ _____ _____    ______ ____
ROOT
ATOM      1  C   UNL     1       6.919  32.122  77.516  0.00  0.00    +0.000 C 
ATOM      2  N   UNL     1       8.302  32.153  78.055  0.00  0.00    +0.000 N 
ATOM      3  C   UNL     1       7.105  32.331  76.005  0.00  0.00    +0.000 C 
ATOM      4  C   UNL     1       8.805  31.445  79.151  0.00  0.00    +0.000 C 
ATOM      5  C   UNL     1       9.212  32.907  77.130  0.00  0.00    +0.000 C 
ATOM      6  C   UNL     1       8.300  33.281  75.921  0.00  0.00    +0.000 C 
ATOM      7  O   UNL     1       9.985  31.588  79.493  0.00  0.00    +0.000 OA
ENDROOT
BRANCH   4   8
ATOM      8  C   UNL     1       7.996  30.470  79.931  0.00  0.00    +0.000 A 
ATOM      9  C   UNL     1       7.219  30.931  81.006  0.00  0.00    +0.000 A 
ATOM     10  C   UNL     1       7.905  29.125  79.585  0.00  0.00    +0.000 A 
ATOM     11  C   UNL     1       6.441  30.040  81.758  0.00  0.00    +0.000 A 
ATOM     12  C   UNL     1       7.185  28.221  80.369  0.00  0.00    +0.000 A 
ATOM     13  C   UNL     1       6.452  28.678  81.458  0.00  0.00    +0.000 A 
ENDBRANCH   4   8
BRANCH   1  15
ATOM     14  S   UNL     1       4.422  32.830  78.738  0.00  0.00    +0.000 S 
ATOM     15  C   UNL     1       6.005  33.168  78.163  0.00  0.00    +0.000 A 
ATOM     16  C   UNL     1       4.254  34.367  79.457  0.00  0.00    +0.000 A 
ATOM     17  C   UNL     1       6.341  34.485  78.459  0.00  0.00    +0.000 A 
ATOM     18  C   UNL     1       5.330  35.177  79.185  0.00  0.00    +0.000 A 
ENDBRANCH   1  15
BRANCH   3  19
ATOM     19  C   UNL     1       5.820  32.716  75.301  0.00  0.00    +0.000 C 
ATOM     20  O   UNL     1       4.926  31.912  75.070  0.00  0.00    +0.000 OA
ATOM     21  O   UNL     1       5.759  33.977  74.831  0.00  0.00    +0.000 OA
ENDBRANCH   3  19
BRANCH   5  22
ATOM     22  C   UNL     1       9.734  34.217  77.799  0.00  0.00    +0.000 C 
ATOM     23  O   UNL     1       9.854  34.356  79.012  0.00  0.00    +0.000 OA
ATOM     24  O   UNL     1       9.919  35.261  76.961  0.00  0.00    +0.000 OA
ENDBRANCH   5  22
BRANCH   5  25
ATOM     25  C   UNL     1      10.494  32.165  76.627  0.00  0.00    +0.000 C 
BRANCH  25  26
ATOM     26  C   UNL     1      10.980  32.337  75.171  0.00  0.00    +0.000 C 
ATOM     27  C   UNL     1      12.167  33.314  75.152  0.00  0.00    +0.000 C 
ATOM     28  C   UNL     1      11.419  31.036  74.508  0.00  0.00    +0.000 C 
ENDBRANCH  25  26
ENDBRANCH   5  25
TORSDOF 6
ENDMDL
MODEL 5
REMARK VINA RESULT:      -6.3      2.491      6.201
REMARK  Name = 
REMARK  8 active torsions:
REMARK  status: ('A' for Active; 'I' for Inactive)
REMARK    1  A    between atoms: C_2  and  C_5
REMARK    2  A    between atoms: C_8  and  C_11
REMARK    3  A    between atoms: C_9  and  C_14
REMARK    4  A    between atoms: C_10  and  C_15
REMARK    5  A    between atoms: C_10  and  C_16
REMARK    6  A    between atoms: C_16  and  C_23
REMARK    7  A    between atoms: C_23  and  C_26
REMARK    8  A    between atoms: C_23  and  C_27
REMARK                            x       y       z     vdW  Elec       q    Type
REMARK                         _______ _______ _______ _____ _____    ______ ____
ROOT
ATOM      1  C   UNL     1       6.533  34.064  79.287  0.00  0.00    +0.000 C 
ATOM      2  N   UNL     1       5.764  34.067  78.016  0.00  0.00    +0.000 N 
ATOM      3  C   UNL     1       5.517  33.583  80.334  0.00  0.00    +0.000 C 
ATOM      4  C   UNL     1       6.245  33.805  76.730  0.00  0.00    +0.000 C 
ATOM      5  C   UNL     1       4.294  34.187  78.290  0.00  0.00    +0.000 C 
ATOM      6  C   UNL     1       4.195  34.177  79.847  0.00  0.00    +0.000 C 
ATOM      7  O   UNL     1       5.481  33.862  75.759  0.00  0.00    +0.000 OA
ENDROOT
BRANCH   4   8
ATOM      8  C   UNL     1       7.652  33.410  76.450  0.00  0.00    +0.000 A 
ATOM      9  C   UNL     1       7.976  32.047  76.361  0.00  0.00    +0.000 A 
ATOM     10  C   UNL     1       8.651  34.340  76.182  0.00  0.00    +0.000 A 
ATOM     11  C   UNL     1       9.290  31.642  76.094  0.00  0.00    +0.000 A 
ATOM     12  C   UNL     1       9.976  33.946  75.979  0.00  0.00    +0.000 A 
ATOM     13  C   UNL     1      10.297  32.594  75.936  0.00  0.00    +0.000 A 
ENDBRANCH   4   8
BRANCH   1  15
ATOM     14  S   UNL     1       8.724  35.645  80.252  0.00  0.00    +0.000 S 
ATOM     15  C   UNL     1       7.142  35.431  79.617  0.00  0.00    +0.000 A 
ATOM     16  C   UNL     1       8.660  37.341  80.091  0.00  0.00    +0.000 A 
ATOM     17  C   UNL     1       6.563  36.671  79.373  0.00  0.00    +0.000 A 
ATOM     18  C   UNL     1       7.426  37.766  79.662  0.00  0.00    +0.000 A 
ENDBRANCH   1  15
BRANCH   3  19
ATOM     19  C   UNL     1       5.960  33.863  81.756  0.00  0.00    +0.000 C 
ATOM     20  O   UNL     1       6.850  33.230  82.308  0.00  0.00    +0.000 OA
ATOM     21  O   UNL     1       5.236  34.778  82.430  0.00  0.00    +0.000 OA
ENDBRANCH   3  19
BRANCH   5  22
ATOM     22  C   UNL     1       3.730  35.538  77.751  0.00  0.00    +0.000 C 
ATOM     23  O   UNL     1       3.751  36.584  78.391  0.00  0.00    +0.000 OA
ATOM     24  O   UNL     1       3.080  35.463  76.569  0.00  0.00    +0.000 OA
ENDBRANCH   5  22
BRANCH   5  25
ATOM     25  C   UNL     1       3.363  33.084  77.686  0.00  0.00    +0.000 C 
BRANCH  25  26
ATOM     26  C   UNL     1       3.521  31.607  78.109  0.00  0.00    +0.000 C 
ATOM     27  C   UNL     1       2.127  30.998  78.333  0.00  0.00    +0.000 C 
ATOM     28  C   UNL     1       4.260  30.748  77.087  0.00  0.00    +0.000 C 
ENDBRANCH  25  26
ENDBRANCH   5  25
TORSDOF 6
ENDMDL
MODEL 6
REMARK VINA RESULT:      -6.3      2.647      6.120
REMARK  Name = 
REMARK  8 active torsions:
REMARK  status: ('A' for Active; 'I' for Inactive)
REMARK    1  A    between atoms: C_2  and  C_5
REMARK    2  A    between atoms: C_8  and  C_11
REMARK    3  A    between atoms: C_9  and  C_14
REMARK    4  A    between atoms: C_10  and  C_15
REMARK    5  A    between atoms: C_10  and  C_16
REMARK    6  A    between atoms: C_16  and  C_23
REMARK    7  A    between atoms: C_23  and  C_26
REMARK    8  A    between atoms: C_23  and  C_27
REMARK                            x       y       z     vdW  Elec       q    Type
REMARK                         _______ _______ _______ _____ _____    ______ ____
ROOT
ATOM      1  C   UNL     1       7.202  33.779  76.961  0.00  0.00    +0.000 C 
ATOM      2  N   UNL     1       8.184  34.008  78.051  0.00  0.00    +0.000 N 
ATOM      3  C   UNL     1       6.156  34.886  77.167  0.00  0.00    +0.000 C 
ATOM      4  C   UNL     1       9.562  33.770  78.017  0.00  0.00    +0.000 C 
ATOM      5  C   UNL     1       7.548  34.753  79.187  0.00  0.00    +0.000 C 
ATOM      6  C   UNL     1       6.100  35.046  78.686  0.00  0.00    +0.000 C 
ATOM      7  O   UNL     1      10.254  33.996  79.018  0.00  0.00    +0.000 OA
ENDROOT
BRANCH   4   8
ATOM      8  C   UNL     1      10.276  33.285  76.807  0.00  0.00    +0.000 A 
ATOM      9  C   UNL     1      10.902  34.216  75.961  0.00  0.00    +0.000 A 
ATOM     10  C   UNL     1      10.431  31.933  76.520  0.00  0.00    +0.000 A 
ATOM     11  C   UNL     1      11.588  33.792  74.816  0.00  0.00    +0.000 A 
ATOM     12  C   UNL     1      11.056  31.505  75.346  0.00  0.00    +0.000 A 
ATOM     13  C   UNL     1      11.635  32.437  74.492  0.00  0.00    +0.000 A 
ENDBRANCH   4   8
BRANCH   1  15
ATOM     14  S   UNL     1       5.316  31.896  78.023  0.00  0.00    +0.000 S 
ATOM     15  C   UNL     1       6.603  32.369  76.988  0.00  0.00    +0.000 A 
ATOM     16  C   UNL     1       5.145  30.375  77.271  0.00  0.00    +0.000 A 
ATOM     17  C   UNL     1       6.934  31.316  76.141  0.00  0.00    +0.000 A 
ATOM     18  C   UNL     1       6.110  30.168  76.316  0.00  0.00    +0.000 A 
ENDBRANCH   1  15
BRANCH   3  19
ATOM     19  C   UNL     1       4.866  34.624  76.416  0.00  0.00    +0.000 C 
ATOM     20  O   UNL     1       4.831  34.018  75.352  0.00  0.00    +0.000 OA
ATOM     21  O   UNL     1       3.760  35.201  76.924  0.00  0.00    +0.000 OA
ENDBRANCH   3  19
BRANCH   5  22
ATOM     22  C   UNL     1       7.475  33.867  80.469  0.00  0.00    +0.000 C 
ATOM     23  O   UNL     1       7.462  32.641  80.446  0.00  0.00    +0.000 OA
ATOM     24  O   UNL     1       7.285  34.539  81.627  0.00  0.00    +0.000 OA
ENDBRANCH   5  22
BRANCH   5  25
ATOM     25  C   UNL     1       8.237  36.081  79.645  0.00  0.00    +0.000 C 
BRANCH  25  26
ATOM     26  C   UNL     1       8.120  37.361  78.788  0.00  0.00    +0.000 C 
ATOM     27  C   UNL     1       8.592  38.565  79.620  0.00  0.00    +0.000 C 
ATOM     28  C   UNL     1       8.936  37.320  77.500  0.00  0.00    +0.000 C 
ENDBRANCH  25  26
ENDBRANCH   5  25
TORSDOF 6
ENDMDL
MODEL 7
REMARK VINA RESULT:      -6.1      3.394      6.853
REMARK  Name = 
REMARK  8 active torsions:
REMARK  status: ('A' for Active; 'I' for Inactive)
REMARK    1  A    between atoms: C_2  and  C_5
REMARK    2  A    between atoms: C_8  and  C_11
REMARK    3  A    between atoms: C_9  and  C_14
REMARK    4  A    between atoms: C_10  and  C_15
REMARK    5  A    between atoms: C_10  and  C_16
REMARK    6  A    between atoms: C_16  and  C_23
REMARK    7  A    between atoms: C_23  and  C_26
REMARK    8  A    between atoms: C_23  and  C_27
REMARK                            x       y       z     vdW  Elec       q    Type
REMARK                         _______ _______ _______ _____ _____    ______ ____
ROOT
ATOM      1  C   UNL     1       8.206  34.085  77.475  0.00  0.00    +0.000 C 
ATOM      2  N   UNL     1       8.838  33.083  78.371  0.00  0.00    +0.000 N 
ATOM      3  C   UNL     1       7.590  35.109  78.441  0.00  0.00    +0.000 C 
ATOM      4  C   UNL     1       9.995  32.337  78.129  0.00  0.00    +0.000 C 
ATOM      5  C   UNL     1       8.188  33.100  79.723  0.00  0.00    +0.000 C 
ATOM      6  C   UNL     1       7.145  34.255  79.629  0.00  0.00    +0.000 C 
ATOM      7  O   UNL     1      10.393  31.521  78.970  0.00  0.00    +0.000 OA
ENDROOT
BRANCH   4   8
ATOM      8  C   UNL     1      10.826  32.493  76.906  0.00  0.00    +0.000 A 
ATOM      9  C   UNL     1      10.554  31.691  75.786  0.00  0.00    +0.000 A 
ATOM     10  C   UNL     1      11.811  33.470  76.789  0.00  0.00    +0.000 A 
ATOM     11  C   UNL     1      11.314  31.818  74.616  0.00  0.00    +0.000 A 
ATOM     12  C   UNL     1      12.616  33.558  75.651  0.00  0.00    +0.000 A 
ATOM     13  C   UNL     1      12.368  32.730  74.562  0.00  0.00    +0.000 A 
ENDBRANCH   4   8
BRANCH   1  15
ATOM     14  S   UNL     1       6.442  31.935  76.770  0.00  0.00    +0.000 S 
ATOM     15  C   UNL     1       7.183  33.465  76.518  0.00  0.00    +0.000 A 
ATOM     16  C   UNL     1       5.362  32.139  75.467  0.00  0.00    +0.000 A 
ATOM     17  C   UNL     1       6.645  34.065  75.385  0.00  0.00    +0.000 A 
ATOM     18  C   UNL     1       5.613  33.297  74.773  0.00  0.00    +0.000 A 
ENDBRANCH   1  15
BRANCH   3  19
ATOM     19  C   UNL     1       6.573  36.011  77.772  0.00  0.00    +0.000 C 
ATOM     20  O   UNL     1       6.892  36.977  77.092  0.00  0.00    +0.000 OA
ATOM     21  O   UNL     1       5.282  35.762  78.065  0.00  0.00    +0.000 OA
ENDBRANCH   3  19
BRANCH   5  22
ATOM     22  C   UNL     1       7.441  31.759  80.004  0.00  0.00    +0.000 C 
ATOM     23  O   UNL     1       6.250  31.584  79.766  0.00  0.00    +0.000 OA
ATOM     24  O   UNL     1       8.158  30.824  80.666  0.00  0.00    +0.000 OA
ENDBRANCH   5  22
BRANCH   5  25
ATOM     25  C   UNL     1       9.120  33.317  80.961  0.00  0.00    +0.000 C 
BRANCH  25  26
ATOM     26  C   UNL     1       8.972  34.576  81.843  0.00  0.00    +0.000 C 
ATOM     27  C   UNL     1       8.535  34.150  83.254  0.00  0.00    +0.000 C 
ATOM     28  C   UNL     1      10.251  35.399  81.965  0.00  0.00    +0.000 C 
ENDBRANCH  25  26
ENDBRANCH   5  25
TORSDOF 6
ENDMDL
MODEL 8
REMARK VINA RESULT:      -6.1      3.373      5.856
REMARK  Name = 
REMARK  8 active torsions:
REMARK  status: ('A' for Active; 'I' for Inactive)
REMARK    1  A    between atoms: C_2  and  C_5
REMARK    2  A    between atoms: C_8  and  C_11
REMARK    3  A    between atoms: C_9  and  C_14
REMARK    4  A    between atoms: C_10  and  C_15
REMARK    5  A    between atoms: C_10  and  C_16
REMARK    6  A    between atoms: C_16  and  C_23
REMARK    7  A    between atoms: C_23  and  C_26
REMARK    8  A    between atoms: C_23  and  C_27
REMARK                            x       y       z     vdW  Elec       q    Type
REMARK                         _______ _______ _______ _____ _____    ______ ____
ROOT
ATOM      1  C   UNL     1       7.725  33.963  77.393  0.00  0.00    +0.000 C 
ATOM      2  N   UNL     1       8.566  32.859  76.866  0.00  0.00    +0.000 N 
ATOM      3  C   UNL     1       8.280  35.217  76.700  0.00  0.00    +0.000 C 
ATOM      4  C   UNL     1       8.183  31.535  76.631  0.00  0.00    +0.000 C 
ATOM      5  C   UNL     1       9.888  33.385  76.389  0.00  0.00    +0.000 C 
ATOM      6  C   UNL     1       9.777  34.928  76.587  0.00  0.00    +0.000 C 
ATOM      7  O   UNL     1       9.007  30.718  76.201  0.00  0.00    +0.000 OA
ENDROOT
BRANCH   4   8
ATOM      8  C   UNL     1       6.796  31.040  76.835  0.00  0.00    +0.000 A 
ATOM      9  C   UNL     1       6.470  30.391  78.037  0.00  0.00    +0.000 A 
ATOM     10  C   UNL     1       5.775  31.272  75.918  0.00  0.00    +0.000 A 
ATOM     11  C   UNL     1       5.171  29.917  78.263  0.00  0.00    +0.000 A 
ATOM     12  C   UNL     1       4.495  30.746  76.107  0.00  0.00    +0.000 A 
ATOM     13  C   UNL     1       4.192  30.066  77.281  0.00  0.00    +0.000 A 
ENDBRANCH   4   8
BRANCH   1  15
ATOM     14  S   UNL     1       9.172  34.400  79.832  0.00  0.00    +0.000 S 
ATOM     15  C   UNL     1       7.756  34.054  78.923  0.00  0.00    +0.000 A 
ATOM     16  C   UNL     1       8.311  34.539  81.297  0.00  0.00    +0.000 A 
ATOM     17  C   UNL     1       6.661  33.967  79.776  0.00  0.00    +0.000 A 
ATOM     18  C   UNL     1       6.983  34.227  81.139  0.00  0.00    +0.000 A 
ENDBRANCH   1  15
BRANCH   3  19
ATOM     19  C   UNL     1       7.836  36.503  77.366  0.00  0.00    +0.000 C 
ATOM     20  O   UNL     1       6.668  36.872  77.380  0.00  0.00    +0.000 OA
ATOM     21  O   UNL     1       8.819  37.290  77.845  0.00  0.00    +0.000 OA
ENDBRANCH   3  19
BRANCH   5  22
ATOM     22  C   UNL     1      11.059  32.840  77.266  0.00  0.00    +0.000 C 
ATOM     23  O   UNL     1      10.921  31.960  78.108  0.00  0.00    +0.000 OA
ATOM     24  O   UNL     1      12.231  33.501  77.141  0.00  0.00    +0.000 OA
ENDBRANCH   5  22
BRANCH   5  25
ATOM     25  C   UNL     1      10.296  33.061  74.913  0.00  0.00    +0.000 C 
BRANCH  25  26
ATOM     26  C   UNL     1      11.738  32.622  74.577  0.00  0.00    +0.000 C 
ATOM     27  C   UNL     1      11.715  31.167  74.080  0.00  0.00    +0.000 C 
ATOM     28  C   UNL     1      12.413  33.481  73.512  0.00  0.00    +0.000 C 
ENDBRANCH  25  26
ENDBRANCH   5  25
TORSDOF 6
ENDMDL
MODEL 9
REMARK VINA RESULT:      -6.1      2.574      5.207
REMARK  Name = 
REMARK  8 active torsions:
REMARK  status: ('A' for Active; 'I' for Inactive)
REMARK    1  A    between atoms: C_2  and  C_5
REMARK    2  A    between atoms: C_8  and  C_11
REMARK    3  A    between atoms: C_9  and  C_14
REMARK    4  A    between atoms: C_10  and  C_15
REMARK    5  A    between atoms: C_10  and  C_16
REMARK    6  A    between atoms: C_16  and  C_23
REMARK    7  A    between atoms: C_23  and  C_26
REMARK    8  A    between atoms: C_23  and  C_27
REMARK                            x       y       z     vdW  Elec       q    Type
REMARK                         _______ _______ _______ _____ _____    ______ ____
ROOT
ATOM      1  C   UNL     1       6.295  33.658  77.753  0.00  0.00    +0.000 C 
ATOM      2  N   UNL     1       7.277  32.564  77.544  0.00  0.00    +0.000 N 
ATOM      3  C   UNL     1       6.890  34.843  76.976  0.00  0.00    +0.000 C 
ATOM      4  C   UNL     1       7.017  31.193  77.455  0.00  0.00    +0.000 C 
ATOM      5  C   UNL     1       8.630  33.125  77.215  0.00  0.00    +0.000 C 
ATOM      6  C   UNL     1       8.398  34.666  77.155  0.00  0.00    +0.000 C 
ATOM      7  O   UNL     1       7.949  30.394  77.295  0.00  0.00    +0.000 OA
ENDROOT
BRANCH   4   8
ATOM      8  C   UNL     1       5.647  30.619  77.504  0.00  0.00    +0.000 A 
ATOM      9  C   UNL     1       4.778  30.827  76.420  0.00  0.00    +0.000 A 
ATOM     10  C   UNL     1       5.213  29.802  78.543  0.00  0.00    +0.000 A 
ATOM     11  C   UNL     1       3.482  30.294  76.431  0.00  0.00    +0.000 A 
ATOM     12  C   UNL     1       3.902  29.323  78.593  0.00  0.00    +0.000 A 
ATOM     13  C   UNL     1       3.034  29.570  77.535  0.00  0.00    +0.000 A 
ENDBRANCH   4   8
BRANCH   1  15
ATOM     14  S   UNL     1       4.528  33.814  80.008  0.00  0.00    +0.000 S 
ATOM     15  C   UNL     1       6.055  33.966  79.235  0.00  0.00    +0.000 A 
ATOM     16  C   UNL     1       5.180  34.093  81.558  0.00  0.00    +0.000 A 
ATOM     17  C   UNL     1       7.022  34.312  80.173  0.00  0.00    +0.000 A 
ATOM     18  C   UNL     1       6.517  34.403  81.501  0.00  0.00    +0.000 A 
ENDBRANCH   1  15
BRANCH   3  19
ATOM     19  C   UNL     1       6.264  36.169  77.357  0.00  0.00    +0.000 C 
ATOM     20  O   UNL     1       6.903  37.081  77.865  0.00  0.00    +0.000 OA
ATOM     21  O   UNL     1       4.926  36.253  77.214  0.00  0.00    +0.000 OA
ENDBRANCH   3  19
BRANCH   5  22
ATOM     22  C   UNL     1       9.660  32.807  78.343  0.00  0.00    +0.000 C 
ATOM     23  O   UNL     1       9.999  31.669  78.650  0.00  0.00    +0.000 OA
ATOM     24  O   UNL     1      10.064  33.870  79.073  0.00  0.00    +0.000 OA
ENDBRANCH   5  22
BRANCH   5  25
ATOM     25  C   UNL     1       9.305  32.631  75.892  0.00  0.00    +0.000 C 
BRANCH  25  26
ATOM     26  C   UNL     1      10.835  32.732  75.708  0.00  0.00    +0.000 C 
ATOM     27  C   UNL     1      11.326  31.507  74.920  0.00  0.00    +0.000 C 
ATOM     28  C   UNL     1      11.287  33.988  74.970  0.00  0.00    +0.000 C 
ENDBRANCH  25  26
ENDBRANCH   5  25
TORSDOF 6
ENDMDL
