MODEL 1
REMARK VINA RESULT:      -6.9      0.000      0.000
REMARK  Name = 
REMARK  8 active torsions:
REMARK  status: ('A' for Active; 'I' for Inactive)
REMARK    1  A    between atoms: C_2  and  C_5
REMARK    2  A    between atoms: C_8  and  C_11
REMARK    3  A    between atoms: C_9  and  C_14
REMARK    4  A    between atoms: C_10  and  C_15
REMARK    5  A    between atoms: C_10  and  C_16
REMARK    6  A    between atoms: C_16  and  C_23
REMARK    7  A    between atoms: C_23  and  C_26
REMARK    8  A    between atoms: C_23  and  C_27
REMARK                            x       y       z     vdW  Elec       q    Type
REMARK                         _______ _______ _______ _____ _____    ______ ____
ROOT
ATOM      1  C   UNL     1       5.531  32.643  78.688  0.00  0.00    +0.000 C 
ATOM      2  N   UNL     1       5.080  33.614  77.660  0.00  0.00    +0.000 N 
ATOM      3  C   UNL     1       7.062  32.749  78.648  0.00  0.00    +0.000 C 
ATOM      4  C   UNL     1       3.918  34.388  77.668  0.00  0.00    +0.000 C 
ATOM      5  C   UNL     1       6.159  33.844  76.646  0.00  0.00    +0.000 C 
ATOM      6  C   UNL     1       7.363  33.005  77.173  0.00  0.00    +0.000 C 
ATOM      7  O   UNL     1       3.667  35.148  76.727  0.00  0.00    +0.000 OA
ENDROOT
BRANCH   4   8
ATOM      8  C   UNL     1       2.945  34.382  78.789  0.00  0.00    +0.000 A 
ATOM      9  C   UNL     1       2.873  35.494  79.640  0.00  0.00    +0.000 A 
ATOM     10  C   UNL     1       2.033  33.344  78.980  0.00  0.00    +0.000 A 
ATOM     11  C   UNL     1       1.969  35.520  80.709  0.00  0.00    +0.000 A 
ATOM     12  C   UNL     1       1.174  33.335  80.083  0.00  0.00    +0.000 A 
ATOM     13  C   UNL     1       1.144  34.423  80.948  0.00  0.00    +0.000 A 
ENDBRANCH   4   8
BRANCH   1  15
ATOM     14  S   UNL     1       4.190  30.278  79.612  0.00  0.00    +0.000 S 
ATOM     15  C   UNL     1       5.012  31.223  78.435  0.00  0.00    +0.000 A 
ATOM     16  C   UNL     1       3.796  29.054  78.494  0.00  0.00    +0.000 A 
ATOM     17  C   UNL     1       5.038  30.540  77.224  0.00  0.00    +0.000 A 
ATOM     18  C   UNL     1       4.358  29.289  77.262  0.00  0.00    +0.000 A 
ENDBRANCH   1  15
BRANCH   3  19
ATOM     19  C   UNL     1       7.753  31.588  79.333  0.00  0.00    +0.000 C 
ATOM     20  O   UNL     1       7.752  31.439  80.548  0.00  0.00    +0.000 OA
ATOM     21  O   UNL     1       8.478  30.781  78.534  0.00  0.00    +0.000 OA
ENDBRANCH   3  19
BRANCH   5  22
ATOM     22  C   UNL     1       5.730  33.301  75.247  0.00  0.00    +0.000 C 
ATOM     23  O   UNL     1       5.281  32.176  75.066  0.00  0.00    +0.000 OA
ATOM     24  O   UNL     1       6.014  34.110  74.201  0.00  0.00    +0.000 OA
ENDBRANCH   5  22
BRANCH   5  25
ATOM     25  C   UNL     1       6.608  35.323  76.398  0.00  0.00    +0.000 C 
BRANCH  25  26
ATOM     26  C   UNL     1       7.100  36.198  77.573  0.00  0.00    +0.000 C 
ATOM     27  C   UNL     1       8.530  36.678  77.278  0.00  0.00    +0.000 C 
ATOM     28  C   UNL     1       6.232  37.423  77.841  0.00  0.00    +0.000 C 
ENDBRANCH  25  26
ENDBRANCH   5  25
TORSDOF 6
ENDMDL
MODEL 2
REMARK VINA RESULT:      -6.6      2.246      4.201
REMARK  Name = 
REMARK  8 active torsions:
REMARK  status: ('A' for Active; 'I' for Inactive)
REMARK    1  A    between atoms: C_2  and  C_5
REMARK    2  A    between atoms: C_8  and  C_11
REMARK    3  A    between atoms: C_9  and  C_14
REMARK    4  A    between atoms: C_10  and  C_15
REMARK    5  A    between atoms: C_10  and  C_16
REMARK    6  A    between atoms: C_16  and  C_23
REMARK    7  A    between atoms: C_23  and  C_26
REMARK    8  A    between atoms: C_23  and  C_27
REMARK                            x       y       z     vdW  Elec       q    Type
REMARK                         _______ _______ _______ _____ _____    ______ ____
ROOT
ATOM      1  C   UNL     1       7.413  32.864  79.002  0.00  0.00    +0.000 C 
ATOM      2  N   UNL     1       7.382  32.845  77.518  0.00  0.00    +0.000 N 
ATOM      3  C   UNL     1       8.489  31.828  79.360  0.00  0.00    +0.000 C 
ATOM      4  C   UNL     1       7.117  33.912  76.656  0.00  0.00    +0.000 C 
ATOM      5  C   UNL     1       7.891  31.536  76.998  0.00  0.00    +0.000 C 
ATOM      6  C   UNL     1       8.332  30.762  78.279  0.00  0.00    +0.000 C 
ATOM      7  O   UNL     1       7.112  33.740  75.433  0.00  0.00    +0.000 OA
ENDROOT
BRANCH   4   8
ATOM      8  C   UNL     1       6.864  35.295  77.130  0.00  0.00    +0.000 A 
ATOM      9  C   UNL     1       5.563  35.666  77.499  0.00  0.00    +0.000 A 
ATOM     10  C   UNL     1       7.891  36.223  77.307  0.00  0.00    +0.000 A 
ATOM     11  C   UNL     1       5.289  36.964  77.948  0.00  0.00    +0.000 A 
ATOM     12  C   UNL     1       7.614  37.539  77.692  0.00  0.00    +0.000 A 
ATOM     13  C   UNL     1       6.312  37.909  78.011  0.00  0.00    +0.000 A 
ENDBRANCH   4   8
BRANCH   1  15
ATOM     14  S   UNL     1       5.361  33.480  80.913  0.00  0.00    +0.000 S 
ATOM     15  C   UNL     1       6.047  32.565  79.631  0.00  0.00    +0.000 A 
ATOM     16  C   UNL     1       3.864  32.672  80.817  0.00  0.00    +0.000 A 
ATOM     17  C   UNL     1       5.139  31.600  79.209  0.00  0.00    +0.000 A 
ATOM     18  C   UNL     1       3.895  31.649  79.901  0.00  0.00    +0.000 A 
ENDBRANCH   1  15
BRANCH   3  19
ATOM     19  C   UNL     1       8.433  31.396  80.811  0.00  0.00    +0.000 C 
ATOM     20  O   UNL     1       8.996  32.010  81.707  0.00  0.00    +0.000 OA
ATOM     21  O   UNL     1       7.823  30.219  81.051  0.00  0.00    +0.000 OA
ENDBRANCH   3  19
BRANCH   5  22
ATOM     22  C   UNL     1       6.750  30.741  76.288  0.00  0.00    +0.000 C 
ATOM     23  O   UNL     1       5.656  31.221  76.017  0.00  0.00    +0.000 OA
ATOM     24  O   UNL     1       6.992  29.422  76.104  0.00  0.00    +0.000 OA
ENDBRANCH   5  22
BRANCH   5  25
ATOM     25  C   UNL     1       9.070  31.580  75.970  0.00  0.00    +0.000 C 
BRANCH  25  26
ATOM     26  C   UNL     1      10.485  32.003  76.422  0.00  0.00    +0.000 C 
ATOM     27  C   UNL     1      11.502  31.588  75.347  0.00  0.00    +0.000 C 
ATOM     28  C   UNL     1      10.636  33.501  76.667  0.00  0.00    +0.000 C 
ENDBRANCH  25  26
ENDBRANCH   5  25
TORSDOF 6
ENDMDL
MODEL 3
REMARK VINA RESULT:      -6.5      2.709      6.340
REMARK  Name = 
REMARK  8 active torsions:
REMARK  status: ('A' for Active; 'I' for Inactive)
REMARK    1  A    between atoms: C_2  and  C_5
REMARK    2  A    between atoms: C_8  and  C_11
REMARK    3  A    between atoms: C_9  and  C_14
REMARK    4  A    between atoms: C_10  and  C_15
REMARK    5  A    between atoms: C_10  and  C_16
REMARK    6  A    between atoms: C_16  and  C_23
REMARK    7  A    between atoms: C_23  and  C_26
REMARK    8  A    between atoms: C_23  and  C_27
REMARK                            x       y       z     vdW  Elec       q    Type
REMARK                         _______ _______ _______ _____ _____    ______ ____
ROOT
ATOM      1  C   UNL     1       7.822  32.888  79.062  0.00  0.00    +0.000 C 
ATOM      2  N   UNL     1       7.118  33.103  77.774  0.00  0.00    +0.000 N 
ATOM      3  C   UNL     1       6.849  32.020  79.873  0.00  0.00    +0.000 C 
ATOM      4  C   UNL     1       7.684  33.240  76.504  0.00  0.00    +0.000 C 
ATOM      5  C   UNL     1       5.639  32.950  77.952  0.00  0.00    +0.000 C 
ATOM      6  C   UNL     1       5.475  32.530  79.444  0.00  0.00    +0.000 C 
ATOM      7  O   UNL     1       6.966  33.430  75.518  0.00  0.00    +0.000 OA
ENDROOT
BRANCH   4   8
ATOM      8  C   UNL     1       9.142  33.134  76.249  0.00  0.00    +0.000 A 
ATOM      9  C   UNL     1       9.944  34.278  76.373  0.00  0.00    +0.000 A 
ATOM     10  C   UNL     1       9.766  31.917  75.974  0.00  0.00    +0.000 A 
ATOM     11  C   UNL     1      11.323  34.215  76.137  0.00  0.00    +0.000 A 
ATOM     12  C   UNL     1      11.130  31.859  75.673  0.00  0.00    +0.000 A 
ATOM     13  C   UNL     1      11.907  33.009  75.753  0.00  0.00    +0.000 A 
ENDBRANCH   4   8
BRANCH   1  15
ATOM     14  S   UNL     1       9.517  34.361  80.852  0.00  0.00    +0.000 S 
ATOM     15  C   UNL     1       8.197  34.199  79.763  0.00  0.00    +0.000 A 
ATOM     16  C   UNL     1       9.356  36.054  80.945  0.00  0.00    +0.000 A 
ATOM     17  C   UNL     1       7.609  35.441  79.557  0.00  0.00    +0.000 A 
ATOM     18  C   UNL     1       8.260  36.502  80.248  0.00  0.00    +0.000 A 
ENDBRANCH   1  15
BRANCH   3  19
ATOM     19  C   UNL     1       7.176  31.988  81.351  0.00  0.00    +0.000 C 
ATOM     20  O   UNL     1       8.042  31.263  81.823  0.00  0.00    +0.000 OA
ATOM     21  O   UNL     1       6.375  32.723  82.148  0.00  0.00    +0.000 OA
ENDBRANCH   3  19
BRANCH   5  22
ATOM     22  C   UNL     1       4.910  34.311  77.720  0.00  0.00    +0.000 C 
ATOM     23  O   UNL     1       4.697  35.126  78.610  0.00  0.00    +0.000 OA
ATOM     24  O   UNL     1       4.391  34.486  76.483  0.00  0.00    +0.000 OA
ENDBRANCH   5  22
BRANCH   5  25
ATOM     25  C   UNL     1       4.906  31.922  77.026  0.00  0.00    +0.000 C 
BRANCH  25  26
ATOM     26  C   UNL     1       5.144  30.406  77.199  0.00  0.00    +0.000 C 
ATOM     27  C   UNL     1       3.822  29.659  76.960  0.00  0.00    +0.000 C 
ATOM     28  C   UNL     1       6.194  29.831  76.254  0.00  0.00    +0.000 C 
ENDBRANCH  25  26
ENDBRANCH   5  25
TORSDOF 6
ENDMDL
MODEL 4
REMARK VINA RESULT:      -6.4      2.666      6.120
REMARK  Name = 
REMARK  8 active torsions:
REMARK  status: ('A' for Active; 'I' for Inactive)
REMARK    1  A    between atoms: C_2  and  C_5
REMARK    2  A    between atoms: C_8  and  C_11
REMARK    3  A    between atoms: C_9  and  C_14
REMARK    4  A    between atoms: C_10  and  C_15
REMARK    5  A    between atoms: C_10  and  C_16
REMARK    6  A    between atoms: C_16  and  C_23
REMARK    7  A    between atoms: C_23  and  C_26
REMARK    8  A    between atoms: C_23  and  C_27
REMARK                            x       y       z     vdW  Elec       q    Type
REMARK                         _______ _______ _______ _____ _____    ______ ____
ROOT
ATOM      1  C   UNL     1       7.270  33.563  76.992  0.00  0.00    +0.000 C 
ATOM      2  N   UNL     1       8.278  33.858  78.040  0.00  0.00    +0.000 N 
ATOM      3  C   UNL     1       6.171  34.609  77.233  0.00  0.00    +0.000 C 
ATOM      4  C   UNL     1       9.664  33.708  77.957  0.00  0.00    +0.000 C 
ATOM      5  C   UNL     1       7.642  34.564  79.197  0.00  0.00    +0.000 C 
ATOM      6  C   UNL     1       6.162  34.771  78.751  0.00  0.00    +0.000 C 
ATOM      7  O   UNL     1      10.381  33.983  78.925  0.00  0.00    +0.000 OA
ENDROOT
BRANCH   4   8
ATOM      8  C   UNL     1      10.360  33.255  76.727  0.00  0.00    +0.000 A 
ATOM      9  C   UNL     1      10.962  34.206  75.891  0.00  0.00    +0.000 A 
ATOM     10  C   UNL     1      10.516  31.905  76.412  0.00  0.00    +0.000 A 
ATOM     11  C   UNL     1      11.625  33.814  74.722  0.00  0.00    +0.000 A 
ATOM     12  C   UNL     1      11.120  31.511  75.214  0.00  0.00    +0.000 A 
ATOM     13  C   UNL     1      11.672  32.466  74.368  0.00  0.00    +0.000 A 
ENDBRANCH   4   8
BRANCH   1  15
ATOM     14  S   UNL     1       5.588  31.558  78.175  0.00  0.00    +0.000 S 
ATOM     15  C   UNL     1       6.757  32.119  77.047  0.00  0.00    +0.000 A 
ATOM     16  C   UNL     1       5.445  30.039  77.418  0.00  0.00    +0.000 A 
ATOM     17  C   UNL     1       7.074  31.097  76.158  0.00  0.00    +0.000 A 
ATOM     18  C   UNL     1       6.337  29.900  76.382  0.00  0.00    +0.000 A 
ENDBRANCH   1  15
BRANCH   3  19
ATOM     19  C   UNL     1       4.870  34.270  76.537  0.00  0.00    +0.000 C 
ATOM     20  O   UNL     1       4.815  33.929  75.362  0.00  0.00    +0.000 OA
ATOM     21  O   UNL     1       3.747  34.479  77.253  0.00  0.00    +0.000 OA
ENDBRANCH   3  19
BRANCH   5  22
ATOM     22  C   UNL     1       7.669  33.669  80.476  0.00  0.00    +0.000 C 
ATOM     23  O   UNL     1       7.868  32.460  80.453  0.00  0.00    +0.000 OA
ATOM     24  O   UNL     1       7.319  34.292  81.625  0.00  0.00    +0.000 OA
ENDBRANCH   5  22
BRANCH   5  25
ATOM     25  C   UNL     1       8.263  35.933  79.634  0.00  0.00    +0.000 C 
BRANCH  25  26
ATOM     26  C   UNL     1       8.072  37.192  78.759  0.00  0.00    +0.000 C 
ATOM     27  C   UNL     1       8.473  38.434  79.571  0.00  0.00    +0.000 C 
ATOM     28  C   UNL     1       8.888  37.181  77.470  0.00  0.00    +0.000 C 
ENDBRANCH  25  26
ENDBRANCH   5  25
TORSDOF 6
ENDMDL
MODEL 5
REMARK VINA RESULT:      -6.4      2.186      3.530
REMARK  Name = 
REMARK  8 active torsions:
REMARK  status: ('A' for Active; 'I' for Inactive)
REMARK    1  A    between atoms: C_2  and  C_5
REMARK    2  A    between atoms: C_8  and  C_11
REMARK    3  A    between atoms: C_9  and  C_14
REMARK    4  A    between atoms: C_10  and  C_15
REMARK    5  A    between atoms: C_10  and  C_16
REMARK    6  A    between atoms: C_16  and  C_23
REMARK    7  A    between atoms: C_23  and  C_26
REMARK    8  A    between atoms: C_23  and  C_27
REMARK                            x       y       z     vdW  Elec       q    Type
REMARK                         _______ _______ _______ _____ _____    ______ ____
ROOT
ATOM      1  C   UNL     1       6.753  32.058  79.477  0.00  0.00    +0.000 C 
ATOM      2  N   UNL     1       6.992  32.280  78.029  0.00  0.00    +0.000 N 
ATOM      3  C   UNL     1       7.681  33.070  80.163  0.00  0.00    +0.000 C 
ATOM      4  C   UNL     1       6.077  32.152  76.983  0.00  0.00    +0.000 C 
ATOM      5  C   UNL     1       8.344  32.888  77.808  0.00  0.00    +0.000 C 
ATOM      6  C   UNL     1       8.901  33.114  79.246  0.00  0.00    +0.000 C 
ATOM      7  O   UNL     1       6.428  32.358  75.817  0.00  0.00    +0.000 OA
ENDROOT
BRANCH   4   8
ATOM      8  C   UNL     1       4.649  31.803  77.190  0.00  0.00    +0.000 A 
ATOM      9  C   UNL     1       4.200  30.520  76.847  0.00  0.00    +0.000 A 
ATOM     10  C   UNL     1       3.748  32.678  77.799  0.00  0.00    +0.000 A 
ATOM     11  C   UNL     1       2.859  30.159  77.027  0.00  0.00    +0.000 A 
ATOM     12  C   UNL     1       2.395  32.346  77.922  0.00  0.00    +0.000 A 
ATOM     13  C   UNL     1       1.951  31.087  77.533  0.00  0.00    +0.000 A 
ENDBRANCH   4   8
BRANCH   1  15
ATOM     14  S   UNL     1       6.000  29.739  80.993  0.00  0.00    +0.000 S 
ATOM     15  C   UNL     1       7.009  30.609  79.907  0.00  0.00    +0.000 A 
ATOM     16  C   UNL     1       6.820  28.269  80.729  0.00  0.00    +0.000 A 
ATOM     17  C   UNL     1       8.007  29.769  79.425  0.00  0.00    +0.000 A 
ATOM     18  C   UNL     1       7.911  28.434  79.910  0.00  0.00    +0.000 A 
ENDBRANCH   1  15
BRANCH   3  19
ATOM     19  C   UNL     1       7.895  32.773  81.633  0.00  0.00    +0.000 C 
ATOM     20  O   UNL     1       8.922  32.265  82.064  0.00  0.00    +0.000 OA
ATOM     21  O   UNL     1       6.837  32.991  82.438  0.00  0.00    +0.000 OA
ENDBRANCH   3  19
BRANCH   5  22
ATOM     22  C   UNL     1       9.279  31.896  77.047  0.00  0.00    +0.000 C 
ATOM     23  O   UNL     1       8.869  30.999  76.321  0.00  0.00    +0.000 OA
ATOM     24  O   UNL     1      10.595  31.997  77.347  0.00  0.00    +0.000 OA
ENDBRANCH   5  22
BRANCH   5  25
ATOM     25  C   UNL     1       8.406  34.225  76.996  0.00  0.00    +0.000 C 
BRANCH  25  26
ATOM     26  C   UNL     1       7.822  35.527  77.588  0.00  0.00    +0.000 C 
ATOM     27  C   UNL     1       8.743  36.702  77.224  0.00  0.00    +0.000 C 
ATOM     28  C   UNL     1       6.415  35.854  77.098  0.00  0.00    +0.000 C 
ENDBRANCH  25  26
ENDBRANCH   5  25
TORSDOF 6
ENDMDL
MODEL 6
REMARK VINA RESULT:      -6.3      2.498      6.149
REMARK  Name = 
REMARK  8 active torsions:
REMARK  status: ('A' for Active; 'I' for Inactive)
REMARK    1  A    between atoms: C_2  and  C_5
REMARK    2  A    between atoms: C_8  and  C_11
REMARK    3  A    between atoms: C_9  and  C_14
REMARK    4  A    between atoms: C_10  and  C_15
REMARK    5  A    between atoms: C_10  and  C_16
REMARK    6  A    between atoms: C_16  and  C_23
REMARK    7  A    between atoms: C_23  and  C_26
REMARK    8  A    between atoms: C_23  and  C_27
REMARK                            x       y       z     vdW  Elec       q    Type
REMARK                         _______ _______ _______ _____ _____    ______ ____
ROOT
ATOM      1  C   UNL     1       6.560  34.119  79.255  0.00  0.00    +0.000 C 
ATOM      2  N   UNL     1       5.765  34.088  78.002  0.00  0.00    +0.000 N 
ATOM      3  C   UNL     1       5.569  33.650  80.331  0.00  0.00    +0.000 C 
ATOM      4  C   UNL     1       6.216  33.800  76.712  0.00  0.00    +0.000 C 
ATOM      5  C   UNL     1       4.303  34.209  78.304  0.00  0.00    +0.000 C 
ATOM      6  C   UNL     1       4.235  34.227  79.862  0.00  0.00    +0.000 C 
ATOM      7  O   UNL     1       5.435  33.827  75.756  0.00  0.00    +0.000 OA
ENDROOT
BRANCH   4   8
ATOM      8  C   UNL     1       7.618  33.416  76.409  0.00  0.00    +0.000 A 
ATOM      9  C   UNL     1       8.572  34.420  76.193  0.00  0.00    +0.000 A 
ATOM     10  C   UNL     1       8.046  32.088  76.415  0.00  0.00    +0.000 A 
ATOM     11  C   UNL     1       9.902  34.093  75.902  0.00  0.00    +0.000 A 
ATOM     12  C   UNL     1       9.357  31.753  76.061  0.00  0.00    +0.000 A 
ATOM     13  C   UNL     1      10.283  32.756  75.803  0.00  0.00    +0.000 A 
ENDBRANCH   4   8
BRANCH   1  15
ATOM     14  S   UNL     1       8.719  35.737  80.236  0.00  0.00    +0.000 S 
ATOM     15  C   UNL     1       7.164  35.498  79.545  0.00  0.00    +0.000 A 
ATOM     16  C   UNL     1       8.675  37.422  79.990  0.00  0.00    +0.000 A 
ATOM     17  C   UNL     1       6.608  36.728  79.212  0.00  0.00    +0.000 A 
ATOM     18  C   UNL     1       7.465  37.832  79.484  0.00  0.00    +0.000 A 
ENDBRANCH   1  15
BRANCH   3  19
ATOM     19  C   UNL     1       6.033  33.962  81.738  0.00  0.00    +0.000 C 
ATOM     20  O   UNL     1       6.915  33.327  82.301  0.00  0.00    +0.000 OA
ATOM     21  O   UNL     1       5.334  34.910  82.392  0.00  0.00    +0.000 OA
ENDBRANCH   3  19
BRANCH   5  22
ATOM     22  C   UNL     1       3.733  35.553  77.751  0.00  0.00    +0.000 C 
ATOM     23  O   UNL     1       3.736  36.602  78.384  0.00  0.00    +0.000 OA
ATOM     24  O   UNL     1       3.096  35.465  76.561  0.00  0.00    +0.000 OA
ENDBRANCH   5  22
BRANCH   5  25
ATOM     25  C   UNL     1       3.359  33.094  77.742  0.00  0.00    +0.000 C 
BRANCH  25  26
ATOM     26  C   UNL     1       3.408  31.663  78.321  0.00  0.00    +0.000 C 
ATOM     27  C   UNL     1       2.007  31.038  78.240  0.00  0.00    +0.000 C 
ATOM     28  C   UNL     1       4.386  30.737  77.604  0.00  0.00    +0.000 C 
ENDBRANCH  25  26
ENDBRANCH   5  25
TORSDOF 6
ENDMDL
MODEL 7
REMARK VINA RESULT:      -6.3      2.629      5.354
REMARK  Name = 
REMARK  8 active torsions:
REMARK  status: ('A' for Active; 'I' for Inactive)
REMARK    1  A    between atoms: C_2  and  C_5
REMARK    2  A    between atoms: C_8  and  C_11
REMARK    3  A    between atoms: C_9  and  C_14
REMARK    4  A    between atoms: C_10  and  C_15
REMARK    5  A    between atoms: C_10  and  C_16
REMARK    6  A    between atoms: C_16  and  C_23
REMARK    7  A    between atoms: C_23  and  C_26
REMARK    8  A    between atoms: C_23  and  C_27
REMARK                            x       y       z     vdW  Elec       q    Type
REMARK                         _______ _______ _______ _____ _____    ______ ____
ROOT
ATOM      1  C   UNL     1       6.325  33.369  77.954  0.00  0.00    +0.000 C 
ATOM      2  N   UNL     1       7.422  32.386  77.772  0.00  0.00    +0.000 N 
ATOM      3  C   UNL     1       6.684  34.504  76.984  0.00  0.00    +0.000 C 
ATOM      4  C   UNL     1       7.347  30.995  77.867  0.00  0.00    +0.000 C 
ATOM      5  C   UNL     1       8.652  33.062  77.247  0.00  0.00    +0.000 C 
ATOM      6  C   UNL     1       8.209  34.541  77.027  0.00  0.00    +0.000 C 
ATOM      7  O   UNL     1       8.355  30.301  77.703  0.00  0.00    +0.000 OA
ENDROOT
BRANCH   4   8
ATOM      8  C   UNL     1       6.080  30.266  78.129  0.00  0.00    +0.000 A 
ATOM      9  C   UNL     1       5.262  29.905  77.049  0.00  0.00    +0.000 A 
ATOM     10  C   UNL     1       5.711  29.846  79.407  0.00  0.00    +0.000 A 
ATOM     11  C   UNL     1       4.059  29.219  77.261  0.00  0.00    +0.000 A 
ATOM     12  C   UNL     1       4.481  29.219  79.631  0.00  0.00    +0.000 A 
ATOM     13  C   UNL     1       3.655  28.908  78.557  0.00  0.00    +0.000 A 
ENDBRANCH   4   8
BRANCH   1  15
ATOM     14  S   UNL     1       4.668  33.980  80.217  0.00  0.00    +0.000 S 
ATOM     15  C   UNL     1       6.176  33.834  79.407  0.00  0.00    +0.000 A 
ATOM     16  C   UNL     1       5.399  34.288  81.725  0.00  0.00    +0.000 A 
ATOM     17  C   UNL     1       7.210  34.106  80.295  0.00  0.00    +0.000 A 
ATOM     18  C   UNL     1       6.765  34.385  81.619  0.00  0.00    +0.000 A 
ENDBRANCH   1  15
BRANCH   3  19
ATOM     19  C   UNL     1       5.924  35.783  77.265  0.00  0.00    +0.000 C 
ATOM     20  O   UNL     1       4.719  35.893  77.080  0.00  0.00    +0.000 OA
ATOM     21  O   UNL     1       6.672  36.846  77.622  0.00  0.00    +0.000 OA
ENDBRANCH   3  19
BRANCH   5  22
ATOM     22  C   UNL     1       9.799  33.023  78.305  0.00  0.00    +0.000 C 
ATOM     23  O   UNL     1      10.253  31.987  78.776  0.00  0.00    +0.000 OA
ATOM     24  O   UNL     1      10.181  34.229  78.788  0.00  0.00    +0.000 OA
ENDBRANCH   5  22
BRANCH   5  25
ATOM     25  C   UNL     1       9.280  32.492  75.932  0.00  0.00    +0.000 C 
BRANCH  25  26
ATOM     26  C   UNL     1      10.802  32.587  75.687  0.00  0.00    +0.000 C 
ATOM     27  C   UNL     1      11.254  31.378  74.853  0.00  0.00    +0.000 C 
ATOM     28  C   UNL     1      11.235  33.857  74.961  0.00  0.00    +0.000 C 
ENDBRANCH  25  26
ENDBRANCH   5  25
TORSDOF 6
ENDMDL
MODEL 8
REMARK VINA RESULT:      -6.2      2.294      3.658
REMARK  Name = 
REMARK  8 active torsions:
REMARK  status: ('A' for Active; 'I' for Inactive)
REMARK    1  A    between atoms: C_2  and  C_5
REMARK    2  A    between atoms: C_8  and  C_11
REMARK    3  A    between atoms: C_9  and  C_14
REMARK    4  A    between atoms: C_10  and  C_15
REMARK    5  A    between atoms: C_10  and  C_16
REMARK    6  A    between atoms: C_16  and  C_23
REMARK    7  A    between atoms: C_23  and  C_26
REMARK    8  A    between atoms: C_23  and  C_27
REMARK                            x       y       z     vdW  Elec       q    Type
REMARK                         _______ _______ _______ _____ _____    ______ ____
ROOT
ATOM      1  C   UNL     1       5.538  32.578  78.383  0.00  0.00    +0.000 C 
ATOM      2  N   UNL     1       5.555  33.996  78.820  0.00  0.00    +0.000 N 
ATOM      3  C   UNL     1       6.184  32.614  76.991  0.00  0.00    +0.000 C 
ATOM      4  C   UNL     1       5.699  34.488  80.119  0.00  0.00    +0.000 C 
ATOM      5  C   UNL     1       5.605  34.910  77.634  0.00  0.00    +0.000 C 
ATOM      6  C   UNL     1       5.712  33.946  76.413  0.00  0.00    +0.000 C 
ATOM      7  O   UNL     1       5.678  35.704  80.333  0.00  0.00    +0.000 OA
ENDROOT
BRANCH   4   8
ATOM      8  C   UNL     1       5.915  33.614  81.299  0.00  0.00    +0.000 A 
ATOM      9  C   UNL     1       7.221  33.235  81.640  0.00  0.00    +0.000 A 
ATOM     10  C   UNL     1       4.873  33.223  82.140  0.00  0.00    +0.000 A 
ATOM     11  C   UNL     1       7.462  32.409  82.746  0.00  0.00    +0.000 A 
ATOM     12  C   UNL     1       5.099  32.346  83.206  0.00  0.00    +0.000 A 
ATOM     13  C   UNL     1       6.393  31.938  83.506  0.00  0.00    +0.000 A 
ENDBRANCH   4   8
BRANCH   1  15
ATOM     14  S   UNL     1       3.791  30.342  78.820  0.00  0.00    +0.000 S 
ATOM     15  C   UNL     1       4.131  31.969  78.386  0.00  0.00    +0.000 A 
ATOM     16  C   UNL     1       2.105  30.583  78.783  0.00  0.00    +0.000 A 
ATOM     17  C   UNL     1       2.941  32.644  78.142  0.00  0.00    +0.000 A 
ATOM     18  C   UNL     1       1.780  31.846  78.350  0.00  0.00    +0.000 A 
ENDBRANCH   1  15
BRANCH   3  19
ATOM     19  C   UNL     1       5.934  31.353  76.190  0.00  0.00    +0.000 C 
ATOM     20  O   UNL     1       6.584  30.328  76.349  0.00  0.00    +0.000 OA
ATOM     21  O   UNL     1       5.027  31.455  75.199  0.00  0.00    +0.000 OA
ENDBRANCH   3  19
BRANCH   5  22
ATOM     22  C   UNL     1       4.288  35.740  77.518  0.00  0.00    +0.000 C 
ATOM     23  O   UNL     1       3.338  35.410  76.818  0.00  0.00    +0.000 OA
ATOM     24  O   UNL     1       4.304  36.941  78.141  0.00  0.00    +0.000 OA
ENDBRANCH   5  22
BRANCH   5  25
ATOM     25  C   UNL     1       6.764  35.961  77.586  0.00  0.00    +0.000 C 
BRANCH  25  26
ATOM     26  C   UNL     1       8.213  35.513  77.291  0.00  0.00    +0.000 C 
ATOM     27  C   UNL     1       9.077  36.754  77.017  0.00  0.00    +0.000 C 
ATOM     28  C   UNL     1       8.860  34.722  78.424  0.00  0.00    +0.000 C 
ENDBRANCH  25  26
ENDBRANCH   5  25
TORSDOF 6
ENDMDL
MODEL 9
REMARK VINA RESULT:      -6.2      2.837      6.342
REMARK  Name = 
REMARK  8 active torsions:
REMARK  status: ('A' for Active; 'I' for Inactive)
REMARK    1  A    between atoms: C_2  and  C_5
REMARK    2  A    between atoms: C_8  and  C_11
REMARK    3  A    between atoms: C_9  and  C_14
REMARK    4  A    between atoms: C_10  and  C_15
REMARK    5  A    between atoms: C_10  and  C_16
REMARK    6  A    between atoms: C_16  and  C_23
REMARK    7  A    between atoms: C_23  and  C_26
REMARK    8  A    between atoms: C_23  and  C_27
REMARK                            x       y       z     vdW  Elec       q    Type
REMARK                         _______ _______ _______ _____ _____    ______ ____
ROOT
ATOM      1  C   UNL     1       6.515  32.574  78.809  0.00  0.00    +0.000 C 
ATOM      2  N   UNL     1       7.499  31.744  79.546  0.00  0.00    +0.000 N 
ATOM      3  C   UNL     1       5.640  33.179  79.917  0.00  0.00    +0.000 C 
ATOM      4  C   UNL     1       8.828  31.488  79.202  0.00  0.00    +0.000 C 
ATOM      5  C   UNL     1       6.954  31.345  80.883  0.00  0.00    +0.000 C 
ATOM      6  C   UNL     1       5.576  32.070  80.964  0.00  0.00    +0.000 C 
ATOM      7  O   UNL     1       9.529  30.759  79.911  0.00  0.00    +0.000 OA
ENDROOT
BRANCH   4   8
ATOM      8  C   UNL     1       9.488  32.083  78.013  0.00  0.00    +0.000 A 
ATOM      9  C   UNL     1       9.381  31.436  76.774  0.00  0.00    +0.000 A 
ATOM     10  C   UNL     1      10.142  33.315  78.060  0.00  0.00    +0.000 A 
ATOM     11  C   UNL     1       9.994  31.968  75.632  0.00  0.00    +0.000 A 
ATOM     12  C   UNL     1      10.811  33.818  76.940  0.00  0.00    +0.000 A 
ATOM     13  C   UNL     1      10.737  33.143  75.727  0.00  0.00    +0.000 A 
ENDBRANCH   4   8
BRANCH   1  15
ATOM     14  S   UNL     1       5.646  32.171  76.102  0.00  0.00    +0.000 S 
ATOM     15  C   UNL     1       5.717  31.774  77.773  0.00  0.00    +0.000 A 
ATOM     16  C   UNL     1       4.818  30.738  75.698  0.00  0.00    +0.000 A 
ATOM     17  C   UNL     1       5.032  30.586  77.998  0.00  0.00    +0.000 A 
ATOM     18  C   UNL     1       4.500  30.001  76.814  0.00  0.00    +0.000 A 
ENDBRANCH   1  15
BRANCH   3  19
ATOM     19  C   UNL     1       4.339  33.753  79.396  0.00  0.00    +0.000 C 
ATOM     20  O   UNL     1       4.289  34.768  78.714  0.00  0.00    +0.000 OA
ATOM     21  O   UNL     1       3.214  33.149  79.826  0.00  0.00    +0.000 OA
ENDBRANCH   3  19
BRANCH   5  22
ATOM     22  C   UNL     1       6.725  29.802  80.949  0.00  0.00    +0.000 C 
ATOM     23  O   UNL     1       6.759  29.068  79.968  0.00  0.00    +0.000 OA
ATOM     24  O   UNL     1       6.343  29.325  82.157  0.00  0.00    +0.000 OA
ENDBRANCH   5  22
BRANCH   5  25
ATOM     25  C   UNL     1       7.814  31.692  82.144  0.00  0.00    +0.000 C 
BRANCH  25  26
ATOM     26  C   UNL     1       7.896  33.146  82.657  0.00  0.00    +0.000 C 
ATOM     27  C   UNL     1       8.207  33.132  84.162  0.00  0.00    +0.000 C 
ATOM     28  C   UNL     1       8.956  33.992  81.959  0.00  0.00    +0.000 C 
ENDBRANCH  25  26
ENDBRANCH   5  25
TORSDOF 6
ENDMDL
