MODEL 1
REMARK VINA RESULT:      -7.7      0.000      0.000
REMARK  Name = 
REMARK  9 active torsions:
REMARK  status: ('A' for Active; 'I' for Inactive)
REMARK    1  A    between atoms: C_2  and  C_5
REMARK    2  A    between atoms: C_8  and  C_11
REMARK    3  A    between atoms: C_9  and  C_14
REMARK    4  A    between atoms: C_10  and  C_15
REMARK    5  A    between atoms: C_10  and  C_16
REMARK    6  A    between atoms: C_16  and  C_23
REMARK    7  A    between atoms: C_23  and  C_26
REMARK    8  A    between atoms: C_23  and  C_27
REMARK    9  A    between atoms: C_28  and  C_29
REMARK                            x       y       z     vdW  Elec       q    Type
REMARK                         _______ _______ _______ _____ _____    ______ ____
ROOT
ATOM      1  C   UNL     1       7.158  33.478  78.812  0.00  0.00    +0.000 C 
ATOM      2  N   UNL     1       6.523  33.152  77.521  0.00  0.00    +0.000 N 
ATOM      3  C   UNL     1       6.296  32.719  79.813  0.00  0.00    +0.000 C 
ATOM      4  C   UNL     1       7.121  33.103  76.257  0.00  0.00    +0.000 C 
ATOM      5  C   UNL     1       5.059  32.924  77.702  0.00  0.00    +0.000 C 
ATOM      6  C   UNL     1       4.886  32.842  79.256  0.00  0.00    +0.000 C 
ATOM      7  O   UNL     1       6.410  33.078  75.249  0.00  0.00    +0.000 OA
ENDROOT
BRANCH   4   8
ATOM      8  C   UNL     1       8.594  33.089  76.060  0.00  0.00    +0.000 A 
ATOM      9  C   UNL     1       9.386  34.240  75.983  0.00  0.00    +0.000 A 
ATOM     10  C   UNL     1       9.243  31.844  76.039  0.00  0.00    +0.000 A 
ATOM     11  C   UNL     1      10.739  34.159  75.662  0.00  0.00    +0.000 A 
ATOM     12  C   UNL     1      10.618  31.759  75.803  0.00  0.00    +0.000 A 
ATOM     13  C   UNL     1      11.368  32.916  75.552  0.00  0.00    +0.000 A 
BRANCH  13  14
ATOM     14  C   UNL     1      12.833  32.825  75.205  0.00  0.00    +0.000 C 
ATOM     15  F   UNL     1      13.329  31.558  75.289  0.00  0.00    +0.000 F 
ATOM     16  F   UNL     1      13.092  33.244  73.938  0.00  0.00    +0.000 F 
ATOM     17  F   UNL     1      13.610  33.584  76.024  0.00  0.00    +0.000 F 
ENDBRANCH  13  14
ENDBRANCH   4   8
BRANCH   1  19
ATOM     18  S   UNL     1       8.757  35.632  79.548  0.00  0.00    +0.000 S 
ATOM     19  C   UNL     1       7.270  34.980  78.952  0.00  0.00    +0.000 A 
ATOM     20  C   UNL     1       8.218  37.239  79.367  0.00  0.00    +0.000 A 
ATOM     21  C   UNL     1       6.373  36.000  78.693  0.00  0.00    +0.000 A 
ATOM     22  C   UNL     1       6.931  37.297  78.890  0.00  0.00    +0.000 A 
ENDBRANCH   1  19
BRANCH   3  23
ATOM     23  C   UNL     1       6.559  33.120  81.242  0.00  0.00    +0.000 C 
ATOM     24  O   UNL     1       5.786  33.816  81.889  0.00  0.00    +0.000 OA
ATOM     25  O   UNL     1       7.772  32.787  81.724  0.00  0.00    +0.000 OA
ENDBRANCH   3  23
BRANCH   5  26
ATOM     26  C   UNL     1       4.208  34.132  77.185  0.00  0.00    +0.000 C 
ATOM     27  O   UNL     1       4.462  34.749  76.155  0.00  0.00    +0.000 OA
ATOM     28  O   UNL     1       3.209  34.533  77.998  0.00  0.00    +0.000 OA
ENDBRANCH   5  26
BRANCH   5  29
ATOM     29  C   UNL     1       4.472  31.655  77.006  0.00  0.00    +0.000 C 
BRANCH  29  30
ATOM     30  C   UNL     1       5.019  30.256  77.373  0.00  0.00    +0.000 C 
ATOM     31  C   UNL     1       3.862  29.248  77.401  0.00  0.00    +0.000 C 
ATOM     32  C   UNL     1       6.078  29.721  76.412  0.00  0.00    +0.000 C 
ENDBRANCH  29  30
ENDBRANCH   5  29
TORSDOF 7
ENDMDL
MODEL 2
REMARK VINA RESULT:      -7.3      1.725      5.033
REMARK  Name = 
REMARK  9 active torsions:
REMARK  status: ('A' for Active; 'I' for Inactive)
REMARK    1  A    between atoms: C_2  and  C_5
REMARK    2  A    between atoms: C_8  and  C_11
REMARK    3  A    between atoms: C_9  and  C_14
REMARK    4  A    between atoms: C_10  and  C_15
REMARK    5  A    between atoms: C_10  and  C_16
REMARK    6  A    between atoms: C_16  and  C_23
REMARK    7  A    between atoms: C_23  and  C_26
REMARK    8  A    between atoms: C_23  and  C_27
REMARK    9  A    between atoms: C_28  and  C_29
REMARK                            x       y       z     vdW  Elec       q    Type
REMARK                         _______ _______ _______ _____ _____    ______ ____
ROOT
ATOM      1  C   UNL     1       6.871  34.172  77.628  0.00  0.00    +0.000 C 
ATOM      2  N   UNL     1       7.943  34.455  78.601  0.00  0.00    +0.000 N 
ATOM      3  C   UNL     1       5.932  35.359  77.806  0.00  0.00    +0.000 C 
ATOM      4  C   UNL     1       9.283  34.053  78.545  0.00  0.00    +0.000 C 
ATOM      5  C   UNL     1       7.404  35.216  79.767  0.00  0.00    +0.000 C 
ATOM      6  C   UNL     1       5.971  35.642  79.301  0.00  0.00    +0.000 C 
ATOM      7  O   UNL     1       9.985  34.139  79.556  0.00  0.00    +0.000 OA
ENDROOT
BRANCH   4   8
ATOM      8  C   UNL     1       9.912  33.508  77.314  0.00  0.00    +0.000 A 
ATOM      9  C   UNL     1       9.935  32.149  76.982  0.00  0.00    +0.000 A 
ATOM     10  C   UNL     1      10.437  34.420  76.385  0.00  0.00    +0.000 A 
ATOM     11  C   UNL     1      10.660  31.693  75.882  0.00  0.00    +0.000 A 
ATOM     12  C   UNL     1      11.090  33.971  75.234  0.00  0.00    +0.000 A 
ATOM     13  C   UNL     1      11.259  32.599  75.004  0.00  0.00    +0.000 A 
BRANCH  13  14
ATOM     14  C   UNL     1      12.044  32.108  73.813  0.00  0.00    +0.000 C 
ATOM     15  F   UNL     1      12.503  33.115  73.018  0.00  0.00    +0.000 F 
ATOM     16  F   UNL     1      13.138  31.389  74.174  0.00  0.00    +0.000 F 
ATOM     17  F   UNL     1      11.308  31.301  73.001  0.00  0.00    +0.000 F 
ENDBRANCH  13  14
ENDBRANCH   4   8
BRANCH   1  19
ATOM     18  S   UNL     1       6.377  31.650  76.564  0.00  0.00    +0.000 S 
ATOM     19  C   UNL     1       6.326  32.782  77.871  0.00  0.00    +0.000 A 
ATOM     20  C   UNL     1       5.731  30.395  77.521  0.00  0.00    +0.000 A 
ATOM     21  C   UNL     1       5.756  32.197  78.987  0.00  0.00    +0.000 A 
ATOM     22  C   UNL     1       5.455  30.816  78.799  0.00  0.00    +0.000 A 
ENDBRANCH   1  19
BRANCH   3  23
ATOM     23  C   UNL     1       4.600  35.165  77.130  0.00  0.00    +0.000 C 
ATOM     24  O   UNL     1       4.482  34.628  76.035  0.00  0.00    +0.000 OA
ATOM     25  O   UNL     1       3.551  35.753  77.737  0.00  0.00    +0.000 OA
ENDBRANCH   3  23
BRANCH   5  26
ATOM     26  C   UNL     1       7.250  34.313  81.037  0.00  0.00    +0.000 C 
ATOM     27  O   UNL     1       8.064  33.457  81.363  0.00  0.00    +0.000 OA
ATOM     28  O   UNL     1       6.098  34.463  81.723  0.00  0.00    +0.000 OA
ENDBRANCH   5  26
BRANCH   5  29
ATOM     29  C   UNL     1       8.237  36.457  80.219  0.00  0.00    +0.000 C 
BRANCH  29  30
ATOM     30  C   UNL     1       8.215  37.748  79.369  0.00  0.00    +0.000 C 
ATOM     31  C   UNL     1       8.916  38.876  80.137  0.00  0.00    +0.000 C 
ATOM     32  C   UNL     1       8.896  37.619  78.009  0.00  0.00    +0.000 C 
ENDBRANCH  29  30
ENDBRANCH   5  29
TORSDOF 7
ENDMDL
MODEL 3
REMARK VINA RESULT:      -7.2      2.218      4.836
REMARK  Name = 
REMARK  9 active torsions:
REMARK  status: ('A' for Active; 'I' for Inactive)
REMARK    1  A    between atoms: C_2  and  C_5
REMARK    2  A    between atoms: C_8  and  C_11
REMARK    3  A    between atoms: C_9  and  C_14
REMARK    4  A    between atoms: C_10  and  C_15
REMARK    5  A    between atoms: C_10  and  C_16
REMARK    6  A    between atoms: C_16  and  C_23
REMARK    7  A    between atoms: C_23  and  C_26
REMARK    8  A    between atoms: C_23  and  C_27
REMARK    9  A    between atoms: C_28  and  C_29
REMARK                            x       y       z     vdW  Elec       q    Type
REMARK                         _______ _______ _______ _____ _____    ______ ____
ROOT
ATOM      1  C   UNL     1       6.783  32.897  78.467  0.00  0.00    +0.000 C 
ATOM      2  N   UNL     1       7.767  32.232  79.341  0.00  0.00    +0.000 N 
ATOM      3  C   UNL     1       6.002  33.771  79.441  0.00  0.00    +0.000 C 
ATOM      4  C   UNL     1       9.037  31.753  78.998  0.00  0.00    +0.000 C 
ATOM      5  C   UNL     1       7.209  32.052  80.714  0.00  0.00    +0.000 C 
ATOM      6  C   UNL     1       5.910  32.926  80.703  0.00  0.00    +0.000 C 
ATOM      7  O   UNL     1       9.626  30.988  79.767  0.00  0.00    +0.000 OA
ENDROOT
BRANCH   4   8
ATOM      8  C   UNL     1       9.720  32.113  77.728  0.00  0.00    +0.000 A 
ATOM      9  C   UNL     1       9.541  31.429  76.521  0.00  0.00    +0.000 A 
ATOM     10  C   UNL     1      10.525  33.262  77.719  0.00  0.00    +0.000 A 
ATOM     11  C   UNL     1      10.316  31.735  75.403  0.00  0.00    +0.000 A 
ATOM     12  C   UNL     1      11.239  33.626  76.573  0.00  0.00    +0.000 A 
ATOM     13  C   UNL     1      11.186  32.828  75.422  0.00  0.00    +0.000 A 
BRANCH  13  14
ATOM     14  C   UNL     1      12.025  33.162  74.214  0.00  0.00    +0.000 C 
ATOM     15  F   UNL     1      11.722  34.371  73.664  0.00  0.00    +0.000 F 
ATOM     16  F   UNL     1      13.353  33.205  74.501  0.00  0.00    +0.000 F 
ATOM     17  F   UNL     1      11.881  32.252  73.212  0.00  0.00    +0.000 F 
ENDBRANCH  13  14
ENDBRANCH   4   8
BRANCH   1  19
ATOM     18  S   UNL     1       5.638  32.211  76.026  0.00  0.00    +0.000 S 
ATOM     19  C   UNL     1       6.029  31.854  77.673  0.00  0.00    +0.000 A 
ATOM     20  C   UNL     1       4.934  30.679  75.777  0.00  0.00    +0.000 A 
ATOM     21  C   UNL     1       5.554  30.601  78.014  0.00  0.00    +0.000 A 
ATOM     22  C   UNL     1       4.965  29.910  76.915  0.00  0.00    +0.000 A 
ENDBRANCH   1  19
BRANCH   3  23
ATOM     23  C   UNL     1       4.741  34.339  78.845  0.00  0.00    +0.000 C 
ATOM     24  O   UNL     1       3.629  33.885  79.086  0.00  0.00    +0.000 OA
ATOM     25  O   UNL     1       4.920  35.291  77.908  0.00  0.00    +0.000 OA
ENDBRANCH   3  23
BRANCH   5  26
ATOM     26  C   UNL     1       6.790  30.568  80.988  0.00  0.00    +0.000 C 
ATOM     27  O   UNL     1       7.494  29.603  80.710  0.00  0.00    +0.000 OA
ATOM     28  O   UNL     1       5.543  30.394  81.471  0.00  0.00    +0.000 OA
ENDBRANCH   5  26
BRANCH   5  29
ATOM     29  C   UNL     1       8.148  32.459  81.894  0.00  0.00    +0.000 C 
BRANCH  29  30
ATOM     30  C   UNL     1       8.468  33.951  82.140  0.00  0.00    +0.000 C 
ATOM     31  C   UNL     1       8.616  34.198  83.648  0.00  0.00    +0.000 C 
ATOM     32  C   UNL     1       9.744  34.443  81.462  0.00  0.00    +0.000 C 
ENDBRANCH  29  30
ENDBRANCH   5  29
TORSDOF 7
ENDMDL
MODEL 4
REMARK VINA RESULT:      -7.1      3.627      5.657
REMARK  Name = 
REMARK  9 active torsions:
REMARK  status: ('A' for Active; 'I' for Inactive)
REMARK    1  A    between atoms: C_2  and  C_5
REMARK    2  A    between atoms: C_8  and  C_11
REMARK    3  A    between atoms: C_9  and  C_14
REMARK    4  A    between atoms: C_10  and  C_15
REMARK    5  A    between atoms: C_10  and  C_16
REMARK    6  A    between atoms: C_16  and  C_23
REMARK    7  A    between atoms: C_23  and  C_26
REMARK    8  A    between atoms: C_23  and  C_27
REMARK    9  A    between atoms: C_28  and  C_29
REMARK                            x       y       z     vdW  Elec       q    Type
REMARK                         _______ _______ _______ _____ _____    ______ ____
ROOT
ATOM      1  C   UNL     1       7.520  32.990  79.165  0.00  0.00    +0.000 C 
ATOM      2  N   UNL     1       7.582  33.272  77.719  0.00  0.00    +0.000 N 
ATOM      3  C   UNL     1       8.396  31.750  79.304  0.00  0.00    +0.000 C 
ATOM      4  C   UNL     1       7.441  34.509  77.078  0.00  0.00    +0.000 C 
ATOM      5  C   UNL     1       7.761  32.007  76.946  0.00  0.00    +0.000 C 
ATOM      6  C   UNL     1       8.103  30.947  78.045  0.00  0.00    +0.000 C 
ATOM      7  O   UNL     1       7.252  34.542  75.859  0.00  0.00    +0.000 OA
ENDROOT
BRANCH   4   8
ATOM      8  C   UNL     1       7.498  35.805  77.802  0.00  0.00    +0.000 A 
ATOM      9  C   UNL     1       8.673  36.539  78.002  0.00  0.00    +0.000 A 
ATOM     10  C   UNL     1       6.289  36.371  78.232  0.00  0.00    +0.000 A 
ATOM     11  C   UNL     1       8.677  37.678  78.807  0.00  0.00    +0.000 A 
ATOM     12  C   UNL     1       6.277  37.561  78.966  0.00  0.00    +0.000 A 
ATOM     13  C   UNL     1       7.480  38.193  79.311  0.00  0.00    +0.000 A 
BRANCH  13  14
ATOM     14  C   UNL     1       7.482  39.425  80.181  0.00  0.00    +0.000 C 
ATOM     15  F   UNL     1       7.058  39.186  81.455  0.00  0.00    +0.000 F 
ATOM     16  F   UNL     1       8.718  39.976  80.296  0.00  0.00    +0.000 F 
ATOM     17  F   UNL     1       6.671  40.405  79.698  0.00  0.00    +0.000 F 
ENDBRANCH  13  14
ENDBRANCH   4   8
BRANCH   1  19
ATOM     18  S   UNL     1       5.565  33.874  80.935  0.00  0.00    +0.000 S 
ATOM     19  C   UNL     1       6.074  32.901  79.599  0.00  0.00    +0.000 A 
ATOM     20  C   UNL     1       3.946  33.356  80.799  0.00  0.00    +0.000 A 
ATOM     21  C   UNL     1       5.013  32.152  79.124  0.00  0.00    +0.000 A 
ATOM     22  C   UNL     1       3.784  32.445  79.784  0.00  0.00    +0.000 A 
ENDBRANCH   1  19
BRANCH   3  23
ATOM     23  C   UNL     1       8.266  31.082  80.649  0.00  0.00    +0.000 C 
ATOM     24  O   UNL     1       7.622  30.054  80.820  0.00  0.00    +0.000 OA
ATOM     25  O   UNL     1       8.780  31.767  81.688  0.00  0.00    +0.000 OA
ENDBRANCH   3  23
BRANCH   5  26
ATOM     26  C   UNL     1       6.437  31.559  76.239  0.00  0.00    +0.000 C 
ATOM     27  O   UNL     1       5.645  32.341  75.725  0.00  0.00    +0.000 OA
ATOM     28  O   UNL     1       6.156  30.242  76.308  0.00  0.00    +0.000 OA
ENDBRANCH   5  26
BRANCH   5  29
ATOM     29  C   UNL     1       8.856  32.033  75.833  0.00  0.00    +0.000 C 
BRANCH  29  30
ATOM     30  C   UNL     1      10.351  31.999  76.226  0.00  0.00    +0.000 C 
ATOM     31  C   UNL     1      11.165  31.389  75.077  0.00  0.00    +0.000 C 
ATOM     32  C   UNL     1      10.950  33.366  76.546  0.00  0.00    +0.000 C 
ENDBRANCH  29  30
ENDBRANCH   5  29
TORSDOF 7
ENDMDL
MODEL 5
REMARK VINA RESULT:      -6.7      3.832      6.751
REMARK  Name = 
REMARK  9 active torsions:
REMARK  status: ('A' for Active; 'I' for Inactive)
REMARK    1  A    between atoms: C_2  and  C_5
REMARK    2  A    between atoms: C_8  and  C_11
REMARK    3  A    between atoms: C_9  and  C_14
REMARK    4  A    between atoms: C_10  and  C_15
REMARK    5  A    between atoms: C_10  and  C_16
REMARK    6  A    between atoms: C_16  and  C_23
REMARK    7  A    between atoms: C_23  and  C_26
REMARK    8  A    between atoms: C_23  and  C_27
REMARK    9  A    between atoms: C_28  and  C_29
REMARK                            x       y       z     vdW  Elec       q    Type
REMARK                         _______ _______ _______ _____ _____    ______ ____
ROOT
ATOM      1  C   UNL     1       7.867  34.135  77.964  0.00  0.00    +0.000 C 
ATOM      2  N   UNL     1       6.985  34.842  78.912  0.00  0.00    +0.000 N 
ATOM      3  C   UNL     1       8.985  35.144  77.728  0.00  0.00    +0.000 C 
ATOM      4  C   UNL     1       6.130  34.284  79.869  0.00  0.00    +0.000 C 
ATOM      5  C   UNL     1       7.054  36.316  78.691  0.00  0.00    +0.000 C 
ATOM      6  C   UNL     1       8.275  36.490  77.727  0.00  0.00    +0.000 C 
ATOM      7  O   UNL     1       5.266  34.990  80.397  0.00  0.00    +0.000 OA
ENDROOT
BRANCH   4   8
ATOM      8  C   UNL     1       6.200  32.858  80.283  0.00  0.00    +0.000 A 
ATOM      9  C   UNL     1       7.319  32.272  80.886  0.00  0.00    +0.000 A 
ATOM     10  C   UNL     1       5.045  32.075  80.142  0.00  0.00    +0.000 A 
ATOM     11  C   UNL     1       7.368  30.899  81.123  0.00  0.00    +0.000 A 
ATOM     12  C   UNL     1       5.060  30.714  80.461  0.00  0.00    +0.000 A 
ATOM     13  C   UNL     1       6.242  30.101  80.898  0.00  0.00    +0.000 A 
BRANCH  13  14
ATOM     14  C   UNL     1       6.292  28.616  81.155  0.00  0.00    +0.000 C 
ATOM     15  F   UNL     1       6.459  28.302  82.470  0.00  0.00    +0.000 F 
ATOM     16  F   UNL     1       5.155  27.984  80.762  0.00  0.00    +0.000 F 
ATOM     17  F   UNL     1       7.314  28.007  80.494  0.00  0.00    +0.000 F 
ENDBRANCH  13  14
ENDBRANCH   4   8
BRANCH   1  19
ATOM     18  S   UNL     1       6.454  32.048  76.788  0.00  0.00    +0.000 S 
ATOM     19  C   UNL     1       7.057  33.669  76.775  0.00  0.00    +0.000 A 
ATOM     20  C   UNL     1       5.641  32.253  75.303  0.00  0.00    +0.000 A 
ATOM     21  C   UNL     1       6.682  34.307  75.607  0.00  0.00    +0.000 A 
ATOM     22  C   UNL     1       5.835  33.510  74.783  0.00  0.00    +0.000 A 
ENDBRANCH   1  19
BRANCH   3  23
ATOM     23  C   UNL     1       9.873  34.781  76.566  0.00  0.00    +0.000 C 
ATOM     24  O   UNL     1      10.114  33.622  76.252  0.00  0.00    +0.000 OA
ATOM     25  O   UNL     1      10.509  35.813  75.978  0.00  0.00    +0.000 OA
ENDBRANCH   3  23
BRANCH   5  26
ATOM     26  C   UNL     1       5.781  36.861  77.960  0.00  0.00    +0.000 C 
ATOM     27  O   UNL     1       4.961  36.141  77.399  0.00  0.00    +0.000 OA
ATOM     28  O   UNL     1       5.675  38.204  77.894  0.00  0.00    +0.000 OA
ENDBRANCH   5  26
BRANCH   5  29
ATOM     29  C   UNL     1       7.223  37.194  79.972  0.00  0.00    +0.000 C 
BRANCH  29  30
ATOM     30  C   UNL     1       8.509  38.031  80.165  0.00  0.00    +0.000 C 
ATOM     31  C   UNL     1       8.132  39.506  80.359  0.00  0.00    +0.000 C 
ATOM     32  C   UNL     1       9.363  37.609  81.357  0.00  0.00    +0.000 C 
ENDBRANCH  29  30
ENDBRANCH   5  29
TORSDOF 7
ENDMDL
MODEL 6
REMARK VINA RESULT:      -6.7      1.561      2.015
REMARK  Name = 
REMARK  9 active torsions:
REMARK  status: ('A' for Active; 'I' for Inactive)
REMARK    1  A    between atoms: C_2  and  C_5
REMARK    2  A    between atoms: C_8  and  C_11
REMARK    3  A    between atoms: C_9  and  C_14
REMARK    4  A    between atoms: C_10  and  C_15
REMARK    5  A    between atoms: C_10  and  C_16
REMARK    6  A    between atoms: C_16  and  C_23
REMARK    7  A    between atoms: C_23  and  C_26
REMARK    8  A    between atoms: C_23  and  C_27
REMARK    9  A    between atoms: C_28  and  C_29
REMARK                            x       y       z     vdW  Elec       q    Type
REMARK                         _______ _______ _______ _____ _____    ______ ____
ROOT
ATOM      1  C   UNL     1       7.454  32.469  79.234  0.00  0.00    +0.000 C 
ATOM      2  N   UNL     1       6.723  33.049  78.092  0.00  0.00    +0.000 N 
ATOM      3  C   UNL     1       6.419  31.542  79.861  0.00  0.00    +0.000 C 
ATOM      4  C   UNL     1       7.251  33.527  76.887  0.00  0.00    +0.000 C 
ATOM      5  C   UNL     1       5.265  33.140  78.397  0.00  0.00    +0.000 C 
ATOM      6  C   UNL     1       5.106  32.295  79.705  0.00  0.00    +0.000 C 
ATOM      7  O   UNL     1       6.547  34.222  76.148  0.00  0.00    +0.000 OA
ENDROOT
BRANCH   4   8
ATOM      8  C   UNL     1       8.642  33.246  76.446  0.00  0.00    +0.000 A 
ATOM      9  C   UNL     1       9.643  34.219  76.345  0.00  0.00    +0.000 A 
ATOM     10  C   UNL     1       8.998  31.911  76.204  0.00  0.00    +0.000 A 
ATOM     11  C   UNL     1      10.887  33.912  75.795  0.00  0.00    +0.000 A 
ATOM     12  C   UNL     1      10.274  31.585  75.735  0.00  0.00    +0.000 A 
ATOM     13  C   UNL     1      11.211  32.592  75.469  0.00  0.00    +0.000 A 
BRANCH  13  14
ATOM     14  C   UNL     1      12.556  32.257  74.875  0.00  0.00    +0.000 C 
ATOM     15  F   UNL     1      13.570  33.021  75.372  0.00  0.00    +0.000 F 
ATOM     16  F   UNL     1      12.915  30.966  75.101  0.00  0.00    +0.000 F 
ATOM     17  F   UNL     1      12.588  32.431  73.526  0.00  0.00    +0.000 F 
ENDBRANCH  13  14
ENDBRANCH   4   8
BRANCH   1  19
ATOM     18  S   UNL     1       7.216  33.987  81.552  0.00  0.00    +0.000 S 
ATOM     19  C   UNL     1       8.030  33.581  80.081  0.00  0.00    +0.000 A 
ATOM     20  C   UNL     1       8.384  35.157  81.970  0.00  0.00    +0.000 A 
ATOM     21  C   UNL     1       9.136  34.394  79.909  0.00  0.00    +0.000 A 
ATOM     22  C   UNL     1       9.363  35.267  81.012  0.00  0.00    +0.000 A 
ENDBRANCH   1  19
BRANCH   3  23
ATOM     23  C   UNL     1       6.822  31.044  81.225  0.00  0.00    +0.000 C 
ATOM     24  O   UNL     1       7.948  30.632  81.476  0.00  0.00    +0.000 OA
ATOM     25  O   UNL     1       5.822  30.939  82.122  0.00  0.00    +0.000 OA
ENDBRANCH   3  23
BRANCH   5  26
ATOM     26  C   UNL     1       4.821  34.608  78.714  0.00  0.00    +0.000 C 
ATOM     27  O   UNL     1       5.063  35.175  79.774  0.00  0.00    +0.000 OA
ATOM     28  O   UNL     1       4.058  35.203  77.774  0.00  0.00    +0.000 OA
ENDBRANCH   5  26
BRANCH   5  29
ATOM     29  C   UNL     1       4.298  32.630  77.280  0.00  0.00    +0.000 C 
BRANCH  29  30
ATOM     30  C   UNL     1       4.402  31.170  76.784  0.00  0.00    +0.000 C 
ATOM     31  C   UNL     1       3.020  30.507  76.859  0.00  0.00    +0.000 C 
ATOM     32  C   UNL     1       4.910  31.025  75.352  0.00  0.00    +0.000 C 
ENDBRANCH  29  30
ENDBRANCH   5  29
TORSDOF 7
ENDMDL
MODEL 7
REMARK VINA RESULT:      -6.6      1.650      2.070
REMARK  Name = 
REMARK  9 active torsions:
REMARK  status: ('A' for Active; 'I' for Inactive)
REMARK    1  A    between atoms: C_2  and  C_5
REMARK    2  A    between atoms: C_8  and  C_11
REMARK    3  A    between atoms: C_9  and  C_14
REMARK    4  A    between atoms: C_10  and  C_15
REMARK    5  A    between atoms: C_10  and  C_16
REMARK    6  A    between atoms: C_16  and  C_23
REMARK    7  A    between atoms: C_23  and  C_26
REMARK    8  A    between atoms: C_23  and  C_27
REMARK    9  A    between atoms: C_28  and  C_29
REMARK                            x       y       z     vdW  Elec       q    Type
REMARK                         _______ _______ _______ _____ _____    ______ ____
ROOT
ATOM      1  C   UNL     1       7.158  33.861  79.476  0.00  0.00    +0.000 C 
ATOM      2  N   UNL     1       6.684  32.777  78.594  0.00  0.00    +0.000 N 
ATOM      3  C   UNL     1       6.653  33.426  80.846  0.00  0.00    +0.000 C 
ATOM      4  C   UNL     1       7.249  32.340  77.390  0.00  0.00    +0.000 C 
ATOM      5  C   UNL     1       5.416  32.192  79.120  0.00  0.00    +0.000 C 
ATOM      6  C   UNL     1       5.296  32.799  80.558  0.00  0.00    +0.000 C 
ATOM      7  O   UNL     1       6.592  31.611  76.641  0.00  0.00    +0.000 OA
ENDROOT
BRANCH   4   8
ATOM      8  C   UNL     1       8.617  32.722  76.954  0.00  0.00    +0.000 A 
ATOM      9  C   UNL     1       9.768  31.983  77.249  0.00  0.00    +0.000 A 
ATOM     10  C   UNL     1       8.752  33.842  76.119  0.00  0.00    +0.000 A 
ATOM     11  C   UNL     1      11.034  32.470  76.926  0.00  0.00    +0.000 A 
ATOM     12  C   UNL     1      10.015  34.287  75.718  0.00  0.00    +0.000 A 
ATOM     13  C   UNL     1      11.172  33.637  76.169  0.00  0.00    +0.000 A 
BRANCH  13  14
ATOM     14  C   UNL     1      12.540  34.165  75.817  0.00  0.00    +0.000 C 
ATOM     15  F   UNL     1      12.980  33.750  74.596  0.00  0.00    +0.000 F 
ATOM     16  F   UNL     1      12.579  35.523  75.787  0.00  0.00    +0.000 F 
ATOM     17  F   UNL     1      13.493  33.777  76.707  0.00  0.00    +0.000 F 
ENDBRANCH  13  14
ENDBRANCH   4   8
BRANCH   1  19
ATOM     18  S   UNL     1       7.877  36.439  78.720  0.00  0.00    +0.000 S 
ATOM     19  C   UNL     1       6.697  35.193  78.929  0.00  0.00    +0.000 A 
ATOM     20  C   UNL     1       6.740  37.516  78.047  0.00  0.00    +0.000 A 
ATOM     21  C   UNL     1       5.449  35.649  78.543  0.00  0.00    +0.000 A 
ATOM     22  C   UNL     1       5.482  36.966  77.997  0.00  0.00    +0.000 A 
ENDBRANCH   1  19
BRANCH   3  23
ATOM     23  C   UNL     1       6.754  34.512  81.885  0.00  0.00    +0.000 C 
ATOM     24  O   UNL     1       7.817  34.851  82.391  0.00  0.00    +0.000 OA
ATOM     25  O   UNL     1       5.580  34.993  82.338  0.00  0.00    +0.000 OA
ENDBRANCH   3  23
BRANCH   5  26
ATOM     26  C   UNL     1       4.168  32.657  78.296  0.00  0.00    +0.000 C 
ATOM     27  O   UNL     1       4.155  32.734  77.072  0.00  0.00    +0.000 OA
ATOM     28  O   UNL     1       3.110  33.071  79.022  0.00  0.00    +0.000 OA
ENDBRANCH   5  26
BRANCH   5  29
ATOM     29  C   UNL     1       5.346  30.633  79.163  0.00  0.00    +0.000 C 
BRANCH  29  30
ATOM     30  C   UNL     1       6.243  29.851  80.151  0.00  0.00    +0.000 C 
ATOM     31  C   UNL     1       5.539  28.551  80.559  0.00  0.00    +0.000 C 
ATOM     32  C   UNL     1       7.617  29.481  79.597  0.00  0.00    +0.000 C 
ENDBRANCH  29  30
ENDBRANCH   5  29
TORSDOF 7
ENDMDL
MODEL 8
REMARK VINA RESULT:      -6.4      3.157      5.790
REMARK  Name = 
REMARK  9 active torsions:
REMARK  status: ('A' for Active; 'I' for Inactive)
REMARK    1  A    between atoms: C_2  and  C_5
REMARK    2  A    between atoms: C_8  and  C_11
REMARK    3  A    between atoms: C_9  and  C_14
REMARK    4  A    between atoms: C_10  and  C_15
REMARK    5  A    between atoms: C_10  and  C_16
REMARK    6  A    between atoms: C_16  and  C_23
REMARK    7  A    between atoms: C_23  and  C_26
REMARK    8  A    between atoms: C_23  and  C_27
REMARK    9  A    between atoms: C_28  and  C_29
REMARK                            x       y       z     vdW  Elec       q    Type
REMARK                         _______ _______ _______ _____ _____    ______ ____
ROOT
ATOM      1  C   UNL     1       6.272  33.629  77.379  0.00  0.00    +0.000 C 
ATOM      2  N   UNL     1       5.839  33.263  78.741  0.00  0.00    +0.000 N 
ATOM      3  C   UNL     1       5.095  33.183  76.521  0.00  0.00    +0.000 C 
ATOM      4  C   UNL     1       6.213  33.860  79.951  0.00  0.00    +0.000 C 
ATOM      5  C   UNL     1       4.946  32.068  78.703  0.00  0.00    +0.000 C 
ATOM      6  C   UNL     1       4.619  31.898  77.182  0.00  0.00    +0.000 C 
ATOM      7  O   UNL     1       5.979  33.277  81.013  0.00  0.00    +0.000 OA
ENDROOT
BRANCH   4   8
ATOM      8  C   UNL     1       6.899  35.176  80.025  0.00  0.00    +0.000 A 
ATOM      9  C   UNL     1       6.363  36.368  79.522  0.00  0.00    +0.000 A 
ATOM     10  C   UNL     1       8.116  35.245  80.719  0.00  0.00    +0.000 A 
ATOM     11  C   UNL     1       7.117  37.540  79.503  0.00  0.00    +0.000 A 
ATOM     12  C   UNL     1       8.839  36.441  80.779  0.00  0.00    +0.000 A 
ATOM     13  C   UNL     1       8.372  37.585  80.118  0.00  0.00    +0.000 A 
BRANCH  13  14
ATOM     14  C   UNL     1       9.190  38.852  80.099  0.00  0.00    +0.000 C 
ATOM     15  F   UNL     1       8.450  39.974  80.326  0.00  0.00    +0.000 F 
ATOM     16  F   UNL     1      10.168  38.852  81.042  0.00  0.00    +0.000 F 
ATOM     17  F   UNL     1       9.812  39.052  78.905  0.00  0.00    +0.000 F 
ENDBRANCH  13  14
ENDBRANCH   4   8
BRANCH   1  19
ATOM     18  S   UNL     1       9.022  34.036  77.286  0.00  0.00    +0.000 S 
ATOM     19  C   UNL     1       7.631  33.024  77.104  0.00  0.00    +0.000 A 
ATOM     20  C   UNL     1      10.096  32.761  76.927  0.00  0.00    +0.000 A 
ATOM     21  C   UNL     1       8.014  31.755  76.708  0.00  0.00    +0.000 A 
ATOM     22  C   UNL     1       9.429  31.593  76.649  0.00  0.00    +0.000 A 
ENDBRANCH   1  19
BRANCH   3  23
ATOM     23  C   UNL     1       5.407  33.179  75.046  0.00  0.00    +0.000 C 
ATOM     24  O   UNL     1       5.246  32.194  74.336  0.00  0.00    +0.000 OA
ATOM     25  O   UNL     1       6.016  34.286  74.580  0.00  0.00    +0.000 OA
ENDBRANCH   3  23
BRANCH   5  26
ATOM     26  C   UNL     1       5.679  30.771  79.186  0.00  0.00    +0.000 C 
ATOM     27  O   UNL     1       6.834  30.759  79.600  0.00  0.00    +0.000 OA
ATOM     28  O   UNL     1       4.992  29.621  79.034  0.00  0.00    +0.000 OA
ENDBRANCH   5  26
BRANCH   5  29
ATOM     29  C   UNL     1       3.637  32.163  79.549  0.00  0.00    +0.000 C 
BRANCH  29  30
ATOM     30  C   UNL     1       2.428  32.960  79.007  0.00  0.00    +0.000 C 
ATOM     31  C   UNL     1       1.130  32.341  79.541  0.00  0.00    +0.000 C 
ATOM     32  C   UNL     1       2.428  34.439  79.383  0.00  0.00    +0.000 C 
ENDBRANCH  29  30
ENDBRANCH   5  29
TORSDOF 7
ENDMDL
MODEL 9
REMARK VINA RESULT:      -6.4      3.694      5.619
REMARK  Name = 
REMARK  9 active torsions:
REMARK  status: ('A' for Active; 'I' for Inactive)
REMARK    1  A    between atoms: C_2  and  C_5
REMARK    2  A    between atoms: C_8  and  C_11
REMARK    3  A    between atoms: C_9  and  C_14
REMARK    4  A    between atoms: C_10  and  C_15
REMARK    5  A    between atoms: C_10  and  C_16
REMARK    6  A    between atoms: C_16  and  C_23
REMARK    7  A    between atoms: C_23  and  C_26
REMARK    8  A    between atoms: C_23  and  C_27
REMARK    9  A    between atoms: C_28  and  C_29
REMARK                            x       y       z     vdW  Elec       q    Type
REMARK                         _______ _______ _______ _____ _____    ______ ____
ROOT
ATOM      1  C   UNL     1       6.375  33.864  79.328  0.00  0.00    +0.000 C 
ATOM      2  N   UNL     1       7.069  34.315  78.107  0.00  0.00    +0.000 N 
ATOM      3  C   UNL     1       6.434  32.346  79.207  0.00  0.00    +0.000 C 
ATOM      4  C   UNL     1       7.775  35.508  77.911  0.00  0.00    +0.000 C 
ATOM      5  C   UNL     1       6.876  33.330  77.002  0.00  0.00    +0.000 C 
ATOM      6  C   UNL     1       6.255  32.085  77.719  0.00  0.00    +0.000 C 
ATOM      7  O   UNL     1       8.067  35.859  76.764  0.00  0.00    +0.000 OA
ENDROOT
BRANCH   4   8
ATOM      8  C   UNL     1       8.189  36.395  79.029  0.00  0.00    +0.000 A 
ATOM      9  C   UNL     1       8.763  35.937  80.221  0.00  0.00    +0.000 A 
ATOM     10  C   UNL     1       8.081  37.781  78.843  0.00  0.00    +0.000 A 
ATOM     11  C   UNL     1       9.002  36.809  81.281  0.00  0.00    +0.000 A 
ATOM     12  C   UNL     1       8.402  38.668  79.874  0.00  0.00    +0.000 A 
ATOM     13  C   UNL     1       8.809  38.184  81.125  0.00  0.00    +0.000 A 
BRANCH  13  14
ATOM     14  C   UNL     1       9.067  39.130  82.271  0.00  0.00    +0.000 C 
ATOM     15  F   UNL     1       8.752  40.424  81.983  0.00  0.00    +0.000 F 
ATOM     16  F   UNL     1       8.350  38.809  83.380  0.00  0.00    +0.000 F 
ATOM     17  F   UNL     1      10.373  39.141  82.653  0.00  0.00    +0.000 F 
ENDBRANCH  13  14
ENDBRANCH   4   8
BRANCH   1  19
ATOM     18  S   UNL     1       4.878  35.981  80.334  0.00  0.00    +0.000 S 
ATOM     19  C   UNL     1       5.018  34.526  79.410  0.00  0.00    +0.000 A 
ATOM     20  C   UNL     1       3.232  36.174  79.930  0.00  0.00    +0.000 A 
ATOM     21  C   UNL     1       3.791  34.184  78.871  0.00  0.00    +0.000 A 
ATOM     22  C   UNL     1       2.777  35.151  79.133  0.00  0.00    +0.000 A 
ENDBRANCH   1  19
BRANCH   3  23
ATOM     23  C   UNL     1       5.536  31.639  80.190  0.00  0.00    +0.000 C 
ATOM     24  O   UNL     1       5.697  31.703  81.402  0.00  0.00    +0.000 OA
ATOM     25  O   UNL     1       4.625  30.808  79.648  0.00  0.00    +0.000 OA
ENDBRANCH   3  23
BRANCH   5  26
ATOM     26  C   UNL     1       5.846  33.837  75.937  0.00  0.00    +0.000 C 
ATOM     27  O   UNL     1       5.123  34.814  76.103  0.00  0.00    +0.000 OA
ATOM     28  O   UNL     1       5.722  33.070  74.834  0.00  0.00    +0.000 OA
ENDBRANCH   5  26
BRANCH   5  29
ATOM     29  C   UNL     1       8.160  32.935  76.205  0.00  0.00    +0.000 C 
BRANCH  29  30
ATOM     30  C   UNL     1       9.162  31.928  76.814  0.00  0.00    +0.000 C 
ATOM     31  C   UNL     1      10.134  31.454  75.725  0.00  0.00    +0.000 C 
ATOM     32  C   UNL     1       9.992  32.483  77.968  0.00  0.00    +0.000 C 
ENDBRANCH  29  30
ENDBRANCH   5  29
TORSDOF 7
ENDMDL
