MODEL 1
REMARK VINA RESULT:      -7.4      0.000      0.000
REMARK  Name = 
REMARK  8 active torsions:
REMARK  status: ('A' for Active; 'I' for Inactive)
REMARK    1  A    between atoms: C_2  and  C_5
REMARK    2  A    between atoms: C_10  and  C_11
REMARK    3  A    between atoms: C_14  and  C_16
REMARK    4  A    between atoms: C_14  and  C_18
REMARK    5  A    between atoms: C_15  and  C_19
REMARK    6  A    between atoms: C_18  and  C_23
REMARK    7  A    between atoms: C_20  and  C_26
REMARK    8  A    between atoms: C_23  and  C_27
REMARK                            x       y       z     vdW  Elec       q    Type
REMARK                         _______ _______ _______ _____ _____    ______ ____
ROOT
ATOM      1  C   UNL     1       7.343  30.509  79.076  0.00  0.00    +0.000 C 
ATOM      2  O   UNL     1       7.604  29.367  79.453  0.00  0.00    +0.000 OA
ATOM      3  N   UNL     1       6.056  31.041  79.269  0.00  0.00    +0.000 N 
ATOM      4  C   UNL     1       5.081  30.376  80.190  0.00  0.00    +0.000 C 
ATOM      5  C   UNL     1       5.615  32.441  79.009  0.00  0.00    +0.000 C 
ATOM      6  C   UNL     1       3.770  31.112  79.798  0.00  0.00    +0.000 C 
ATOM      7  C   UNL     1       4.194  32.563  79.578  0.00  0.00    +0.000 C 
ENDROOT
BRANCH   1  13
ATOM      8  C   UNL     1      10.058  32.775  76.607  0.00  0.00    +0.000 A 
ATOM      9  C   UNL     1       9.353  31.683  76.082  0.00  0.00    +0.000 A 
ATOM     10  C   UNL     1       9.974  33.023  77.982  0.00  0.00    +0.000 A 
ATOM     11  C   UNL     1       8.512  30.916  76.905  0.00  0.00    +0.000 A 
ATOM     12  C   UNL     1       9.200  32.208  78.813  0.00  0.00    +0.000 A 
ATOM     13  C   UNL     1       8.382  31.220  78.270  0.00  0.00    +0.000 A 
BRANCH   8  15
ATOM     14  F   UNL     1      11.303  33.135  74.579  0.00  0.00    +0.000 F 
ATOM     15  C   UNL     1      10.893  33.696  75.748  0.00  0.00    +0.000 C 
ATOM     16  F   UNL     1      12.026  34.105  76.385  0.00  0.00    +0.000 F 
ATOM     17  F   UNL     1      10.230  34.836  75.407  0.00  0.00    +0.000 F 
ENDBRANCH   8  15
ENDBRANCH   1  13
BRANCH   5  18
ATOM     18  C   UNL     1       5.812  32.948  77.598  0.00  0.00    +0.000 A 
ATOM     19  C   UNL     1       5.379  32.239  76.472  0.00  0.00    +0.000 A 
ATOM     20  C   UNL     1       6.516  34.155  77.407  0.00  0.00    +0.000 A 
ATOM     21  C   UNL     1       5.708  32.686  75.191  0.00  0.00    +0.000 A 
ATOM     22  C   UNL     1       6.833  34.604  76.127  0.00  0.00    +0.000 A 
ATOM     23  C   UNL     1       6.440  33.860  75.019  0.00  0.00    +0.000 A 
ENDBRANCH   5  18
BRANCH   4  24
ATOM     24  C   UNL     1       4.734  28.884  79.981  0.00  0.00    +0.000 C 
ATOM     25  O   UNL     1       4.872  28.024  80.842  0.00  0.00    +0.000 OA
ATOM     26  O   UNL     1       4.129  28.601  78.805  0.00  0.00    +0.000 OA
ENDBRANCH   4  24
BRANCH   7  27
ATOM     27  C   UNL     1       3.230  33.339  78.715  0.00  0.00    +0.000 C 
ATOM     28  O   UNL     1       3.191  34.557  78.641  0.00  0.00    +0.000 OA
ATOM     29  O   UNL     1       2.378  32.549  78.019  0.00  0.00    +0.000 OA
ENDBRANCH   7  27
BRANCH   4  30
ATOM     30  C   UNL     1       5.391  30.648  81.690  0.00  0.00    +0.000 C 
BRANCH  30  31
ATOM     31  C   UNL     1       6.541  31.620  81.963  0.00  0.00    +0.000 C 
BRANCH  31  32
ATOM     32  C   UNL     1       7.592  30.975  82.834  0.00  0.00    +0.000 C 
ATOM     33  O   UNL     1       8.641  31.512  83.164  0.00  0.00    +0.000 OA
ATOM     34  O   UNL     1       7.291  29.702  83.173  0.00  0.00    +0.000 OA
ENDBRANCH  31  32
ENDBRANCH  30  31
ENDBRANCH   4  30
TORSDOF 8
ENDMDL
MODEL 2
REMARK VINA RESULT:      -7.4      4.420      7.018
REMARK  Name = 
REMARK  8 active torsions:
REMARK  status: ('A' for Active; 'I' for Inactive)
REMARK    1  A    between atoms: C_2  and  C_5
REMARK    2  A    between atoms: C_10  and  C_11
REMARK    3  A    between atoms: C_14  and  C_16
REMARK    4  A    between atoms: C_14  and  C_18
REMARK    5  A    between atoms: C_15  and  C_19
REMARK    6  A    between atoms: C_18  and  C_23
REMARK    7  A    between atoms: C_20  and  C_26
REMARK    8  A    between atoms: C_23  and  C_27
REMARK                            x       y       z     vdW  Elec       q    Type
REMARK                         _______ _______ _______ _____ _____    ______ ____
ROOT
ATOM      1  C   UNL     1       8.012  31.463  76.589  0.00  0.00    +0.000 C 
ATOM      2  O   UNL     1       8.839  30.559  76.477  0.00  0.00    +0.000 OA
ATOM      3  N   UNL     1       8.438  32.792  76.764  0.00  0.00    +0.000 N 
ATOM      4  C   UNL     1       9.861  33.182  76.513  0.00  0.00    +0.000 C 
ATOM      5  C   UNL     1       7.584  34.014  76.769  0.00  0.00    +0.000 C 
ATOM      6  C   UNL     1       9.888  34.597  77.154  0.00  0.00    +0.000 C 
ATOM      7  C   UNL     1       8.541  35.215  76.779  0.00  0.00    +0.000 C 
ENDROOT
BRANCH   1  13
ATOM      8  C   UNL     1       3.806  30.657  77.098  0.00  0.00    +0.000 A 
ATOM      9  C   UNL     1       4.722  30.361  78.119  0.00  0.00    +0.000 A 
ATOM     10  C   UNL     1       4.303  31.081  75.860  0.00  0.00    +0.000 A 
ATOM     11  C   UNL     1       6.096  30.576  77.925  0.00  0.00    +0.000 A 
ATOM     12  C   UNL     1       5.677  31.216  75.645  0.00  0.00    +0.000 A 
ATOM     13  C   UNL     1       6.575  31.070  76.701  0.00  0.00    +0.000 A 
BRANCH   8  15
ATOM     14  F   UNL     1       1.948  29.934  78.446  0.00  0.00    +0.000 F 
ATOM     15  C   UNL     1       2.311  30.545  77.287  0.00  0.00    +0.000 C 
ATOM     16  F   UNL     1       1.719  29.832  76.287  0.00  0.00    +0.000 F 
ATOM     17  F   UNL     1       1.692  31.759  77.289  0.00  0.00    +0.000 F 
ENDBRANCH   8  15
ENDBRANCH   1  13
BRANCH   5  18
ATOM     18  C   UNL     1       6.471  34.043  77.792  0.00  0.00    +0.000 A 
ATOM     19  C   UNL     1       6.675  33.727  79.140  0.00  0.00    +0.000 A 
ATOM     20  C   UNL     1       5.163  34.341  77.360  0.00  0.00    +0.000 A 
ATOM     21  C   UNL     1       5.590  33.635  80.013  0.00  0.00    +0.000 A 
ATOM     22  C   UNL     1       4.083  34.259  78.236  0.00  0.00    +0.000 A 
ATOM     23  C   UNL     1       4.297  33.893  79.560  0.00  0.00    +0.000 A 
ENDBRANCH   5  18
BRANCH   4  24
ATOM     24  C   UNL     1      10.995  32.430  77.248  0.00  0.00    +0.000 C 
ATOM     25  O   UNL     1      10.997  32.205  78.451  0.00  0.00    +0.000 OA
ATOM     26  O   UNL     1      11.946  31.907  76.440  0.00  0.00    +0.000 OA
ENDBRANCH   4  24
BRANCH   7  27
ATOM     27  C   UNL     1       8.132  36.345  77.689  0.00  0.00    +0.000 C 
ATOM     28  O   UNL     1       8.576  36.529  78.811  0.00  0.00    +0.000 OA
ATOM     29  O   UNL     1       7.193  37.158  77.147  0.00  0.00    +0.000 OA
ENDBRANCH   7  27
BRANCH   4  30
ATOM     30  C   UNL     1      10.192  33.301  74.998  0.00  0.00    +0.000 C 
BRANCH  30  31
ATOM     31  C   UNL     1      11.307  34.285  74.639  0.00  0.00    +0.000 C 
BRANCH  31  32
ATOM     32  C   UNL     1      12.101  33.787  73.456  0.00  0.00    +0.000 C 
ATOM     33  O   UNL     1      12.572  32.661  73.363  0.00  0.00    +0.000 OA
ATOM     34  O   UNL     1      12.302  34.736  72.515  0.00  0.00    +0.000 OA
ENDBRANCH  31  32
ENDBRANCH  30  31
ENDBRANCH   4  30
TORSDOF 8
ENDMDL
MODEL 3
REMARK VINA RESULT:      -7.3      4.055      6.410
REMARK  Name = 
REMARK  8 active torsions:
REMARK  status: ('A' for Active; 'I' for Inactive)
REMARK    1  A    between atoms: C_2  and  C_5
REMARK    2  A    between atoms: C_10  and  C_11
REMARK    3  A    between atoms: C_14  and  C_16
REMARK    4  A    between atoms: C_14  and  C_18
REMARK    5  A    between atoms: C_15  and  C_19
REMARK    6  A    between atoms: C_18  and  C_23
REMARK    7  A    between atoms: C_20  and  C_26
REMARK    8  A    between atoms: C_23  and  C_27
REMARK                            x       y       z     vdW  Elec       q    Type
REMARK                         _______ _______ _______ _____ _____    ______ ____
ROOT
ATOM      1  C   UNL     1       4.938  33.529  79.910  0.00  0.00    +0.000 C 
ATOM      2  O   UNL     1       3.962  34.107  80.388  0.00  0.00    +0.000 OA
ATOM      3  N   UNL     1       5.635  34.096  78.828  0.00  0.00    +0.000 N 
ATOM      4  C   UNL     1       5.414  35.523  78.436  0.00  0.00    +0.000 C 
ATOM      5  C   UNL     1       6.911  33.609  78.229  0.00  0.00    +0.000 C 
ATOM      6  C   UNL     1       6.114  35.550  77.048  0.00  0.00    +0.000 C 
ATOM      7  C   UNL     1       7.360  34.684  77.229  0.00  0.00    +0.000 C 
ENDROOT
BRANCH   1  13
ATOM      8  C   UNL     1       5.962  29.489  81.017  0.00  0.00    +0.000 A 
ATOM      9  C   UNL     1       4.814  29.755  80.256  0.00  0.00    +0.000 A 
ATOM     10  C   UNL     1       6.685  30.570  81.532  0.00  0.00    +0.000 A 
ATOM     11  C   UNL     1       4.457  31.078  79.946  0.00  0.00    +0.000 A 
ATOM     12  C   UNL     1       6.281  31.886  81.289  0.00  0.00    +0.000 A 
ATOM     13  C   UNL     1       5.234  32.152  80.410  0.00  0.00    +0.000 A 
BRANCH   8  15
ATOM     14  F   UNL     1       6.890  27.896  82.564  0.00  0.00    +0.000 F 
ATOM     15  C   UNL     1       6.450  28.085  81.291  0.00  0.00    +0.000 C 
ATOM     16  F   UNL     1       7.490  27.736  80.481  0.00  0.00    +0.000 F 
ATOM     17  F   UNL     1       5.487  27.146  81.081  0.00  0.00    +0.000 F 
ENDBRANCH   8  15
ENDBRANCH   1  13
BRANCH   5  18
ATOM     18  C   UNL     1       6.904  32.186  77.718  0.00  0.00    +0.000 A 
ATOM     19  C   UNL     1       7.923  31.273  78.010  0.00  0.00    +0.000 A 
ATOM     20  C   UNL     1       5.859  31.781  76.861  0.00  0.00    +0.000 A 
ATOM     21  C   UNL     1       7.937  30.017  77.401  0.00  0.00    +0.000 A 
ATOM     22  C   UNL     1       5.871  30.524  76.264  0.00  0.00    +0.000 A 
ATOM     23  C   UNL     1       6.918  29.647  76.524  0.00  0.00    +0.000 A 
ENDBRANCH   5  18
BRANCH   4  24
ATOM     24  C   UNL     1       3.981  36.013  78.127  0.00  0.00    +0.000 C 
ATOM     25  O   UNL     1       3.407  36.889  78.762  0.00  0.00    +0.000 OA
ATOM     26  O   UNL     1       3.435  35.498  77.001  0.00  0.00    +0.000 OA
ENDBRANCH   4  24
BRANCH   7  27
ATOM     27  C   UNL     1       7.907  34.151  75.928  0.00  0.00    +0.000 C 
ATOM     28  O   UNL     1       9.065  33.810  75.750  0.00  0.00    +0.000 OA
ATOM     29  O   UNL     1       6.981  34.093  74.941  0.00  0.00    +0.000 OA
ENDBRANCH   7  27
BRANCH   4  30
ATOM     30  C   UNL     1       6.129  36.525  79.388  0.00  0.00    +0.000 C 
BRANCH  30  31
ATOM     31  C   UNL     1       6.741  37.755  78.716  0.00  0.00    +0.000 C 
BRANCH  31  32
ATOM     32  C   UNL     1       7.381  38.662  79.740  0.00  0.00    +0.000 C 
ATOM     33  O   UNL     1       8.585  38.855  79.836  0.00  0.00    +0.000 OA
ATOM     34  O   UNL     1       6.489  39.204  80.598  0.00  0.00    +0.000 OA
ENDBRANCH  31  32
ENDBRANCH  30  31
ENDBRANCH   4  30
TORSDOF 8
ENDMDL
MODEL 4
REMARK VINA RESULT:      -7.3      0.983      1.575
REMARK  Name = 
REMARK  8 active torsions:
REMARK  status: ('A' for Active; 'I' for Inactive)
REMARK    1  A    between atoms: C_2  and  C_5
REMARK    2  A    between atoms: C_10  and  C_11
REMARK    3  A    between atoms: C_14  and  C_16
REMARK    4  A    between atoms: C_14  and  C_18
REMARK    5  A    between atoms: C_15  and  C_19
REMARK    6  A    between atoms: C_18  and  C_23
REMARK    7  A    between atoms: C_20  and  C_26
REMARK    8  A    between atoms: C_23  and  C_27
REMARK                            x       y       z     vdW  Elec       q    Type
REMARK                         _______ _______ _______ _____ _____    ______ ____
ROOT
ATOM      1  C   UNL     1       8.151  30.640  79.080  0.00  0.00    +0.000 C 
ATOM      2  O   UNL     1       8.639  29.581  79.474  0.00  0.00    +0.000 OA
ATOM      3  N   UNL     1       6.865  31.026  79.500  0.00  0.00    +0.000 N 
ATOM      4  C   UNL     1       6.195  30.339  80.649  0.00  0.00    +0.000 C 
ATOM      5  C   UNL     1       6.190  32.330  79.241  0.00  0.00    +0.000 C 
ATOM      6  C   UNL     1       4.742  30.867  80.489  0.00  0.00    +0.000 C 
ATOM      7  C   UNL     1       4.907  32.331  80.084  0.00  0.00    +0.000 C 
ENDROOT
BRANCH   1  13
ATOM      8  C   UNL     1      10.625  32.621  76.156  0.00  0.00    +0.000 A 
ATOM      9  C   UNL     1      10.567  33.085  77.478  0.00  0.00    +0.000 A 
ATOM     10  C   UNL     1       9.754  31.596  75.770  0.00  0.00    +0.000 A 
ATOM     11  C   UNL     1       9.717  32.468  78.411  0.00  0.00    +0.000 A 
ATOM     12  C   UNL     1       8.852  31.039  76.682  0.00  0.00    +0.000 A 
ATOM     13  C   UNL     1       8.900  31.392  78.028  0.00  0.00    +0.000 A 
BRANCH   8  15
ATOM     14  F   UNL     1      12.838  33.413  75.637  0.00  0.00    +0.000 F 
ATOM     15  C   UNL     1      11.595  33.177  75.139  0.00  0.00    +0.000 C 
ATOM     16  F   UNL     1      11.169  34.363  74.619  0.00  0.00    +0.000 F 
ATOM     17  F   UNL     1      11.767  32.348  74.072  0.00  0.00    +0.000 F 
ENDBRANCH   8  15
ENDBRANCH   1  13
BRANCH   5  18
ATOM     18  C   UNL     1       6.032  32.718  77.788  0.00  0.00    +0.000 A 
ATOM     19  C   UNL     1       5.456  31.868  76.836  0.00  0.00    +0.000 A 
ATOM     20  C   UNL     1       6.540  33.962  77.362  0.00  0.00    +0.000 A 
ATOM     21  C   UNL     1       5.460  32.221  75.485  0.00  0.00    +0.000 A 
ATOM     22  C   UNL     1       6.533  34.316  76.015  0.00  0.00    +0.000 A 
ATOM     23  C   UNL     1       6.004  33.438  75.076  0.00  0.00    +0.000 A 
ENDBRANCH   5  18
BRANCH   4  24
ATOM     24  C   UNL     1       6.026  28.802  80.622  0.00  0.00    +0.000 C 
ATOM     25  O   UNL     1       6.670  28.032  81.323  0.00  0.00    +0.000 OA
ATOM     26  O   UNL     1       5.005  28.357  79.854  0.00  0.00    +0.000 OA
ENDBRANCH   4  24
BRANCH   7  27
ATOM     27  C   UNL     1       3.692  32.896  79.389  0.00  0.00    +0.000 C 
ATOM     28  O   UNL     1       3.485  34.085  79.210  0.00  0.00    +0.000 OA
ATOM     29  O   UNL     1       2.819  31.945  78.979  0.00  0.00    +0.000 OA
ENDBRANCH   7  27
BRANCH   4  30
ATOM     30  C   UNL     1       6.754  30.792  82.028  0.00  0.00    +0.000 C 
BRANCH  30  31
ATOM     31  C   UNL     1       7.887  31.818  81.979  0.00  0.00    +0.000 C 
BRANCH  31  32
ATOM     32  C   UNL     1       8.564  31.933  83.324  0.00  0.00    +0.000 C 
ATOM     33  O   UNL     1       8.968  30.982  83.979  0.00  0.00    +0.000 OA
ATOM     34  O   UNL     1       8.629  33.205  83.776  0.00  0.00    +0.000 OA
ENDBRANCH  31  32
ENDBRANCH  30  31
ENDBRANCH   4  30
TORSDOF 8
ENDMDL
MODEL 5
REMARK VINA RESULT:      -7.2      1.901      2.826
REMARK  Name = 
REMARK  8 active torsions:
REMARK  status: ('A' for Active; 'I' for Inactive)
REMARK    1  A    between atoms: C_2  and  C_5
REMARK    2  A    between atoms: C_10  and  C_11
REMARK    3  A    between atoms: C_14  and  C_16
REMARK    4  A    between atoms: C_14  and  C_18
REMARK    5  A    between atoms: C_15  and  C_19
REMARK    6  A    between atoms: C_18  and  C_23
REMARK    7  A    between atoms: C_20  and  C_26
REMARK    8  A    between atoms: C_23  and  C_27
REMARK                            x       y       z     vdW  Elec       q    Type
REMARK                         _______ _______ _______ _____ _____    ______ ____
ROOT
ATOM      1  C   UNL     1       7.298  31.217  77.039  0.00  0.00    +0.000 C 
ATOM      2  O   UNL     1       6.953  30.277  76.324  0.00  0.00    +0.000 OA
ATOM      3  N   UNL     1       6.541  31.558  78.175  0.00  0.00    +0.000 N 
ATOM      4  C   UNL     1       5.502  30.624  78.712  0.00  0.00    +0.000 C 
ATOM      5  C   UNL     1       6.892  32.561  79.219  0.00  0.00    +0.000 C 
ATOM      6  C   UNL     1       4.752  31.565  79.695  0.00  0.00    +0.000 C 
ATOM      7  C   UNL     1       5.855  32.402  80.342  0.00  0.00    +0.000 C 
ENDROOT
BRANCH   1  13
ATOM      8  C   UNL     1      10.447  33.934  75.896  0.00  0.00    +0.000 A 
ATOM      9  C   UNL     1       9.175  34.024  75.313  0.00  0.00    +0.000 A 
ATOM     10  C   UNL     1      10.714  32.854  76.746  0.00  0.00    +0.000 A 
ATOM     11  C   UNL     1       8.170  33.102  75.649  0.00  0.00    +0.000 A 
ATOM     12  C   UNL     1       9.737  31.893  77.016  0.00  0.00    +0.000 A 
ATOM     13  C   UNL     1       8.432  32.065  76.560  0.00  0.00    +0.000 A 
BRANCH   8  15
ATOM     14  F   UNL     1      12.665  34.740  76.370  0.00  0.00    +0.000 F 
ATOM     15  C   UNL     1      11.531  34.958  75.651  0.00  0.00    +0.000 C 
ATOM     16  F   UNL     1      11.124  36.220  75.967  0.00  0.00    +0.000 F 
ATOM     17  F   UNL     1      11.915  35.010  74.346  0.00  0.00    +0.000 F 
ENDBRANCH   8  15
ENDBRANCH   1  13
BRANCH   5  18
ATOM     18  C   UNL     1       7.132  33.972  78.731  0.00  0.00    +0.000 A 
ATOM     19  C   UNL     1       6.236  34.645  77.893  0.00  0.00    +0.000 A 
ATOM     20  C   UNL     1       8.338  34.613  79.085  0.00  0.00    +0.000 A 
ATOM     21  C   UNL     1       6.572  35.892  77.362  0.00  0.00    +0.000 A 
ATOM     22  C   UNL     1       8.665  35.861  78.562  0.00  0.00    +0.000 A 
ATOM     23  C   UNL     1       7.786  36.494  77.689  0.00  0.00    +0.000 A 
ENDBRANCH   5  18
BRANCH   4  24
ATOM     24  C   UNL     1       4.381  30.115  77.775  0.00  0.00    +0.000 C 
ATOM     25  O   UNL     1       4.196  28.934  77.510  0.00  0.00    +0.000 OA
ATOM     26  O   UNL     1       3.511  31.065  77.362  0.00  0.00    +0.000 OA
ENDBRANCH   4  24
BRANCH   7  27
ATOM     27  C   UNL     1       5.352  33.698  80.928  0.00  0.00    +0.000 C 
ATOM     28  O   UNL     1       5.971  34.388  81.721  0.00  0.00    +0.000 OA
ATOM     29  O   UNL     1       4.112  34.035  80.497  0.00  0.00    +0.000 OA
ENDBRANCH   7  27
BRANCH   4  30
ATOM     30  C   UNL     1       6.115  29.436  79.507  0.00  0.00    +0.000 C 
BRANCH  30  31
ATOM     31  C   UNL     1       5.196  28.790  80.545  0.00  0.00    +0.000 C 
BRANCH  31  32
ATOM     32  C   UNL     1       5.925  27.709  81.307  0.00  0.00    +0.000 C 
ATOM     33  O   UNL     1       5.377  26.858  81.995  0.00  0.00    +0.000 OA
ATOM     34  O   UNL     1       7.269  27.807  81.208  0.00  0.00    +0.000 OA
ENDBRANCH  31  32
ENDBRANCH  30  31
ENDBRANCH   4  30
TORSDOF 8
ENDMDL
MODEL 6
REMARK VINA RESULT:      -7.1      4.259      6.581
REMARK  Name = 
REMARK  8 active torsions:
REMARK  status: ('A' for Active; 'I' for Inactive)
REMARK    1  A    between atoms: C_2  and  C_5
REMARK    2  A    between atoms: C_10  and  C_11
REMARK    3  A    between atoms: C_14  and  C_16
REMARK    4  A    between atoms: C_14  and  C_18
REMARK    5  A    between atoms: C_15  and  C_19
REMARK    6  A    between atoms: C_18  and  C_23
REMARK    7  A    between atoms: C_20  and  C_26
REMARK    8  A    between atoms: C_23  and  C_27
REMARK                            x       y       z     vdW  Elec       q    Type
REMARK                         _______ _______ _______ _____ _____    ______ ____
ROOT
ATOM      1  C   UNL     1       7.099  35.468  77.536  0.00  0.00    +0.000 C 
ATOM      2  O   UNL     1       6.455  35.584  76.495  0.00  0.00    +0.000 OA
ATOM      3  N   UNL     1       7.424  34.191  78.028  0.00  0.00    +0.000 N 
ATOM      4  C   UNL     1       7.274  32.976  77.167  0.00  0.00    +0.000 C 
ATOM      5  C   UNL     1       8.313  33.874  79.182  0.00  0.00    +0.000 C 
ATOM      6  C   UNL     1       7.415  31.852  78.231  0.00  0.00    +0.000 C 
ATOM      7  C   UNL     1       8.510  32.350  79.174  0.00  0.00    +0.000 C 
ENDROOT
BRANCH   1  13
ATOM      8  C   UNL     1       7.896  38.832  80.114  0.00  0.00    +0.000 A 
ATOM      9  C   UNL     1       6.602  38.304  80.004  0.00  0.00    +0.000 A 
ATOM     10  C   UNL     1       8.891  38.341  79.261  0.00  0.00    +0.000 A 
ATOM     11  C   UNL     1       6.339  37.243  79.122  0.00  0.00    +0.000 A 
ATOM     12  C   UNL     1       8.607  37.341  78.327  0.00  0.00    +0.000 A 
ATOM     13  C   UNL     1       7.364  36.711  78.323  0.00  0.00    +0.000 A 
BRANCH   8  15
ATOM     14  F   UNL     1       8.452  41.129  80.571  0.00  0.00    +0.000 F 
ATOM     15  C   UNL     1       8.259  39.900  81.120  0.00  0.00    +0.000 C 
ATOM     16  F   UNL     1       9.408  39.605  81.790  0.00  0.00    +0.000 F 
ATOM     17  F   UNL     1       7.304  40.061  82.078  0.00  0.00    +0.000 F 
ENDBRANCH   8  15
ENDBRANCH   1  13
BRANCH   5  18
ATOM     18  C   UNL     1       7.924  34.487  80.508  0.00  0.00    +0.000 A 
ATOM     19  C   UNL     1       6.628  34.405  81.029  0.00  0.00    +0.000 A 
ATOM     20  C   UNL     1       8.892  35.224  81.222  0.00  0.00    +0.000 A 
ATOM     21  C   UNL     1       6.290  35.105  82.189  0.00  0.00    +0.000 A 
ATOM     22  C   UNL     1       8.555  35.912  82.384  0.00  0.00    +0.000 A 
ATOM     23  C   UNL     1       7.249  35.862  82.860  0.00  0.00    +0.000 A 
ENDBRANCH   5  18
BRANCH   4  24
ATOM     24  C   UNL     1       5.909  32.677  76.505  0.00  0.00    +0.000 C 
ATOM     25  O   UNL     1       5.745  32.566  75.297  0.00  0.00    +0.000 OA
ATOM     26  O   UNL     1       4.906  32.406  77.372  0.00  0.00    +0.000 OA
ENDBRANCH   4  24
BRANCH   7  27
ATOM     27  C   UNL     1       8.465  31.698  80.534  0.00  0.00    +0.000 C 
ATOM     28  O   UNL     1       9.367  31.740  81.354  0.00  0.00    +0.000 OA
ATOM     29  O   UNL     1       7.310  31.031  80.770  0.00  0.00    +0.000 OA
ENDBRANCH   7  27
BRANCH   4  30
ATOM     30  C   UNL     1       8.418  32.836  76.122  0.00  0.00    +0.000 C 
BRANCH  30  31
ATOM     31  C   UNL     1       9.120  31.479  76.086  0.00  0.00    +0.000 C 
BRANCH  31  32
ATOM     32  C   UNL     1      10.595  31.645  75.808  0.00  0.00    +0.000 C 
ATOM     33  O   UNL     1      11.125  31.422  74.728  0.00  0.00    +0.000 OA
ATOM     34  O   UNL     1      11.301  32.012  76.900  0.00  0.00    +0.000 OA
ENDBRANCH  31  32
ENDBRANCH  30  31
ENDBRANCH   4  30
TORSDOF 8
ENDMDL
MODEL 7
REMARK VINA RESULT:      -7.1      3.570      5.277
REMARK  Name = 
REMARK  8 active torsions:
REMARK  status: ('A' for Active; 'I' for Inactive)
REMARK    1  A    between atoms: C_2  and  C_5
REMARK    2  A    between atoms: C_10  and  C_11
REMARK    3  A    between atoms: C_14  and  C_16
REMARK    4  A    between atoms: C_14  and  C_18
REMARK    5  A    between atoms: C_15  and  C_19
REMARK    6  A    between atoms: C_18  and  C_23
REMARK    7  A    between atoms: C_20  and  C_26
REMARK    8  A    between atoms: C_23  and  C_27
REMARK                            x       y       z     vdW  Elec       q    Type
REMARK                         _______ _______ _______ _____ _____    ______ ____
ROOT
ATOM      1  C   UNL     1       8.931  34.978  78.817  0.00  0.00    +0.000 C 
ATOM      2  O   UNL     1       9.692  35.193  79.759  0.00  0.00    +0.000 OA
ATOM      3  N   UNL     1       7.609  35.456  78.851  0.00  0.00    +0.000 N 
ATOM      4  C   UNL     1       7.189  36.478  79.861  0.00  0.00    +0.000 C 
ATOM      5  C   UNL     1       6.610  35.413  77.745  0.00  0.00    +0.000 C 
ATOM      6  C   UNL     1       5.643  36.407  79.714  0.00  0.00    +0.000 C 
ATOM      7  C   UNL     1       5.407  36.246  78.212  0.00  0.00    +0.000 C 
ENDROOT
BRANCH   1  13
ATOM      8  C   UNL     1      10.681  32.416  75.821  0.00  0.00    +0.000 A 
ATOM      9  C   UNL     1      10.554  33.795  75.600  0.00  0.00    +0.000 A 
ATOM     10  C   UNL     1      10.097  31.869  76.969  0.00  0.00    +0.000 A 
ATOM     11  C   UNL     1       9.934  34.615  76.557  0.00  0.00    +0.000 A 
ATOM     12  C   UNL     1       9.409  32.676  77.880  0.00  0.00    +0.000 A 
ATOM     13  C   UNL     1       9.414  34.062  77.739  0.00  0.00    +0.000 A 
BRANCH   8  15
ATOM     14  F   UNL     1      11.553  32.001  73.616  0.00  0.00    +0.000 F 
ATOM     15  C   UNL     1      11.431  31.505  74.877  0.00  0.00    +0.000 C 
ATOM     16  F   UNL     1      10.823  30.292  74.744  0.00  0.00    +0.000 F 
ATOM     17  F   UNL     1      12.696  31.238  75.302  0.00  0.00    +0.000 F 
ENDBRANCH   8  15
ENDBRANCH   1  13
BRANCH   5  18
ATOM     18  C   UNL     1       6.294  34.043  77.189  0.00  0.00    +0.000 A 
ATOM     19  C   UNL     1       5.948  32.958  78.001  0.00  0.00    +0.000 A 
ATOM     20  C   UNL     1       6.412  33.835  75.799  0.00  0.00    +0.000 A 
ATOM     21  C   UNL     1       5.801  31.684  77.448  0.00  0.00    +0.000 A 
ATOM     22  C   UNL     1       6.254  32.566  75.249  0.00  0.00    +0.000 A 
ATOM     23  C   UNL     1       5.962  31.488  76.077  0.00  0.00    +0.000 A 
ENDBRANCH   5  18
BRANCH   4  24
ATOM     24  C   UNL     1       7.421  36.200  81.365  0.00  0.00    +0.000 C 
ATOM     25  O   UNL     1       8.211  36.825  82.060  0.00  0.00    +0.000 OA
ATOM     26  O   UNL     1       6.580  35.291  81.910  0.00  0.00    +0.000 OA
ENDBRANCH   4  24
BRANCH   7  27
ATOM     27  C   UNL     1       4.059  35.654  77.883  0.00  0.00    +0.000 C 
ATOM     28  O   UNL     1       3.570  35.620  76.765  0.00  0.00    +0.000 OA
ATOM     29  O   UNL     1       3.412  35.159  78.966  0.00  0.00    +0.000 OA
ENDBRANCH   7  27
BRANCH   4  30
ATOM     30  C   UNL     1       7.671  37.912  79.501  0.00  0.00    +0.000 C 
BRANCH  30  31
ATOM     31  C   UNL     1       6.871  39.056  80.123  0.00  0.00    +0.000 C 
BRANCH  31  32
ATOM     32  C   UNL     1       7.792  40.121  80.668  0.00  0.00    +0.000 C 
ATOM     33  O   UNL     1       7.431  41.239  81.012  0.00  0.00    +0.000 OA
ATOM     34  O   UNL     1       9.088  39.741  80.686  0.00  0.00    +0.000 OA
ENDBRANCH  31  32
ENDBRANCH  30  31
ENDBRANCH   4  30
TORSDOF 8
ENDMDL
MODEL 8
REMARK VINA RESULT:      -7.0      3.730      5.080
REMARK  Name = 
REMARK  8 active torsions:
REMARK  status: ('A' for Active; 'I' for Inactive)
REMARK    1  A    between atoms: C_2  and  C_5
REMARK    2  A    between atoms: C_10  and  C_11
REMARK    3  A    between atoms: C_14  and  C_16
REMARK    4  A    between atoms: C_14  and  C_18
REMARK    5  A    between atoms: C_15  and  C_19
REMARK    6  A    between atoms: C_18  and  C_23
REMARK    7  A    between atoms: C_20  and  C_26
REMARK    8  A    between atoms: C_23  and  C_27
REMARK                            x       y       z     vdW  Elec       q    Type
REMARK                         _______ _______ _______ _____ _____    ______ ____
ROOT
ATOM      1  C   UNL     1       7.606  33.342  80.787  0.00  0.00    +0.000 C 
ATOM      2  O   UNL     1       8.085  32.542  81.590  0.00  0.00    +0.000 OA
ATOM      3  N   UNL     1       7.101  32.892  79.554  0.00  0.00    +0.000 N 
ATOM      4  C   UNL     1       6.850  31.436  79.314  0.00  0.00    +0.000 C 
ATOM      5  C   UNL     1       6.362  33.696  78.540  0.00  0.00    +0.000 C 
ATOM      6  C   UNL     1       6.647  31.432  77.773  0.00  0.00    +0.000 C 
ATOM      7  C   UNL     1       5.848  32.703  77.487  0.00  0.00    +0.000 C 
ENDROOT
BRANCH   1  13
ATOM      8  C   UNL     1       7.983  37.604  81.328  0.00  0.00    +0.000 A 
ATOM      9  C   UNL     1       9.108  36.814  81.049  0.00  0.00    +0.000 A 
ATOM     10  C   UNL     1       6.763  36.963  81.571  0.00  0.00    +0.000 A 
ATOM     11  C   UNL     1       8.986  35.420  80.929  0.00  0.00    +0.000 A 
ATOM     12  C   UNL     1       6.662  35.570  81.530  0.00  0.00    +0.000 A 
ATOM     13  C   UNL     1       7.740  34.797  81.105  0.00  0.00    +0.000 A 
BRANCH   8  15
ATOM     14  F   UNL     1       8.599  39.671  80.258  0.00  0.00    +0.000 F 
ATOM     15  C   UNL     1       8.036  39.114  81.364  0.00  0.00    +0.000 C 
ATOM     16  F   UNL     1       8.758  39.577  82.424  0.00  0.00    +0.000 F 
ATOM     17  F   UNL     1       6.802  39.678  81.485  0.00  0.00    +0.000 F 
ENDBRANCH   8  15
ENDBRANCH   1  13
BRANCH   5  18
ATOM     18  C   UNL     1       7.079  34.916  78.008  0.00  0.00    +0.000 A 
ATOM     19  C   UNL     1       8.406  34.880  77.565  0.00  0.00    +0.000 A 
ATOM     20  C   UNL     1       6.404  36.154  78.017  0.00  0.00    +0.000 A 
ATOM     21  C   UNL     1       9.062  36.062  77.214  0.00  0.00    +0.000 A 
ATOM     22  C   UNL     1       7.058  37.329  77.656  0.00  0.00    +0.000 A 
ATOM     23  C   UNL     1       8.392  37.283  77.267  0.00  0.00    +0.000 A 
ENDBRANCH   5  18
BRANCH   4  24
ATOM     24  C   UNL     1       7.996  30.421  79.530  0.00  0.00    +0.000 C 
ATOM     25  O   UNL     1       7.903  29.425  80.235  0.00  0.00    +0.000 OA
ATOM     26  O   UNL     1       9.093  30.634  78.766  0.00  0.00    +0.000 OA
ENDBRANCH   4  24
BRANCH   7  27
ATOM     27  C   UNL     1       5.971  33.173  76.059  0.00  0.00    +0.000 C 
ATOM     28  O   UNL     1       6.879  32.867  75.303  0.00  0.00    +0.000 OA
ATOM     29  O   UNL     1       4.965  33.996  75.677  0.00  0.00    +0.000 OA
ENDBRANCH   7  27
BRANCH   4  30
ATOM     30  C   UNL     1       5.550  30.929  80.002  0.00  0.00    +0.000 C 
BRANCH  30  31
ATOM     31  C   UNL     1       4.780  29.845  79.248  0.00  0.00    +0.000 C 
BRANCH  31  32
ATOM     32  C   UNL     1       4.155  28.863  80.209  0.00  0.00    +0.000 C 
ATOM     33  O   UNL     1       4.546  27.716  80.378  0.00  0.00    +0.000 OA
ATOM     34  O   UNL     1       3.064  29.357  80.835  0.00  0.00    +0.000 OA
ENDBRANCH  31  32
ENDBRANCH  30  31
ENDBRANCH   4  30
TORSDOF 8
ENDMDL
MODEL 9
REMARK VINA RESULT:      -6.7      2.575      4.217
REMARK  Name = 
REMARK  8 active torsions:
REMARK  status: ('A' for Active; 'I' for Inactive)
REMARK    1  A    between atoms: C_2  and  C_5
REMARK    2  A    between atoms: C_10  and  C_11
REMARK    3  A    between atoms: C_14  and  C_16
REMARK    4  A    between atoms: C_14  and  C_18
REMARK    5  A    between atoms: C_15  and  C_19
REMARK    6  A    between atoms: C_18  and  C_23
REMARK    7  A    between atoms: C_20  and  C_26
REMARK    8  A    between atoms: C_23  and  C_27
REMARK                            x       y       z     vdW  Elec       q    Type
REMARK                         _______ _______ _______ _____ _____    ______ ____
ROOT
ATOM      1  C   UNL     1       6.575  32.468  80.741  0.00  0.00    +0.000 C 
ATOM      2  O   UNL     1       6.715  32.088  81.902  0.00  0.00    +0.000 OA
ATOM      3  N   UNL     1       6.154  31.565  79.747  0.00  0.00    +0.000 N 
ATOM      4  C   UNL     1       5.580  30.233  80.114  0.00  0.00    +0.000 C 
ATOM      5  C   UNL     1       5.795  31.887  78.337  0.00  0.00    +0.000 C 
ATOM      6  C   UNL     1       5.605  29.520  78.734  0.00  0.00    +0.000 C 
ATOM      7  C   UNL     1       5.204  30.604  77.734  0.00  0.00    +0.000 C 
ENDROOT
BRANCH   1  13
ATOM      8  C   UNL     1       7.925  36.349  79.434  0.00  0.00    +0.000 A 
ATOM      9  C   UNL     1       8.845  35.350  79.781  0.00  0.00    +0.000 A 
ATOM     10  C   UNL     1       6.564  36.110  79.659  0.00  0.00    +0.000 A 
ATOM     11  C   UNL     1       8.398  34.106  80.258  0.00  0.00    +0.000 A 
ATOM     12  C   UNL     1       6.129  34.902  80.210  0.00  0.00    +0.000 A 
ATOM     13  C   UNL     1       7.025  33.854  80.412  0.00  0.00    +0.000 A 
BRANCH   8  15
ATOM     14  F   UNL     1       8.969  37.534  77.617  0.00  0.00    +0.000 F 
ATOM     15  C   UNL     1       8.343  37.664  78.818  0.00  0.00    +0.000 C 
ATOM     16  F   UNL     1       9.207  38.353  79.617  0.00  0.00    +0.000 F 
ATOM     17  F   UNL     1       7.290  38.502  78.607  0.00  0.00    +0.000 F 
ENDBRANCH   8  15
ENDBRANCH   1  13
BRANCH   5  18
ATOM     18  C   UNL     1       6.866  32.573  77.519  0.00  0.00    +0.000 A 
ATOM     19  C   UNL     1       8.190  32.120  77.474  0.00  0.00    +0.000 A 
ATOM     20  C   UNL     1       6.532  33.752  76.821  0.00  0.00    +0.000 A 
ATOM     21  C   UNL     1       9.167  32.869  76.814  0.00  0.00    +0.000 A 
ATOM     22  C   UNL     1       7.507  34.491  76.155  0.00  0.00    +0.000 A 
ATOM     23  C   UNL     1       8.827  34.054  76.164  0.00  0.00    +0.000 A 
ENDBRANCH   5  18
BRANCH   4  24
ATOM     24  C   UNL     1       6.390  29.281  81.026  0.00  0.00    +0.000 C 
ATOM     25  O   UNL     1       5.988  28.860  82.103  0.00  0.00    +0.000 OA
ATOM     26  O   UNL     1       7.544  28.824  80.487  0.00  0.00    +0.000 OA
ENDBRANCH   4  24
BRANCH   7  27
ATOM     27  C   UNL     1       5.644  30.304  76.323  0.00  0.00    +0.000 C 
ATOM     28  O   UNL     1       6.588  29.589  76.028  0.00  0.00    +0.000 OA
ATOM     29  O   UNL     1       4.890  30.923  75.383  0.00  0.00    +0.000 OA
ENDBRANCH   7  27
BRANCH   4  30
ATOM     30  C   UNL     1       4.110  30.329  80.613  0.00  0.00    +0.000 C 
BRANCH  30  31
ATOM     31  C   UNL     1       3.507  31.734  80.630  0.00  0.00    +0.000 C 
BRANCH  31  32
ATOM     32  C   UNL     1       2.172  31.753  79.925  0.00  0.00    +0.000 C 
ATOM     33  O   UNL     1       1.926  31.142  78.893  0.00  0.00    +0.000 OA
ATOM     34  O   UNL     1       1.273  32.571  80.515  0.00  0.00    +0.000 OA
ENDBRANCH  31  32
ENDBRANCH  30  31
ENDBRANCH   4  30
TORSDOF 8
ENDMDL
