MODEL 1
REMARK VINA RESULT:      -6.7      0.000      0.000
REMARK  Name = 
REMARK  8 active torsions:
REMARK  status: ('A' for Active; 'I' for Inactive)
REMARK    1  A    between atoms: C_2  and  C_5
REMARK    2  A    between atoms: C_8  and  C_11
REMARK    3  A    between atoms: C_9  and  C_14
REMARK    4  A    between atoms: C_10  and  C_15
REMARK    5  A    between atoms: C_10  and  C_16
REMARK    6  A    between atoms: C_16  and  C_23
REMARK    7  A    between atoms: C_23  and  C_26
REMARK    8  A    between atoms: C_23  and  C_27
REMARK                            x       y       z     vdW  Elec       q    Type
REMARK                         _______ _______ _______ _____ _____    ______ ____
ROOT
ATOM      1  C   UNL     1       5.652  32.602  78.731  0.00  0.00    +0.000 C 
ATOM      2  N   UNL     1       5.198  33.570  77.705  0.00  0.00    +0.000 N 
ATOM      3  C   UNL     1       7.182  32.650  78.635  0.00  0.00    +0.000 C 
ATOM      4  C   UNL     1       4.063  34.384  77.748  0.00  0.00    +0.000 C 
ATOM      5  C   UNL     1       6.247  33.743  76.644  0.00  0.00    +0.000 C 
ATOM      6  C   UNL     1       7.440  32.870  77.145  0.00  0.00    +0.000 C 
ATOM      7  O   UNL     1       3.808  35.145  76.812  0.00  0.00    +0.000 OA
ENDROOT
BRANCH   4   8
ATOM      8  C   UNL     1       3.143  34.426  78.911  0.00  0.00    +0.000 A 
ATOM      9  C   UNL     1       3.229  35.500  79.802  0.00  0.00    +0.000 A 
ATOM     10  C   UNL     1       2.142  33.486  79.098  0.00  0.00    +0.000 A 
ATOM     11  C   UNL     1       2.369  35.521  80.888  0.00  0.00    +0.000 A 
ATOM     12  C   UNL     1       1.370  33.556  80.242  0.00  0.00    +0.000 A 
ATOM     13  N   UNL     1       1.471  34.548  81.148  0.00  0.00    +0.000 NA
ENDBRANCH   4   8
BRANCH   1  15
ATOM     14  S   UNL     1       4.218  30.325  79.727  0.00  0.00    +0.000 S 
ATOM     15  C   UNL     1       5.072  31.198  78.520  0.00  0.00    +0.000 A 
ATOM     16  C   UNL     1       3.754  29.096  78.643  0.00  0.00    +0.000 A 
ATOM     17  C   UNL     1       5.058  30.485  77.328  0.00  0.00    +0.000 A 
ATOM     18  C   UNL     1       4.318  29.270  77.403  0.00  0.00    +0.000 A 
ENDBRANCH   1  15
BRANCH   3  19
ATOM     19  C   UNL     1       7.844  31.476  79.324  0.00  0.00    +0.000 C 
ATOM     20  O   UNL     1       7.836  31.336  80.541  0.00  0.00    +0.000 OA
ATOM     21  O   UNL     1       8.544  30.642  78.532  0.00  0.00    +0.000 OA
ENDBRANCH   3  19
BRANCH   5  22
ATOM     22  C   UNL     1       5.741  33.193  75.270  0.00  0.00    +0.000 C 
ATOM     23  O   UNL     1       5.252  32.082  75.126  0.00  0.00    +0.000 OA
ATOM     24  O   UNL     1       6.004  33.982  74.202  0.00  0.00    +0.000 OA
ENDBRANCH   5  22
BRANCH   5  25
ATOM     25  C   UNL     1       6.738  35.200  76.345  0.00  0.00    +0.000 C 
BRANCH  25  26
ATOM     26  C   UNL     1       7.221  36.113  77.493  0.00  0.00    +0.000 C 
ATOM     27  C   UNL     1       8.679  36.523  77.229  0.00  0.00    +0.000 C 
ATOM     28  C   UNL     1       6.392  37.381  77.666  0.00  0.00    +0.000 C 
ENDBRANCH  25  26
ENDBRANCH   5  25
TORSDOF 6
ENDMDL
MODEL 2
REMARK VINA RESULT:      -6.6      2.297      3.783
REMARK  Name = 
REMARK  8 active torsions:
REMARK  status: ('A' for Active; 'I' for Inactive)
REMARK    1  A    between atoms: C_2  and  C_5
REMARK    2  A    between atoms: C_8  and  C_11
REMARK    3  A    between atoms: C_9  and  C_14
REMARK    4  A    between atoms: C_10  and  C_15
REMARK    5  A    between atoms: C_10  and  C_16
REMARK    6  A    between atoms: C_16  and  C_23
REMARK    7  A    between atoms: C_23  and  C_26
REMARK    8  A    between atoms: C_23  and  C_27
REMARK                            x       y       z     vdW  Elec       q    Type
REMARK                         _______ _______ _______ _____ _____    ______ ____
ROOT
ATOM      1  C   UNL     1       7.139  32.851  79.155  0.00  0.00    +0.000 C 
ATOM      2  N   UNL     1       7.034  32.751  77.680  0.00  0.00    +0.000 N 
ATOM      3  C   UNL     1       8.376  32.012  79.497  0.00  0.00    +0.000 C 
ATOM      4  C   UNL     1       6.563  33.723  76.794  0.00  0.00    +0.000 C 
ATOM      5  C   UNL     1       7.709  31.503  77.188  0.00  0.00    +0.000 C 
ATOM      6  C   UNL     1       8.331  30.876  78.475  0.00  0.00    +0.000 C 
ATOM      7  O   UNL     1       6.531  33.497  75.583  0.00  0.00    +0.000 OA
ENDROOT
BRANCH   4   8
ATOM      8  C   UNL     1       6.132  35.074  77.231  0.00  0.00    +0.000 A 
ATOM      9  C   UNL     1       4.831  35.247  77.710  0.00  0.00    +0.000 A 
ATOM     10  C   UNL     1       7.002  36.153  77.266  0.00  0.00    +0.000 A 
ATOM     11  C   UNL     1       4.441  36.516  78.106  0.00  0.00    +0.000 A 
ATOM     12  C   UNL     1       6.508  37.394  77.621  0.00  0.00    +0.000 A 
ATOM     13  N   UNL     1       5.242  37.600  78.031  0.00  0.00    +0.000 NA
ENDBRANCH   4   8
BRANCH   1  15
ATOM     14  S   UNL     1       5.052  33.303  81.072  0.00  0.00    +0.000 S 
ATOM     15  C   UNL     1       5.867  32.382  79.874  0.00  0.00    +0.000 A 
ATOM     16  C   UNL     1       3.725  32.236  81.124  0.00  0.00    +0.000 A 
ATOM     17  C   UNL     1       5.146  31.227  79.599  0.00  0.00    +0.000 A 
ATOM     18  C   UNL     1       3.927  31.134  80.330  0.00  0.00    +0.000 A 
ENDBRANCH   1  15
BRANCH   3  19
ATOM     19  C   UNL     1       8.455  31.666  80.968  0.00  0.00    +0.000 C 
ATOM     20  O   UNL     1       8.005  30.622  81.425  0.00  0.00    +0.000 OA
ATOM     21  O   UNL     1       8.950  32.622  81.776  0.00  0.00    +0.000 OA
ENDBRANCH   3  19
BRANCH   5  22
ATOM     22  C   UNL     1       6.665  30.511  76.579  0.00  0.00    +0.000 C 
ATOM     23  O   UNL     1       5.458  30.703  76.602  0.00  0.00    +0.000 OA
ATOM     24  O   UNL     1       7.175  29.339  76.134  0.00  0.00    +0.000 OA
ENDBRANCH   5  22
BRANCH   5  25
ATOM     25  C   UNL     1       8.810  31.665  76.086  0.00  0.00    +0.000 C 
BRANCH  25  26
ATOM     26  C   UNL     1      10.169  32.313  76.427  0.00  0.00    +0.000 C 
ATOM     27  C   UNL     1      11.242  31.762  75.475  0.00  0.00    +0.000 C 
ATOM     28  C   UNL     1      10.173  33.834  76.322  0.00  0.00    +0.000 C 
ENDBRANCH  25  26
ENDBRANCH   5  25
TORSDOF 6
ENDMDL
MODEL 3
REMARK VINA RESULT:      -6.5      2.971      5.549
REMARK  Name = 
REMARK  8 active torsions:
REMARK  status: ('A' for Active; 'I' for Inactive)
REMARK    1  A    between atoms: C_2  and  C_5
REMARK    2  A    between atoms: C_8  and  C_11
REMARK    3  A    between atoms: C_9  and  C_14
REMARK    4  A    between atoms: C_10  and  C_15
REMARK    5  A    between atoms: C_10  and  C_16
REMARK    6  A    between atoms: C_16  and  C_23
REMARK    7  A    between atoms: C_23  and  C_26
REMARK    8  A    between atoms: C_23  and  C_27
REMARK                            x       y       z     vdW  Elec       q    Type
REMARK                         _______ _______ _______ _____ _____    ______ ____
ROOT
ATOM      1  C   UNL     1       6.936  32.230  77.530  0.00  0.00    +0.000 C 
ATOM      2  N   UNL     1       8.317  32.174  78.066  0.00  0.00    +0.000 N 
ATOM      3  C   UNL     1       7.132  32.332  76.012  0.00  0.00    +0.000 C 
ATOM      4  C   UNL     1       8.761  31.487  79.199  0.00  0.00    +0.000 C 
ATOM      5  C   UNL     1       9.281  32.804  77.103  0.00  0.00    +0.000 C 
ATOM      6  C   UNL     1       8.398  33.176  75.870  0.00  0.00    +0.000 C 
ATOM      7  O   UNL     1       9.948  31.534  79.528  0.00  0.00    +0.000 OA
ENDROOT
BRANCH   4   8
ATOM      8  C   UNL     1       7.873  30.635  80.026  0.00  0.00    +0.000 A 
ATOM      9  C   UNL     1       7.220  31.203  81.124  0.00  0.00    +0.000 A 
ATOM     10  C   UNL     1       7.596  29.316  79.699  0.00  0.00    +0.000 A 
ATOM     11  C   UNL     1       6.401  30.393  81.892  0.00  0.00    +0.000 A 
ATOM     12  C   UNL     1       6.813  28.569  80.557  0.00  0.00    +0.000 A 
ATOM     13  N   UNL     1       6.218  29.077  81.654  0.00  0.00    +0.000 NA
ENDBRANCH   4   8
BRANCH   1  15
ATOM     14  S   UNL     1       4.530  33.210  78.748  0.00  0.00    +0.000 S 
ATOM     15  C   UNL     1       6.118  33.387  78.117  0.00  0.00    +0.000 A 
ATOM     16  C   UNL     1       4.499  34.796  79.368  0.00  0.00    +0.000 A 
ATOM     17  C   UNL     1       6.560  34.688  78.318  0.00  0.00    +0.000 A 
ATOM     18  C   UNL     1       5.624  35.502  79.019  0.00  0.00    +0.000 A 
ENDBRANCH   1  15
BRANCH   3  19
ATOM     19  C   UNL     1       5.876  32.776  75.293  0.00  0.00    +0.000 C 
ATOM     20  O   UNL     1       5.723  33.919  74.880  0.00  0.00    +0.000 OA
ATOM     21  O   UNL     1       4.880  31.873  75.227  0.00  0.00    +0.000 OA
ENDBRANCH   3  19
BRANCH   5  22
ATOM     22  C   UNL     1       9.900  34.106  77.710  0.00  0.00    +0.000 C 
ATOM     23  O   UNL     1      10.048  34.288  78.909  0.00  0.00    +0.000 OA
ATOM     24  O   UNL     1      10.145  35.096  76.820  0.00  0.00    +0.000 OA
ENDBRANCH   5  22
BRANCH   5  25
ATOM     25  C   UNL     1      10.507  31.945  76.643  0.00  0.00    +0.000 C 
BRANCH  25  26
ATOM     26  C   UNL     1      11.204  32.234  75.296  0.00  0.00    +0.000 C 
ATOM     27  C   UNL     1      12.589  32.844  75.566  0.00  0.00    +0.000 C 
ATOM     28  C   UNL     1      11.389  31.001  74.418  0.00  0.00    +0.000 C 
ENDBRANCH  25  26
ENDBRANCH   5  25
TORSDOF 6
ENDMDL
MODEL 4
REMARK VINA RESULT:      -6.4      2.905      6.389
REMARK  Name = 
REMARK  8 active torsions:
REMARK  status: ('A' for Active; 'I' for Inactive)
REMARK    1  A    between atoms: C_2  and  C_5
REMARK    2  A    between atoms: C_8  and  C_11
REMARK    3  A    between atoms: C_9  and  C_14
REMARK    4  A    between atoms: C_10  and  C_15
REMARK    5  A    between atoms: C_10  and  C_16
REMARK    6  A    between atoms: C_16  and  C_23
REMARK    7  A    between atoms: C_23  and  C_26
REMARK    8  A    between atoms: C_23  and  C_27
REMARK                            x       y       z     vdW  Elec       q    Type
REMARK                         _______ _______ _______ _____ _____    ______ ____
ROOT
ATOM      1  C   UNL     1       7.929  32.874  79.195  0.00  0.00    +0.000 C 
ATOM      2  N   UNL     1       7.304  33.086  77.868  0.00  0.00    +0.000 N 
ATOM      3  C   UNL     1       6.906  32.020  79.955  0.00  0.00    +0.000 C 
ATOM      4  C   UNL     1       7.950  33.209  76.635  0.00  0.00    +0.000 C 
ATOM      5  C   UNL     1       5.812  32.948  77.961  0.00  0.00    +0.000 C 
ATOM      6  C   UNL     1       5.561  32.536  79.446  0.00  0.00    +0.000 C 
ATOM      7  O   UNL     1       7.296  33.385  75.606  0.00  0.00    +0.000 OA
ENDROOT
BRANCH   4   8
ATOM      8  C   UNL     1       9.420  33.084  76.478  0.00  0.00    +0.000 A 
ATOM      9  C   UNL     1       9.944  31.915  75.919  0.00  0.00    +0.000 A 
ATOM     10  C   UNL     1      10.288  34.121  76.783  0.00  0.00    +0.000 A 
ATOM     11  C   UNL     1      11.319  31.810  75.786  0.00  0.00    +0.000 A 
ATOM     12  C   UNL     1      11.648  33.903  76.673  0.00  0.00    +0.000 A 
ATOM     13  N   UNL     1      12.183  32.764  76.192  0.00  0.00    +0.000 NA
ENDBRANCH   4   8
BRANCH   1  15
ATOM     14  S   UNL     1       9.569  34.365  81.018  0.00  0.00    +0.000 S 
ATOM     15  C   UNL     1       8.272  34.189  79.907  0.00  0.00    +0.000 A 
ATOM     16  C   UNL     1       9.392  36.057  81.101  0.00  0.00    +0.000 A 
ATOM     17  C   UNL     1       7.671  35.423  79.688  0.00  0.00    +0.000 A 
ATOM     18  C   UNL     1       8.302  36.492  80.388  0.00  0.00    +0.000 A 
ENDBRANCH   1  15
BRANCH   3  19
ATOM     19  C   UNL     1       7.161  31.998  81.447  0.00  0.00    +0.000 C 
ATOM     20  O   UNL     1       8.021  31.291  81.958  0.00  0.00    +0.000 OA
ATOM     21  O   UNL     1       6.313  32.720  82.204  0.00  0.00    +0.000 OA
ENDBRANCH   3  19
BRANCH   5  22
ATOM     22  C   UNL     1       5.110  34.315  77.675  0.00  0.00    +0.000 C 
ATOM     23  O   UNL     1       4.892  35.156  78.535  0.00  0.00    +0.000 OA
ATOM     24  O   UNL     1       4.628  34.464  76.419  0.00  0.00    +0.000 OA
ENDBRANCH   5  22
BRANCH   5  25
ATOM     25  C   UNL     1       5.120  31.925  76.998  0.00  0.00    +0.000 C 
BRANCH  25  26
ATOM     26  C   UNL     1       5.337  30.407  77.182  0.00  0.00    +0.000 C 
ATOM     27  C   UNL     1       4.012  29.674  76.920  0.00  0.00    +0.000 C 
ATOM     28  C   UNL     1       6.399  29.817  76.261  0.00  0.00    +0.000 C 
ENDBRANCH  25  26
ENDBRANCH   5  25
TORSDOF 6
ENDMDL
MODEL 5
REMARK VINA RESULT:      -6.4      2.681      5.308
REMARK  Name = 
REMARK  8 active torsions:
REMARK  status: ('A' for Active; 'I' for Inactive)
REMARK    1  A    between atoms: C_2  and  C_5
REMARK    2  A    between atoms: C_8  and  C_11
REMARK    3  A    between atoms: C_9  and  C_14
REMARK    4  A    between atoms: C_10  and  C_15
REMARK    5  A    between atoms: C_10  and  C_16
REMARK    6  A    between atoms: C_16  and  C_23
REMARK    7  A    between atoms: C_23  and  C_26
REMARK    8  A    between atoms: C_23  and  C_27
REMARK                            x       y       z     vdW  Elec       q    Type
REMARK                         _______ _______ _______ _____ _____    ______ ____
ROOT
ATOM      1  C   UNL     1       6.240  33.245  77.941  0.00  0.00    +0.000 C 
ATOM      2  N   UNL     1       7.373  32.303  77.776  0.00  0.00    +0.000 N 
ATOM      3  C   UNL     1       6.560  34.384  76.964  0.00  0.00    +0.000 C 
ATOM      4  C   UNL     1       7.342  30.910  77.886  0.00  0.00    +0.000 C 
ATOM      5  C   UNL     1       8.584  33.022  77.255  0.00  0.00    +0.000 C 
ATOM      6  C   UNL     1       8.085  34.481  77.016  0.00  0.00    +0.000 C 
ATOM      7  O   UNL     1       8.371  30.251  77.724  0.00  0.00    +0.000 OA
ENDROOT
BRANCH   4   8
ATOM      8  C   UNL     1       6.095  30.148  78.141  0.00  0.00    +0.000 A 
ATOM      9  C   UNL     1       5.261  29.833  77.064  0.00  0.00    +0.000 A 
ATOM     10  C   UNL     1       5.770  29.659  79.397  0.00  0.00    +0.000 A 
ATOM     11  C   UNL     1       4.097  29.129  77.320  0.00  0.00    +0.000 A 
ATOM     12  C   UNL     1       4.559  29.017  79.568  0.00  0.00    +0.000 A 
ATOM     13  N   UNL     1       3.709  28.752  78.557  0.00  0.00    +0.000 NA
ENDBRANCH   4   8
BRANCH   1  15
ATOM     14  S   UNL     1       4.567  33.702  80.226  0.00  0.00    +0.000 S 
ATOM     15  C   UNL     1       6.067  33.717  79.390  0.00  0.00    +0.000 A 
ATOM     16  C   UNL     1       5.287  34.105  81.716  0.00  0.00    +0.000 A 
ATOM     17  C   UNL     1       7.080  34.116  80.252  0.00  0.00    +0.000 A 
ATOM     18  C   UNL     1       6.630  34.356  81.582  0.00  0.00    +0.000 A 
ENDBRANCH   1  15
BRANCH   3  19
ATOM     19  C   UNL     1       5.741  35.627  77.233  0.00  0.00    +0.000 C 
ATOM     20  O   UNL     1       4.540  35.688  77.001  0.00  0.00    +0.000 OA
ATOM     21  O   UNL     1       6.426  36.712  77.641  0.00  0.00    +0.000 OA
ENDBRANCH   3  19
BRANCH   5  22
ATOM     22  C   UNL     1       9.725  33.031  78.324  0.00  0.00    +0.000 C 
ATOM     23  O   UNL     1      10.191  32.018  78.825  0.00  0.00    +0.000 OA
ATOM     24  O   UNL     1      10.084  34.257  78.772  0.00  0.00    +0.000 OA
ENDBRANCH   5  22
BRANCH   5  25
ATOM     25  C   UNL     1       9.250  32.463  75.952  0.00  0.00    +0.000 C 
BRANCH  25  26
ATOM     26  C   UNL     1      10.771  32.605  75.728  0.00  0.00    +0.000 C 
ATOM     27  C   UNL     1      11.270  31.415  74.894  0.00  0.00    +0.000 C 
ATOM     28  C   UNL     1      11.173  33.891  75.014  0.00  0.00    +0.000 C 
ENDBRANCH  25  26
ENDBRANCH   5  25
TORSDOF 6
ENDMDL
MODEL 6
REMARK VINA RESULT:      -6.3      1.990      3.142
REMARK  Name = 
REMARK  8 active torsions:
REMARK  status: ('A' for Active; 'I' for Inactive)
REMARK    1  A    between atoms: C_2  and  C_5
REMARK    2  A    between atoms: C_8  and  C_11
REMARK    3  A    between atoms: C_9  and  C_14
REMARK    4  A    between atoms: C_10  and  C_15
REMARK    5  A    between atoms: C_10  and  C_16
REMARK    6  A    between atoms: C_16  and  C_23
REMARK    7  A    between atoms: C_23  and  C_26
REMARK    8  A    between atoms: C_23  and  C_27
REMARK                            x       y       z     vdW  Elec       q    Type
REMARK                         _______ _______ _______ _____ _____    ______ ____
ROOT
ATOM      1  C   UNL     1       6.098  32.013  79.369  0.00  0.00    +0.000 C 
ATOM      2  N   UNL     1       6.027  32.343  77.926  0.00  0.00    +0.000 N 
ATOM      3  C   UNL     1       7.263  31.020  79.467  0.00  0.00    +0.000 C 
ATOM      4  C   UNL     1       5.651  33.559  77.350  0.00  0.00    +0.000 C 
ATOM      5  C   UNL     1       6.626  31.238  77.104  0.00  0.00    +0.000 C 
ATOM      6  C   UNL     1       7.165  30.227  78.163  0.00  0.00    +0.000 C 
ATOM      7  O   UNL     1       5.638  33.688  76.124  0.00  0.00    +0.000 OA
ENDROOT
BRANCH   4   8
ATOM      8  C   UNL     1       5.306  34.759  78.151  0.00  0.00    +0.000 A 
ATOM      9  C   UNL     1       6.305  35.697  78.430  0.00  0.00    +0.000 A 
ATOM     10  C   UNL     1       4.008  35.030  78.558  0.00  0.00    +0.000 A 
ATOM     11  C   UNL     1       5.968  36.808  79.186  0.00  0.00    +0.000 A 
ATOM     12  C   UNL     1       3.779  36.133  79.358  0.00  0.00    +0.000 A 
ATOM     13  N   UNL     1       4.735  37.022  79.691  0.00  0.00    +0.000 NA
ENDBRANCH   4   8
BRANCH   1  15
ATOM     14  S   UNL     1       3.953  32.113  81.273  0.00  0.00    +0.000 S 
ATOM     15  C   UNL     1       4.777  31.458  79.916  0.00  0.00    +0.000 A 
ATOM     16  C   UNL     1       2.579  31.137  81.028  0.00  0.00    +0.000 A 
ATOM     17  C   UNL     1       4.016  30.441  79.353  0.00  0.00    +0.000 A 
ATOM     18  C   UNL     1       2.764  30.244  80.002  0.00  0.00    +0.000 A 
ENDBRANCH   1  15
BRANCH   3  19
ATOM     19  C   UNL     1       7.275  30.266  80.779  0.00  0.00    +0.000 C 
ATOM     20  O   UNL     1       7.505  30.814  81.851  0.00  0.00    +0.000 OA
ATOM     21  O   UNL     1       7.130  28.930  80.697  0.00  0.00    +0.000 OA
ENDBRANCH   3  19
BRANCH   5  22
ATOM     22  C   UNL     1       5.532  30.542  76.231  0.00  0.00    +0.000 C 
ATOM     23  O   UNL     1       4.931  31.103  75.326  0.00  0.00    +0.000 OA
ATOM     24  O   UNL     1       5.184  29.295  76.629  0.00  0.00    +0.000 OA
ENDBRANCH   5  22
BRANCH   5  25
ATOM     25  C   UNL     1       7.766  31.621  76.101  0.00  0.00    +0.000 C 
BRANCH  25  26
ATOM     26  C   UNL     1       9.118  32.155  76.620  0.00  0.00    +0.000 C 
ATOM     27  C   UNL     1      10.250  31.596  75.744  0.00  0.00    +0.000 C 
ATOM     28  C   UNL     1       9.223  33.676  76.622  0.00  0.00    +0.000 C 
ENDBRANCH  25  26
ENDBRANCH   5  25
TORSDOF 6
ENDMDL
MODEL 7
REMARK VINA RESULT:      -6.3      3.757      6.110
REMARK  Name = 
REMARK  8 active torsions:
REMARK  status: ('A' for Active; 'I' for Inactive)
REMARK    1  A    between atoms: C_2  and  C_5
REMARK    2  A    between atoms: C_8  and  C_11
REMARK    3  A    between atoms: C_9  and  C_14
REMARK    4  A    between atoms: C_10  and  C_15
REMARK    5  A    between atoms: C_10  and  C_16
REMARK    6  A    between atoms: C_16  and  C_23
REMARK    7  A    between atoms: C_23  and  C_26
REMARK    8  A    between atoms: C_23  and  C_27
REMARK                            x       y       z     vdW  Elec       q    Type
REMARK                         _______ _______ _______ _____ _____    ______ ____
ROOT
ATOM      1  C   UNL     1       8.211  34.025  77.481  0.00  0.00    +0.000 C 
ATOM      2  N   UNL     1       9.091  33.017  76.844  0.00  0.00    +0.000 N 
ATOM      3  C   UNL     1       8.491  35.312  76.696  0.00  0.00    +0.000 C 
ATOM      4  C   UNL     1       8.842  31.651  76.685  0.00  0.00    +0.000 C 
ATOM      5  C   UNL     1      10.256  33.685  76.172  0.00  0.00    +0.000 C 
ATOM      6  C   UNL     1       9.979  35.210  76.362  0.00  0.00    +0.000 C 
ATOM      7  O   UNL     1       9.674  30.929  76.132  0.00  0.00    +0.000 OA
ENDROOT
BRANCH   4   8
ATOM      8  C   UNL     1       7.575  31.007  77.107  0.00  0.00    +0.000 A 
ATOM      9  C   UNL     1       7.443  30.575  78.430  0.00  0.00    +0.000 A 
ATOM     10  C   UNL     1       6.482  30.897  76.260  0.00  0.00    +0.000 A 
ATOM     11  C   UNL     1       6.257  29.968  78.806  0.00  0.00    +0.000 A 
ATOM     12  C   UNL     1       5.362  30.223  76.706  0.00  0.00    +0.000 A 
ATOM     13  N   UNL     1       5.230  29.745  77.959  0.00  0.00    +0.000 NA
ENDBRANCH   4   8
BRANCH   1  15
ATOM     14  S   UNL     1       7.211  34.271  80.159  0.00  0.00    +0.000 S 
ATOM     15  C   UNL     1       8.462  34.164  78.988  0.00  0.00    +0.000 A 
ATOM     16  C   UNL     1       8.296  34.144  81.467  0.00  0.00    +0.000 A 
ATOM     17  C   UNL     1       9.697  34.121  79.624  0.00  0.00    +0.000 A 
ATOM     18  C   UNL     1       9.603  34.128  81.045  0.00  0.00    +0.000 A 
ENDBRANCH   1  15
BRANCH   3  19
ATOM     19  C   UNL     1       7.988  36.549  77.408  0.00  0.00    +0.000 C 
ATOM     20  O   UNL     1       6.802  36.854  77.439  0.00  0.00    +0.000 OA
ATOM     21  O   UNL     1       8.929  37.364  77.918  0.00  0.00    +0.000 OA
ENDBRANCH   3  19
BRANCH   5  22
ATOM     22  C   UNL     1      11.597  33.308  76.883  0.00  0.00    +0.000 C 
ATOM     23  O   UNL     1      12.621  33.968  76.787  0.00  0.00    +0.000 OA
ATOM     24  O   UNL     1      11.596  32.113  77.518  0.00  0.00    +0.000 OA
ENDBRANCH   5  22
BRANCH   5  25
ATOM     25  C   UNL     1      10.494  33.369  74.657  0.00  0.00    +0.000 C 
BRANCH  25  26
ATOM     26  C   UNL     1      11.911  33.035  74.141  0.00  0.00    +0.000 C 
ATOM     27  C   UNL     1      11.933  31.585  73.631  0.00  0.00    +0.000 C 
ATOM     28  C   UNL     1      12.389  33.944  73.014  0.00  0.00    +0.000 C 
ENDBRANCH  25  26
ENDBRANCH   5  25
TORSDOF 6
ENDMDL
MODEL 8
REMARK VINA RESULT:      -6.1      2.489      3.871
REMARK  Name = 
REMARK  8 active torsions:
REMARK  status: ('A' for Active; 'I' for Inactive)
REMARK    1  A    between atoms: C_2  and  C_5
REMARK    2  A    between atoms: C_8  and  C_11
REMARK    3  A    between atoms: C_9  and  C_14
REMARK    4  A    between atoms: C_10  and  C_15
REMARK    5  A    between atoms: C_10  and  C_16
REMARK    6  A    between atoms: C_16  and  C_23
REMARK    7  A    between atoms: C_23  and  C_26
REMARK    8  A    between atoms: C_23  and  C_27
REMARK                            x       y       z     vdW  Elec       q    Type
REMARK                         _______ _______ _______ _____ _____    ______ ____
ROOT
ATOM      1  C   UNL     1       5.474  31.783  78.787  0.00  0.00    +0.000 C 
ATOM      2  N   UNL     1       6.187  32.919  78.157  0.00  0.00    +0.000 N 
ATOM      3  C   UNL     1       5.759  30.601  77.850  0.00  0.00    +0.000 C 
ATOM      4  C   UNL     1       6.799  33.999  78.799  0.00  0.00    +0.000 C 
ATOM      5  C   UNL     1       6.368  32.677  76.686  0.00  0.00    +0.000 C 
ATOM      6  C   UNL     1       5.790  31.244  76.464  0.00  0.00    +0.000 C 
ATOM      7  O   UNL     1       7.357  34.878  78.140  0.00  0.00    +0.000 OA
ENDROOT
BRANCH   4   8
ATOM      8  C   UNL     1       6.865  34.128  80.276  0.00  0.00    +0.000 A 
ATOM      9  C   UNL     1       7.905  33.496  80.964  0.00  0.00    +0.000 A 
ATOM     10  C   UNL     1       5.985  34.926  80.989  0.00  0.00    +0.000 A 
ATOM     11  C   UNL     1       7.948  33.619  82.343  0.00  0.00    +0.000 A 
ATOM     12  C   UNL     1       6.069  34.941  82.368  0.00  0.00    +0.000 A 
ATOM     13  N   UNL     1       7.026  34.294  83.061  0.00  0.00    +0.000 NA
ENDBRANCH   4   8
BRANCH   1  15
ATOM     14  S   UNL     1       3.254  32.351  80.513  0.00  0.00    +0.000 S 
ATOM     15  C   UNL     1       3.978  32.056  78.984  0.00  0.00    +0.000 A 
ATOM     16  C   UNL     1       1.755  32.778  79.825  0.00  0.00    +0.000 A 
ATOM     17  C   UNL     1       3.030  32.207  77.980  0.00  0.00    +0.000 A 
ATOM     18  C   UNL     1       1.750  32.602  78.463  0.00  0.00    +0.000 A 
ENDBRANCH   1  15
BRANCH   3  19
ATOM     19  C   UNL     1       4.829  29.432  78.091  0.00  0.00    +0.000 C 
ATOM     20  O   UNL     1       4.775  28.843  79.164  0.00  0.00    +0.000 OA
ATOM     21  O   UNL     1       4.135  28.997  77.022  0.00  0.00    +0.000 OA
ENDBRANCH   3  19
BRANCH   5  22
ATOM     22  C   UNL     1       5.540  33.707  75.849  0.00  0.00    +0.000 C 
ATOM     23  O   UNL     1       4.625  34.373  76.311  0.00  0.00    +0.000 OA
ATOM     24  O   UNL     1       5.812  33.723  74.523  0.00  0.00    +0.000 OA
ENDBRANCH   5  22
BRANCH   5  25
ATOM     25  C   UNL     1       7.823  32.762  76.114  0.00  0.00    +0.000 C 
BRANCH  25  26
ATOM     26  C   UNL     1       8.853  31.657  76.430  0.00  0.00    +0.000 C 
ATOM     27  C   UNL     1      10.090  31.850  75.538  0.00  0.00    +0.000 C 
ATOM     28  C   UNL     1       9.313  31.637  77.884  0.00  0.00    +0.000 C 
ENDBRANCH  25  26
ENDBRANCH   5  25
TORSDOF 6
ENDMDL
MODEL 9
REMARK VINA RESULT:      -6.1      2.616      6.096
REMARK  Name = 
REMARK  8 active torsions:
REMARK  status: ('A' for Active; 'I' for Inactive)
REMARK    1  A    between atoms: C_2  and  C_5
REMARK    2  A    between atoms: C_8  and  C_11
REMARK    3  A    between atoms: C_9  and  C_14
REMARK    4  A    between atoms: C_10  and  C_15
REMARK    5  A    between atoms: C_10  and  C_16
REMARK    6  A    between atoms: C_16  and  C_23
REMARK    7  A    between atoms: C_23  and  C_26
REMARK    8  A    between atoms: C_23  and  C_27
REMARK                            x       y       z     vdW  Elec       q    Type
REMARK                         _______ _______ _______ _____ _____    ______ ____
ROOT
ATOM      1  C   UNL     1       6.567  34.144  79.230  0.00  0.00    +0.000 C 
ATOM      2  N   UNL     1       5.775  34.127  77.977  0.00  0.00    +0.000 N 
ATOM      3  C   UNL     1       5.589  33.631  80.294  0.00  0.00    +0.000 C 
ATOM      4  C   UNL     1       6.239  33.877  76.683  0.00  0.00    +0.000 C 
ATOM      5  C   UNL     1       4.308  34.215  78.281  0.00  0.00    +0.000 C 
ATOM      6  C   UNL     1       4.241  34.192  79.840  0.00  0.00    +0.000 C 
ATOM      7  O   UNL     1       5.459  33.899  75.729  0.00  0.00    +0.000 OA
ENDROOT
BRANCH   4   8
ATOM      8  C   UNL     1       7.649  33.524  76.384  0.00  0.00    +0.000 A 
ATOM      9  C   UNL     1       8.592  34.549  76.267  0.00  0.00    +0.000 A 
ATOM     10  C   UNL     1       8.082  32.210  76.303  0.00  0.00    +0.000 A 
ATOM     11  C   UNL     1       9.902  34.204  75.979  0.00  0.00    +0.000 A 
ATOM     12  C   UNL     1       9.396  31.964  75.954  0.00  0.00    +0.000 A 
ATOM     13  N   UNL     1      10.313  32.934  75.779  0.00  0.00    +0.000 NA
ENDBRANCH   4   8
BRANCH   1  15
ATOM     14  S   UNL     1       8.711  35.785  80.203  0.00  0.00    +0.000 S 
ATOM     15  C   UNL     1       7.143  35.529  79.550  0.00  0.00    +0.000 A 
ATOM     16  C   UNL     1       8.621  37.474  80.003  0.00  0.00    +0.000 A 
ATOM     17  C   UNL     1       6.546  36.752  79.272  0.00  0.00    +0.000 A 
ATOM     18  C   UNL     1       7.386  37.868  79.549  0.00  0.00    +0.000 A 
ENDBRANCH   1  15
BRANCH   3  19
ATOM     19  C   UNL     1       6.060  33.917  81.703  0.00  0.00    +0.000 C 
ATOM     20  O   UNL     1       5.594  34.824  82.382  0.00  0.00    +0.000 OA
ATOM     21  O   UNL     1       7.106  33.190  82.138  0.00  0.00    +0.000 OA
ENDBRANCH   3  19
BRANCH   5  22
ATOM     22  C   UNL     1       3.713  35.562  77.756  0.00  0.00    +0.000 C 
ATOM     23  O   UNL     1       3.721  36.601  78.399  0.00  0.00    +0.000 OA
ATOM     24  O   UNL     1       3.054  35.480  76.576  0.00  0.00    +0.000 OA
ENDBRANCH   5  22
BRANCH   5  25
ATOM     25  C   UNL     1       3.380  33.100  77.689  0.00  0.00    +0.000 C 
BRANCH  25  26
ATOM     26  C   UNL     1       3.482  31.647  78.198  0.00  0.00    +0.000 C 
ATOM     27  C   UNL     1       2.082  31.010  78.188  0.00  0.00    +0.000 C 
ATOM     28  C   UNL     1       4.413  30.765  77.373  0.00  0.00    +0.000 C 
ENDBRANCH  25  26
ENDBRANCH   5  25
TORSDOF 6
ENDMDL
