MODEL 1
REMARK VINA RESULT:      -6.9      0.000      0.000
REMARK  Name = 
REMARK  8 active torsions:
REMARK  status: ('A' for Active; 'I' for Inactive)
REMARK    1  A    between atoms: C_2  and  C_5
REMARK    2  A    between atoms: C_8  and  C_11
REMARK    3  A    between atoms: C_9  and  C_14
REMARK    4  A    between atoms: C_10  and  C_15
REMARK    5  A    between atoms: C_10  and  C_16
REMARK    6  A    between atoms: C_16  and  C_23
REMARK    7  A    between atoms: C_23  and  C_26
REMARK    8  A    between atoms: C_23  and  C_27
REMARK                            x       y       z     vdW  Elec       q    Type
REMARK                         _______ _______ _______ _____ _____    ______ ____
ROOT
ATOM      1  C   UNL     1       5.551  32.639  78.676  0.00  0.00    +0.000 C 
ATOM      2  N   UNL     1       5.098  33.608  77.646  0.00  0.00    +0.000 N 
ATOM      3  C   UNL     1       7.082  32.740  78.631  0.00  0.00    +0.000 C 
ATOM      4  C   UNL     1       3.935  34.378  77.656  0.00  0.00    +0.000 C 
ATOM      5  C   UNL     1       6.176  33.838  76.628  0.00  0.00    +0.000 C 
ATOM      6  C   UNL     1       7.380  32.997  77.154  0.00  0.00    +0.000 C 
ATOM      7  O   UNL     1       3.685  35.134  76.713  0.00  0.00    +0.000 OA
ENDROOT
BRANCH   4   8
ATOM      8  C   UNL     1       2.973  34.390  78.788  0.00  0.00    +0.000 A 
ATOM      9  C   UNL     1       2.928  35.513  79.630  0.00  0.00    +0.000 A 
ATOM     10  C   UNL     1       2.051  33.372  78.986  0.00  0.00    +0.000 A 
ATOM     11  C   UNL     1       2.032  35.557  80.702  0.00  0.00    +0.000 A 
ATOM     12  C   UNL     1       1.194  33.380  80.093  0.00  0.00    +0.000 A 
ATOM     13  C   UNL     1       1.188  34.477  80.952  0.00  0.00    +0.000 A 
ENDBRANCH   4   8
BRANCH   1  15
ATOM     14  S   UNL     1       4.270  30.254  79.629  0.00  0.00    +0.000 S 
ATOM     15  C   UNL     1       5.026  31.221  78.426  0.00  0.00    +0.000 A 
ATOM     16  C   UNL     1       3.825  29.048  78.511  0.00  0.00    +0.000 A 
ATOM     17  C   UNL     1       4.991  30.560  77.204  0.00  0.00    +0.000 A 
ATOM     18  C   UNL     1       4.320  29.305  77.256  0.00  0.00    +0.000 A 
ENDBRANCH   1  15
BRANCH   3  19
ATOM     19  C   UNL     1       7.768  31.575  79.312  0.00  0.00    +0.000 C 
ATOM     20  O   UNL     1       7.769  31.426  80.527  0.00  0.00    +0.000 OA
ATOM     21  O   UNL     1       8.486  30.763  78.511  0.00  0.00    +0.000 OA
ENDBRANCH   3  19
BRANCH   5  22
ATOM     22  C   UNL     1       5.746  33.298  75.228  0.00  0.00    +0.000 C 
ATOM     23  O   UNL     1       5.308  32.168  75.043  0.00  0.00    +0.000 OA
ATOM     24  O   UNL     1       6.013  34.117  74.187  0.00  0.00    +0.000 OA
ENDBRANCH   5  22
BRANCH   5  25
ATOM     25  C   UNL     1       6.629  35.317  76.383  0.00  0.00    +0.000 C 
BRANCH  25  26
ATOM     26  C   UNL     1       7.106  36.195  77.559  0.00  0.00    +0.000 C 
ATOM     27  C   UNL     1       8.550  36.647  77.291  0.00  0.00    +0.000 C 
ATOM     28  C   UNL     1       6.253  37.436  77.798  0.00  0.00    +0.000 C 
ENDBRANCH  25  26
ENDBRANCH   5  25
TORSDOF 6
ENDMDL
MODEL 2
REMARK VINA RESULT:      -6.6      2.246      4.224
REMARK  Name = 
REMARK  8 active torsions:
REMARK  status: ('A' for Active; 'I' for Inactive)
REMARK    1  A    between atoms: C_2  and  C_5
REMARK    2  A    between atoms: C_8  and  C_11
REMARK    3  A    between atoms: C_9  and  C_14
REMARK    4  A    between atoms: C_10  and  C_15
REMARK    5  A    between atoms: C_10  and  C_16
REMARK    6  A    between atoms: C_16  and  C_23
REMARK    7  A    between atoms: C_23  and  C_26
REMARK    8  A    between atoms: C_23  and  C_27
REMARK                            x       y       z     vdW  Elec       q    Type
REMARK                         _______ _______ _______ _____ _____    ______ ____
ROOT
ATOM      1  C   UNL     1       7.426  32.904  79.039  0.00  0.00    +0.000 C 
ATOM      2  N   UNL     1       7.387  33.004  77.558  0.00  0.00    +0.000 N 
ATOM      3  C   UNL     1       8.400  31.749  79.307  0.00  0.00    +0.000 C 
ATOM      4  C   UNL     1       7.213  34.153  76.788  0.00  0.00    +0.000 C 
ATOM      5  C   UNL     1       7.774  31.697  76.931  0.00  0.00    +0.000 C 
ATOM      6  C   UNL     1       8.145  30.789  78.144  0.00  0.00    +0.000 C 
ATOM      7  O   UNL     1       7.188  34.075  75.556  0.00  0.00    +0.000 OA
ENDROOT
BRANCH   4   8
ATOM      8  C   UNL     1       7.109  35.517  77.367  0.00  0.00    +0.000 A 
ATOM      9  C   UNL     1       8.285  36.192  77.734  0.00  0.00    +0.000 A 
ATOM     10  C   UNL     1       5.897  36.186  77.470  0.00  0.00    +0.000 A 
ATOM     11  C   UNL     1       8.221  37.478  78.280  0.00  0.00    +0.000 A 
ATOM     12  C   UNL     1       5.819  37.448  78.072  0.00  0.00    +0.000 A 
ATOM     13  C   UNL     1       6.986  38.092  78.478  0.00  0.00    +0.000 A 
ENDBRANCH   4   8
BRANCH   1  15
ATOM     14  S   UNL     1       5.427  33.591  80.981  0.00  0.00    +0.000 S 
ATOM     15  C   UNL     1       6.039  32.686  79.655  0.00  0.00    +0.000 A 
ATOM     16  C   UNL     1       3.871  32.912  80.847  0.00  0.00    +0.000 A 
ATOM     17  C   UNL     1       5.057  31.821  79.185  0.00  0.00    +0.000 A 
ATOM     18  C   UNL     1       3.820  31.936  79.880  0.00  0.00    +0.000 A 
ENDBRANCH   1  15
BRANCH   3  19
ATOM     19  C   UNL     1       8.302  31.212  80.719  0.00  0.00    +0.000 C 
ATOM     20  O   UNL     1       8.809  31.777  81.678  0.00  0.00    +0.000 OA
ATOM     21  O   UNL     1       7.720  30.003  80.851  0.00  0.00    +0.000 OA
ENDBRANCH   3  19
BRANCH   5  22
ATOM     22  C   UNL     1       6.568  31.065  76.168  0.00  0.00    +0.000 C 
ATOM     23  O   UNL     1       5.603  31.711  75.773  0.00  0.00    +0.000 OA
ATOM     24  O   UNL     1       6.582  29.717  76.081  0.00  0.00    +0.000 OA
ENDBRANCH   5  22
BRANCH   5  25
ATOM     25  C   UNL     1       8.954  31.715  75.902  0.00  0.00    +0.000 C 
BRANCH  25  26
ATOM     26  C   UNL     1      10.405  31.933  76.378  0.00  0.00    +0.000 C 
ATOM     27  C   UNL     1      11.368  31.501  75.261  0.00  0.00    +0.000 C 
ATOM     28  C   UNL     1      10.728  33.374  76.757  0.00  0.00    +0.000 C 
ENDBRANCH  25  26
ENDBRANCH   5  25
TORSDOF 6
ENDMDL
MODEL 3
REMARK VINA RESULT:      -6.5      2.701      6.394
REMARK  Name = 
REMARK  8 active torsions:
REMARK  status: ('A' for Active; 'I' for Inactive)
REMARK    1  A    between atoms: C_2  and  C_5
REMARK    2  A    between atoms: C_8  and  C_11
REMARK    3  A    between atoms: C_9  and  C_14
REMARK    4  A    between atoms: C_10  and  C_15
REMARK    5  A    between atoms: C_10  and  C_16
REMARK    6  A    between atoms: C_16  and  C_23
REMARK    7  A    between atoms: C_23  and  C_26
REMARK    8  A    between atoms: C_23  and  C_27
REMARK                            x       y       z     vdW  Elec       q    Type
REMARK                         _______ _______ _______ _____ _____    ______ ____
ROOT
ATOM      1  C   UNL     1       7.828  32.895  79.097  0.00  0.00    +0.000 C 
ATOM      2  N   UNL     1       7.120  33.122  77.811  0.00  0.00    +0.000 N 
ATOM      3  C   UNL     1       6.862  32.013  79.900  0.00  0.00    +0.000 C 
ATOM      4  C   UNL     1       7.685  33.283  76.547  0.00  0.00    +0.000 C 
ATOM      5  C   UNL     1       5.640  32.955  77.989  0.00  0.00    +0.000 C 
ATOM      6  C   UNL     1       5.482  32.515  79.477  0.00  0.00    +0.000 C 
ATOM      7  O   UNL     1       6.962  33.481  75.566  0.00  0.00    +0.000 OA
ENDROOT
BRANCH   4   8
ATOM      8  C   UNL     1       9.143  33.172  76.283  0.00  0.00    +0.000 A 
ATOM      9  C   UNL     1       9.673  31.928  75.903  0.00  0.00    +0.000 A 
ATOM     10  C   UNL     1       9.984  34.276  76.306  0.00  0.00    +0.000 A 
ATOM     11  C   UNL     1      11.041  31.792  75.645  0.00  0.00    +0.000 A 
ATOM     12  C   UNL     1      11.363  34.136  76.109  0.00  0.00    +0.000 A 
ATOM     13  C   UNL     1      11.889  32.889  75.779  0.00  0.00    +0.000 A 
ENDBRANCH   4   8
BRANCH   1  15
ATOM     14  S   UNL     1       9.560  34.378  80.839  0.00  0.00    +0.000 S 
ATOM     15  C   UNL     1       8.196  34.201  79.809  0.00  0.00    +0.000 A 
ATOM     16  C   UNL     1       9.353  36.064  80.978  0.00  0.00    +0.000 A 
ATOM     17  C   UNL     1       7.561  35.428  79.657  0.00  0.00    +0.000 A 
ATOM     18  C   UNL     1       8.212  36.493  80.343  0.00  0.00    +0.000 A 
ENDBRANCH   1  15
BRANCH   3  19
ATOM     19  C   UNL     1       7.193  31.973  81.377  0.00  0.00    +0.000 C 
ATOM     20  O   UNL     1       8.085  31.273  81.837  0.00  0.00    +0.000 OA
ATOM     21  O   UNL     1       6.367  32.667  82.185  0.00  0.00    +0.000 OA
ENDBRANCH   3  19
BRANCH   5  22
ATOM     22  C   UNL     1       4.895  34.309  77.772  0.00  0.00    +0.000 C 
ATOM     23  O   UNL     1       4.695  35.123  78.666  0.00  0.00    +0.000 OA
ATOM     24  O   UNL     1       4.355  34.481  76.545  0.00  0.00    +0.000 OA
ENDBRANCH   5  22
BRANCH   5  25
ATOM     25  C   UNL     1       4.916  31.927  77.053  0.00  0.00    +0.000 C 
BRANCH  25  26
ATOM     26  C   UNL     1       5.173  30.414  77.206  0.00  0.00    +0.000 C 
ATOM     27  C   UNL     1       3.864  29.655  76.935  0.00  0.00    +0.000 C 
ATOM     28  C   UNL     1       6.245  29.865  76.272  0.00  0.00    +0.000 C 
ENDBRANCH  25  26
ENDBRANCH   5  25
TORSDOF 6
ENDMDL
MODEL 4
REMARK VINA RESULT:      -6.5      3.648      6.042
REMARK  Name = 
REMARK  8 active torsions:
REMARK  status: ('A' for Active; 'I' for Inactive)
REMARK    1  A    between atoms: C_2  and  C_5
REMARK    2  A    between atoms: C_8  and  C_11
REMARK    3  A    between atoms: C_9  and  C_14
REMARK    4  A    between atoms: C_10  and  C_15
REMARK    5  A    between atoms: C_10  and  C_16
REMARK    6  A    between atoms: C_16  and  C_23
REMARK    7  A    between atoms: C_23  and  C_26
REMARK    8  A    between atoms: C_23  and  C_27
REMARK                            x       y       z     vdW  Elec       q    Type
REMARK                         _______ _______ _______ _____ _____    ______ ____
ROOT
ATOM      1  C   UNL     1       8.140  34.058  77.396  0.00  0.00    +0.000 C 
ATOM      2  N   UNL     1       8.969  32.997  76.769  0.00  0.00    +0.000 N 
ATOM      3  C   UNL     1       8.548  35.335  76.649  0.00  0.00    +0.000 C 
ATOM      4  C   UNL     1       8.631  31.658  76.576  0.00  0.00    +0.000 C 
ATOM      5  C   UNL     1      10.201  33.587  76.150  0.00  0.00    +0.000 C 
ATOM      6  C   UNL     1      10.034  35.124  76.363  0.00  0.00    +0.000 C 
ATOM      7  O   UNL     1       9.438  30.886  76.049  0.00  0.00    +0.000 OA
ENDROOT
BRANCH   4   8
ATOM      8  C   UNL     1       7.302  31.093  76.921  0.00  0.00    +0.000 A 
ATOM      9  C   UNL     1       7.111  30.529  78.193  0.00  0.00    +0.000 A 
ATOM     10  C   UNL     1       6.213  31.189  76.065  0.00  0.00    +0.000 A 
ATOM     11  C   UNL     1       5.871  29.992  78.550  0.00  0.00    +0.000 A 
ATOM     12  C   UNL     1       4.985  30.599  76.391  0.00  0.00    +0.000 A 
ATOM     13  C   UNL     1       4.818  29.998  77.638  0.00  0.00    +0.000 A 
ENDBRANCH   4   8
BRANCH   1  15
ATOM     14  S   UNL     1       7.053  34.229  80.046  0.00  0.00    +0.000 S 
ATOM     15  C   UNL     1       8.341  34.149  78.912  0.00  0.00    +0.000 A 
ATOM     16  C   UNL     1       8.096  34.069  81.383  0.00  0.00    +0.000 A 
ATOM     17  C   UNL     1       9.555  34.081  79.586  0.00  0.00    +0.000 A 
ATOM     18  C   UNL     1       9.417  34.055  81.003  0.00  0.00    +0.000 A 
ENDBRANCH   1  15
BRANCH   3  19
ATOM     19  C   UNL     1       8.125  36.598  77.368  0.00  0.00    +0.000 C 
ATOM     20  O   UNL     1       6.960  36.966  77.431  0.00  0.00    +0.000 OA
ATOM     21  O   UNL     1       9.124  37.368  77.844  0.00  0.00    +0.000 OA
ENDBRANCH   3  19
BRANCH   5  22
ATOM     22  C   UNL     1      11.486  33.103  76.892  0.00  0.00    +0.000 C 
ATOM     23  O   UNL     1      11.537  32.072  77.555  0.00  0.00    +0.000 OA
ATOM     24  O   UNL     1      12.524  33.968  76.874  0.00  0.00    +0.000 OA
ENDBRANCH   5  22
BRANCH   5  25
ATOM     25  C   UNL     1      10.458  33.287  74.634  0.00  0.00    +0.000 C 
BRANCH  25  26
ATOM     26  C   UNL     1      11.872  32.922  74.137  0.00  0.00    +0.000 C 
ATOM     27  C   UNL     1      11.853  31.489  73.583  0.00  0.00    +0.000 C 
ATOM     28  C   UNL     1      12.409  33.847  73.050  0.00  0.00    +0.000 C 
ENDBRANCH  25  26
ENDBRANCH   5  25
TORSDOF 6
ENDMDL
MODEL 5
REMARK VINA RESULT:      -6.4      2.137      3.371
REMARK  Name = 
REMARK  8 active torsions:
REMARK  status: ('A' for Active; 'I' for Inactive)
REMARK    1  A    between atoms: C_2  and  C_5
REMARK    2  A    between atoms: C_8  and  C_11
REMARK    3  A    between atoms: C_9  and  C_14
REMARK    4  A    between atoms: C_10  and  C_15
REMARK    5  A    between atoms: C_10  and  C_16
REMARK    6  A    between atoms: C_16  and  C_23
REMARK    7  A    between atoms: C_23  and  C_26
REMARK    8  A    between atoms: C_23  and  C_27
REMARK                            x       y       z     vdW  Elec       q    Type
REMARK                         _______ _______ _______ _____ _____    ______ ____
ROOT
ATOM      1  C   UNL     1       6.763  32.088  79.486  0.00  0.00    +0.000 C 
ATOM      2  N   UNL     1       6.995  32.302  78.035  0.00  0.00    +0.000 N 
ATOM      3  C   UNL     1       7.715  33.085  80.163  0.00  0.00    +0.000 C 
ATOM      4  C   UNL     1       6.068  32.180  77.000  0.00  0.00    +0.000 C 
ATOM      5  C   UNL     1       8.354  32.890  77.799  0.00  0.00    +0.000 C 
ATOM      6  C   UNL     1       8.927  33.111  79.233  0.00  0.00    +0.000 C 
ATOM      7  O   UNL     1       6.415  32.377  75.832  0.00  0.00    +0.000 OA
ENDROOT
BRANCH   4   8
ATOM      8  C   UNL     1       4.632  31.873  77.221  0.00  0.00    +0.000 A 
ATOM      9  C   UNL     1       3.811  32.848  77.814  0.00  0.00    +0.000 A 
ATOM     10  C   UNL     1       4.050  30.695  76.776  0.00  0.00    +0.000 A 
ATOM     11  C   UNL     1       2.454  32.591  78.033  0.00  0.00    +0.000 A 
ATOM     12  C   UNL     1       2.707  30.406  77.047  0.00  0.00    +0.000 A 
ATOM     13  C   UNL     1       1.910  31.359  77.678  0.00  0.00    +0.000 A 
ENDBRANCH   4   8
BRANCH   1  15
ATOM     14  S   UNL     1       5.969  29.778  80.993  0.00  0.00    +0.000 S 
ATOM     15  C   UNL     1       6.997  30.635  79.915  0.00  0.00    +0.000 A 
ATOM     16  C   UNL     1       6.773  28.299  80.729  0.00  0.00    +0.000 A 
ATOM     17  C   UNL     1       7.987  29.785  79.436  0.00  0.00    +0.000 A 
ATOM     18  C   UNL     1       7.871  28.450  79.918  0.00  0.00    +0.000 A 
ENDBRANCH   1  15
BRANCH   3  19
ATOM     19  C   UNL     1       7.938  32.781  81.629  0.00  0.00    +0.000 C 
ATOM     20  O   UNL     1       8.963  32.263  82.050  0.00  0.00    +0.000 OA
ATOM     21  O   UNL     1       6.888  33.008  82.445  0.00  0.00    +0.000 OA
ENDBRANCH   3  19
BRANCH   5  22
ATOM     22  C   UNL     1       9.270  31.887  77.029  0.00  0.00    +0.000 C 
ATOM     23  O   UNL     1       8.840  30.949  76.366  0.00  0.00    +0.000 OA
ATOM     24  O   UNL     1      10.595  32.032  77.246  0.00  0.00    +0.000 OA
ENDBRANCH   5  22
BRANCH   5  25
ATOM     25  C   UNL     1       8.427  34.228  76.987  0.00  0.00    +0.000 C 
BRANCH  25  26
ATOM     26  C   UNL     1       7.838  35.529  77.569  0.00  0.00    +0.000 C 
ATOM     27  C   UNL     1       8.772  36.699  77.223  0.00  0.00    +0.000 C 
ATOM     28  C   UNL     1       6.441  35.865  77.057  0.00  0.00    +0.000 C 
ENDBRANCH  25  26
ENDBRANCH   5  25
TORSDOF 6
ENDMDL
MODEL 6
REMARK VINA RESULT:      -6.2      2.819      6.331
REMARK  Name = 
REMARK  8 active torsions:
REMARK  status: ('A' for Active; 'I' for Inactive)
REMARK    1  A    between atoms: C_2  and  C_5
REMARK    2  A    between atoms: C_8  and  C_11
REMARK    3  A    between atoms: C_9  and  C_14
REMARK    4  A    between atoms: C_10  and  C_15
REMARK    5  A    between atoms: C_10  and  C_16
REMARK    6  A    between atoms: C_16  and  C_23
REMARK    7  A    between atoms: C_23  and  C_26
REMARK    8  A    between atoms: C_23  and  C_27
REMARK                            x       y       z     vdW  Elec       q    Type
REMARK                         _______ _______ _______ _____ _____    ______ ____
ROOT
ATOM      1  C   UNL     1       6.648  32.679  78.620  0.00  0.00    +0.000 C 
ATOM      2  N   UNL     1       7.597  31.830  79.385  0.00  0.00    +0.000 N 
ATOM      3  C   UNL     1       5.782  33.334  79.705  0.00  0.00    +0.000 C 
ATOM      4  C   UNL     1       8.916  31.520  79.055  0.00  0.00    +0.000 C 
ATOM      5  C   UNL     1       7.026  31.478  80.726  0.00  0.00    +0.000 C 
ATOM      6  C   UNL     1       5.672  32.251  80.778  0.00  0.00    +0.000 C 
ATOM      7  O   UNL     1       9.581  30.783  79.788  0.00  0.00    +0.000 OA
ENDROOT
BRANCH   4   8
ATOM      8  C   UNL     1       9.615  32.082  77.871  0.00  0.00    +0.000 A 
ATOM      9  C   UNL     1       9.464  31.448  76.627  0.00  0.00    +0.000 A 
ATOM     10  C   UNL     1      10.335  33.267  77.931  0.00  0.00    +0.000 A 
ATOM     11  C   UNL     1      10.107  31.954  75.493  0.00  0.00    +0.000 A 
ATOM     12  C   UNL     1      11.032  33.746  76.814  0.00  0.00    +0.000 A 
ATOM     13  C   UNL     1      10.915  33.084  75.594  0.00  0.00    +0.000 A 
ENDBRANCH   4   8
BRANCH   1  15
ATOM     14  S   UNL     1       5.554  32.411  75.981  0.00  0.00    +0.000 S 
ATOM     15  C   UNL     1       5.838  31.883  77.591  0.00  0.00    +0.000 A 
ATOM     16  C   UNL     1       4.847  30.930  75.522  0.00  0.00    +0.000 A 
ATOM     17  C   UNL     1       5.311  30.609  77.767  0.00  0.00    +0.000 A 
ATOM     18  C   UNL     1       4.725  30.070  76.586  0.00  0.00    +0.000 A 
ENDBRANCH   1  15
BRANCH   3  19
ATOM     19  C   UNL     1       4.506  33.935  79.155  0.00  0.00    +0.000 C 
ATOM     20  O   UNL     1       4.488  34.977  78.513  0.00  0.00    +0.000 OA
ATOM     21  O   UNL     1       3.362  33.318  79.512  0.00  0.00    +0.000 OA
ENDBRANCH   3  19
BRANCH   5  22
ATOM     22  C   UNL     1       6.746  29.946  80.829  0.00  0.00    +0.000 C 
ATOM     23  O   UNL     1       7.575  29.086  80.553  0.00  0.00    +0.000 OA
ATOM     24  O   UNL     1       5.469  29.610  81.118  0.00  0.00    +0.000 OA
ENDBRANCH   5  22
BRANCH   5  25
ATOM     25  C   UNL     1       7.886  31.830  81.988  0.00  0.00    +0.000 C 
BRANCH  25  26
ATOM     26  C   UNL     1       7.978  33.285  82.491  0.00  0.00    +0.000 C 
ATOM     27  C   UNL     1       8.284  33.274  83.997  0.00  0.00    +0.000 C 
ATOM     28  C   UNL     1       9.046  34.120  81.792  0.00  0.00    +0.000 C 
ENDBRANCH  25  26
ENDBRANCH   5  25
TORSDOF 6
ENDMDL
MODEL 7
REMARK VINA RESULT:      -6.1      2.541      3.703
REMARK  Name = 
REMARK  8 active torsions:
REMARK  status: ('A' for Active; 'I' for Inactive)
REMARK    1  A    between atoms: C_2  and  C_5
REMARK    2  A    between atoms: C_8  and  C_11
REMARK    3  A    between atoms: C_9  and  C_14
REMARK    4  A    between atoms: C_10  and  C_15
REMARK    5  A    between atoms: C_10  and  C_16
REMARK    6  A    between atoms: C_16  and  C_23
REMARK    7  A    between atoms: C_23  and  C_26
REMARK    8  A    between atoms: C_23  and  C_27
REMARK                            x       y       z     vdW  Elec       q    Type
REMARK                         _______ _______ _______ _____ _____    ______ ____
ROOT
ATOM      1  C   UNL     1       6.622  32.189  79.537  0.00  0.00    +0.000 C 
ATOM      2  N   UNL     1       7.471  33.300  79.036  0.00  0.00    +0.000 N 
ATOM      3  C   UNL     1       7.438  31.592  80.693  0.00  0.00    +0.000 C 
ATOM      4  C   UNL     1       7.049  34.509  78.483  0.00  0.00    +0.000 C 
ATOM      5  C   UNL     1       8.910  33.063  79.385  0.00  0.00    +0.000 C 
ATOM      6  C   UNL     1       8.886  31.750  80.227  0.00  0.00    +0.000 C 
ATOM      7  O   UNL     1       7.879  35.335  78.095  0.00  0.00    +0.000 OA
ENDROOT
BRANCH   4   8
ATOM      8  C   UNL     1       5.621  34.905  78.379  0.00  0.00    +0.000 A 
ATOM      9  C   UNL     1       4.883  34.500  77.255  0.00  0.00    +0.000 A 
ATOM     10  C   UNL     1       4.964  35.580  79.399  0.00  0.00    +0.000 A 
ATOM     11  C   UNL     1       3.536  34.853  77.129  0.00  0.00    +0.000 A 
ATOM     12  C   UNL     1       3.634  35.990  79.252  0.00  0.00    +0.000 A 
ATOM     13  C   UNL     1       2.921  35.625  78.112  0.00  0.00    +0.000 A 
ENDBRANCH   4   8
BRANCH   1  15
ATOM     14  S   UNL     1       4.735  30.426  78.285  0.00  0.00    +0.000 S 
ATOM     15  C   UNL     1       6.276  31.169  78.446  0.00  0.00    +0.000 A 
ATOM     16  C   UNL     1       5.139  29.699  76.798  0.00  0.00    +0.000 A 
ATOM     17  C   UNL     1       7.097  30.779  77.395  0.00  0.00    +0.000 A 
ATOM     18  C   UNL     1       6.452  29.920  76.460  0.00  0.00    +0.000 A 
ENDBRANCH   1  15
BRANCH   3  19
ATOM     19  C   UNL     1       6.958  30.216  81.102  0.00  0.00    +0.000 C 
ATOM     20  O   UNL     1       7.519  29.188  80.750  0.00  0.00    +0.000 OA
ATOM     21  O   UNL     1       5.799  30.177  81.789  0.00  0.00    +0.000 OA
ENDBRANCH   3  19
BRANCH   5  22
ATOM     22  C   UNL     1       9.765  32.833  78.100  0.00  0.00    +0.000 C 
ATOM     23  O   UNL     1       9.934  31.732  77.586  0.00  0.00    +0.000 OA
ATOM     24  O   UNL     1      10.434  33.917  77.650  0.00  0.00    +0.000 OA
ENDBRANCH   5  22
BRANCH   5  25
ATOM     25  C   UNL     1       9.651  34.190  80.182  0.00  0.00    +0.000 C 
BRANCH  25  26
ATOM     26  C   UNL     1       9.316  34.449  81.665  0.00  0.00    +0.000 C 
ATOM     27  C   UNL     1      10.390  35.369  82.267  0.00  0.00    +0.000 C 
ATOM     28  C   UNL     1       7.952  35.091  81.894  0.00  0.00    +0.000 C 
ENDBRANCH  25  26
ENDBRANCH   5  25
TORSDOF 6
ENDMDL
MODEL 8
REMARK VINA RESULT:      -6.1      2.587      5.211
REMARK  Name = 
REMARK  8 active torsions:
REMARK  status: ('A' for Active; 'I' for Inactive)
REMARK    1  A    between atoms: C_2  and  C_5
REMARK    2  A    between atoms: C_8  and  C_11
REMARK    3  A    between atoms: C_9  and  C_14
REMARK    4  A    between atoms: C_10  and  C_15
REMARK    5  A    between atoms: C_10  and  C_16
REMARK    6  A    between atoms: C_16  and  C_23
REMARK    7  A    between atoms: C_23  and  C_26
REMARK    8  A    between atoms: C_23  and  C_27
REMARK                            x       y       z     vdW  Elec       q    Type
REMARK                         _______ _______ _______ _____ _____    ______ ____
ROOT
ATOM      1  C   UNL     1       6.307  33.665  77.877  0.00  0.00    +0.000 C 
ATOM      2  N   UNL     1       7.307  32.592  77.641  0.00  0.00    +0.000 N 
ATOM      3  C   UNL     1       6.861  34.865  77.096  0.00  0.00    +0.000 C 
ATOM      4  C   UNL     1       7.075  31.220  77.549  0.00  0.00    +0.000 C 
ATOM      5  C   UNL     1       8.641  33.182  77.293  0.00  0.00    +0.000 C 
ATOM      6  C   UNL     1       8.375  34.718  77.243  0.00  0.00    +0.000 C 
ATOM      7  O   UNL     1       8.017  30.444  77.364  0.00  0.00    +0.000 OA
ENDROOT
BRANCH   4   8
ATOM      8  C   UNL     1       5.720  30.615  77.606  0.00  0.00    +0.000 A 
ATOM      9  C   UNL     1       4.861  30.763  76.504  0.00  0.00    +0.000 A 
ATOM     10  C   UNL     1       5.306  29.825  78.671  0.00  0.00    +0.000 A 
ATOM     11  C   UNL     1       3.580  30.203  76.525  0.00  0.00    +0.000 A 
ATOM     12  C   UNL     1       4.004  29.313  78.726  0.00  0.00    +0.000 A 
ATOM     13  C   UNL     1       3.141  29.505  77.648  0.00  0.00    +0.000 A 
ENDBRANCH   4   8
BRANCH   1  15
ATOM     14  S   UNL     1       4.541  34.129  80.091  0.00  0.00    +0.000 S 
ATOM     15  C   UNL     1       6.089  33.954  79.366  0.00  0.00    +0.000 A 
ATOM     16  C   UNL     1       5.183  34.178  81.668  0.00  0.00    +0.000 A 
ATOM     17  C   UNL     1       7.075  34.018  80.344  0.00  0.00    +0.000 A 
ATOM     18  C   UNL     1       6.557  34.166  81.662  0.00  0.00    +0.000 A 
ENDBRANCH   1  15
BRANCH   3  19
ATOM     19  C   UNL     1       6.221  36.175  77.501  0.00  0.00    +0.000 C 
ATOM     20  O   UNL     1       6.821  37.040  78.126  0.00  0.00    +0.000 OA
ATOM     21  O   UNL     1       4.905  36.295  77.237  0.00  0.00    +0.000 OA
ENDBRANCH   3  19
BRANCH   5  22
ATOM     22  C   UNL     1       9.692  32.879  78.406  0.00  0.00    +0.000 C 
ATOM     23  O   UNL     1      10.049  31.746  78.710  0.00  0.00    +0.000 OA
ATOM     24  O   UNL     1      10.099  33.949  79.123  0.00  0.00    +0.000 OA
ENDBRANCH   5  22
BRANCH   5  25
ATOM     25  C   UNL     1       9.306  32.715  75.954  0.00  0.00    +0.000 C 
BRANCH  25  26
ATOM     26  C   UNL     1      10.832  32.827  75.757  0.00  0.00    +0.000 C 
ATOM     27  C   UNL     1      11.340  31.556  75.057  0.00  0.00    +0.000 C 
ATOM     28  C   UNL     1      11.268  34.033  74.933  0.00  0.00    +0.000 C 
ENDBRANCH  25  26
ENDBRANCH   5  25
TORSDOF 6
ENDMDL
MODEL 9
REMARK VINA RESULT:      -6.0      2.591      5.477
REMARK  Name = 
REMARK  8 active torsions:
REMARK  status: ('A' for Active; 'I' for Inactive)
REMARK    1  A    between atoms: C_2  and  C_5
REMARK    2  A    between atoms: C_8  and  C_11
REMARK    3  A    between atoms: C_9  and  C_14
REMARK    4  A    between atoms: C_10  and  C_15
REMARK    5  A    between atoms: C_10  and  C_16
REMARK    6  A    between atoms: C_16  and  C_23
REMARK    7  A    between atoms: C_23  and  C_26
REMARK    8  A    between atoms: C_23  and  C_27
REMARK                            x       y       z     vdW  Elec       q    Type
REMARK                         _______ _______ _______ _____ _____    ______ ____
ROOT
ATOM      1  C   UNL     1       6.539  32.546  77.682  0.00  0.00    +0.000 C 
ATOM      2  N   UNL     1       6.712  32.759  79.142  0.00  0.00    +0.000 N 
ATOM      3  C   UNL     1       5.707  31.259  77.592  0.00  0.00    +0.000 C 
ATOM      4  C   UNL     1       6.804  33.976  79.818  0.00  0.00    +0.000 C 
ATOM      5  C   UNL     1       6.568  31.464  79.885  0.00  0.00    +0.000 C 
ATOM      6  C   UNL     1       6.203  30.429  78.776  0.00  0.00    +0.000 C 
ATOM      7  O   UNL     1       6.962  33.993  81.042  0.00  0.00    +0.000 OA
ENDROOT
BRANCH   4   8
ATOM      8  C   UNL     1       6.666  35.294  79.149  0.00  0.00    +0.000 A 
ATOM      9  C   UNL     1       7.817  36.067  78.922  0.00  0.00    +0.000 A 
ATOM     10  C   UNL     1       5.451  35.748  78.653  0.00  0.00    +0.000 A 
ATOM     11  C   UNL     1       7.720  37.311  78.291  0.00  0.00    +0.000 A 
ATOM     12  C   UNL     1       5.337  37.019  78.077  0.00  0.00    +0.000 A 
ATOM     13  C   UNL     1       6.477  37.800  77.898  0.00  0.00    +0.000 A 
ENDBRANCH   4   8
BRANCH   1  15
ATOM     14  S   UNL     1       8.544  33.755  76.023  0.00  0.00    +0.000 S 
ATOM     15  C   UNL     1       7.874  32.462  76.934  0.00  0.00    +0.000 A 
ATOM     16  C   UNL     1      10.018  32.938  75.774  0.00  0.00    +0.000 A 
ATOM     17  C   UNL     1       8.766  31.395  76.961  0.00  0.00    +0.000 A 
ATOM     18  C   UNL     1       9.987  31.661  76.279  0.00  0.00    +0.000 A 
ENDBRANCH   1  15
BRANCH   3  19
ATOM     19  C   UNL     1       5.735  30.636  76.213  0.00  0.00    +0.000 C 
ATOM     20  O   UNL     1       5.122  31.103  75.263  0.00  0.00    +0.000 OA
ATOM     21  O   UNL     1       6.385  29.459  76.112  0.00  0.00    +0.000 OA
ENDBRANCH   3  19
BRANCH   5  22
ATOM     22  C   UNL     1       7.918  31.050  80.549  0.00  0.00    +0.000 C 
ATOM     23  O   UNL     1       8.869  30.593  79.924  0.00  0.00    +0.000 OA
ATOM     24  O   UNL     1       7.936  31.099  81.899  0.00  0.00    +0.000 OA
ENDBRANCH   5  22
BRANCH   5  25
ATOM     25  C   UNL     1       5.504  31.408  81.033  0.00  0.00    +0.000 C 
BRANCH  25  26
ATOM     26  C   UNL     1       4.099  32.009  80.828  0.00  0.00    +0.000 C 
ATOM     27  C   UNL     1       3.084  30.866  80.674  0.00  0.00    +0.000 C 
ATOM     28  C   UNL     1       3.633  32.911  81.966  0.00  0.00    +0.000 C 
ENDBRANCH  25  26
ENDBRANCH   5  25
TORSDOF 6
ENDMDL
