MODEL 1
REMARK VINA RESULT:      -8.3      0.000      0.000
REMARK  Name = 
REMARK  10 active torsions:
REMARK  status: ('A' for Active; 'I' for Inactive)
REMARK    1  A    between atoms: C_2  and  C_5
REMARK    2  A    between atoms: C_10  and  C_11
REMARK    3  A    between atoms: C_14  and  C_16
REMARK    4  A    between atoms: C_14  and  C_18
REMARK    5  A    between atoms: C_15  and  C_19
REMARK    6  A    between atoms: C_18  and  C_23
REMARK    7  A    between atoms: C_20  and  C_26
REMARK    8  A    between atoms: C_23  and  C_27
REMARK    9  A    between atoms: C_23  and  C_28
REMARK   10  A    between atoms: C_33  and  C_34
REMARK                            x       y       z     vdW  Elec       q    Type
REMARK                         _______ _______ _______ _____ _____    ______ ____
ROOT
ATOM      1  C   UNL     1       7.469  32.665  77.384  0.00  0.00    +0.000 C 
ATOM      2  O   UNL     1       6.579  32.980  76.596  0.00  0.00    +0.000 OA
ATOM      3  N   UNL     1       7.194  32.233  78.709  0.00  0.00    +0.000 N 
ATOM      4  C   UNL     1       8.126  31.994  79.848  0.00  0.00    +0.000 C 
ATOM      5  C   UNL     1       5.798  32.350  79.246  0.00  0.00    +0.000 C 
ATOM      6  C   UNL     1       7.217  31.104  80.739  0.00  0.00    +0.000 C 
ATOM      7  C   UNL     1       5.846  31.778  80.693  0.00  0.00    +0.000 C 
ENDROOT
BRANCH   5   8
ATOM      8  C   UNL     1       4.677  31.777  78.416  0.00  0.00    +0.000 A 
ATOM      9  C   UNL     1       4.785  30.535  77.781  0.00  0.00    +0.000 A 
ATOM     10  C   UNL     1       3.454  32.470  78.337  0.00  0.00    +0.000 A 
ATOM     11  C   UNL     1       3.690  29.990  77.105  0.00  0.00    +0.000 A 
ATOM     12  C   UNL     1       2.364  31.924  77.659  0.00  0.00    +0.000 A 
ATOM     13  C   UNL     1       2.473  30.675  77.044  0.00  0.00    +0.000 A 
ATOM     14  C   UNL     1       1.292  30.086  76.333  0.00  0.00    +0.000 C 
ENDBRANCH   5   8
BRANCH   1  20
ATOM     15  C   UNL     1      11.557  32.567  75.829  0.00  0.00    +0.000 A 
ATOM     16  C   UNL     1      10.661  31.550  75.596  0.00  0.00    +0.000 A 
ATOM     17  C   UNL     1      11.114  33.675  76.584  0.00  0.00    +0.000 A 
ATOM     18  C   UNL     1       9.372  31.678  76.072  0.00  0.00    +0.000 A 
ATOM     19  C   UNL     1       9.793  33.744  77.104  0.00  0.00    +0.000 A 
ATOM     20  C   UNL     1       8.885  32.730  76.827  0.00  0.00    +0.000 A 
BRANCH  15  22
ATOM     21  F   UNL     1      13.360  31.132  75.175  0.00  0.00    +0.000 F 
ATOM     22  C   UNL     1      12.933  32.430  75.233  0.00  0.00    +0.000 C 
ATOM     23  F   UNL     1      13.885  33.094  75.937  0.00  0.00    +0.000 F 
ATOM     24  F   UNL     1      12.995  32.890  73.955  0.00  0.00    +0.000 F 
ENDBRANCH  15  22
ENDBRANCH   1  20
BRANCH   4  25
ATOM     25  C   UNL     1       9.281  30.993  79.536  0.00  0.00    +0.000 C 
ATOM     26  O   UNL     1      10.460  31.308  79.469  0.00  0.00    +0.000 OA
ATOM     27  O   UNL     1       8.869  29.706  79.399  0.00  0.00    +0.000 OA
ENDBRANCH   4  25
BRANCH   7  28
ATOM     28  C   UNL     1       4.769  30.812  81.153  0.00  0.00    +0.000 C 
ATOM     29  O   UNL     1       4.871  29.594  81.091  0.00  0.00    +0.000 OA
ATOM     30  O   UNL     1       3.714  31.402  81.748  0.00  0.00    +0.000 OA
ENDBRANCH   7  28
BRANCH   4  31
ATOM     31  C   UNL     1       8.528  33.258  80.758  0.00  0.00    +0.000 C 
BRANCH  31  32
ATOM     32  C   UNL     1       8.958  34.682  80.264  0.00  0.00    +0.000 C 
ATOM     33  C   UNL     1       7.800  35.591  79.840  0.00  0.00    +0.000 C 
ATOM     34  C   UNL     1       9.774  35.416  81.336  0.00  0.00    +0.000 C 
ENDBRANCH  31  32
ENDBRANCH   4  31
TORSDOF 7
ENDMDL
MODEL 2
REMARK VINA RESULT:      -7.8      2.748      5.502
REMARK  Name = 
REMARK  10 active torsions:
REMARK  status: ('A' for Active; 'I' for Inactive)
REMARK    1  A    between atoms: C_2  and  C_5
REMARK    2  A    between atoms: C_10  and  C_11
REMARK    3  A    between atoms: C_14  and  C_16
REMARK    4  A    between atoms: C_14  and  C_18
REMARK    5  A    between atoms: C_15  and  C_19
REMARK    6  A    between atoms: C_18  and  C_23
REMARK    7  A    between atoms: C_20  and  C_26
REMARK    8  A    between atoms: C_23  and  C_27
REMARK    9  A    between atoms: C_23  and  C_28
REMARK   10  A    between atoms: C_33  and  C_34
REMARK                            x       y       z     vdW  Elec       q    Type
REMARK                         _______ _______ _______ _____ _____    ______ ____
ROOT
ATOM      1  C   UNL     1       8.529  34.604  78.423  0.00  0.00    +0.000 C 
ATOM      2  O   UNL     1       9.188  35.274  79.217  0.00  0.00    +0.000 OA
ATOM      3  N   UNL     1       7.112  34.535  78.477  0.00  0.00    +0.000 N 
ATOM      4  C   UNL     1       6.170  33.648  77.736  0.00  0.00    +0.000 C 
ATOM      5  C   UNL     1       6.391  35.128  79.651  0.00  0.00    +0.000 C 
ATOM      6  C   UNL     1       4.857  34.459  77.921  0.00  0.00    +0.000 C 
ATOM      7  C   UNL     1       4.875  34.900  79.385  0.00  0.00    +0.000 C 
ENDROOT
BRANCH   5   8
ATOM      8  C   UNL     1       6.721  36.550  80.031  0.00  0.00    +0.000 A 
ATOM      9  C   UNL     1       7.003  36.918  81.351  0.00  0.00    +0.000 A 
ATOM     10  C   UNL     1       6.828  37.527  79.023  0.00  0.00    +0.000 A 
ATOM     11  C   UNL     1       7.404  38.223  81.650  0.00  0.00    +0.000 A 
ATOM     12  C   UNL     1       7.225  38.829  79.325  0.00  0.00    +0.000 A 
ATOM     13  C   UNL     1       7.524  39.184  80.642  0.00  0.00    +0.000 A 
ATOM     14  C   UNL     1       7.969  40.581  80.957  0.00  0.00    +0.000 C 
ENDBRANCH   5   8
BRANCH   1  20
ATOM     15  C   UNL     1      10.970  32.376  75.555  0.00  0.00    +0.000 A 
ATOM     16  C   UNL     1      10.395  31.774  76.649  0.00  0.00    +0.000 A 
ATOM     17  C   UNL     1      10.736  33.756  75.364  0.00  0.00    +0.000 A 
ATOM     18  C   UNL     1       9.592  32.531  77.479  0.00  0.00    +0.000 A 
ATOM     19  C   UNL     1       9.947  34.513  76.273  0.00  0.00    +0.000 A 
ATOM     20  C   UNL     1       9.338  33.885  77.351  0.00  0.00    +0.000 A 
BRANCH  15  22
ATOM     21  F   UNL     1      11.883  32.024  73.368  0.00  0.00    +0.000 F 
ATOM     22  C   UNL     1      11.779  31.507  74.630  0.00  0.00    +0.000 C 
ATOM     23  F   UNL     1      11.250  30.266  74.470  0.00  0.00    +0.000 F 
ATOM     24  F   UNL     1      13.057  31.338  75.060  0.00  0.00    +0.000 F 
ENDBRANCH  15  22
ENDBRANCH   1  20
BRANCH   4  25
ATOM     25  C   UNL     1       6.318  33.702  76.185  0.00  0.00    +0.000 C 
ATOM     26  O   UNL     1       6.650  32.750  75.495  0.00  0.00    +0.000 OA
ATOM     27  O   UNL     1       5.985  34.903  75.644  0.00  0.00    +0.000 OA
ENDBRANCH   4  25
BRANCH   7  28
ATOM     28  C   UNL     1       3.895  36.039  79.602  0.00  0.00    +0.000 C 
ATOM     29  O   UNL     1       3.499  36.780  78.711  0.00  0.00    +0.000 OA
ATOM     30  O   UNL     1       3.398  36.111  80.852  0.00  0.00    +0.000 OA
ENDBRANCH   7  28
BRANCH   4  31
ATOM     31  C   UNL     1       5.876  32.193  78.356  0.00  0.00    +0.000 C 
BRANCH  31  32
ATOM     32  C   UNL     1       6.691  31.458  79.475  0.00  0.00    +0.000 C 
ATOM     33  C   UNL     1       6.113  31.598  80.887  0.00  0.00    +0.000 C 
ATOM     34  C   UNL     1       6.834  29.962  79.163  0.00  0.00    +0.000 C 
ENDBRANCH  31  32
ENDBRANCH   4  31
TORSDOF 7
ENDMDL
MODEL 3
REMARK VINA RESULT:      -7.8      2.750      5.515
REMARK  Name = 
REMARK  10 active torsions:
REMARK  status: ('A' for Active; 'I' for Inactive)
REMARK    1  A    between atoms: C_2  and  C_5
REMARK    2  A    between atoms: C_10  and  C_11
REMARK    3  A    between atoms: C_14  and  C_16
REMARK    4  A    between atoms: C_14  and  C_18
REMARK    5  A    between atoms: C_15  and  C_19
REMARK    6  A    between atoms: C_18  and  C_23
REMARK    7  A    between atoms: C_20  and  C_26
REMARK    8  A    between atoms: C_23  and  C_27
REMARK    9  A    between atoms: C_23  and  C_28
REMARK   10  A    between atoms: C_33  and  C_34
REMARK                            x       y       z     vdW  Elec       q    Type
REMARK                         _______ _______ _______ _____ _____    ______ ____
ROOT
ATOM      1  C   UNL     1       8.561  34.636  78.435  0.00  0.00    +0.000 C 
ATOM      2  O   UNL     1       9.234  35.282  79.237  0.00  0.00    +0.000 OA
ATOM      3  N   UNL     1       7.142  34.596  78.492  0.00  0.00    +0.000 N 
ATOM      4  C   UNL     1       6.181  33.738  77.742  0.00  0.00    +0.000 C 
ATOM      5  C   UNL     1       6.437  35.187  79.677  0.00  0.00    +0.000 C 
ATOM      6  C   UNL     1       4.886  34.573  77.941  0.00  0.00    +0.000 C 
ATOM      7  C   UNL     1       4.915  34.994  79.411  0.00  0.00    +0.000 C 
ENDROOT
BRANCH   5   8
ATOM      8  C   UNL     1       6.796  36.597  80.076  0.00  0.00    +0.000 A 
ATOM      9  C   UNL     1       6.906  37.628  79.136  0.00  0.00    +0.000 A 
ATOM     10  C   UNL     1       6.951  36.910  81.439  0.00  0.00    +0.000 A 
ATOM     11  C   UNL     1       7.140  38.941  79.553  0.00  0.00    +0.000 A 
ATOM     12  C   UNL     1       7.188  38.221  81.852  0.00  0.00    +0.000 A 
ATOM     13  C   UNL     1       7.277  39.248  80.909  0.00  0.00    +0.000 A 
ATOM     14  C   UNL     1       7.513  40.658  81.360  0.00  0.00    +0.000 C 
ENDBRANCH   5   8
BRANCH   1  20
ATOM     15  C   UNL     1      10.951  32.402  75.531  0.00  0.00    +0.000 A 
ATOM     16  C   UNL     1      10.376  31.798  76.625  0.00  0.00    +0.000 A 
ATOM     17  C   UNL     1      10.735  33.787  75.354  0.00  0.00    +0.000 A 
ATOM     18  C   UNL     1       9.589  32.558  77.466  0.00  0.00    +0.000 A 
ATOM     19  C   UNL     1       9.962  34.546  76.275  0.00  0.00    +0.000 A 
ATOM     20  C   UNL     1       9.352  33.916  77.352  0.00  0.00    +0.000 A 
BRANCH  15  22
ATOM     21  F   UNL     1      13.031  31.336  75.007  0.00  0.00    +0.000 F 
ATOM     22  C   UNL     1      11.742  31.530  74.593  0.00  0.00    +0.000 C 
ATOM     23  F   UNL     1      11.837  32.046  73.341  0.00  0.00    +0.000 F 
ATOM     24  F   UNL     1      11.210  30.285  74.467  0.00  0.00    +0.000 F 
ENDBRANCH  15  22
ENDBRANCH   1  20
BRANCH   4  25
ATOM     25  C   UNL     1       6.327  33.812  76.191  0.00  0.00    +0.000 C 
ATOM     26  O   UNL     1       6.224  34.841  75.542  0.00  0.00    +0.000 OA
ATOM     27  O   UNL     1       6.641  32.623  75.613  0.00  0.00    +0.000 OA
ENDBRANCH   4  25
BRANCH   7  28
ATOM     28  C   UNL     1       3.959  36.149  79.646  0.00  0.00    +0.000 C 
ATOM     29  O   UNL     1       3.546  36.482  80.750  0.00  0.00    +0.000 OA
ATOM     30  O   UNL     1       3.676  36.867  78.542  0.00  0.00    +0.000 OA
ENDBRANCH   7  28
BRANCH   4  31
ATOM     31  C   UNL     1       5.858  32.281  78.342  0.00  0.00    +0.000 C 
BRANCH  31  32
ATOM     32  C   UNL     1       6.687  31.495  79.416  0.00  0.00    +0.000 C 
ATOM     33  C   UNL     1       5.972  31.293  80.756  0.00  0.00    +0.000 C 
ATOM     34  C   UNL     1       7.111  30.119  78.888  0.00  0.00    +0.000 C 
ENDBRANCH  31  32
ENDBRANCH   4  31
TORSDOF 7
ENDMDL
MODEL 4
REMARK VINA RESULT:      -7.5      3.940      6.231
REMARK  Name = 
REMARK  10 active torsions:
REMARK  status: ('A' for Active; 'I' for Inactive)
REMARK    1  A    between atoms: C_2  and  C_5
REMARK    2  A    between atoms: C_10  and  C_11
REMARK    3  A    between atoms: C_14  and  C_16
REMARK    4  A    between atoms: C_14  and  C_18
REMARK    5  A    between atoms: C_15  and  C_19
REMARK    6  A    between atoms: C_18  and  C_23
REMARK    7  A    between atoms: C_20  and  C_26
REMARK    8  A    between atoms: C_23  and  C_27
REMARK    9  A    between atoms: C_23  and  C_28
REMARK   10  A    between atoms: C_33  and  C_34
REMARK                            x       y       z     vdW  Elec       q    Type
REMARK                         _______ _______ _______ _____ _____    ______ ____
ROOT
ATOM      1  C   UNL     1       7.684  33.639  79.541  0.00  0.00    +0.000 C 
ATOM      2  O   UNL     1       8.048  32.945  80.489  0.00  0.00    +0.000 OA
ATOM      3  N   UNL     1       7.365  33.087  78.272  0.00  0.00    +0.000 N 
ATOM      4  C   UNL     1       7.093  33.770  76.975  0.00  0.00    +0.000 C 
ATOM      5  C   UNL     1       7.668  31.643  78.001  0.00  0.00    +0.000 C 
ATOM      6  C   UNL     1       6.363  32.619  76.229  0.00  0.00    +0.000 C 
ATOM      7  C   UNL     1       7.181  31.368  76.548  0.00  0.00    +0.000 C 
ENDROOT
BRANCH   5   8
ATOM      8  C   UNL     1       7.173  30.624  78.997  0.00  0.00    +0.000 A 
ATOM      9  C   UNL     1       5.866  30.647  79.494  0.00  0.00    +0.000 A 
ATOM     10  C   UNL     1       8.022  29.569  79.384  0.00  0.00    +0.000 A 
ATOM     11  C   UNL     1       5.412  29.629  80.336  0.00  0.00    +0.000 A 
ATOM     12  C   UNL     1       7.567  28.556  80.228  0.00  0.00    +0.000 A 
ATOM     13  C   UNL     1       6.254  28.575  80.704  0.00  0.00    +0.000 A 
ATOM     14  C   UNL     1       5.766  27.473  81.595  0.00  0.00    +0.000 C 
ENDBRANCH   5   8
BRANCH   1  20
ATOM     15  C   UNL     1       7.611  37.920  80.441  0.00  0.00    +0.000 A 
ATOM     16  C   UNL     1       8.660  37.329  79.776  0.00  0.00    +0.000 A 
ATOM     17  C   UNL     1       6.526  37.098  80.821  0.00  0.00    +0.000 A 
ATOM     18  C   UNL     1       8.586  35.984  79.480  0.00  0.00    +0.000 A 
ATOM     19  C   UNL     1       6.513  35.704  80.544  0.00  0.00    +0.000 A 
ATOM     20  C   UNL     1       7.559  35.128  79.836  0.00  0.00    +0.000 A 
BRANCH  15  22
ATOM     21  F   UNL     1       8.923  39.924  80.401  0.00  0.00    +0.000 F 
ATOM     22  C   UNL     1       7.690  39.403  80.685  0.00  0.00    +0.000 C 
ATOM     23  F   UNL     1       7.441  39.743  81.975  0.00  0.00    +0.000 F 
ATOM     24  F   UNL     1       6.815  40.104  79.916  0.00  0.00    +0.000 F 
ENDBRANCH  15  22
ENDBRANCH   1  20
BRANCH   4  25
ATOM     25  C   UNL     1       5.954  34.834  77.034  0.00  0.00    +0.000 C 
ATOM     26  O   UNL     1       6.103  36.012  76.748  0.00  0.00    +0.000 OA
ATOM     27  O   UNL     1       4.744  34.323  77.379  0.00  0.00    +0.000 OA
ENDBRANCH   4  25
BRANCH   7  28
ATOM     28  C   UNL     1       6.369  30.119  76.253  0.00  0.00    +0.000 C 
ATOM     29  O   UNL     1       5.147  30.099  76.183  0.00  0.00    +0.000 OA
ATOM     30  O   UNL     1       7.110  29.034  75.960  0.00  0.00    +0.000 OA
ENDBRANCH   7  28
BRANCH   4  31
ATOM     31  C   UNL     1       8.357  34.154  76.057  0.00  0.00    +0.000 C 
BRANCH  31  32
ATOM     32  C   UNL     1       9.874  34.017  76.429  0.00  0.00    +0.000 C 
ATOM     33  C   UNL     1      10.555  32.757  75.888  0.00  0.00    +0.000 C 
ATOM     34  C   UNL     1      10.673  35.236  75.949  0.00  0.00    +0.000 C 
ENDBRANCH  31  32
ENDBRANCH   4  31
TORSDOF 7
ENDMDL
MODEL 5
REMARK VINA RESULT:      -7.4      4.210      7.028
REMARK  Name = 
REMARK  10 active torsions:
REMARK  status: ('A' for Active; 'I' for Inactive)
REMARK    1  A    between atoms: C_2  and  C_5
REMARK    2  A    between atoms: C_10  and  C_11
REMARK    3  A    between atoms: C_14  and  C_16
REMARK    4  A    between atoms: C_14  and  C_18
REMARK    5  A    between atoms: C_15  and  C_19
REMARK    6  A    between atoms: C_18  and  C_23
REMARK    7  A    between atoms: C_20  and  C_26
REMARK    8  A    between atoms: C_23  and  C_27
REMARK    9  A    between atoms: C_23  and  C_28
REMARK   10  A    between atoms: C_33  and  C_34
REMARK                            x       y       z     vdW  Elec       q    Type
REMARK                         _______ _______ _______ _____ _____    ______ ____
ROOT
ATOM      1  C   UNL     1       8.245  35.702  77.995  0.00  0.00    +0.000 C 
ATOM      2  O   UNL     1       8.780  35.756  76.888  0.00  0.00    +0.000 OA
ATOM      3  N   UNL     1       7.881  34.473  78.605  0.00  0.00    +0.000 N 
ATOM      4  C   UNL     1       7.070  34.218  79.830  0.00  0.00    +0.000 C 
ATOM      5  C   UNL     1       7.959  33.204  77.808  0.00  0.00    +0.000 C 
ATOM      6  C   UNL     1       7.514  32.760  80.131  0.00  0.00    +0.000 C 
ATOM      7  C   UNL     1       7.516  32.064  78.770  0.00  0.00    +0.000 C 
ENDROOT
BRANCH   5   8
ATOM      8  C   UNL     1       9.251  32.907  77.088  0.00  0.00    +0.000 A 
ATOM      9  C   UNL     1      10.491  33.314  77.592  0.00  0.00    +0.000 A 
ATOM     10  C   UNL     1       9.224  32.130  75.914  0.00  0.00    +0.000 A 
ATOM     11  C   UNL     1      11.673  32.933  76.952  0.00  0.00    +0.000 A 
ATOM     12  C   UNL     1      10.405  31.754  75.275  0.00  0.00    +0.000 A 
ATOM     13  C   UNL     1      11.641  32.148  75.796  0.00  0.00    +0.000 A 
ATOM     14  C   UNL     1      12.907  31.725  75.115  0.00  0.00    +0.000 C 
ENDBRANCH   5   8
BRANCH   1  20
ATOM     15  C   UNL     1       7.808  39.460  80.192  0.00  0.00    +0.000 A 
ATOM     16  C   UNL     1       8.977  38.737  80.205  0.00  0.00    +0.000 A 
ATOM     17  C   UNL     1       6.733  38.960  79.424  0.00  0.00    +0.000 A 
ATOM     18  C   UNL     1       9.057  37.589  79.442  0.00  0.00    +0.000 A 
ATOM     19  C   UNL     1       6.837  37.744  78.696  0.00  0.00    +0.000 A 
ATOM     20  C   UNL     1       8.038  37.045  78.683  0.00  0.00    +0.000 A 
BRANCH  15  22
ATOM     21  F   UNL     1       7.914  41.853  80.187  0.00  0.00    +0.000 F 
ATOM     22  C   UNL     1       7.778  40.745  80.976  0.00  0.00    +0.000 C 
ATOM     23  F   UNL     1       8.775  40.829  81.894  0.00  0.00    +0.000 F 
ATOM     24  F   UNL     1       6.609  40.918  81.648  0.00  0.00    +0.000 F 
ENDBRANCH  15  22
ENDBRANCH   1  20
BRANCH   4  25
ATOM     25  C   UNL     1       7.591  34.941  81.110  0.00  0.00    +0.000 C 
ATOM     26  O   UNL     1       8.715  34.799  81.566  0.00  0.00    +0.000 OA
ATOM     27  O   UNL     1       6.695  35.804  81.655  0.00  0.00    +0.000 OA
ENDBRANCH   4  25
BRANCH   7  28
ATOM     28  C   UNL     1       8.326  30.781  78.837  0.00  0.00    +0.000 C 
ATOM     29  O   UNL     1       9.308  30.629  79.552  0.00  0.00    +0.000 OA
ATOM     30  O   UNL     1       7.812  29.764  78.119  0.00  0.00    +0.000 OA
ENDBRANCH   7  28
BRANCH   4  31
ATOM     31  C   UNL     1       5.470  34.162  79.665  0.00  0.00    +0.000 C 
BRANCH  31  32
ATOM     32  C   UNL     1       4.621  34.733  78.478  0.00  0.00    +0.000 C 
ATOM     33  C   UNL     1       3.872  33.678  77.660  0.00  0.00    +0.000 C 
ATOM     34  C   UNL     1       3.600  35.766  78.975  0.00  0.00    +0.000 C 
ENDBRANCH  31  32
ENDBRANCH   4  31
TORSDOF 7
ENDMDL
MODEL 6
REMARK VINA RESULT:      -7.1      1.669      2.315
REMARK  Name = 
REMARK  10 active torsions:
REMARK  status: ('A' for Active; 'I' for Inactive)
REMARK    1  A    between atoms: C_2  and  C_5
REMARK    2  A    between atoms: C_10  and  C_11
REMARK    3  A    between atoms: C_14  and  C_16
REMARK    4  A    between atoms: C_14  and  C_18
REMARK    5  A    between atoms: C_15  and  C_19
REMARK    6  A    between atoms: C_18  and  C_23
REMARK    7  A    between atoms: C_20  and  C_26
REMARK    8  A    between atoms: C_23  and  C_27
REMARK    9  A    between atoms: C_23  and  C_28
REMARK   10  A    between atoms: C_33  and  C_34
REMARK                            x       y       z     vdW  Elec       q    Type
REMARK                         _______ _______ _______ _____ _____    ______ ____
ROOT
ATOM      1  C   UNL     1       7.172  33.328  76.897  0.00  0.00    +0.000 C 
ATOM      2  O   UNL     1       6.195  33.110  76.180  0.00  0.00    +0.000 OA
ATOM      3  N   UNL     1       7.045  33.753  78.246  0.00  0.00    +0.000 N 
ATOM      4  C   UNL     1       8.087  34.239  79.195  0.00  0.00    +0.000 C 
ATOM      5  C   UNL     1       5.696  34.147  78.769  0.00  0.00    +0.000 C 
ATOM      6  C   UNL     1       7.328  34.031  80.535  0.00  0.00    +0.000 C 
ATOM      7  C   UNL     1       5.911  34.534  80.262  0.00  0.00    +0.000 C 
ENDROOT
BRANCH   5   8
ATOM      8  C   UNL     1       4.554  33.183  78.563  0.00  0.00    +0.000 A 
ATOM      9  C   UNL     1       4.684  31.814  78.822  0.00  0.00    +0.000 A 
ATOM     10  C   UNL     1       3.295  33.678  78.173  0.00  0.00    +0.000 A 
ATOM     11  C   UNL     1       3.577  30.968  78.717  0.00  0.00    +0.000 A 
ATOM     12  C   UNL     1       2.193  32.830  78.066  0.00  0.00    +0.000 A 
ATOM     13  C   UNL     1       2.326  31.467  78.346  0.00  0.00    +0.000 A 
ATOM     14  C   UNL     1       1.133  30.565  78.247  0.00  0.00    +0.000 C 
ENDBRANCH   5   8
BRANCH   1  20
ATOM     15  C   UNL     1      11.098  32.368  75.221  0.00  0.00    +0.000 A 
ATOM     16  C   UNL     1      10.228  31.394  75.654  0.00  0.00    +0.000 A 
ATOM     17  C   UNL     1      10.678  33.714  75.317  0.00  0.00    +0.000 A 
ATOM     18  C   UNL     1       8.985  31.772  76.119  0.00  0.00    +0.000 A 
ATOM     19  C   UNL     1       9.410  34.065  75.853  0.00  0.00    +0.000 A 
ATOM     20  C   UNL     1       8.525  33.069  76.248  0.00  0.00    +0.000 A 
BRANCH  15  22
ATOM     21  F   UNL     1      13.477  32.221  75.461  0.00  0.00    +0.000 F 
ATOM     22  C   UNL     1      12.416  31.918  74.652  0.00  0.00    +0.000 C 
ATOM     23  F   UNL     1      12.700  32.491  73.453  0.00  0.00    +0.000 F 
ATOM     24  F   UNL     1      12.472  30.573  74.468  0.00  0.00    +0.000 F 
ENDBRANCH  15  22
ENDBRANCH   1  20
BRANCH   4  25
ATOM     25  C   UNL     1       9.284  33.259  79.395  0.00  0.00    +0.000 C 
ATOM     26  O   UNL     1       9.171  32.116  79.812  0.00  0.00    +0.000 OA
ATOM     27  O   UNL     1      10.481  33.769  79.004  0.00  0.00    +0.000 OA
ENDBRANCH   4  25
BRANCH   7  28
ATOM     28  C   UNL     1       4.954  34.010  81.318  0.00  0.00    +0.000 C 
ATOM     29  O   UNL     1       3.839  34.472  81.520  0.00  0.00    +0.000 OA
ATOM     30  O   UNL     1       5.388  32.907  81.958  0.00  0.00    +0.000 OA
ENDBRANCH   7  28
BRANCH   4  31
ATOM     31  C   UNL     1       8.468  35.801  79.146  0.00  0.00    +0.000 C 
BRANCH  31  32
ATOM     32  C   UNL     1       7.985  36.861  78.097  0.00  0.00    +0.000 C 
ATOM     33  C   UNL     1       7.172  38.019  78.683  0.00  0.00    +0.000 C 
ATOM     34  C   UNL     1       9.171  37.451  77.322  0.00  0.00    +0.000 C 
ENDBRANCH  31  32
ENDBRANCH   4  31
TORSDOF 7
ENDMDL
MODEL 7
REMARK VINA RESULT:      -7.0      3.626      5.745
REMARK  Name = 
REMARK  10 active torsions:
REMARK  status: ('A' for Active; 'I' for Inactive)
REMARK    1  A    between atoms: C_2  and  C_5
REMARK    2  A    between atoms: C_10  and  C_11
REMARK    3  A    between atoms: C_14  and  C_16
REMARK    4  A    between atoms: C_14  and  C_18
REMARK    5  A    between atoms: C_15  and  C_19
REMARK    6  A    between atoms: C_18  and  C_23
REMARK    7  A    between atoms: C_20  and  C_26
REMARK    8  A    between atoms: C_23  and  C_27
REMARK    9  A    between atoms: C_23  and  C_28
REMARK   10  A    between atoms: C_33  and  C_34
REMARK                            x       y       z     vdW  Elec       q    Type
REMARK                         _______ _______ _______ _____ _____    ______ ____
ROOT
ATOM      1  C   UNL     1       6.612  33.814  79.823  0.00  0.00    +0.000 C 
ATOM      2  O   UNL     1       6.046  33.270  80.771  0.00  0.00    +0.000 OA
ATOM      3  N   UNL     1       6.751  33.186  78.557  0.00  0.00    +0.000 N 
ATOM      4  C   UNL     1       7.553  33.598  77.370  0.00  0.00    +0.000 C 
ATOM      5  C   UNL     1       6.380  31.740  78.409  0.00  0.00    +0.000 C 
ATOM      6  C   UNL     1       6.839  32.757  76.276  0.00  0.00    +0.000 C 
ATOM      7  C   UNL     1       6.631  31.384  76.915  0.00  0.00    +0.000 C 
ENDROOT
BRANCH   5   8
ATOM      8  C   UNL     1       5.022  31.310  78.904  0.00  0.00    +0.000 A 
ATOM      9  C   UNL     1       4.856  30.211  79.754  0.00  0.00    +0.000 A 
ATOM     10  C   UNL     1       3.891  32.078  78.569  0.00  0.00    +0.000 A 
ATOM     11  C   UNL     1       3.597  29.904  80.273  0.00  0.00    +0.000 A 
ATOM     12  C   UNL     1       2.634  31.767  79.087  0.00  0.00    +0.000 A 
ATOM     13  C   UNL     1       2.479  30.680  79.950  0.00  0.00    +0.000 A 
ATOM     14  C   UNL     1       1.129  30.362  80.518  0.00  0.00    +0.000 C 
ENDBRANCH   5   8
BRANCH   1  20
ATOM     15  C   UNL     1       7.898  37.959  80.378  0.00  0.00    +0.000 A 
ATOM     16  C   UNL     1       6.602  37.632  80.054  0.00  0.00    +0.000 A 
ATOM     17  C   UNL     1       8.820  36.903  80.548  0.00  0.00    +0.000 A 
ATOM     18  C   UNL     1       6.259  36.299  79.950  0.00  0.00    +0.000 A 
ATOM     19  C   UNL     1       8.440  35.544  80.379  0.00  0.00    +0.000 A 
ATOM     20  C   UNL     1       7.119  35.225  80.092  0.00  0.00    +0.000 A 
BRANCH  15  22
ATOM     21  F   UNL     1       9.345  39.801  79.878  0.00  0.00    +0.000 F 
ATOM     22  C   UNL     1       8.221  39.419  80.556  0.00  0.00    +0.000 C 
ATOM     23  F   UNL     1       8.445  39.759  81.851  0.00  0.00    +0.000 F 
ATOM     24  F   UNL     1       7.229  40.230  80.102  0.00  0.00    +0.000 F 
ENDBRANCH  15  22
ENDBRANCH   1  20
BRANCH   4  25
ATOM     25  C   UNL     1       7.250  35.040  76.857  0.00  0.00    +0.000 C 
ATOM     26  O   UNL     1       8.060  35.955  76.870  0.00  0.00    +0.000 OA
ATOM     27  O   UNL     1       6.006  35.185  76.331  0.00  0.00    +0.000 OA
ENDBRANCH   4  25
BRANCH   7  28
ATOM     28  C   UNL     1       5.584  30.599  76.145  0.00  0.00    +0.000 C 
ATOM     29  O   UNL     1       5.323  29.421  76.352  0.00  0.00    +0.000 OA
ATOM     30  O   UNL     1       4.872  31.336  75.271  0.00  0.00    +0.000 OA
ENDBRANCH   7  28
BRANCH   4  31
ATOM     31  C   UNL     1       9.098  33.154  77.325  0.00  0.00    +0.000 C 
BRANCH  31  32
ATOM     32  C   UNL     1      10.051  33.167  76.081  0.00  0.00    +0.000 C 
ATOM     33  C   UNL     1      11.276  34.075  76.221  0.00  0.00    +0.000 C 
ATOM     34  C   UNL     1      10.540  31.752  75.744  0.00  0.00    +0.000 C 
ENDBRANCH  31  32
ENDBRANCH   4  31
TORSDOF 7
ENDMDL
MODEL 8
REMARK VINA RESULT:      -6.9      4.007      7.627
REMARK  Name = 
REMARK  10 active torsions:
REMARK  status: ('A' for Active; 'I' for Inactive)
REMARK    1  A    between atoms: C_2  and  C_5
REMARK    2  A    between atoms: C_10  and  C_11
REMARK    3  A    between atoms: C_14  and  C_16
REMARK    4  A    between atoms: C_14  and  C_18
REMARK    5  A    between atoms: C_15  and  C_19
REMARK    6  A    between atoms: C_18  and  C_23
REMARK    7  A    between atoms: C_20  and  C_26
REMARK    8  A    between atoms: C_23  and  C_27
REMARK    9  A    between atoms: C_23  and  C_28
REMARK   10  A    between atoms: C_33  and  C_34
REMARK                            x       y       z     vdW  Elec       q    Type
REMARK                         _______ _______ _______ _____ _____    ______ ____
ROOT
ATOM      1  C   UNL     1       8.658  31.905  77.246  0.00  0.00    +0.000 C 
ATOM      2  O   UNL     1       9.428  30.949  77.174  0.00  0.00    +0.000 OA
ATOM      3  N   UNL     1       9.075  33.239  76.994  0.00  0.00    +0.000 N 
ATOM      4  C   UNL     1       8.349  34.524  77.210  0.00  0.00    +0.000 C 
ATOM      5  C   UNL     1      10.537  33.534  76.830  0.00  0.00    +0.000 C 
ATOM      6  C   UNL     1       9.183  35.447  76.280  0.00  0.00    +0.000 C 
ATOM      7  C   UNL     1      10.637  35.062  76.550  0.00  0.00    +0.000 C 
ENDROOT
BRANCH   5   8
ATOM      8  C   UNL     1      11.315  32.696  75.847  0.00  0.00    +0.000 A 
ATOM      9  C   UNL     1      12.649  32.340  76.070  0.00  0.00    +0.000 A 
ATOM     10  C   UNL     1      10.665  32.189  74.706  0.00  0.00    +0.000 A 
ATOM     11  C   UNL     1      13.307  31.479  75.189  0.00  0.00    +0.000 A 
ATOM     12  C   UNL     1      11.325  31.332  73.826  0.00  0.00    +0.000 A 
ATOM     13  C   UNL     1      12.652  30.964  74.066  0.00  0.00    +0.000 A 
ATOM     14  C   UNL     1      13.350  30.028  73.126  0.00  0.00    +0.000 C 
ENDBRANCH   5   8
BRANCH   1  20
ATOM     15  C   UNL     1       4.439  30.989  77.956  0.00  0.00    +0.000 A 
ATOM     16  C   UNL     1       5.036  30.788  76.733  0.00  0.00    +0.000 A 
ATOM     17  C   UNL     1       5.240  31.493  79.005  0.00  0.00    +0.000 A 
ATOM     18  C   UNL     1       6.385  31.048  76.602  0.00  0.00    +0.000 A 
ATOM     19  C   UNL     1       6.614  31.801  78.813  0.00  0.00    +0.000 A 
ATOM     20  C   UNL     1       7.215  31.554  77.585  0.00  0.00    +0.000 A 
BRANCH  15  22
ATOM     21  F   UNL     1       2.685  30.047  79.288  0.00  0.00    +0.000 F 
ATOM     22  C   UNL     1       2.984  30.625  78.085  0.00  0.00    +0.000 C 
ATOM     23  F   UNL     1       2.573  29.737  77.144  0.00  0.00    +0.000 F 
ATOM     24  F   UNL     1       2.167  31.707  77.989  0.00  0.00    +0.000 F 
ENDBRANCH  15  22
ENDBRANCH   1  20
BRANCH   4  25
ATOM     25  C   UNL     1       6.957  34.603  76.511  0.00  0.00    +0.000 C 
ATOM     26  O   UNL     1       6.759  34.300  75.344  0.00  0.00    +0.000 OA
ATOM     27  O   UNL     1       5.950  34.988  77.338  0.00  0.00    +0.000 OA
ENDBRANCH   4  25
BRANCH   7  28
ATOM     28  C   UNL     1      11.531  35.562  75.429  0.00  0.00    +0.000 C 
ATOM     29  O   UNL     1      11.524  35.105  74.293  0.00  0.00    +0.000 OA
ATOM     30  O   UNL     1      12.272  36.640  75.751  0.00  0.00    +0.000 OA
ENDBRANCH   7  28
BRANCH   4  31
ATOM     31  C   UNL     1       8.431  35.187  78.673  0.00  0.00    +0.000 C 
BRANCH  31  32
ATOM     32  C   UNL     1       8.415  34.443  80.053  0.00  0.00    +0.000 C 
ATOM     33  C   UNL     1       9.772  34.368  80.757  0.00  0.00    +0.000 C 
ATOM     34  C   UNL     1       7.410  35.089  81.017  0.00  0.00    +0.000 C 
ENDBRANCH  31  32
ENDBRANCH   4  31
TORSDOF 7
ENDMDL
MODEL 9
REMARK VINA RESULT:      -6.6      2.438      5.420
REMARK  Name = 
REMARK  10 active torsions:
REMARK  status: ('A' for Active; 'I' for Inactive)
REMARK    1  A    between atoms: C_2  and  C_5
REMARK    2  A    between atoms: C_10  and  C_11
REMARK    3  A    between atoms: C_14  and  C_16
REMARK    4  A    between atoms: C_14  and  C_18
REMARK    5  A    between atoms: C_15  and  C_19
REMARK    6  A    between atoms: C_18  and  C_23
REMARK    7  A    between atoms: C_20  and  C_26
REMARK    8  A    between atoms: C_23  and  C_27
REMARK    9  A    between atoms: C_23  and  C_28
REMARK   10  A    between atoms: C_33  and  C_34
REMARK                            x       y       z     vdW  Elec       q    Type
REMARK                         _______ _______ _______ _____ _____    ______ ____
ROOT
ATOM      1  C   UNL     1       7.346  33.659  78.702  0.00  0.00    +0.000 C 
ATOM      2  O   UNL     1       7.827  34.008  79.779  0.00  0.00    +0.000 OA
ATOM      3  N   UNL     1       5.952  33.713  78.437  0.00  0.00    +0.000 N 
ATOM      4  C   UNL     1       5.177  33.169  77.286  0.00  0.00    +0.000 C 
ATOM      5  C   UNL     1       5.002  34.012  79.559  0.00  0.00    +0.000 C 
ATOM      6  C   UNL     1       3.881  34.014  77.429  0.00  0.00    +0.000 C 
ATOM      7  C   UNL     1       3.579  34.015  78.928  0.00  0.00    +0.000 C 
ENDROOT
BRANCH   5   8
ATOM      8  C   UNL     1       5.279  35.227  80.408  0.00  0.00    +0.000 A 
ATOM      9  C   UNL     1       5.201  35.190  81.805  0.00  0.00    +0.000 A 
ATOM     10  C   UNL     1       5.705  36.418  79.789  0.00  0.00    +0.000 A 
ATOM     11  C   UNL     1       5.563  36.306  82.562  0.00  0.00    +0.000 A 
ATOM     12  C   UNL     1       6.062  37.532  80.549  0.00  0.00    +0.000 A 
ATOM     13  C   UNL     1       6.001  37.481  81.943  0.00  0.00    +0.000 A 
ATOM     14  C   UNL     1       6.405  38.675  82.754  0.00  0.00    +0.000 C 
ENDBRANCH   5   8
BRANCH   1  20
ATOM     15  C   UNL     1      10.305  32.122  75.869  0.00  0.00    +0.000 A 
ATOM     16  C   UNL     1       9.473  31.290  76.582  0.00  0.00    +0.000 A 
ATOM     17  C   UNL     1      10.168  33.514  76.064  0.00  0.00    +0.000 A 
ATOM     18  C   UNL     1       8.527  31.852  77.416  0.00  0.00    +0.000 A 
ATOM     19  C   UNL     1       9.218  34.051  76.974  0.00  0.00    +0.000 A 
ATOM     20  C   UNL     1       8.355  33.203  77.656  0.00  0.00    +0.000 A 
BRANCH  15  22
ATOM     21  F   UNL     1      12.532  31.352  75.438  0.00  0.00    +0.000 F 
ATOM     22  C   UNL     1      11.276  31.480  74.914  0.00  0.00    +0.000 C 
ATOM     23  F   UNL     1      11.432  32.183  73.764  0.00  0.00    +0.000 F 
ATOM     24  F   UNL     1      10.901  30.222  74.559  0.00  0.00    +0.000 F 
ENDBRANCH  15  22
ENDBRANCH   1  20
BRANCH   4  25
ATOM     25  C   UNL     1       5.674  33.650  75.889  0.00  0.00    +0.000 C 
ATOM     26  O   UNL     1       5.790  32.922  74.915  0.00  0.00    +0.000 OA
ATOM     27  O   UNL     1       5.918  34.985  75.824  0.00  0.00    +0.000 OA
ENDBRANCH   4  25
BRANCH   7  28
ATOM     28  C   UNL     1       2.609  35.132  79.268  0.00  0.00    +0.000 C 
ATOM     29  O   UNL     1       1.979  35.196  80.316  0.00  0.00    +0.000 OA
ATOM     30  O   UNL     1       2.572  36.128  78.361  0.00  0.00    +0.000 OA
ENDBRANCH   7  28
BRANCH   4  31
ATOM     31  C   UNL     1       4.707  31.632  77.366  0.00  0.00    +0.000 C 
BRANCH  31  32
ATOM     32  C   UNL     1       3.272  31.096  77.699  0.00  0.00    +0.000 C 
ATOM     33  C   UNL     1       2.656  30.200  76.621  0.00  0.00    +0.000 C 
ATOM     34  C   UNL     1       3.264  30.325  79.025  0.00  0.00    +0.000 C 
ENDBRANCH  31  32
ENDBRANCH   4  31
TORSDOF 7
ENDMDL
