MODEL 1
REMARK VINA RESULT:      -8.0      0.000      0.000
REMARK  Name = 
REMARK  10 active torsions:
REMARK  status: ('A' for Active; 'I' for Inactive)
REMARK    1  A    between atoms: C_2  and  C_5
REMARK    2  A    between atoms: C_10  and  C_11
REMARK    3  A    between atoms: C_14  and  C_16
REMARK    4  A    between atoms: C_14  and  C_18
REMARK    5  A    between atoms: C_15  and  C_19
REMARK    6  A    between atoms: C_18  and  C_23
REMARK    7  A    between atoms: C_20  and  C_26
REMARK    8  A    between atoms: C_23  and  C_27
REMARK    9  A    between atoms: C_23  and  C_28
REMARK   10  A    between atoms: C_33  and  C_34
REMARK                            x       y       z     vdW  Elec       q    Type
REMARK                         _______ _______ _______ _____ _____    ______ ____
ROOT
ATOM      1  C   UNL     1       7.319  32.498  77.150  0.00  0.00    +0.000 C 
ATOM      2  O   UNL     1       6.376  32.649  76.371  0.00  0.00    +0.000 OA
ATOM      3  N   UNL     1       7.055  32.284  78.533  0.00  0.00    +0.000 N 
ATOM      4  C   UNL     1       8.048  32.297  79.666  0.00  0.00    +0.000 C 
ATOM      5  C   UNL     1       5.709  32.643  79.053  0.00  0.00    +0.000 C 
ATOM      6  C   UNL     1       7.169  31.895  80.859  0.00  0.00    +0.000 C 
ATOM      7  C   UNL     1       5.829  32.559  80.591  0.00  0.00    +0.000 C 
ENDROOT
BRANCH   5   8
ATOM      8  C   UNL     1       4.458  31.955  78.554  0.00  0.00    +0.000 A 
ATOM      9  C   UNL     1       3.240  32.599  78.338  0.00  0.00    +0.000 A 
ATOM     10  C   UNL     1       4.602  30.619  78.130  0.00  0.00    +0.000 A 
ATOM     11  C   UNL     1       2.220  31.942  77.628  0.00  0.00    +0.000 A 
ATOM     12  C   UNL     1       3.590  29.967  77.427  0.00  0.00    +0.000 A 
ATOM     13  C   UNL     1       2.401  30.639  77.143  0.00  0.00    +0.000 A 
ATOM     14  C   UNL     1       1.350  29.946  76.325  0.00  0.00    +0.000 C 
ENDBRANCH   5   8
BRANCH   1  20
ATOM     15  C   UNL     1      11.277  32.674  75.263  0.00  0.00    +0.000 A 
ATOM     16  C   UNL     1      10.600  31.462  75.443  0.00  0.00    +0.000 A 
ATOM     17  C   UNL     1      10.652  33.836  75.676  0.00  0.00    +0.000 A 
ATOM     18  C   UNL     1       9.329  31.426  76.061  0.00  0.00    +0.000 A 
ATOM     19  C   UNL     1       9.409  33.782  76.292  0.00  0.00    +0.000 A 
ATOM     20  C   UNL     1       8.707  32.596  76.528  0.00  0.00    +0.000 A 
BRANCH  15  22
ATOM     21  F   UNL     1      12.720  33.626  73.590  0.00  0.00    +0.000 F 
ATOM     22  C   UNL     1      12.655  32.810  74.675  0.00  0.00    +0.000 C 
ATOM     23  F   UNL     1      13.158  31.605  74.281  0.00  0.00    +0.000 F 
ATOM     24  F   UNL     1      13.551  33.300  75.579  0.00  0.00    +0.000 F 
ENDBRANCH  15  22
ENDBRANCH   1  20
BRANCH   4  25
ATOM     25  C   UNL     1       9.033  31.078  79.498  0.00  0.00    +0.000 C 
ATOM     26  O   UNL     1       8.670  29.909  79.483  0.00  0.00    +0.000 OA
ATOM     27  O   UNL     1      10.349  31.354  79.426  0.00  0.00    +0.000 OA
ENDBRANCH   4  25
BRANCH   7  28
ATOM     28  C   UNL     1       4.740  31.907  81.416  0.00  0.00    +0.000 C 
ATOM     29  O   UNL     1       3.842  32.562  81.921  0.00  0.00    +0.000 OA
ATOM     30  O   UNL     1       4.885  30.589  81.669  0.00  0.00    +0.000 OA
ENDBRANCH   7  28
BRANCH   4  31
ATOM     31  C   UNL     1       8.519  33.794  79.845  0.00  0.00    +0.000 C 
BRANCH  31  32
ATOM     32  C   UNL     1       8.638  34.447  81.232  0.00  0.00    +0.000 C 
ATOM     33  C   UNL     1      10.095  34.904  81.444  0.00  0.00    +0.000 C 
ATOM     34  C   UNL     1       7.743  35.669  81.409  0.00  0.00    +0.000 C 
ENDBRANCH  31  32
ENDBRANCH   4  31
TORSDOF 7
ENDMDL
MODEL 2
REMARK VINA RESULT:      -7.9      2.605      5.486
REMARK  Name = 
REMARK  10 active torsions:
REMARK  status: ('A' for Active; 'I' for Inactive)
REMARK    1  A    between atoms: C_2  and  C_5
REMARK    2  A    between atoms: C_10  and  C_11
REMARK    3  A    between atoms: C_14  and  C_16
REMARK    4  A    between atoms: C_14  and  C_18
REMARK    5  A    between atoms: C_15  and  C_19
REMARK    6  A    between atoms: C_18  and  C_23
REMARK    7  A    between atoms: C_20  and  C_26
REMARK    8  A    between atoms: C_23  and  C_27
REMARK    9  A    between atoms: C_23  and  C_28
REMARK   10  A    between atoms: C_33  and  C_34
REMARK                            x       y       z     vdW  Elec       q    Type
REMARK                         _______ _______ _______ _____ _____    ______ ____
ROOT
ATOM      1  C   UNL     1       8.309  34.376  77.967  0.00  0.00    +0.000 C 
ATOM      2  O   UNL     1       8.909  35.050  78.807  0.00  0.00    +0.000 OA
ATOM      3  N   UNL     1       6.885  34.370  77.966  0.00  0.00    +0.000 N 
ATOM      4  C   UNL     1       5.975  33.459  77.182  0.00  0.00    +0.000 C 
ATOM      5  C   UNL     1       6.180  34.835  79.190  0.00  0.00    +0.000 C 
ATOM      6  C   UNL     1       4.591  34.027  77.525  0.00  0.00    +0.000 C 
ATOM      7  C   UNL     1       4.699  34.452  78.980  0.00  0.00    +0.000 C 
ENDROOT
BRANCH   5   8
ATOM      8  C   UNL     1       6.323  36.254  79.694  0.00  0.00    +0.000 A 
ATOM      9  C   UNL     1       6.471  36.598  81.037  0.00  0.00    +0.000 A 
ATOM     10  C   UNL     1       6.480  37.256  78.717  0.00  0.00    +0.000 A 
ATOM     11  C   UNL     1       6.860  37.904  81.384  0.00  0.00    +0.000 A 
ATOM     12  C   UNL     1       6.865  38.551  79.060  0.00  0.00    +0.000 A 
ATOM     13  C   UNL     1       7.089  38.875  80.397  0.00  0.00    +0.000 A 
ATOM     14  C   UNL     1       7.571  40.255  80.743  0.00  0.00    +0.000 C 
ENDBRANCH   5   8
BRANCH   1  20
ATOM     15  C   UNL     1      10.952  32.164  75.251  0.00  0.00    +0.000 A 
ATOM     16  C   UNL     1      10.913  33.563  75.264  0.00  0.00    +0.000 A 
ATOM     17  C   UNL     1      10.146  31.482  76.143  0.00  0.00    +0.000 A 
ATOM     18  C   UNL     1      10.048  34.256  76.141  0.00  0.00    +0.000 A 
ATOM     19  C   UNL     1       9.294  32.178  76.990  0.00  0.00    +0.000 A 
ATOM     20  C   UNL     1       9.190  33.573  77.018  0.00  0.00    +0.000 A 
BRANCH  15  22
ATOM     21  F   UNL     1      13.115  31.326  74.614  0.00  0.00    +0.000 F 
ATOM     22  C   UNL     1      11.789  31.336  74.315  0.00  0.00    +0.000 C 
ATOM     23  F   UNL     1      11.689  31.773  73.027  0.00  0.00    +0.000 F 
ATOM     24  F   UNL     1      11.391  30.032  74.288  0.00  0.00    +0.000 F 
ENDBRANCH  15  22
ENDBRANCH   1  20
BRANCH   4  25
ATOM     25  C   UNL     1       6.139  33.771  75.646  0.00  0.00    +0.000 C 
ATOM     26  O   UNL     1       6.656  34.793  75.211  0.00  0.00    +0.000 OA
ATOM     27  O   UNL     1       5.623  32.880  74.777  0.00  0.00    +0.000 OA
ENDBRANCH   4  25
BRANCH   7  28
ATOM     28  C   UNL     1       3.593  35.425  79.330  0.00  0.00    +0.000 C 
ATOM     29  O   UNL     1       3.068  35.425  80.433  0.00  0.00    +0.000 OA
ATOM     30  O   UNL     1       3.133  36.201  78.326  0.00  0.00    +0.000 OA
ENDBRANCH   7  28
BRANCH   4  31
ATOM     31  C   UNL     1       6.119  32.017  77.810  0.00  0.00    +0.000 C 
BRANCH  31  32
ATOM     32  C   UNL     1       5.329  30.814  77.269  0.00  0.00    +0.000 C 
ATOM     33  C   UNL     1       6.275  29.936  76.425  0.00  0.00    +0.000 C 
ATOM     34  C   UNL     1       4.738  29.932  78.364  0.00  0.00    +0.000 C 
ENDBRANCH  31  32
ENDBRANCH   4  31
TORSDOF 7
ENDMDL
MODEL 3
REMARK VINA RESULT:      -7.5      4.800      7.148
REMARK  Name = 
REMARK  10 active torsions:
REMARK  status: ('A' for Active; 'I' for Inactive)
REMARK    1  A    between atoms: C_2  and  C_5
REMARK    2  A    between atoms: C_10  and  C_11
REMARK    3  A    between atoms: C_14  and  C_16
REMARK    4  A    between atoms: C_14  and  C_18
REMARK    5  A    between atoms: C_15  and  C_19
REMARK    6  A    between atoms: C_18  and  C_23
REMARK    7  A    between atoms: C_20  and  C_26
REMARK    8  A    between atoms: C_23  and  C_27
REMARK    9  A    between atoms: C_23  and  C_28
REMARK   10  A    between atoms: C_33  and  C_34
REMARK                            x       y       z     vdW  Elec       q    Type
REMARK                         _______ _______ _______ _____ _____    ______ ____
ROOT
ATOM      1  C   UNL     1       8.468  35.794  78.703  0.00  0.00    +0.000 C 
ATOM      2  O   UNL     1       8.582  35.820  77.476  0.00  0.00    +0.000 OA
ATOM      3  N   UNL     1       8.615  34.556  79.391  0.00  0.00    +0.000 N 
ATOM      4  C   UNL     1       8.301  34.272  80.838  0.00  0.00    +0.000 C 
ATOM      5  C   UNL     1       8.499  33.299  78.607  0.00  0.00    +0.000 C 
ATOM      6  C   UNL     1       8.773  32.819  80.983  0.00  0.00    +0.000 C 
ATOM      7  C   UNL     1       8.425  32.167  79.655  0.00  0.00    +0.000 C 
ENDROOT
BRANCH   5   8
ATOM      8  C   UNL     1       9.470  32.967  77.495  0.00  0.00    +0.000 A 
ATOM      9  C   UNL     1      10.824  33.296  77.512  0.00  0.00    +0.000 A 
ATOM     10  C   UNL     1       8.988  32.131  76.469  0.00  0.00    +0.000 A 
ATOM     11  C   UNL     1      11.694  32.720  76.569  0.00  0.00    +0.000 A 
ATOM     12  C   UNL     1       9.850  31.561  75.532  0.00  0.00    +0.000 A 
ATOM     13  C   UNL     1      11.217  31.828  75.597  0.00  0.00    +0.000 A 
ATOM     14  C   UNL     1      12.139  31.150  74.625  0.00  0.00    +0.000 C 
ENDBRANCH   5   8
BRANCH   1  20
ATOM     15  C   UNL     1       7.429  39.569  80.685  0.00  0.00    +0.000 A 
ATOM     16  C   UNL     1       6.476  38.568  80.459  0.00  0.00    +0.000 A 
ATOM     17  C   UNL     1       8.731  39.330  80.285  0.00  0.00    +0.000 A 
ATOM     18  C   UNL     1       6.830  37.363  79.811  0.00  0.00    +0.000 A 
ATOM     19  C   UNL     1       9.059  38.145  79.640  0.00  0.00    +0.000 A 
ATOM     20  C   UNL     1       8.139  37.129  79.359  0.00  0.00    +0.000 A 
BRANCH  15  22
ATOM     21  F   UNL     1       6.079  40.909  82.156  0.00  0.00    +0.000 F 
ATOM     22  C   UNL     1       7.139  40.907  81.306  0.00  0.00    +0.000 C 
ATOM     23  F   UNL     1       6.878  41.857  80.363  0.00  0.00    +0.000 F 
ATOM     24  F   UNL     1       8.202  41.384  82.016  0.00  0.00    +0.000 F 
ENDBRANCH  15  22
ENDBRANCH   1  20
BRANCH   4  25
ATOM     25  C   UNL     1       9.301  35.084  81.747  0.00  0.00    +0.000 C 
ATOM     26  O   UNL     1      10.497  34.837  81.831  0.00  0.00    +0.000 OA
ATOM     27  O   UNL     1       8.781  36.064  82.512  0.00  0.00    +0.000 OA
ENDBRANCH   4  25
BRANCH   7  28
ATOM     28  C   UNL     1       9.216  30.890  79.469  0.00  0.00    +0.000 C 
ATOM     29  O   UNL     1       8.708  29.888  78.989  0.00  0.00    +0.000 OA
ATOM     30  O   UNL     1      10.467  30.877  79.975  0.00  0.00    +0.000 OA
ENDBRANCH   7  28
BRANCH   4  31
ATOM     31  C   UNL     1       6.730  34.328  80.985  0.00  0.00    +0.000 C 
BRANCH  31  32
ATOM     32  C   UNL     1       6.021  33.910  82.285  0.00  0.00    +0.000 C 
ATOM     33  C   UNL     1       5.216  35.110  82.822  0.00  0.00    +0.000 C 
ATOM     34  C   UNL     1       5.048  32.749  82.101  0.00  0.00    +0.000 C 
ENDBRANCH  31  32
ENDBRANCH   4  31
TORSDOF 7
ENDMDL
MODEL 4
REMARK VINA RESULT:      -7.1      3.632      5.962
REMARK  Name = 
REMARK  10 active torsions:
REMARK  status: ('A' for Active; 'I' for Inactive)
REMARK    1  A    between atoms: C_2  and  C_5
REMARK    2  A    between atoms: C_10  and  C_11
REMARK    3  A    between atoms: C_14  and  C_16
REMARK    4  A    between atoms: C_14  and  C_18
REMARK    5  A    between atoms: C_15  and  C_19
REMARK    6  A    between atoms: C_18  and  C_23
REMARK    7  A    between atoms: C_20  and  C_26
REMARK    8  A    between atoms: C_23  and  C_27
REMARK    9  A    between atoms: C_23  and  C_28
REMARK   10  A    between atoms: C_33  and  C_34
REMARK                            x       y       z     vdW  Elec       q    Type
REMARK                         _______ _______ _______ _____ _____    ______ ____
ROOT
ATOM      1  C   UNL     1       6.551  33.952  79.828  0.00  0.00    +0.000 C 
ATOM      2  O   UNL     1       6.080  33.325  80.779  0.00  0.00    +0.000 OA
ATOM      3  N   UNL     1       6.511  33.377  78.526  0.00  0.00    +0.000 N 
ATOM      4  C   UNL     1       7.216  33.870  77.288  0.00  0.00    +0.000 C 
ATOM      5  C   UNL     1       6.281  31.913  78.411  0.00  0.00    +0.000 C 
ATOM      6  C   UNL     1       6.687  32.903  76.219  0.00  0.00    +0.000 C 
ATOM      7  C   UNL     1       6.567  31.567  76.933  0.00  0.00    +0.000 C 
ENDROOT
BRANCH   5   8
ATOM      8  C   UNL     1       4.999  31.273  78.895  0.00  0.00    +0.000 A 
ATOM      9  C   UNL     1       4.943  30.128  79.689  0.00  0.00    +0.000 A 
ATOM     10  C   UNL     1       3.810  31.990  78.656  0.00  0.00    +0.000 A 
ATOM     11  C   UNL     1       3.733  29.764  80.304  0.00  0.00    +0.000 A 
ATOM     12  C   UNL     1       2.609  31.628  79.265  0.00  0.00    +0.000 A 
ATOM     13  C   UNL     1       2.571  30.528  80.121  0.00  0.00    +0.000 A 
ATOM     14  C   UNL     1       1.287  30.195  80.823  0.00  0.00    +0.000 C 
ENDBRANCH   5   8
BRANCH   1  20
ATOM     15  C   UNL     1       8.219  37.867  80.896  0.00  0.00    +0.000 A 
ATOM     16  C   UNL     1       6.868  37.707  80.567  0.00  0.00    +0.000 A 
ATOM     17  C   UNL     1       9.025  36.744  80.901  0.00  0.00    +0.000 A 
ATOM     18  C   UNL     1       6.352  36.438  80.217  0.00  0.00    +0.000 A 
ATOM     19  C   UNL     1       8.505  35.508  80.544  0.00  0.00    +0.000 A 
ATOM     20  C   UNL     1       7.173  35.299  80.174  0.00  0.00    +0.000 A 
BRANCH  15  22
ATOM     21  F   UNL     1       9.995  39.073  81.981  0.00  0.00    +0.000 F 
ATOM     22  C   UNL     1       8.875  39.182  81.220  0.00  0.00    +0.000 C 
ATOM     23  F   UNL     1       8.032  40.016  81.893  0.00  0.00    +0.000 F 
ATOM     24  F   UNL     1       9.239  39.863  80.096  0.00  0.00    +0.000 F 
ENDBRANCH  15  22
ENDBRANCH   1  20
BRANCH   4  25
ATOM     25  C   UNL     1       6.606  35.262  76.871  0.00  0.00    +0.000 C 
ATOM     26  O   UNL     1       5.449  35.412  76.499  0.00  0.00    +0.000 OA
ATOM     27  O   UNL     1       7.434  36.324  76.875  0.00  0.00    +0.000 OA
ENDBRANCH   4  25
BRANCH   7  28
ATOM     28  C   UNL     1       5.651  30.637  76.167  0.00  0.00    +0.000 C 
ATOM     29  O   UNL     1       5.769  29.424  76.236  0.00  0.00    +0.000 OA
ATOM     30  O   UNL     1       4.786  31.217  75.308  0.00  0.00    +0.000 OA
ENDBRANCH   7  28
BRANCH   4  31
ATOM     31  C   UNL     1       8.759  33.613  77.506  0.00  0.00    +0.000 C 
BRANCH  31  32
ATOM     32  C   UNL     1       9.732  33.458  76.325  0.00  0.00    +0.000 C 
ATOM     33  C   UNL     1      10.529  34.768  76.162  0.00  0.00    +0.000 C 
ATOM     34  C   UNL     1      10.738  32.327  76.509  0.00  0.00    +0.000 C 
ENDBRANCH  31  32
ENDBRANCH   4  31
TORSDOF 7
ENDMDL
MODEL 5
REMARK VINA RESULT:      -6.8      4.274      7.748
REMARK  Name = 
REMARK  10 active torsions:
REMARK  status: ('A' for Active; 'I' for Inactive)
REMARK    1  A    between atoms: C_2  and  C_5
REMARK    2  A    between atoms: C_10  and  C_11
REMARK    3  A    between atoms: C_14  and  C_16
REMARK    4  A    between atoms: C_14  and  C_18
REMARK    5  A    between atoms: C_15  and  C_19
REMARK    6  A    between atoms: C_18  and  C_23
REMARK    7  A    between atoms: C_20  and  C_26
REMARK    8  A    between atoms: C_23  and  C_27
REMARK    9  A    between atoms: C_23  and  C_28
REMARK   10  A    between atoms: C_33  and  C_34
REMARK                            x       y       z     vdW  Elec       q    Type
REMARK                         _______ _______ _______ _____ _____    ______ ____
ROOT
ATOM      1  C   UNL     1       8.392  32.117  77.978  0.00  0.00    +0.000 C 
ATOM      2  O   UNL     1       9.067  31.085  77.981  0.00  0.00    +0.000 OA
ATOM      3  N   UNL     1       8.906  33.285  77.347  0.00  0.00    +0.000 N 
ATOM      4  C   UNL     1       8.350  34.684  77.421  0.00  0.00    +0.000 C 
ATOM      5  C   UNL     1      10.367  33.350  77.074  0.00  0.00    +0.000 C 
ATOM      6  C   UNL     1       9.272  35.440  76.455  0.00  0.00    +0.000 C 
ATOM      7  C   UNL     1      10.641  34.812  76.657  0.00  0.00    +0.000 C 
ENDROOT
BRANCH   5   8
ATOM      8  C   UNL     1      11.042  32.368  76.143  0.00  0.00    +0.000 A 
ATOM      9  C   UNL     1      10.383  31.656  75.141  0.00  0.00    +0.000 A 
ATOM     10  C   UNL     1      12.448  32.312  76.201  0.00  0.00    +0.000 A 
ATOM     11  C   UNL     1      11.130  30.976  74.163  0.00  0.00    +0.000 A 
ATOM     12  C   UNL     1      13.189  31.636  75.232  0.00  0.00    +0.000 A 
ATOM     13  C   UNL     1      12.532  30.989  74.186  0.00  0.00    +0.000 A 
ATOM     14  C   UNL     1      13.347  30.327  73.113  0.00  0.00    +0.000 C 
ENDBRANCH   5   8
BRANCH   1  20
ATOM     15  C   UNL     1       4.513  31.739  79.994  0.00  0.00    +0.000 A 
ATOM     16  C   UNL     1       4.676  31.408  78.643  0.00  0.00    +0.000 A 
ATOM     17  C   UNL     1       5.621  32.171  80.697  0.00  0.00    +0.000 A 
ATOM     18  C   UNL     1       5.933  31.545  78.011  0.00  0.00    +0.000 A 
ATOM     19  C   UNL     1       6.845  32.311  80.057  0.00  0.00    +0.000 A 
ATOM     20  C   UNL     1       7.055  32.028  78.704  0.00  0.00    +0.000 A 
BRANCH  15  22
ATOM     21  F   UNL     1       3.233  32.303  81.950  0.00  0.00    +0.000 F 
ATOM     22  C   UNL     1       3.207  31.688  80.739  0.00  0.00    +0.000 C 
ATOM     23  F   UNL     1       2.805  30.405  80.968  0.00  0.00    +0.000 F 
ATOM     24  F   UNL     1       2.192  32.266  80.035  0.00  0.00    +0.000 F 
ENDBRANCH  15  22
ENDBRANCH   1  20
BRANCH   4  25
ATOM     25  C   UNL     1       6.947  34.715  76.704  0.00  0.00    +0.000 C 
ATOM     26  O   UNL     1       5.951  35.243  77.181  0.00  0.00    +0.000 OA
ATOM     27  O   UNL     1       6.842  34.069  75.526  0.00  0.00    +0.000 OA
ENDBRANCH   4  25
BRANCH   7  28
ATOM     28  C   UNL     1      11.544  35.123  75.483  0.00  0.00    +0.000 C 
ATOM     29  O   UNL     1      11.230  34.828  74.340  0.00  0.00    +0.000 OA
ATOM     30  O   UNL     1      12.763  35.623  75.777  0.00  0.00    +0.000 OA
ENDBRANCH   7  28
BRANCH   4  31
ATOM     31  C   UNL     1       8.600  35.199  78.893  0.00  0.00    +0.000 C 
BRANCH  31  32
ATOM     32  C   UNL     1       7.821  36.388  79.481  0.00  0.00    +0.000 C 
ATOM     33  C   UNL     1       7.251  35.980  80.854  0.00  0.00    +0.000 C 
ATOM     34  C   UNL     1       8.677  37.633  79.690  0.00  0.00    +0.000 C 
ENDBRANCH  31  32
ENDBRANCH   4  31
TORSDOF 7
ENDMDL
MODEL 6
REMARK VINA RESULT:      -6.8      4.180      6.532
REMARK  Name = 
REMARK  10 active torsions:
REMARK  status: ('A' for Active; 'I' for Inactive)
REMARK    1  A    between atoms: C_2  and  C_5
REMARK    2  A    between atoms: C_10  and  C_11
REMARK    3  A    between atoms: C_14  and  C_16
REMARK    4  A    between atoms: C_14  and  C_18
REMARK    5  A    between atoms: C_15  and  C_19
REMARK    6  A    between atoms: C_18  and  C_23
REMARK    7  A    between atoms: C_20  and  C_26
REMARK    8  A    between atoms: C_23  and  C_27
REMARK    9  A    between atoms: C_23  and  C_28
REMARK   10  A    between atoms: C_33  and  C_34
REMARK                            x       y       z     vdW  Elec       q    Type
REMARK                         _______ _______ _______ _____ _____    ______ ____
ROOT
ATOM      1  C   UNL     1       7.131  34.461  79.744  0.00  0.00    +0.000 C 
ATOM      2  O   UNL     1       7.754  33.770  80.553  0.00  0.00    +0.000 OA
ATOM      3  N   UNL     1       6.458  33.830  78.660  0.00  0.00    +0.000 N 
ATOM      4  C   UNL     1       5.836  34.495  77.459  0.00  0.00    +0.000 C 
ATOM      5  C   UNL     1       6.846  32.439  78.306  0.00  0.00    +0.000 C 
ATOM      6  C   UNL     1       5.187  33.304  76.740  0.00  0.00    +0.000 C 
ATOM      7  C   UNL     1       6.154  32.151  76.956  0.00  0.00    +0.000 C 
ENDROOT
BRANCH   5   8
ATOM      8  C   UNL     1       6.666  31.295  79.280  0.00  0.00    +0.000 A 
ATOM      9  C   UNL     1       5.506  31.069  80.019  0.00  0.00    +0.000 A 
ATOM     10  C   UNL     1       7.683  30.321  79.299  0.00  0.00    +0.000 A 
ATOM     11  C   UNL     1       5.334  29.844  80.689  0.00  0.00    +0.000 A 
ATOM     12  C   UNL     1       7.514  29.108  79.965  0.00  0.00    +0.000 A 
ATOM     13  C   UNL     1       6.321  28.849  80.640  0.00  0.00    +0.000 A 
ATOM     14  C   UNL     1       6.127  27.511  81.291  0.00  0.00    +0.000 C 
ENDBRANCH   5   8
BRANCH   1  20
ATOM     15  C   UNL     1       7.252  38.766  80.585  0.00  0.00    +0.000 A 
ATOM     16  C   UNL     1       6.294  37.928  81.168  0.00  0.00    +0.000 A 
ATOM     17  C   UNL     1       8.189  38.196  79.744  0.00  0.00    +0.000 A 
ATOM     18  C   UNL     1       6.267  36.545  80.877  0.00  0.00    +0.000 A 
ATOM     19  C   UNL     1       8.142  36.838  79.460  0.00  0.00    +0.000 A 
ATOM     20  C   UNL     1       7.186  35.964  79.987  0.00  0.00    +0.000 A 
BRANCH  15  22
ATOM     21  F   UNL     1       6.861  40.682  81.986  0.00  0.00    +0.000 F 
ATOM     22  C   UNL     1       7.324  40.255  80.781  0.00  0.00    +0.000 C 
ATOM     23  F   UNL     1       6.607  40.925  79.835  0.00  0.00    +0.000 F 
ATOM     24  F   UNL     1       8.599  40.726  80.671  0.00  0.00    +0.000 F 
ENDBRANCH  15  22
ENDBRANCH   1  20
BRANCH   4  25
ATOM     25  C   UNL     1       4.608  35.362  77.932  0.00  0.00    +0.000 C 
ATOM     26  O   UNL     1       3.595  34.889  78.432  0.00  0.00    +0.000 OA
ATOM     27  O   UNL     1       4.669  36.690  77.714  0.00  0.00    +0.000 OA
ENDBRANCH   4  25
BRANCH   7  28
ATOM     28  C   UNL     1       5.463  30.827  76.709  0.00  0.00    +0.000 C 
ATOM     29  O   UNL     1       6.071  29.860  76.279  0.00  0.00    +0.000 OA
ATOM     30  O   UNL     1       4.123  30.809  76.867  0.00  0.00    +0.000 OA
ENDBRANCH   7  28
BRANCH   4  31
ATOM     31  C   UNL     1       7.023  35.053  76.579  0.00  0.00    +0.000 C 
BRANCH  31  32
ATOM     32  C   UNL     1       8.476  34.594  76.790  0.00  0.00    +0.000 C 
ATOM     33  C   UNL     1       8.861  33.624  75.655  0.00  0.00    +0.000 C 
ATOM     34  C   UNL     1       9.483  35.739  76.779  0.00  0.00    +0.000 C 
ENDBRANCH  31  32
ENDBRANCH   4  31
TORSDOF 7
ENDMDL
MODEL 7
REMARK VINA RESULT:      -6.7      1.839      2.506
REMARK  Name = 
REMARK  10 active torsions:
REMARK  status: ('A' for Active; 'I' for Inactive)
REMARK    1  A    between atoms: C_2  and  C_5
REMARK    2  A    between atoms: C_10  and  C_11
REMARK    3  A    between atoms: C_14  and  C_16
REMARK    4  A    between atoms: C_14  and  C_18
REMARK    5  A    between atoms: C_15  and  C_19
REMARK    6  A    between atoms: C_18  and  C_23
REMARK    7  A    between atoms: C_20  and  C_26
REMARK    8  A    between atoms: C_23  and  C_27
REMARK    9  A    between atoms: C_23  and  C_28
REMARK   10  A    between atoms: C_33  and  C_34
REMARK                            x       y       z     vdW  Elec       q    Type
REMARK                         _______ _______ _______ _____ _____    ______ ____
ROOT
ATOM      1  C   UNL     1       7.335  33.035  76.949  0.00  0.00    +0.000 C 
ATOM      2  O   UNL     1       6.453  32.439  76.327  0.00  0.00    +0.000 OA
ATOM      3  N   UNL     1       7.002  33.711  78.157  0.00  0.00    +0.000 N 
ATOM      4  C   UNL     1       7.867  34.667  78.938  0.00  0.00    +0.000 C 
ATOM      5  C   UNL     1       5.570  34.019  78.417  0.00  0.00    +0.000 C 
ATOM      6  C   UNL     1       6.992  34.950  80.167  0.00  0.00    +0.000 C 
ATOM      7  C   UNL     1       5.570  34.974  79.630  0.00  0.00    +0.000 C 
ENDROOT
BRANCH   5   8
ATOM      8  C   UNL     1       4.541  32.921  78.571  0.00  0.00    +0.000 A 
ATOM      9  C   UNL     1       4.707  31.797  79.379  0.00  0.00    +0.000 A 
ATOM     10  C   UNL     1       3.281  33.154  77.985  0.00  0.00    +0.000 A 
ATOM     11  C   UNL     1       3.603  30.974  79.665  0.00  0.00    +0.000 A 
ATOM     12  C   UNL     1       2.187  32.337  78.267  0.00  0.00    +0.000 A 
ATOM     13  C   UNL     1       2.335  31.258  79.137  0.00  0.00    +0.000 A 
ATOM     14  C   UNL     1       1.131  30.431  79.486  0.00  0.00    +0.000 C 
ENDBRANCH   5   8
BRANCH   1  20
ATOM     15  C   UNL     1      11.289  32.822  75.058  0.00  0.00    +0.000 A 
ATOM     16  C   UNL     1      10.666  31.688  75.592  0.00  0.00    +0.000 A 
ATOM     17  C   UNL     1      10.612  34.026  75.119  0.00  0.00    +0.000 A 
ATOM     18  C   UNL     1       9.395  31.780  76.205  0.00  0.00    +0.000 A 
ATOM     19  C   UNL     1       9.370  34.101  75.734  0.00  0.00    +0.000 A 
ATOM     20  C   UNL     1       8.719  33.007  76.313  0.00  0.00    +0.000 A 
BRANCH  15  22
ATOM     21  F   UNL     1      13.285  31.632  74.439  0.00  0.00    +0.000 F 
ATOM     22  C   UNL     1      12.662  32.840  74.445  0.00  0.00    +0.000 C 
ATOM     23  F   UNL     1      13.497  33.699  75.098  0.00  0.00    +0.000 F 
ATOM     24  F   UNL     1      12.641  33.268  73.151  0.00  0.00    +0.000 F 
ENDBRANCH  15  22
ENDBRANCH   1  20
BRANCH   4  25
ATOM     25  C   UNL     1       9.097  33.877  79.527  0.00  0.00    +0.000 C 
ATOM     26  O   UNL     1      10.257  34.072  79.185  0.00  0.00    +0.000 OA
ATOM     27  O   UNL     1       8.834  32.897  80.413  0.00  0.00    +0.000 OA
ENDBRANCH   4  25
BRANCH   7  28
ATOM     28  C   UNL     1       4.576  34.791  80.757  0.00  0.00    +0.000 C 
ATOM     29  O   UNL     1       3.440  35.234  80.684  0.00  0.00    +0.000 OA
ATOM     30  O   UNL     1       5.047  34.229  81.890  0.00  0.00    +0.000 OA
ENDBRANCH   7  28
BRANCH   4  31
ATOM     31  C   UNL     1       7.994  35.982  78.073  0.00  0.00    +0.000 C 
BRANCH  31  32
ATOM     32  C   UNL     1       8.800  37.198  78.559  0.00  0.00    +0.000 C 
ATOM     33  C   UNL     1       9.559  37.803  77.361  0.00  0.00    +0.000 C 
ATOM     34  C   UNL     1       7.934  38.302  79.159  0.00  0.00    +0.000 C 
ENDBRANCH  31  32
ENDBRANCH   4  31
TORSDOF 7
ENDMDL
MODEL 8
REMARK VINA RESULT:      -6.3      2.082      3.434
REMARK  Name = 
REMARK  10 active torsions:
REMARK  status: ('A' for Active; 'I' for Inactive)
REMARK    1  A    between atoms: C_2  and  C_5
REMARK    2  A    between atoms: C_10  and  C_11
REMARK    3  A    between atoms: C_14  and  C_16
REMARK    4  A    between atoms: C_14  and  C_18
REMARK    5  A    between atoms: C_15  and  C_19
REMARK    6  A    between atoms: C_18  and  C_23
REMARK    7  A    between atoms: C_20  and  C_26
REMARK    8  A    between atoms: C_23  and  C_27
REMARK    9  A    between atoms: C_23  and  C_28
REMARK   10  A    between atoms: C_33  and  C_34
REMARK                            x       y       z     vdW  Elec       q    Type
REMARK                         _______ _______ _______ _____ _____    ______ ____
ROOT
ATOM      1  C   UNL     1       7.671  31.816  77.720  0.00  0.00    +0.000 C 
ATOM      2  O   UNL     1       7.337  30.639  77.572  0.00  0.00    +0.000 OA
ATOM      3  N   UNL     1       6.954  32.636  78.637  0.00  0.00    +0.000 N 
ATOM      4  C   UNL     1       7.057  34.130  78.800  0.00  0.00    +0.000 C 
ATOM      5  C   UNL     1       5.608  32.184  79.078  0.00  0.00    +0.000 C 
ATOM      6  C   UNL     1       6.134  34.380  80.001  0.00  0.00    +0.000 C 
ATOM      7  C   UNL     1       4.995  33.389  79.824  0.00  0.00    +0.000 C 
ENDROOT
BRANCH   5   8
ATOM      8  C   UNL     1       5.419  30.896  79.849  0.00  0.00    +0.000 A 
ATOM      9  C   UNL     1       4.457  29.934  79.547  0.00  0.00    +0.000 A 
ATOM     10  C   UNL     1       6.393  30.598  80.822  0.00  0.00    +0.000 A 
ATOM     11  C   UNL     1       4.529  28.663  80.144  0.00  0.00    +0.000 A 
ATOM     12  C   UNL     1       6.464  29.338  81.416  0.00  0.00    +0.000 A 
ATOM     13  C   UNL     1       5.549  28.351  81.056  0.00  0.00    +0.000 A 
ATOM     14  C   UNL     1       5.682  26.979  81.652  0.00  0.00    +0.000 C 
ENDBRANCH   5   8
BRANCH   1  20
ATOM     15  C   UNL     1      10.988  33.043  75.121  0.00  0.00    +0.000 A 
ATOM     16  C   UNL     1      10.737  31.696  75.408  0.00  0.00    +0.000 A 
ATOM     17  C   UNL     1      10.141  33.993  75.662  0.00  0.00    +0.000 A 
ATOM     18  C   UNL     1       9.668  31.323  76.255  0.00  0.00    +0.000 A 
ATOM     19  C   UNL     1       9.103  33.610  76.500  0.00  0.00    +0.000 A 
ATOM     20  C   UNL     1       8.830  32.283  76.848  0.00  0.00    +0.000 A 
BRANCH  15  22
ATOM     21  F   UNL     1      12.200  32.997  73.044  0.00  0.00    +0.000 F 
ATOM     22  C   UNL     1      12.134  33.545  74.286  0.00  0.00    +0.000 C 
ATOM     23  F   UNL     1      13.337  33.299  74.879  0.00  0.00    +0.000 F 
ATOM     24  F   UNL     1      12.086  34.896  74.108  0.00  0.00    +0.000 F 
ENDBRANCH  15  22
ENDBRANCH   1  20
BRANCH   4  25
ATOM     25  C   UNL     1       8.491  34.488  79.348  0.00  0.00    +0.000 C 
ATOM     26  O   UNL     1       9.171  33.725  80.022  0.00  0.00    +0.000 OA
ATOM     27  O   UNL     1       8.954  35.728  79.100  0.00  0.00    +0.000 OA
ENDBRANCH   4  25
BRANCH   7  28
ATOM     28  C   UNL     1       4.256  33.194  81.130  0.00  0.00    +0.000 C 
ATOM     29  O   UNL     1       3.064  32.929  81.156  0.00  0.00    +0.000 OA
ATOM     30  O   UNL     1       4.949  33.451  82.259  0.00  0.00    +0.000 OA
ENDBRANCH   7  28
BRANCH   4  31
ATOM     31  C   UNL     1       6.419  34.777  77.508  0.00  0.00    +0.000 C 
BRANCH  31  32
ATOM     32  C   UNL     1       5.398  34.021  76.642  0.00  0.00    +0.000 C 
ATOM     33  C   UNL     1       4.053  34.773  76.686  0.00  0.00    +0.000 C 
ATOM     34  C   UNL     1       5.811  33.904  75.178  0.00  0.00    +0.000 C 
ENDBRANCH  31  32
ENDBRANCH   4  31
TORSDOF 7
ENDMDL
MODEL 9
REMARK VINA RESULT:      -6.2      2.225      3.000
REMARK  Name = 
REMARK  10 active torsions:
REMARK  status: ('A' for Active; 'I' for Inactive)
REMARK    1  A    between atoms: C_2  and  C_5
REMARK    2  A    between atoms: C_10  and  C_11
REMARK    3  A    between atoms: C_14  and  C_16
REMARK    4  A    between atoms: C_14  and  C_18
REMARK    5  A    between atoms: C_15  and  C_19
REMARK    6  A    between atoms: C_18  and  C_23
REMARK    7  A    between atoms: C_20  and  C_26
REMARK    8  A    between atoms: C_23  and  C_27
REMARK    9  A    between atoms: C_23  and  C_28
REMARK   10  A    between atoms: C_33  and  C_34
REMARK                            x       y       z     vdW  Elec       q    Type
REMARK                         _______ _______ _______ _____ _____    ______ ____
ROOT
ATOM      1  C   UNL     1       7.621  32.559  78.331  0.00  0.00    +0.000 C 
ATOM      2  O   UNL     1       7.100  31.634  77.704  0.00  0.00    +0.000 OA
ATOM      3  N   UNL     1       7.159  32.860  79.644  0.00  0.00    +0.000 N 
ATOM      4  C   UNL     1       7.503  34.066  80.479  0.00  0.00    +0.000 C 
ATOM      5  C   UNL     1       5.831  32.336  80.058  0.00  0.00    +0.000 C 
ATOM      6  C   UNL     1       6.792  33.746  81.801  0.00  0.00    +0.000 C 
ATOM      7  C   UNL     1       5.506  33.049  81.389  0.00  0.00    +0.000 C 
ENDROOT
BRANCH   5   8
ATOM      8  C   UNL     1       5.556  30.851  80.139  0.00  0.00    +0.000 A 
ATOM      9  C   UNL     1       6.454  29.913  80.647  0.00  0.00    +0.000 A 
ATOM     10  C   UNL     1       4.245  30.437  79.832  0.00  0.00    +0.000 A 
ATOM     11  C   UNL     1       6.014  28.607  80.927  0.00  0.00    +0.000 A 
ATOM     12  C   UNL     1       3.809  29.141  80.108  0.00  0.00    +0.000 A 
ATOM     13  C   UNL     1       4.686  28.225  80.689  0.00  0.00    +0.000 A 
ATOM     14  C   UNL     1       4.181  26.857  81.044  0.00  0.00    +0.000 C 
ENDBRANCH   5   8
BRANCH   1  20
ATOM     15  C   UNL     1      10.821  34.624  76.151  0.00  0.00    +0.000 A 
ATOM     16  C   UNL     1      11.055  33.433  76.849  0.00  0.00    +0.000 A 
ATOM     17  C   UNL     1       9.535  35.132  76.142  0.00  0.00    +0.000 A 
ATOM     18  C   UNL     1      10.011  32.788  77.552  0.00  0.00    +0.000 A 
ATOM     19  C   UNL     1       8.525  34.492  76.847  0.00  0.00    +0.000 A 
ATOM     20  C   UNL     1       8.712  33.321  77.589  0.00  0.00    +0.000 A 
BRANCH  15  22
ATOM     21  F   UNL     1      11.600  36.744  75.326  0.00  0.00    +0.000 F 
ATOM     22  C   UNL     1      11.874  35.417  75.427  0.00  0.00    +0.000 C 
ATOM     23  F   UNL     1      12.062  34.965  74.154  0.00  0.00    +0.000 F 
ATOM     24  F   UNL     1      13.093  35.321  76.030  0.00  0.00    +0.000 F 
ENDBRANCH  15  22
ENDBRANCH   1  20
BRANCH   4  25
ATOM     25  C   UNL     1       9.033  34.012  80.852  0.00  0.00    +0.000 C 
ATOM     26  O   UNL     1       9.574  33.040  81.364  0.00  0.00    +0.000 OA
ATOM     27  O   UNL     1       9.759  35.127  80.642  0.00  0.00    +0.000 OA
ENDBRANCH   4  25
BRANCH   7  28
ATOM     28  C   UNL     1       4.923  32.280  82.555  0.00  0.00    +0.000 C 
ATOM     29  O   UNL     1       3.716  32.165  82.705  0.00  0.00    +0.000 OA
ATOM     30  O   UNL     1       5.798  31.839  83.483  0.00  0.00    +0.000 OA
ENDBRANCH   7  28
BRANCH   4  31
ATOM     31  C   UNL     1       6.804  35.308  79.798  0.00  0.00    +0.000 C 
BRANCH  31  32
ATOM     32  C   UNL     1       7.276  36.749  80.058  0.00  0.00    +0.000 C 
ATOM     33  C   UNL     1       7.397  37.485  78.709  0.00  0.00    +0.000 C 
ATOM     34  C   UNL     1       6.321  37.553  80.936  0.00  0.00    +0.000 C 
ENDBRANCH  31  32
ENDBRANCH   4  31
TORSDOF 7
ENDMDL
