MODEL 1
REMARK VINA RESULT:      -7.0      0.000      0.000
REMARK  Name = 
REMARK  8 active torsions:
REMARK  status: ('A' for Active; 'I' for Inactive)
REMARK    1  A    between atoms: C_7  and  C_8
REMARK    2  A    between atoms: C_11  and  C_13
REMARK    3  A    between atoms: C_11  and  C_15
REMARK    4  A    between atoms: C_12  and  C_16
REMARK    5  A    between atoms: C_15  and  C_20
REMARK    6  A    between atoms: C_17  and  C_23
REMARK    7  A    between atoms: C_20  and  C_24
REMARK    8  A    between atoms: C_20  and  C_25
REMARK                            x       y       z     vdW  Elec       q    Type
REMARK                         _______ _______ _______ _____ _____    ______ ____
ROOT
ATOM      1  C   UNL     1       7.320  32.029  76.917  0.00  0.00    +0.000 C 
ATOM      2  O   UNL     1       6.355  32.114  76.144  0.00  0.00    +0.000 OA
ATOM      3  N   UNL     1       7.152  31.779  78.305  0.00  0.00    +0.000 N 
ATOM      4  C   UNL     1       8.109  32.045  79.433  0.00  0.00    +0.000 C 
ATOM      5  C   UNL     1       5.767  31.941  78.855  0.00  0.00    +0.000 C 
ATOM      6  C   UNL     1       7.323  31.359  80.601  0.00  0.00    +0.000 C 
ATOM      7  C   UNL     1       5.855  31.706  80.374  0.00  0.00    +0.000 C 
ENDROOT
BRANCH   1  14
ATOM      8 CL   UNL     1      12.745  33.368  74.691  0.00  0.00    +0.000 Cl
ATOM      9  C   UNL     1      11.171  32.984  75.261  0.00  0.00    +0.000 A 
ATOM     10  C   UNL     1      10.264  33.995  75.562  0.00  0.00    +0.000 A 
ATOM     11  C   UNL     1      10.791  31.655  75.385  0.00  0.00    +0.000 A 
ATOM     12  C   UNL     1       9.002  33.662  76.067  0.00  0.00    +0.000 A 
ATOM     13  C   UNL     1       9.500  31.339  75.807  0.00  0.00    +0.000 A 
ATOM     14  C   UNL     1       8.629  32.318  76.257  0.00  0.00    +0.000 A 
ENDBRANCH   1  14
BRANCH   5  15
ATOM     15  C   UNL     1       4.683  31.159  78.169  0.00  0.00    +0.000 A 
ATOM     16  S   UNL     1       3.185  31.948  77.835  0.00  0.00    +0.000 S 
ATOM     17  C   UNL     1       4.673  29.860  77.703  0.00  0.00    +0.000 A 
ATOM     18  C   UNL     1       2.565  30.576  77.034  0.00  0.00    +0.000 A 
ATOM     19  C   UNL     1       3.466  29.536  77.020  0.00  0.00    +0.000 A 
ENDBRANCH   5  15
BRANCH   4  20
ATOM     20  C   UNL     1       9.450  31.276  79.541  0.00  0.00    +0.000 C 
ATOM     21  O   UNL     1       9.549  30.098  79.855  0.00  0.00    +0.000 OA
ATOM     22  O   UNL     1      10.536  31.989  79.139  0.00  0.00    +0.000 OA
ENDBRANCH   4  20
BRANCH   7  23
ATOM     23  C   UNL     1       4.970  30.607  80.927  0.00  0.00    +0.000 C 
ATOM     24  O   UNL     1       5.314  29.441  81.050  0.00  0.00    +0.000 OA
ATOM     25  O   UNL     1       3.749  31.032  81.321  0.00  0.00    +0.000 OA
ENDBRANCH   7  23
BRANCH   4  26
ATOM     26  C   UNL     1       8.267  33.558  79.845  0.00  0.00    +0.000 C 
BRANCH  26  27
ATOM     27  C   UNL     1       8.634  33.955  81.291  0.00  0.00    +0.000 C 
ATOM     28  C   UNL     1       9.943  34.740  81.401  0.00  0.00    +0.000 C 
ATOM     29  C   UNL     1       7.557  34.900  81.854  0.00  0.00    +0.000 C 
ENDBRANCH  26  27
ENDBRANCH   4  26
TORSDOF 6
ENDMDL
MODEL 2
REMARK VINA RESULT:      -6.6      3.032      5.481
REMARK  Name = 
REMARK  8 active torsions:
REMARK  status: ('A' for Active; 'I' for Inactive)
REMARK    1  A    between atoms: C_7  and  C_8
REMARK    2  A    between atoms: C_11  and  C_13
REMARK    3  A    between atoms: C_11  and  C_15
REMARK    4  A    between atoms: C_12  and  C_16
REMARK    5  A    between atoms: C_15  and  C_20
REMARK    6  A    between atoms: C_17  and  C_23
REMARK    7  A    between atoms: C_20  and  C_24
REMARK    8  A    between atoms: C_20  and  C_25
REMARK                            x       y       z     vdW  Elec       q    Type
REMARK                         _______ _______ _______ _____ _____    ______ ____
ROOT
ATOM      1  C   UNL     1       8.602  34.330  77.708  0.00  0.00    +0.000 C 
ATOM      2  O   UNL     1       9.345  34.892  78.525  0.00  0.00    +0.000 OA
ATOM      3  N   UNL     1       7.188  34.450  77.769  0.00  0.00    +0.000 N 
ATOM      4  C   UNL     1       6.138  33.558  77.169  0.00  0.00    +0.000 C 
ATOM      5  C   UNL     1       6.616  35.013  79.036  0.00  0.00    +0.000 C 
ATOM      6  C   UNL     1       4.864  34.408  77.494  0.00  0.00    +0.000 C 
ATOM      7  C   UNL     1       5.083  34.962  78.899  0.00  0.00    +0.000 C 
ENDROOT
BRANCH   1  14
ATOM      8 CL   UNL     1      11.974  30.896  74.101  0.00  0.00    +0.000 Cl
ATOM      9  C   UNL     1      10.963  31.879  75.080  0.00  0.00    +0.000 A 
ATOM     10  C   UNL     1      11.067  33.265  75.031  0.00  0.00    +0.000 A 
ATOM     11  C   UNL     1      10.011  31.285  75.896  0.00  0.00    +0.000 A 
ATOM     12  C   UNL     1      10.264  34.048  75.870  0.00  0.00    +0.000 A 
ATOM     13  C   UNL     1       9.159  32.082  76.661  0.00  0.00    +0.000 A 
ATOM     14  C   UNL     1       9.339  33.453  76.748  0.00  0.00    +0.000 A 
ENDBRANCH   1  14
BRANCH   5  15
ATOM     15  C   UNL     1       7.155  36.342  79.477  0.00  0.00    +0.000 A 
ATOM     16  S   UNL     1       7.533  36.565  81.146  0.00  0.00    +0.000 S 
ATOM     17  C   UNL     1       7.449  37.477  78.748  0.00  0.00    +0.000 A 
ATOM     18  C   UNL     1       8.127  38.139  80.871  0.00  0.00    +0.000 A 
ATOM     19  C   UNL     1       8.040  38.499  79.546  0.00  0.00    +0.000 A 
ENDBRANCH   5  15
BRANCH   4  20
ATOM     20  C   UNL     1       5.978  33.437  75.632  0.00  0.00    +0.000 C 
ATOM     21  O   UNL     1       5.475  32.480  75.060  0.00  0.00    +0.000 OA
ATOM     22  O   UNL     1       6.342  34.554  74.943  0.00  0.00    +0.000 OA
ENDBRANCH   4  20
BRANCH   7  23
ATOM     23  C   UNL     1       4.360  36.286  79.053  0.00  0.00    +0.000 C 
ATOM     24  O   UNL     1       4.120  37.051  78.131  0.00  0.00    +0.000 OA
ATOM     25  O   UNL     1       3.957  36.547  80.317  0.00  0.00    +0.000 OA
ENDBRANCH   7  23
BRANCH   4  26
ATOM     26  C   UNL     1       5.933  32.172  77.889  0.00  0.00    +0.000 C 
BRANCH  26  27
ATOM     27  C   UNL     1       4.522  31.575  78.080  0.00  0.00    +0.000 C 
ATOM     28  C   UNL     1       4.347  30.195  77.440  0.00  0.00    +0.000 C 
ATOM     29  C   UNL     1       4.256  31.354  79.580  0.00  0.00    +0.000 C 
ENDBRANCH  26  27
ENDBRANCH   4  26
TORSDOF 6
ENDMDL
MODEL 3
REMARK VINA RESULT:      -6.3      2.237      3.778
REMARK  Name = 
REMARK  8 active torsions:
REMARK  status: ('A' for Active; 'I' for Inactive)
REMARK    1  A    between atoms: C_7  and  C_8
REMARK    2  A    between atoms: C_11  and  C_13
REMARK    3  A    between atoms: C_11  and  C_15
REMARK    4  A    between atoms: C_12  and  C_16
REMARK    5  A    between atoms: C_15  and  C_20
REMARK    6  A    between atoms: C_17  and  C_23
REMARK    7  A    between atoms: C_20  and  C_24
REMARK    8  A    between atoms: C_20  and  C_25
REMARK                            x       y       z     vdW  Elec       q    Type
REMARK                         _______ _______ _______ _____ _____    ______ ____
ROOT
ATOM      1  C   UNL     1       7.827  31.005  78.394  0.00  0.00    +0.000 C 
ATOM      2  O   UNL     1       7.831  29.770  78.486  0.00  0.00    +0.000 OA
ATOM      3  N   UNL     1       6.797  31.799  78.965  0.00  0.00    +0.000 N 
ATOM      4  C   UNL     1       6.393  33.206  78.627  0.00  0.00    +0.000 C 
ATOM      5  C   UNL     1       5.557  31.078  79.404  0.00  0.00    +0.000 C 
ATOM      6  C   UNL     1       5.346  33.452  79.765  0.00  0.00    +0.000 C 
ATOM      7  C   UNL     1       4.567  32.147  79.901  0.00  0.00    +0.000 C 
ENDROOT
BRANCH   1  14
ATOM      8 CL   UNL     1      12.598  32.860  75.236  0.00  0.00    +0.000 Cl
ATOM      9  C   UNL     1      11.202  32.387  76.115  0.00  0.00    +0.000 A 
ATOM     10  C   UNL     1      11.020  32.807  77.429  0.00  0.00    +0.000 A 
ATOM     11  C   UNL     1      10.231  31.612  75.497  0.00  0.00    +0.000 A 
ATOM     12  C   UNL     1       9.896  32.375  78.143  0.00  0.00    +0.000 A 
ATOM     13  C   UNL     1       9.075  31.261  76.194  0.00  0.00    +0.000 A 
ATOM     14  C   UNL     1       8.937  31.536  77.545  0.00  0.00    +0.000 A 
ENDBRANCH   1  14
BRANCH   5  15
ATOM     15  C   UNL     1       5.755  29.929  80.349  0.00  0.00    +0.000 A 
ATOM     16  S   UNL     1       4.812  28.502  80.119  0.00  0.00    +0.000 S 
ATOM     17  C   UNL     1       6.622  29.782  81.413  0.00  0.00    +0.000 A 
ATOM     18  C   UNL     1       5.601  27.694  81.396  0.00  0.00    +0.000 A 
ATOM     19  C   UNL     1       6.557  28.482  81.994  0.00  0.00    +0.000 A 
ENDBRANCH   5  15
BRANCH   4  20
ATOM     20  C   UNL     1       7.347  34.398  78.897  0.00  0.00    +0.000 C 
ATOM     21  O   UNL     1       7.862  34.641  79.979  0.00  0.00    +0.000 OA
ATOM     22  O   UNL     1       7.676  35.112  77.786  0.00  0.00    +0.000 OA
ENDBRANCH   4  20
BRANCH   7  23
ATOM     23  C   UNL     1       4.075  31.982  81.325  0.00  0.00    +0.000 C 
ATOM     24  O   UNL     1       3.142  31.264  81.654  0.00  0.00    +0.000 OA
ATOM     25  O   UNL     1       4.789  32.680  82.237  0.00  0.00    +0.000 OA
ENDBRANCH   7  23
BRANCH   4  26
ATOM     26  C   UNL     1       5.610  33.379  77.270  0.00  0.00    +0.000 C 
BRANCH  26  27
ATOM     27  C   UNL     1       6.004  32.571  76.015  0.00  0.00    +0.000 C 
ATOM     28  C   UNL     1       5.108  31.358  75.757  0.00  0.00    +0.000 C 
ATOM     29  C   UNL     1       5.847  33.454  74.764  0.00  0.00    +0.000 C 
ENDBRANCH  26  27
ENDBRANCH   4  26
TORSDOF 6
ENDMDL
MODEL 4
REMARK VINA RESULT:      -6.2      3.554      5.991
REMARK  Name = 
REMARK  8 active torsions:
REMARK  status: ('A' for Active; 'I' for Inactive)
REMARK    1  A    between atoms: C_7  and  C_8
REMARK    2  A    between atoms: C_11  and  C_13
REMARK    3  A    between atoms: C_11  and  C_15
REMARK    4  A    between atoms: C_12  and  C_16
REMARK    5  A    between atoms: C_15  and  C_20
REMARK    6  A    between atoms: C_17  and  C_23
REMARK    7  A    between atoms: C_20  and  C_24
REMARK    8  A    between atoms: C_20  and  C_25
REMARK                            x       y       z     vdW  Elec       q    Type
REMARK                         _______ _______ _______ _____ _____    ______ ____
ROOT
ATOM      1  C   UNL     1       6.679  34.328  79.885  0.00  0.00    +0.000 C 
ATOM      2  O   UNL     1       7.295  33.523  80.599  0.00  0.00    +0.000 OA
ATOM      3  N   UNL     1       6.153  33.960  78.619  0.00  0.00    +0.000 N 
ATOM      4  C   UNL     1       5.764  34.843  77.466  0.00  0.00    +0.000 C 
ATOM      5  C   UNL     1       6.640  32.667  78.038  0.00  0.00    +0.000 C 
ATOM      6  C   UNL     1       5.118  33.769  76.528  0.00  0.00    +0.000 C 
ATOM      7  C   UNL     1       6.003  32.532  76.642  0.00  0.00    +0.000 C 
ENDROOT
BRANCH   1  14
ATOM      8 CL   UNL     1       6.534  40.064  81.689  0.00  0.00    +0.000 Cl
ATOM      9  C   UNL     1       6.604  38.410  81.235  0.00  0.00    +0.000 A 
ATOM     10  C   UNL     1       7.730  37.900  80.597  0.00  0.00    +0.000 A 
ATOM     11  C   UNL     1       5.544  37.568  81.543  0.00  0.00    +0.000 A 
ATOM     12  C   UNL     1       7.749  36.560  80.196  0.00  0.00    +0.000 A 
ATOM     13  C   UNL     1       5.615  36.215  81.215  0.00  0.00    +0.000 A 
ATOM     14  C   UNL     1       6.653  35.713  80.447  0.00  0.00    +0.000 A 
ENDBRANCH   1  14
BRANCH   5  15
ATOM     15  C   UNL     1       6.494  31.450  78.905  0.00  0.00    +0.000 A 
ATOM     16  S   UNL     1       7.821  30.353  79.015  0.00  0.00    +0.000 S 
ATOM     17  C   UNL     1       5.444  31.038  79.702  0.00  0.00    +0.000 A 
ATOM     18  C   UNL     1       7.007  29.377  80.152  0.00  0.00    +0.000 A 
ATOM     19  C   UNL     1       5.754  29.862  80.445  0.00  0.00    +0.000 A 
ENDBRANCH   5  15
BRANCH   4  20
ATOM     20  C   UNL     1       4.574  35.829  77.582  0.00  0.00    +0.000 C 
ATOM     21  O   UNL     1       4.644  36.944  78.080  0.00  0.00    +0.000 OA
ATOM     22  O   UNL     1       3.435  35.404  76.970  0.00  0.00    +0.000 OA
ENDBRANCH   4  20
BRANCH   7  23
ATOM     23  C   UNL     1       5.180  31.281  76.408  0.00  0.00    +0.000 C 
ATOM     24  O   UNL     1       3.976  31.202  76.601  0.00  0.00    +0.000 OA
ATOM     25  O   UNL     1       5.891  30.239  75.920  0.00  0.00    +0.000 OA
ENDBRANCH   7  23
BRANCH   4  26
ATOM     26  C   UNL     1       6.963  35.465  76.655  0.00  0.00    +0.000 C 
BRANCH  26  27
ATOM     27  C   UNL     1       8.422  35.287  77.128  0.00  0.00    +0.000 C 
ATOM     28  C   UNL     1       9.246  34.350  76.241  0.00  0.00    +0.000 C 
ATOM     29  C   UNL     1       9.153  36.640  77.062  0.00  0.00    +0.000 C 
ENDBRANCH  26  27
ENDBRANCH   4  26
TORSDOF 6
ENDMDL
MODEL 5
REMARK VINA RESULT:      -6.2      2.916      5.400
REMARK  Name = 
REMARK  8 active torsions:
REMARK  status: ('A' for Active; 'I' for Inactive)
REMARK    1  A    between atoms: C_7  and  C_8
REMARK    2  A    between atoms: C_11  and  C_13
REMARK    3  A    between atoms: C_11  and  C_15
REMARK    4  A    between atoms: C_12  and  C_16
REMARK    5  A    between atoms: C_15  and  C_20
REMARK    6  A    between atoms: C_17  and  C_23
REMARK    7  A    between atoms: C_20  and  C_24
REMARK    8  A    between atoms: C_20  and  C_25
REMARK                            x       y       z     vdW  Elec       q    Type
REMARK                         _______ _______ _______ _____ _____    ______ ____
ROOT
ATOM      1  C   UNL     1       7.200  33.638  79.806  0.00  0.00    +0.000 C 
ATOM      2  O   UNL     1       7.052  32.883  80.777  0.00  0.00    +0.000 OA
ATOM      3  N   UNL     1       7.270  33.147  78.475  0.00  0.00    +0.000 N 
ATOM      4  C   UNL     1       7.842  33.809  77.254  0.00  0.00    +0.000 C 
ATOM      5  C   UNL     1       7.479  31.671  78.314  0.00  0.00    +0.000 C 
ATOM      6  C   UNL     1       7.403  32.769  76.169  0.00  0.00    +0.000 C 
ATOM      7  C   UNL     1       7.608  31.397  76.804  0.00  0.00    +0.000 C 
ENDROOT
BRANCH   1  14
ATOM      8 CL   UNL     1       8.274  39.440  80.973  0.00  0.00    +0.000 Cl
ATOM      9  C   UNL     1       7.950  37.775  80.707  0.00  0.00    +0.000 A 
ATOM     10  C   UNL     1       8.957  36.827  80.860  0.00  0.00    +0.000 A 
ATOM     11  C   UNL     1       6.666  37.370  80.374  0.00  0.00    +0.000 A 
ATOM     12  C   UNL     1       8.684  35.481  80.596  0.00  0.00    +0.000 A 
ATOM     13  C   UNL     1       6.388  36.015  80.199  0.00  0.00    +0.000 A 
ATOM     14  C   UNL     1       7.399  35.067  80.196  0.00  0.00    +0.000 A 
ENDBRANCH   1  14
BRANCH   5  15
ATOM     15  C   UNL     1       6.503  30.778  79.024  0.00  0.00    +0.000 A 
ATOM     16  S   UNL     1       7.114  29.429  79.910  0.00  0.00    +0.000 S 
ATOM     17  C   UNL     1       5.129  30.858  79.131  0.00  0.00    +0.000 A 
ATOM     18  C   UNL     1       5.559  29.002  80.462  0.00  0.00    +0.000 A 
ATOM     19  C   UNL     1       4.590  29.855  79.987  0.00  0.00    +0.000 A 
ENDBRANCH   5  15
BRANCH   4  20
ATOM     20  C   UNL     1       7.191  35.085  76.660  0.00  0.00    +0.000 C 
ATOM     21  O   UNL     1       6.115  35.109  76.079  0.00  0.00    +0.000 OA
ATOM     22  O   UNL     1       7.864  36.235  76.938  0.00  0.00    +0.000 OA
ENDBRANCH   4  20
BRANCH   7  23
ATOM     23  C   UNL     1       6.621  30.403  76.225  0.00  0.00    +0.000 C 
ATOM     24  O   UNL     1       6.804  29.195  76.180  0.00  0.00    +0.000 OA
ATOM     25  O   UNL     1       5.474  30.965  75.782  0.00  0.00    +0.000 OA
ENDBRANCH   7  23
BRANCH   4  26
ATOM     26  C   UNL     1       9.415  33.870  77.188  0.00  0.00    +0.000 C 
BRANCH  26  27
ATOM     27  C   UNL     1      10.160  33.760  75.841  0.00  0.00    +0.000 C 
ATOM     28  C   UNL     1      11.116  34.925  75.569  0.00  0.00    +0.000 C 
ATOM     29  C   UNL     1      11.054  32.507  75.848  0.00  0.00    +0.000 C 
ENDBRANCH  26  27
ENDBRANCH   4  26
TORSDOF 6
ENDMDL
MODEL 6
REMARK VINA RESULT:      -6.2      3.804      6.035
REMARK  Name = 
REMARK  8 active torsions:
REMARK  status: ('A' for Active; 'I' for Inactive)
REMARK    1  A    between atoms: C_7  and  C_8
REMARK    2  A    between atoms: C_11  and  C_13
REMARK    3  A    between atoms: C_11  and  C_15
REMARK    4  A    between atoms: C_12  and  C_16
REMARK    5  A    between atoms: C_15  and  C_20
REMARK    6  A    between atoms: C_17  and  C_23
REMARK    7  A    between atoms: C_20  and  C_24
REMARK    8  A    between atoms: C_20  and  C_25
REMARK                            x       y       z     vdW  Elec       q    Type
REMARK                         _______ _______ _______ _____ _____    ______ ____
ROOT
ATOM      1  C   UNL     1       7.069  35.106  80.214  0.00  0.00    +0.000 C 
ATOM      2  O   UNL     1       7.636  34.259  80.919  0.00  0.00    +0.000 OA
ATOM      3  N   UNL     1       6.320  34.746  79.063  0.00  0.00    +0.000 N 
ATOM      4  C   UNL     1       5.927  35.599  77.889  0.00  0.00    +0.000 C 
ATOM      5  C   UNL     1       6.502  33.349  78.550  0.00  0.00    +0.000 C 
ATOM      6  C   UNL     1       4.989  34.591  77.144  0.00  0.00    +0.000 C 
ATOM      7  C   UNL     1       5.665  33.228  77.264  0.00  0.00    +0.000 C 
ENDROOT
BRANCH   1  14
ATOM      8 CL   UNL     1       8.263  40.867  81.463  0.00  0.00    +0.000 Cl
ATOM      9  C   UNL     1       7.937  39.207  81.173  0.00  0.00    +0.000 A 
ATOM     10  C   UNL     1       8.954  38.348  80.768  0.00  0.00    +0.000 A 
ATOM     11  C   UNL     1       6.657  38.712  81.381  0.00  0.00    +0.000 A 
ATOM     12  C   UNL     1       8.658  37.008  80.494  0.00  0.00    +0.000 A 
ATOM     13  C   UNL     1       6.397  37.355  81.188  0.00  0.00    +0.000 A 
ATOM     14  C   UNL     1       7.350  36.510  80.641  0.00  0.00    +0.000 A 
ENDBRANCH   1  14
BRANCH   5  15
ATOM     15  C   UNL     1       6.279  32.243  79.541  0.00  0.00    +0.000 A 
ATOM     16  S   UNL     1       7.411  30.941  79.590  0.00  0.00    +0.000 S 
ATOM     17  C   UNL     1       5.295  32.079  80.495  0.00  0.00    +0.000 A 
ATOM     18  C   UNL     1       6.611  30.208  80.906  0.00  0.00    +0.000 A 
ATOM     19  C   UNL     1       5.506  30.924  81.303  0.00  0.00    +0.000 A 
ENDBRANCH   5  15
BRANCH   4  20
ATOM     20  C   UNL     1       4.943  36.785  78.057  0.00  0.00    +0.000 C 
ATOM     21  O   UNL     1       3.791  36.679  78.454  0.00  0.00    +0.000 OA
ATOM     22  O   UNL     1       5.500  38.007  77.837  0.00  0.00    +0.000 OA
ENDBRANCH   4  20
BRANCH   7  23
ATOM     23  C   UNL     1       4.623  32.128  77.252  0.00  0.00    +0.000 C 
ATOM     24  O   UNL     1       4.849  30.966  76.946  0.00  0.00    +0.000 OA
ATOM     25  O   UNL     1       3.396  32.530  77.653  0.00  0.00    +0.000 OA
ENDBRANCH   7  23
BRANCH   4  26
ATOM     26  C   UNL     1       7.088  35.940  76.880  0.00  0.00    +0.000 C 
BRANCH  26  27
ATOM     27  C   UNL     1       8.569  35.799  77.293  0.00  0.00    +0.000 C 
ATOM     28  C   UNL     1       9.319  34.705  76.529  0.00  0.00    +0.000 C 
ATOM     29  C   UNL     1       9.321  37.100  76.964  0.00  0.00    +0.000 C 
ENDBRANCH  26  27
ENDBRANCH   4  26
TORSDOF 6
ENDMDL
MODEL 7
REMARK VINA RESULT:      -6.0      4.403      6.783
REMARK  Name = 
REMARK  8 active torsions:
REMARK  status: ('A' for Active; 'I' for Inactive)
REMARK    1  A    between atoms: C_7  and  C_8
REMARK    2  A    between atoms: C_11  and  C_13
REMARK    3  A    between atoms: C_11  and  C_15
REMARK    4  A    between atoms: C_12  and  C_16
REMARK    5  A    between atoms: C_15  and  C_20
REMARK    6  A    between atoms: C_17  and  C_23
REMARK    7  A    between atoms: C_20  and  C_24
REMARK    8  A    between atoms: C_20  and  C_25
REMARK                            x       y       z     vdW  Elec       q    Type
REMARK                         _______ _______ _______ _____ _____    ______ ____
ROOT
ATOM      1  C   UNL     1       4.212  33.637  80.478  0.00  0.00    +0.000 C 
ATOM      2  O   UNL     1       4.315  32.684  81.265  0.00  0.00    +0.000 OA
ATOM      3  N   UNL     1       4.848  33.636  79.209  0.00  0.00    +0.000 N 
ATOM      4  C   UNL     1       5.186  34.801  78.322  0.00  0.00    +0.000 C 
ATOM      5  C   UNL     1       5.901  32.592  78.985  0.00  0.00    +0.000 C 
ATOM      6  C   UNL     1       5.686  34.024  77.058  0.00  0.00    +0.000 C 
ATOM      7  C   UNL     1       6.498  32.846  77.588  0.00  0.00    +0.000 C 
ENDROOT
BRANCH   1  14
ATOM      8 CL   UNL     1       1.394  38.572  82.448  0.00  0.00    +0.000 Cl
ATOM      9  C   UNL     1       2.183  37.132  81.947  0.00  0.00    +0.000 A 
ATOM     10  C   UNL     1       3.535  36.940  82.211  0.00  0.00    +0.000 A 
ATOM     11  C   UNL     1       1.456  36.138  81.307  0.00  0.00    +0.000 A 
ATOM     12  C   UNL     1       4.170  35.779  81.755  0.00  0.00    +0.000 A 
ATOM     13  C   UNL     1       2.084  34.949  80.936  0.00  0.00    +0.000 A 
ATOM     14  C   UNL     1       3.456  34.792  81.049  0.00  0.00    +0.000 A 
ENDBRANCH   1  14
BRANCH   5  15
ATOM     15  C   UNL     1       5.492  31.169  79.234  0.00  0.00    +0.000 A 
ATOM     16  S   UNL     1       6.542  30.159  80.158  0.00  0.00    +0.000 S 
ATOM     17  C   UNL     1       4.350  30.487  78.863  0.00  0.00    +0.000 A 
ATOM     18  C   UNL     1       5.449  28.853  80.098  0.00  0.00    +0.000 A 
ATOM     19  C   UNL     1       4.311  29.164  79.391  0.00  0.00    +0.000 A 
ENDBRANCH   5  15
BRANCH   4  20
ATOM     20  C   UNL     1       4.071  35.658  77.670  0.00  0.00    +0.000 C 
ATOM     21  O   UNL     1       3.460  35.347  76.658  0.00  0.00    +0.000 OA
ATOM     22  O   UNL     1       3.726  36.762  78.387  0.00  0.00    +0.000 OA
ENDBRANCH   4  20
BRANCH   7  23
ATOM     23  C   UNL     1       6.426  31.685  76.616  0.00  0.00    +0.000 C 
ATOM     24  O   UNL     1       7.240  30.775  76.567  0.00  0.00    +0.000 OA
ATOM     25  O   UNL     1       5.343  31.713  75.808  0.00  0.00    +0.000 OA
ENDBRANCH   7  23
BRANCH   4  26
ATOM     26  C   UNL     1       6.401  35.684  78.798  0.00  0.00    +0.000 C 
BRANCH  26  27
ATOM     27  C   UNL     1       6.929  36.847  77.929  0.00  0.00    +0.000 C 
ATOM     28  C   UNL     1       6.939  38.197  78.649  0.00  0.00    +0.000 C 
ATOM     29  C   UNL     1       8.399  36.584  77.556  0.00  0.00    +0.000 C 
ENDBRANCH  26  27
ENDBRANCH   4  26
TORSDOF 6
ENDMDL
MODEL 8
REMARK VINA RESULT:      -6.0      2.999      4.679
REMARK  Name = 
REMARK  8 active torsions:
REMARK  status: ('A' for Active; 'I' for Inactive)
REMARK    1  A    between atoms: C_7  and  C_8
REMARK    2  A    between atoms: C_11  and  C_13
REMARK    3  A    between atoms: C_11  and  C_15
REMARK    4  A    between atoms: C_12  and  C_16
REMARK    5  A    between atoms: C_15  and  C_20
REMARK    6  A    between atoms: C_17  and  C_23
REMARK    7  A    between atoms: C_20  and  C_24
REMARK    8  A    between atoms: C_20  and  C_25
REMARK                            x       y       z     vdW  Elec       q    Type
REMARK                         _______ _______ _______ _____ _____    ______ ____
ROOT
ATOM      1  C   UNL     1       5.917  34.066  79.163  0.00  0.00    +0.000 C 
ATOM      2  O   UNL     1       5.145  33.927  80.122  0.00  0.00    +0.000 OA
ATOM      3  N   UNL     1       6.016  33.097  78.130  0.00  0.00    +0.000 N 
ATOM      4  C   UNL     1       7.133  32.874  77.149  0.00  0.00    +0.000 C 
ATOM      5  C   UNL     1       5.395  31.760  78.401  0.00  0.00    +0.000 C 
ATOM      6  C   UNL     1       6.462  31.791  76.240  0.00  0.00    +0.000 C 
ATOM      7  C   UNL     1       5.705  30.865  77.187  0.00  0.00    +0.000 C 
ENDROOT
BRANCH   1  14
ATOM      8 CL   UNL     1       9.031  39.166  79.856  0.00  0.00    +0.000 Cl
ATOM      9  C   UNL     1       8.185  37.693  79.606  0.00  0.00    +0.000 A 
ATOM     10  C   UNL     1       7.118  37.634  78.716  0.00  0.00    +0.000 A 
ATOM     11  C   UNL     1       8.595  36.545  80.269  0.00  0.00    +0.000 A 
ATOM     12  C   UNL     1       6.414  36.435  78.560  0.00  0.00    +0.000 A 
ATOM     13  C   UNL     1       7.938  35.337  80.037  0.00  0.00    +0.000 A 
ATOM     14  C   UNL     1       6.782  35.280  79.276  0.00  0.00    +0.000 A 
ENDBRANCH   1  14
BRANCH   5  15
ATOM     15  C   UNL     1       3.951  31.768  78.812  0.00  0.00    +0.000 A 
ATOM     16  S   UNL     1       3.459  30.745  80.112  0.00  0.00    +0.000 S 
ATOM     17  C   UNL     1       2.887  32.506  78.334  0.00  0.00    +0.000 A 
ATOM     18  C   UNL     1       1.859  31.332  80.057  0.00  0.00    +0.000 A 
ATOM     19  C   UNL     1       1.690  32.279  79.074  0.00  0.00    +0.000 A 
ENDBRANCH   5  15
BRANCH   4  20
ATOM     20  C   UNL     1       7.473  33.936  76.073  0.00  0.00    +0.000 C 
ATOM     21  O   UNL     1       8.606  34.306  75.797  0.00  0.00    +0.000 OA
ATOM     22  O   UNL     1       6.401  34.361  75.350  0.00  0.00    +0.000 OA
ENDBRANCH   4  20
BRANCH   7  23
ATOM     23  C   UNL     1       4.504  30.268  76.480  0.00  0.00    +0.000 C 
ATOM     24  O   UNL     1       3.929  30.791  75.536  0.00  0.00    +0.000 OA
ATOM     25  O   UNL     1       4.128  29.062  76.961  0.00  0.00    +0.000 OA
ENDBRANCH   7  23
BRANCH   4  26
ATOM     26  C   UNL     1       8.430  32.204  77.740  0.00  0.00    +0.000 C 
BRANCH  26  27
ATOM     27  C   UNL     1       8.481  31.723  79.207  0.00  0.00    +0.000 C 
ATOM     28  C   UNL     1       8.575  30.202  79.352  0.00  0.00    +0.000 C 
ATOM     29  C   UNL     1       9.752  32.266  79.883  0.00  0.00    +0.000 C 
ENDBRANCH  26  27
ENDBRANCH   4  26
TORSDOF 6
ENDMDL
MODEL 9
REMARK VINA RESULT:      -5.9      3.129      5.648
REMARK  Name = 
REMARK  8 active torsions:
REMARK  status: ('A' for Active; 'I' for Inactive)
REMARK    1  A    between atoms: C_7  and  C_8
REMARK    2  A    between atoms: C_11  and  C_13
REMARK    3  A    between atoms: C_11  and  C_15
REMARK    4  A    between atoms: C_12  and  C_16
REMARK    5  A    between atoms: C_15  and  C_20
REMARK    6  A    between atoms: C_17  and  C_23
REMARK    7  A    between atoms: C_20  and  C_24
REMARK    8  A    between atoms: C_20  and  C_25
REMARK                            x       y       z     vdW  Elec       q    Type
REMARK                         _______ _______ _______ _____ _____    ______ ____
ROOT
ATOM      1  C   UNL     1       6.857  34.588  79.819  0.00  0.00    +0.000 C 
ATOM      2  O   UNL     1       6.159  33.848  80.526  0.00  0.00    +0.000 OA
ATOM      3  N   UNL     1       7.003  34.375  78.422  0.00  0.00    +0.000 N 
ATOM      4  C   UNL     1       8.080  34.871  77.500  0.00  0.00    +0.000 C 
ATOM      5  C   UNL     1       6.547  33.048  77.893  0.00  0.00    +0.000 C 
ATOM      6  C   UNL     1       7.482  34.401  76.132  0.00  0.00    +0.000 C 
ATOM      7  C   UNL     1       6.885  33.021  76.392  0.00  0.00    +0.000 C 
ENDROOT
BRANCH   1  14
ATOM      8 CL   UNL     1      10.134  38.792  82.606  0.00  0.00    +0.000 Cl
ATOM      9  C   UNL     1       9.168  37.577  81.871  0.00  0.00    +0.000 A 
ATOM     10  C   UNL     1       9.618  36.263  81.804  0.00  0.00    +0.000 A 
ATOM     11  C   UNL     1       7.913  37.904  81.376  0.00  0.00    +0.000 A 
ATOM     12  C   UNL     1       8.835  35.297  81.162  0.00  0.00    +0.000 A 
ATOM     13  C   UNL     1       7.108  36.912  80.817  0.00  0.00    +0.000 A 
ATOM     14  C   UNL     1       7.589  35.631  80.600  0.00  0.00    +0.000 A 
ENDBRANCH   1  14
BRANCH   5  15
ATOM     15  C   UNL     1       5.136  32.650  78.219  0.00  0.00    +0.000 A 
ATOM     16  S   UNL     1       4.846  31.057  78.815  0.00  0.00    +0.000 S 
ATOM     17  C   UNL     1       3.963  33.375  78.153  0.00  0.00    +0.000 A 
ATOM     18  C   UNL     1       3.183  31.367  79.025  0.00  0.00    +0.000 A 
ATOM     19  C   UNL     1       2.844  32.646  78.650  0.00  0.00    +0.000 A 
ENDBRANCH   5  15
BRANCH   4  20
ATOM     20  C   UNL     1       8.242  36.384  77.201  0.00  0.00    +0.000 C 
ATOM     21  O   UNL     1       9.300  36.924  76.915  0.00  0.00    +0.000 OA
ATOM     22  O   UNL     1       7.069  37.073  77.165  0.00  0.00    +0.000 OA
ENDBRANCH   4  20
BRANCH   7  23
ATOM     23  C   UNL     1       5.718  32.775  75.455  0.00  0.00    +0.000 C 
ATOM     24  O   UNL     1       5.223  31.678  75.245  0.00  0.00    +0.000 OA
ATOM     25  O   UNL     1       5.229  33.897  74.881  0.00  0.00    +0.000 OA
ENDBRANCH   7  23
BRANCH   4  26
ATOM     26  C   UNL     1       9.474  34.149  77.636  0.00  0.00    +0.000 C 
BRANCH  26  27
ATOM     27  C   UNL     1      10.252  33.679  76.388  0.00  0.00    +0.000 C 
ATOM     28  C   UNL     1      11.642  34.307  76.256  0.00  0.00    +0.000 C 
ATOM     29  C   UNL     1      10.509  32.164  76.482  0.00  0.00    +0.000 C 
ENDBRANCH  26  27
ENDBRANCH   4  26
TORSDOF 6
ENDMDL
