MODEL 1
REMARK VINA RESULT:      -7.8      0.000      0.000
REMARK  Name = 
REMARK  9 active torsions:
REMARK  status: ('A' for Active; 'I' for Inactive)
REMARK    1  A    between atoms: C_7  and  C_8
REMARK    2  A    between atoms: C_10  and  C_13
REMARK    3  A    between atoms: C_11  and  C_16
REMARK    4  A    between atoms: C_12  and  C_17
REMARK    5  A    between atoms: C_12  and  C_18
REMARK    6  A    between atoms: C_18  and  C_25
REMARK    7  A    between atoms: C_25  and  C_28
REMARK    8  A    between atoms: C_25  and  C_29
REMARK    9  A    between atoms: C_30  and  C_31
REMARK                            x       y       z     vdW  Elec       q    Type
REMARK                         _______ _______ _______ _____ _____    ______ ____
ROOT
ATOM      1  C   UNL     1       7.022  33.103  78.867  0.00  0.00    +0.000 C 
ATOM      2  N   UNL     1       6.339  32.921  77.553  0.00  0.00    +0.000 N 
ATOM      3  C   UNL     1       6.090  32.380  79.852  0.00  0.00    +0.000 C 
ATOM      4  C   UNL     1       6.929  32.818  76.288  0.00  0.00    +0.000 C 
ATOM      5  C   UNL     1       4.860  32.761  77.747  0.00  0.00    +0.000 C 
ATOM      6  C   UNL     1       4.691  32.662  79.299  0.00  0.00    +0.000 C 
ATOM      7  O   UNL     1       6.221  32.696  75.283  0.00  0.00    +0.000 OA
ENDROOT
BRANCH   1  14
ATOM      8 CL   UNL     1       8.264  38.930  80.107  0.00  0.00    +0.000 Cl
ATOM      9  C   UNL     1       7.895  37.279  79.808  0.00  0.00    +0.000 A 
ATOM     10  C   UNL     1       6.586  36.901  79.529  0.00  0.00    +0.000 A 
ATOM     11  C   UNL     1       8.896  36.316  79.856  0.00  0.00    +0.000 A 
ATOM     12  C   UNL     1       6.293  35.570  79.233  0.00  0.00    +0.000 A 
ATOM     13  C   UNL     1       8.585  34.975  79.605  0.00  0.00    +0.000 A 
ATOM     14  C   UNL     1       7.284  34.576  79.228  0.00  0.00    +0.000 A 
ENDBRANCH   1  14
BRANCH   4  15
ATOM     15  C   UNL     1       8.395  32.857  76.059  0.00  0.00    +0.000 A 
ATOM     16  C   UNL     1       9.075  34.082  75.978  0.00  0.00    +0.000 A 
ATOM     17  C   UNL     1       9.145  31.692  76.073  0.00  0.00    +0.000 A 
ATOM     18  C   UNL     1      10.468  34.111  75.794  0.00  0.00    +0.000 A 
ATOM     19  C   UNL     1      10.512  31.703  75.799  0.00  0.00    +0.000 A 
ATOM     20  C   UNL     1      11.191  32.916  75.660  0.00  0.00    +0.000 A 
BRANCH  20  21
ATOM     21  C   UNL     1      12.681  32.889  75.410  0.00  0.00    +0.000 C 
ATOM     22  F   UNL     1      13.408  33.564  76.340  0.00  0.00    +0.000 F 
ATOM     23  F   UNL     1      13.178  31.621  75.388  0.00  0.00    +0.000 F 
ATOM     24  F   UNL     1      13.007  33.435  74.205  0.00  0.00    +0.000 F 
ENDBRANCH  20  21
ENDBRANCH   4  15
BRANCH   3  25
ATOM     25  C   UNL     1       6.391  32.727  81.295  0.00  0.00    +0.000 C 
ATOM     26  O   UNL     1       7.405  32.348  81.867  0.00  0.00    +0.000 OA
ATOM     27  O   UNL     1       5.429  33.400  81.956  0.00  0.00    +0.000 OA
ENDBRANCH   3  25
BRANCH   5  28
ATOM     28  C   UNL     1       4.108  34.016  77.208  0.00  0.00    +0.000 C 
ATOM     29  O   UNL     1       4.556  34.753  76.336  0.00  0.00    +0.000 OA
ATOM     30  O   UNL     1       2.951  34.312  77.836  0.00  0.00    +0.000 OA
ENDBRANCH   5  28
BRANCH   5  31
ATOM     31  C   UNL     1       4.139  31.566  77.049  0.00  0.00    +0.000 C 
BRANCH  31  32
ATOM     32  C   UNL     1       3.267  30.589  77.861  0.00  0.00    +0.000 C 
ATOM     33  C   UNL     1       1.836  30.629  77.297  0.00  0.00    +0.000 C 
ATOM     34  C   UNL     1       3.772  29.152  77.827  0.00  0.00    +0.000 C 
ENDBRANCH  31  32
ENDBRANCH   5  31
TORSDOF 7
ENDMDL
MODEL 2
REMARK VINA RESULT:      -7.8      1.305      1.464
REMARK  Name = 
REMARK  9 active torsions:
REMARK  status: ('A' for Active; 'I' for Inactive)
REMARK    1  A    between atoms: C_7  and  C_8
REMARK    2  A    between atoms: C_10  and  C_13
REMARK    3  A    between atoms: C_11  and  C_16
REMARK    4  A    between atoms: C_12  and  C_17
REMARK    5  A    between atoms: C_12  and  C_18
REMARK    6  A    between atoms: C_18  and  C_25
REMARK    7  A    between atoms: C_25  and  C_28
REMARK    8  A    between atoms: C_25  and  C_29
REMARK    9  A    between atoms: C_30  and  C_31
REMARK                            x       y       z     vdW  Elec       q    Type
REMARK                         _______ _______ _______ _____ _____    ______ ____
ROOT
ATOM      1  C   UNL     1       7.289  32.078  79.042  0.00  0.00    +0.000 C 
ATOM      2  N   UNL     1       6.522  32.467  77.823  0.00  0.00    +0.000 N 
ATOM      3  C   UNL     1       6.308  31.169  79.800  0.00  0.00    +0.000 C 
ATOM      4  C   UNL     1       7.025  32.754  76.549  0.00  0.00    +0.000 C 
ATOM      5  C   UNL     1       5.047  32.431  78.096  0.00  0.00    +0.000 C 
ATOM      6  C   UNL     1       4.942  31.801  79.524  0.00  0.00    +0.000 C 
ATOM      7  O   UNL     1       6.259  33.091  75.641  0.00  0.00    +0.000 OA
ENDROOT
BRANCH   1  14
ATOM      8 CL   UNL     1       9.380  36.922  82.073  0.00  0.00    +0.000 Cl
ATOM      9  C   UNL     1       8.791  35.525  81.264  0.00  0.00    +0.000 A 
ATOM     10  C   UNL     1       7.450  35.177  81.370  0.00  0.00    +0.000 A 
ATOM     11  C   UNL     1       9.653  34.735  80.513  0.00  0.00    +0.000 A 
ATOM     12  C   UNL     1       6.958  34.075  80.670  0.00  0.00    +0.000 A 
ATOM     13  C   UNL     1       9.162  33.602  79.853  0.00  0.00    +0.000 A 
ATOM     14  C   UNL     1       7.788  33.277  79.867  0.00  0.00    +0.000 A 
ENDBRANCH   1  14
BRANCH   4  15
ATOM     15  C   UNL     1       8.468  32.692  76.202  0.00  0.00    +0.000 A 
ATOM     16  C   UNL     1       9.235  33.865  76.120  0.00  0.00    +0.000 A 
ATOM     17  C   UNL     1       9.121  31.474  76.104  0.00  0.00    +0.000 A 
ATOM     18  C   UNL     1      10.607  33.795  75.823  0.00  0.00    +0.000 A 
ATOM     19  C   UNL     1      10.458  31.395  75.720  0.00  0.00    +0.000 A 
ATOM     20  C   UNL     1      11.220  32.557  75.578  0.00  0.00    +0.000 A 
BRANCH  20  21
ATOM     21  C   UNL     1      12.678  32.428  75.206  0.00  0.00    +0.000 C 
ATOM     22  F   UNL     1      13.166  31.164  75.317  0.00  0.00    +0.000 F 
ATOM     23  F   UNL     1      12.920  32.815  73.922  0.00  0.00    +0.000 F 
ATOM     24  F   UNL     1      13.476  33.211  75.984  0.00  0.00    +0.000 F 
ENDBRANCH  20  21
ENDBRANCH   4  15
BRANCH   3  25
ATOM     25  C   UNL     1       6.729  30.932  81.236  0.00  0.00    +0.000 C 
ATOM     26  O   UNL     1       7.869  30.607  81.543  0.00  0.00    +0.000 OA
ATOM     27  O   UNL     1       5.752  31.004  82.160  0.00  0.00    +0.000 OA
ENDBRANCH   3  25
BRANCH   5  28
ATOM     28  C   UNL     1       4.467  33.878  78.109  0.00  0.00    +0.000 C 
ATOM     29  O   UNL     1       5.162  34.887  78.177  0.00  0.00    +0.000 OA
ATOM     30  O   UNL     1       3.122  33.963  78.138  0.00  0.00    +0.000 OA
ENDBRANCH   5  28
BRANCH   5  31
ATOM     31  C   UNL     1       4.120  31.667  77.100  0.00  0.00    +0.000 C 
BRANCH  31  32
ATOM     32  C   UNL     1       3.373  30.393  77.539  0.00  0.00    +0.000 C 
ATOM     33  C   UNL     1       2.011  30.355  76.824  0.00  0.00    +0.000 C 
ATOM     34  C   UNL     1       4.129  29.107  77.230  0.00  0.00    +0.000 C 
ENDBRANCH  31  32
ENDBRANCH   5  31
TORSDOF 7
ENDMDL
MODEL 3
REMARK VINA RESULT:      -7.5      2.488      5.454
REMARK  Name = 
REMARK  9 active torsions:
REMARK  status: ('A' for Active; 'I' for Inactive)
REMARK    1  A    between atoms: C_7  and  C_8
REMARK    2  A    between atoms: C_10  and  C_13
REMARK    3  A    between atoms: C_11  and  C_16
REMARK    4  A    between atoms: C_12  and  C_17
REMARK    5  A    between atoms: C_12  and  C_18
REMARK    6  A    between atoms: C_18  and  C_25
REMARK    7  A    between atoms: C_25  and  C_28
REMARK    8  A    between atoms: C_25  and  C_29
REMARK    9  A    between atoms: C_30  and  C_31
REMARK                            x       y       z     vdW  Elec       q    Type
REMARK                         _______ _______ _______ _____ _____    ______ ____
ROOT
ATOM      1  C   UNL     1       6.907  34.298  77.603  0.00  0.00    +0.000 C 
ATOM      2  N   UNL     1       7.930  34.445  78.677  0.00  0.00    +0.000 N 
ATOM      3  C   UNL     1       5.899  35.413  77.921  0.00  0.00    +0.000 C 
ATOM      4  C   UNL     1       9.299  34.161  78.602  0.00  0.00    +0.000 C 
ATOM      5  C   UNL     1       7.320  35.054  79.905  0.00  0.00    +0.000 C 
ATOM      6  C   UNL     1       5.879  35.457  79.451  0.00  0.00    +0.000 C 
ATOM      7  O   UNL     1      10.018  34.310  79.595  0.00  0.00    +0.000 OA
ENDROOT
BRANCH   1  14
ATOM      8 CL   UNL     1       4.173  28.867  77.350  0.00  0.00    +0.000 Cl
ATOM      9  C   UNL     1       4.988  30.377  77.444  0.00  0.00    +0.000 A 
ATOM     10  C   UNL     1       5.962  30.698  76.506  0.00  0.00    +0.000 A 
ATOM     11  C   UNL     1       4.688  31.273  78.463  0.00  0.00    +0.000 A 
ATOM     12  C   UNL     1       6.587  31.945  76.549  0.00  0.00    +0.000 A 
ATOM     13  C   UNL     1       5.354  32.502  78.527  0.00  0.00    +0.000 A 
ATOM     14  C   UNL     1       6.279  32.894  77.535  0.00  0.00    +0.000 A 
ENDBRANCH   1  14
BRANCH   4  15
ATOM     15  C   UNL     1       9.969  33.663  77.374  0.00  0.00    +0.000 A 
ATOM     16  C   UNL     1      10.516  34.561  76.443  0.00  0.00    +0.000 A 
ATOM     17  C   UNL     1      10.206  32.310  77.195  0.00  0.00    +0.000 A 
ATOM     18  C   UNL     1      11.178  34.081  75.300  0.00  0.00    +0.000 A 
ATOM     19  C   UNL     1      10.778  31.820  76.022  0.00  0.00    +0.000 A 
ATOM     20  C   UNL     1      11.276  32.702  75.061  0.00  0.00    +0.000 A 
BRANCH  20  21
ATOM     21  C   UNL     1      11.931  32.134  73.824  0.00  0.00    +0.000 C 
ATOM     22  F   UNL     1      11.167  31.222  73.165  0.00  0.00    +0.000 F 
ATOM     23  F   UNL     1      12.240  33.098  72.913  0.00  0.00    +0.000 F 
ATOM     24  F   UNL     1      13.106  31.506  74.111  0.00  0.00    +0.000 F 
ENDBRANCH  20  21
ENDBRANCH   4  15
BRANCH   3  25
ATOM     25  C   UNL     1       4.591  35.242  77.176  0.00  0.00    +0.000 C 
ATOM     26  O   UNL     1       4.523  34.705  76.078  0.00  0.00    +0.000 OA
ATOM     27  O   UNL     1       3.506  35.804  77.745  0.00  0.00    +0.000 OA
ENDBRANCH   3  25
BRANCH   5  28
ATOM     28  C   UNL     1       7.242  33.996  81.048  0.00  0.00    +0.000 C 
ATOM     29  O   UNL     1       7.553  32.818  80.905  0.00  0.00    +0.000 OA
ATOM     30  O   UNL     1       6.709  34.434  82.206  0.00  0.00    +0.000 OA
ENDBRANCH   5  28
BRANCH   5  31
ATOM     31  C   UNL     1       8.035  36.271  80.571  0.00  0.00    +0.000 C 
BRANCH  31  32
ATOM     32  C   UNL     1       7.944  37.676  79.948  0.00  0.00    +0.000 C 
ATOM     33  C   UNL     1       8.468  38.698  80.971  0.00  0.00    +0.000 C 
ATOM     34  C   UNL     1       8.737  37.820  78.654  0.00  0.00    +0.000 C 
ENDBRANCH  31  32
ENDBRANCH   5  31
TORSDOF 7
ENDMDL
MODEL 4
REMARK VINA RESULT:      -7.5      2.507      5.467
REMARK  Name = 
REMARK  9 active torsions:
REMARK  status: ('A' for Active; 'I' for Inactive)
REMARK    1  A    between atoms: C_7  and  C_8
REMARK    2  A    between atoms: C_10  and  C_13
REMARK    3  A    between atoms: C_11  and  C_16
REMARK    4  A    between atoms: C_12  and  C_17
REMARK    5  A    between atoms: C_12  and  C_18
REMARK    6  A    between atoms: C_18  and  C_25
REMARK    7  A    between atoms: C_25  and  C_28
REMARK    8  A    between atoms: C_25  and  C_29
REMARK    9  A    between atoms: C_30  and  C_31
REMARK                            x       y       z     vdW  Elec       q    Type
REMARK                         _______ _______ _______ _____ _____    ______ ____
ROOT
ATOM      1  C   UNL     1       6.294  34.702  78.220  0.00  0.00    +0.000 C 
ATOM      2  N   UNL     1       7.273  35.051  79.290  0.00  0.00    +0.000 N 
ATOM      3  C   UNL     1       5.279  35.854  78.282  0.00  0.00    +0.000 C 
ATOM      4  C   UNL     1       8.642  34.762  79.326  0.00  0.00    +0.000 C 
ATOM      5  C   UNL     1       6.615  35.876  80.356  0.00  0.00    +0.000 C 
ATOM      6  C   UNL     1       5.196  36.183  79.775  0.00  0.00    +0.000 C 
ATOM      7  O   UNL     1       9.320  35.096  80.303  0.00  0.00    +0.000 OA
ENDROOT
BRANCH   1  14
ATOM      8 CL   UNL     1       4.055  29.088  78.927  0.00  0.00    +0.000 Cl
ATOM      9  C   UNL     1       4.644  30.686  78.696  0.00  0.00    +0.000 A 
ATOM     10  C   UNL     1       4.118  31.733  79.445  0.00  0.00    +0.000 A 
ATOM     11  C   UNL     1       5.635  30.939  77.756  0.00  0.00    +0.000 A 
ATOM     12  C   UNL     1       4.633  33.021  79.299  0.00  0.00    +0.000 A 
ATOM     13  C   UNL     1       6.111  32.243  77.580  0.00  0.00    +0.000 A 
ATOM     14  C   UNL     1       5.663  33.309  78.390  0.00  0.00    +0.000 A 
ENDBRANCH   1  14
BRANCH   4  15
ATOM     15  C   UNL     1       9.360  34.046  78.242  0.00  0.00    +0.000 A 
ATOM     16  C   UNL     1       9.782  34.729  77.090  0.00  0.00    +0.000 A 
ATOM     17  C   UNL     1       9.766  32.732  78.409  0.00  0.00    +0.000 A 
ATOM     18  C   UNL     1      10.491  34.051  76.083  0.00  0.00    +0.000 A 
ATOM     19  C   UNL     1      10.387  32.025  77.380  0.00  0.00    +0.000 A 
ATOM     20  C   UNL     1      10.761  32.680  76.204  0.00  0.00    +0.000 A 
BRANCH  20  21
ATOM     21  C   UNL     1      11.474  31.892  75.130  0.00  0.00    +0.000 C 
ATOM     22  F   UNL     1      11.559  32.539  73.937  0.00  0.00    +0.000 F 
ATOM     23  F   UNL     1      12.751  31.577  75.482  0.00  0.00    +0.000 F 
ATOM     24  F   UNL     1      10.858  30.704  74.873  0.00  0.00    +0.000 F 
ENDBRANCH  20  21
ENDBRANCH   4  15
BRANCH   3  25
ATOM     25  C   UNL     1       4.002  35.543  77.528  0.00  0.00    +0.000 C 
ATOM     26  O   UNL     1       4.002  35.113  76.382  0.00  0.00    +0.000 OA
ATOM     27  O   UNL     1       2.852  35.858  78.155  0.00  0.00    +0.000 OA
ENDBRANCH   3  25
BRANCH   5  28
ATOM     28  C   UNL     1       6.485  35.051  81.672  0.00  0.00    +0.000 C 
ATOM     29  O   UNL     1       6.686  33.842  81.738  0.00  0.00    +0.000 OA
ATOM     30  O   UNL     1       6.034  35.735  82.743  0.00  0.00    +0.000 OA
ENDBRANCH   5  28
BRANCH   5  31
ATOM     31  C   UNL     1       7.307  37.199  80.813  0.00  0.00    +0.000 C 
BRANCH  31  32
ATOM     32  C   UNL     1       7.538  38.351  79.817  0.00  0.00    +0.000 C 
ATOM     33  C   UNL     1       7.128  39.670  80.495  0.00  0.00    +0.000 C 
ATOM     34  C   UNL     1       8.982  38.467  79.345  0.00  0.00    +0.000 C 
ENDBRANCH  31  32
ENDBRANCH   5  31
TORSDOF 7
ENDMDL
MODEL 5
REMARK VINA RESULT:      -7.3      4.265      6.793
REMARK  Name = 
REMARK  9 active torsions:
REMARK  status: ('A' for Active; 'I' for Inactive)
REMARK    1  A    between atoms: C_7  and  C_8
REMARK    2  A    between atoms: C_10  and  C_13
REMARK    3  A    between atoms: C_11  and  C_16
REMARK    4  A    between atoms: C_12  and  C_17
REMARK    5  A    between atoms: C_12  and  C_18
REMARK    6  A    between atoms: C_18  and  C_25
REMARK    7  A    between atoms: C_25  and  C_28
REMARK    8  A    between atoms: C_25  and  C_29
REMARK    9  A    between atoms: C_30  and  C_31
REMARK                            x       y       z     vdW  Elec       q    Type
REMARK                         _______ _______ _______ _____ _____    ______ ____
ROOT
ATOM      1  C   UNL     1       8.146  34.166  77.338  0.00  0.00    +0.000 C 
ATOM      2  N   UNL     1       8.927  33.093  76.658  0.00  0.00    +0.000 N 
ATOM      3  C   UNL     1       8.617  35.447  76.631  0.00  0.00    +0.000 C 
ATOM      4  C   UNL     1       8.545  31.766  76.431  0.00  0.00    +0.000 C 
ATOM      5  C   UNL     1      10.219  33.641  76.126  0.00  0.00    +0.000 C 
ATOM      6  C   UNL     1      10.099  35.183  76.355  0.00  0.00    +0.000 C 
ATOM      7  O   UNL     1       9.322  30.983  75.874  0.00  0.00    +0.000 OA
ENDROOT
BRANCH   1  14
ATOM      8 CL   UNL     1       8.735  34.046  83.393  0.00  0.00    +0.000 Cl
ATOM      9  C   UNL     1       8.574  34.134  81.684  0.00  0.00    +0.000 A 
ATOM     10  C   UNL     1       9.706  34.270  80.888  0.00  0.00    +0.000 A 
ATOM     11  C   UNL     1       7.317  34.083  81.095  0.00  0.00    +0.000 A 
ATOM     12  C   UNL     1       9.582  34.287  79.499  0.00  0.00    +0.000 A 
ATOM     13  C   UNL     1       7.198  34.150  79.702  0.00  0.00    +0.000 A 
ATOM     14  C   UNL     1       8.333  34.194  78.865  0.00  0.00    +0.000 A 
ENDBRANCH   1  14
BRANCH   4  15
ATOM     15  C   UNL     1       7.231  31.208  76.839  0.00  0.00    +0.000 A 
ATOM     16  C   UNL     1       6.144  31.214  75.950  0.00  0.00    +0.000 A 
ATOM     17  C   UNL     1       7.090  30.533  78.041  0.00  0.00    +0.000 A 
ATOM     18  C   UNL     1       4.912  30.654  76.332  0.00  0.00    +0.000 A 
ATOM     19  C   UNL     1       5.851  30.057  78.467  0.00  0.00    +0.000 A 
ATOM     20  C   UNL     1       4.747  30.108  77.614  0.00  0.00    +0.000 A 
BRANCH  20  21
ATOM     21  C   UNL     1       3.432  29.539  78.094  0.00  0.00    +0.000 C 
ATOM     22  F   UNL     1       2.518  29.354  77.104  0.00  0.00    +0.000 F 
ATOM     23  F   UNL     1       3.583  28.329  78.700  0.00  0.00    +0.000 F 
ATOM     24  F   UNL     1       2.833  30.343  79.016  0.00  0.00    +0.000 F 
ENDBRANCH  20  21
ENDBRANCH   4  15
BRANCH   3  25
ATOM     25  C   UNL     1       8.223  36.701  77.384  0.00  0.00    +0.000 C 
ATOM     26  O   UNL     1       9.039  37.400  77.973  0.00  0.00    +0.000 OA
ATOM     27  O   UNL     1       6.903  36.960  77.456  0.00  0.00    +0.000 OA
ENDBRANCH   3  25
BRANCH   5  28
ATOM     28  C   UNL     1      11.420  33.074  76.943  0.00  0.00    +0.000 C 
ATOM     29  O   UNL     1      11.362  32.048  77.613  0.00  0.00    +0.000 OA
ATOM     30  O   UNL     1      12.529  33.842  76.952  0.00  0.00    +0.000 OA
ENDBRANCH   5  28
BRANCH   5  31
ATOM     31  C   UNL     1      10.604  33.344  74.643  0.00  0.00    +0.000 C 
BRANCH  31  32
ATOM     32  C   UNL     1      12.005  32.815  74.283  0.00  0.00    +0.000 C 
ATOM     33  C   UNL     1      11.867  31.363  73.795  0.00  0.00    +0.000 C 
ATOM     34  C   UNL     1      12.707  33.634  73.207  0.00  0.00    +0.000 C 
ENDBRANCH  31  32
ENDBRANCH   5  31
TORSDOF 7
ENDMDL
MODEL 6
REMARK VINA RESULT:      -7.3      3.270      5.767
REMARK  Name = 
REMARK  9 active torsions:
REMARK  status: ('A' for Active; 'I' for Inactive)
REMARK    1  A    between atoms: C_7  and  C_8
REMARK    2  A    between atoms: C_10  and  C_13
REMARK    3  A    between atoms: C_11  and  C_16
REMARK    4  A    between atoms: C_12  and  C_17
REMARK    5  A    between atoms: C_12  and  C_18
REMARK    6  A    between atoms: C_18  and  C_25
REMARK    7  A    between atoms: C_25  and  C_28
REMARK    8  A    between atoms: C_25  and  C_29
REMARK    9  A    between atoms: C_30  and  C_31
REMARK                            x       y       z     vdW  Elec       q    Type
REMARK                         _______ _______ _______ _____ _____    ______ ____
ROOT
ATOM      1  C   UNL     1       6.277  33.580  77.311  0.00  0.00    +0.000 C 
ATOM      2  N   UNL     1       5.919  33.126  78.685  0.00  0.00    +0.000 N 
ATOM      3  C   UNL     1       5.128  33.033  76.448  0.00  0.00    +0.000 C 
ATOM      4  C   UNL     1       6.202  33.763  79.899  0.00  0.00    +0.000 C 
ATOM      5  C   UNL     1       5.090  31.877  78.627  0.00  0.00    +0.000 C 
ATOM      6  C   UNL     1       4.792  31.691  77.104  0.00  0.00    +0.000 C 
ATOM      7  O   UNL     1       5.860  33.243  80.966  0.00  0.00    +0.000 OA
ENDROOT
BRANCH   1  14
ATOM      8 CL   UNL     1      11.899  31.876  75.723  0.00  0.00    +0.000 Cl
ATOM      9  C   UNL     1      10.298  32.358  76.118  0.00  0.00    +0.000 A 
ATOM     10  C   UNL     1       9.276  31.415  76.140  0.00  0.00    +0.000 A 
ATOM     11  C   UNL     1      10.016  33.688  76.404  0.00  0.00    +0.000 A 
ATOM     12  C   UNL     1       7.987  31.793  76.514  0.00  0.00    +0.000 A 
ATOM     13  C   UNL     1       8.709  34.068  76.730  0.00  0.00    +0.000 A 
ATOM     14  C   UNL     1       7.672  33.118  76.852  0.00  0.00    +0.000 A 
ENDBRANCH   1  14
BRANCH   4  15
ATOM     15  C   UNL     1       6.922  35.058  80.000  0.00  0.00    +0.000 A 
ATOM     16  C   UNL     1       6.245  36.270  79.793  0.00  0.00    +0.000 A 
ATOM     17  C   UNL     1       8.231  35.107  80.450  0.00  0.00    +0.000 A 
ATOM     18  C   UNL     1       6.926  37.493  79.922  0.00  0.00    +0.000 A 
ATOM     19  C   UNL     1       8.941  36.306  80.493  0.00  0.00    +0.000 A 
ATOM     20  C   UNL     1       8.294  37.516  80.233  0.00  0.00    +0.000 A 
BRANCH  20  21
ATOM     21  C   UNL     1       9.085  38.799  80.335  0.00  0.00    +0.000 C 
ATOM     22  F   UNL     1      10.047  38.777  81.297  0.00  0.00    +0.000 F 
ATOM     23  F   UNL     1       9.721  39.108  79.171  0.00  0.00    +0.000 F 
ATOM     24  F   UNL     1       8.291  39.869  80.619  0.00  0.00    +0.000 F 
ENDBRANCH  20  21
ENDBRANCH   4  15
BRANCH   3  25
ATOM     25  C   UNL     1       5.449  33.065  74.968  0.00  0.00    +0.000 C 
ATOM     26  O   UNL     1       5.856  34.072  74.404  0.00  0.00    +0.000 OA
ATOM     27  O   UNL     1       5.168  31.944  74.276  0.00  0.00    +0.000 OA
ENDBRANCH   3  25
BRANCH   5  28
ATOM     28  C   UNL     1       5.909  30.663  79.162  0.00  0.00    +0.000 C 
ATOM     29  O   UNL     1       7.104  30.716  79.431  0.00  0.00    +0.000 OA
ATOM     30  O   UNL     1       5.238  29.494  79.224  0.00  0.00    +0.000 OA
ENDBRANCH   5  28
BRANCH   5  31
ATOM     31  C   UNL     1       3.762  31.821  79.447  0.00  0.00    +0.000 C 
BRANCH  31  32
ATOM     32  C   UNL     1       2.416  32.181  78.790  0.00  0.00    +0.000 C 
ATOM     33  C   UNL     1       1.521  30.930  78.795  0.00  0.00    +0.000 C 
ATOM     34  C   UNL     1       1.682  33.317  79.492  0.00  0.00    +0.000 C 
ENDBRANCH  31  32
ENDBRANCH   5  31
TORSDOF 7
ENDMDL
MODEL 7
REMARK VINA RESULT:      -6.8      1.609      1.946
REMARK  Name = 
REMARK  9 active torsions:
REMARK  status: ('A' for Active; 'I' for Inactive)
REMARK    1  A    between atoms: C_7  and  C_8
REMARK    2  A    between atoms: C_10  and  C_13
REMARK    3  A    between atoms: C_11  and  C_16
REMARK    4  A    between atoms: C_12  and  C_17
REMARK    5  A    between atoms: C_12  and  C_18
REMARK    6  A    between atoms: C_18  and  C_25
REMARK    7  A    between atoms: C_25  and  C_28
REMARK    8  A    between atoms: C_25  and  C_29
REMARK    9  A    between atoms: C_30  and  C_31
REMARK                            x       y       z     vdW  Elec       q    Type
REMARK                         _______ _______ _______ _____ _____    ______ ____
ROOT
ATOM      1  C   UNL     1       7.722  33.174  79.892  0.00  0.00    +0.000 C 
ATOM      2  N   UNL     1       6.835  32.481  78.915  0.00  0.00    +0.000 N 
ATOM      3  C   UNL     1       7.369  32.501  81.228  0.00  0.00    +0.000 C 
ATOM      4  C   UNL     1       7.086  32.222  77.562  0.00  0.00    +0.000 C 
ATOM      5  C   UNL     1       5.596  31.977  79.594  0.00  0.00    +0.000 C 
ATOM      6  C   UNL     1       5.865  32.237  81.113  0.00  0.00    +0.000 C 
ATOM      7  O   UNL     1       6.233  31.657  76.870  0.00  0.00    +0.000 OA
ENDROOT
BRANCH   1  14
ATOM      8 CL   UNL     1       7.158  39.229  79.680  0.00  0.00    +0.000 Cl
ATOM      9  C   UNL     1       7.323  37.523  79.794  0.00  0.00    +0.000 A 
ATOM     10  C   UNL     1       6.236  36.746  80.180  0.00  0.00    +0.000 A 
ATOM     11  C   UNL     1       8.541  36.916  79.515  0.00  0.00    +0.000 A 
ATOM     12  C   UNL     1       6.352  35.357  80.221  0.00  0.00    +0.000 A 
ATOM     13  C   UNL     1       8.662  35.525  79.606  0.00  0.00    +0.000 A 
ATOM     14  C   UNL     1       7.553  34.704  79.904  0.00  0.00    +0.000 A 
ENDBRANCH   1  14
BRANCH   4  15
ATOM     15  C   UNL     1       8.345  32.601  76.873  0.00  0.00    +0.000 A 
ATOM     16  C   UNL     1       8.552  33.918  76.433  0.00  0.00    +0.000 A 
ATOM     17  C   UNL     1       9.402  31.708  76.787  0.00  0.00    +0.000 A 
ATOM     18  C   UNL     1       9.760  34.277  75.811  0.00  0.00    +0.000 A 
ATOM     19  C   UNL     1      10.567  32.026  76.090  0.00  0.00    +0.000 A 
ATOM     20  C   UNL     1      10.762  33.317  75.597  0.00  0.00    +0.000 A 
BRANCH  20  21
ATOM     21  C   UNL     1      12.057  33.636  74.889  0.00  0.00    +0.000 C 
ATOM     22  F   UNL     1      13.102  33.869  75.729  0.00  0.00    +0.000 F 
ATOM     23  F   UNL     1      12.455  32.630  74.061  0.00  0.00    +0.000 F 
ATOM     24  F   UNL     1      11.952  34.743  74.102  0.00  0.00    +0.000 F 
ENDBRANCH  20  21
ENDBRANCH   4  15
BRANCH   3  25
ATOM     25  C   UNL     1       7.887  33.276  82.422  0.00  0.00    +0.000 C 
ATOM     26  O   UNL     1       9.082  33.392  82.664  0.00  0.00    +0.000 OA
ATOM     27  O   UNL     1       6.955  33.755  83.268  0.00  0.00    +0.000 OA
ENDBRANCH   3  25
BRANCH   5  28
ATOM     28  C   UNL     1       4.354  32.796  79.126  0.00  0.00    +0.000 C 
ATOM     29  O   UNL     1       4.038  33.881  79.602  0.00  0.00    +0.000 OA
ATOM     30  O   UNL     1       3.570  32.187  78.214  0.00  0.00    +0.000 OA
ENDBRANCH   5  28
BRANCH   5  31
ATOM     31  C   UNL     1       5.170  30.492  79.369  0.00  0.00    +0.000 C 
BRANCH  31  32
ATOM     32  C   UNL     1       5.363  29.441  80.478  0.00  0.00    +0.000 C 
ATOM     33  C   UNL     1       4.269  28.370  80.331  0.00  0.00    +0.000 C 
ATOM     34  C   UNL     1       6.727  28.762  80.441  0.00  0.00    +0.000 C 
ENDBRANCH  31  32
ENDBRANCH   5  31
TORSDOF 7
ENDMDL
MODEL 8
REMARK VINA RESULT:      -6.7      3.682      6.018
REMARK  Name = 
REMARK  9 active torsions:
REMARK  status: ('A' for Active; 'I' for Inactive)
REMARK    1  A    between atoms: C_7  and  C_8
REMARK    2  A    between atoms: C_10  and  C_13
REMARK    3  A    between atoms: C_11  and  C_16
REMARK    4  A    between atoms: C_12  and  C_17
REMARK    5  A    between atoms: C_12  and  C_18
REMARK    6  A    between atoms: C_18  and  C_25
REMARK    7  A    between atoms: C_25  and  C_28
REMARK    8  A    between atoms: C_25  and  C_29
REMARK    9  A    between atoms: C_30  and  C_31
REMARK                            x       y       z     vdW  Elec       q    Type
REMARK                         _______ _______ _______ _____ _____    ______ ____
ROOT
ATOM      1  C   UNL     1       7.050  33.657  78.812  0.00  0.00    +0.000 C 
ATOM      2  N   UNL     1       7.420  32.584  79.779  0.00  0.00    +0.000 N 
ATOM      3  C   UNL     1       5.748  33.133  78.185  0.00  0.00    +0.000 C 
ATOM      4  C   UNL     1       8.101  32.721  80.994  0.00  0.00    +0.000 C 
ATOM      5  C   UNL     1       6.875  31.260  79.329  0.00  0.00    +0.000 C 
ATOM      6  C   UNL     1       5.969  31.620  78.106  0.00  0.00    +0.000 C 
ATOM      7  O   UNL     1       8.361  31.725  81.676  0.00  0.00    +0.000 OA
ENDROOT
BRANCH   1  14
ATOM      8 CL   UNL     1      11.552  35.021  74.952  0.00  0.00    +0.000 Cl
ATOM      9  C   UNL     1      10.246  34.637  76.000  0.00  0.00    +0.000 A 
ATOM     10  C   UNL     1       9.764  33.334  76.059  0.00  0.00    +0.000 A 
ATOM     11  C   UNL     1       9.660  35.626  76.781  0.00  0.00    +0.000 A 
ATOM     12  C   UNL     1       8.740  33.009  76.949  0.00  0.00    +0.000 A 
ATOM     13  C   UNL     1       8.600  35.301  77.635  0.00  0.00    +0.000 A 
ATOM     14  C   UNL     1       8.152  33.971  77.785  0.00  0.00    +0.000 A 
ENDBRANCH   1  14
BRANCH   4  15
ATOM     15  C   UNL     1       8.561  34.026  81.535  0.00  0.00    +0.000 A 
ATOM     16  C   UNL     1       7.748  34.765  82.408  0.00  0.00    +0.000 A 
ATOM     17  C   UNL     1       9.857  34.465  81.317  0.00  0.00    +0.000 A 
ATOM     18  C   UNL     1       8.204  35.983  82.942  0.00  0.00    +0.000 A 
ATOM     19  C   UNL     1      10.287  35.713  81.765  0.00  0.00    +0.000 A 
ATOM     20  C   UNL     1       9.465  36.486  82.588  0.00  0.00    +0.000 A 
BRANCH  20  21
ATOM     21  C   UNL     1       9.984  37.812  83.092  0.00  0.00    +0.000 C 
ATOM     22  F   UNL     1      10.323  38.683  82.104  0.00  0.00    +0.000 F 
ATOM     23  F   UNL     1       9.074  38.460  83.872  0.00  0.00    +0.000 F 
ATOM     24  F   UNL     1      11.096  37.666  83.865  0.00  0.00    +0.000 F 
ENDBRANCH  20  21
ENDBRANCH   4  15
BRANCH   3  25
ATOM     25  C   UNL     1       5.369  33.885  76.925  0.00  0.00    +0.000 C 
ATOM     26  O   UNL     1       5.416  33.375  75.814  0.00  0.00    +0.000 OA
ATOM     27  O   UNL     1       5.065  35.188  77.082  0.00  0.00    +0.000 OA
ENDBRANCH   3  25
BRANCH   5  28
ATOM     28  C   UNL     1       8.038  30.326  78.873  0.00  0.00    +0.000 C 
ATOM     29  O   UNL     1       9.018  30.075  79.565  0.00  0.00    +0.000 OA
ATOM     30  O   UNL     1       7.953  29.874  77.605  0.00  0.00    +0.000 OA
ENDBRANCH   5  28
BRANCH   5  31
ATOM     31  C   UNL     1       6.079  30.391  80.352  0.00  0.00    +0.000 C 
BRANCH  31  32
ATOM     32  C   UNL     1       5.641  28.959  79.996  0.00  0.00    +0.000 C 
ATOM     33  C   UNL     1       6.186  28.001  81.069  0.00  0.00    +0.000 C 
ATOM     34  C   UNL     1       4.129  28.790  79.905  0.00  0.00    +0.000 C 
ENDBRANCH  31  32
ENDBRANCH   5  31
TORSDOF 7
ENDMDL
MODEL 9
REMARK VINA RESULT:      -6.7      3.574      6.122
REMARK  Name = 
REMARK  9 active torsions:
REMARK  status: ('A' for Active; 'I' for Inactive)
REMARK    1  A    between atoms: C_7  and  C_8
REMARK    2  A    between atoms: C_10  and  C_13
REMARK    3  A    between atoms: C_11  and  C_16
REMARK    4  A    between atoms: C_12  and  C_17
REMARK    5  A    between atoms: C_12  and  C_18
REMARK    6  A    between atoms: C_18  and  C_25
REMARK    7  A    between atoms: C_25  and  C_28
REMARK    8  A    between atoms: C_25  and  C_29
REMARK    9  A    between atoms: C_30  and  C_31
REMARK                            x       y       z     vdW  Elec       q    Type
REMARK                         _______ _______ _______ _____ _____    ______ ____
ROOT
ATOM      1  C   UNL     1       6.583  33.740  77.960  0.00  0.00    +0.000 C 
ATOM      2  N   UNL     1       6.689  33.154  79.327  0.00  0.00    +0.000 N 
ATOM      3  C   UNL     1       5.518  32.862  77.282  0.00  0.00    +0.000 C 
ATOM      4  C   UNL     1       7.000  33.816  80.521  0.00  0.00    +0.000 C 
ATOM      5  C   UNL     1       6.316  31.701  79.308  0.00  0.00    +0.000 C 
ATOM      6  C   UNL     1       5.781  31.468  77.857  0.00  0.00    +0.000 C 
ATOM      7  O   UNL     1       7.078  33.182  81.579  0.00  0.00    +0.000 OA
ENDROOT
BRANCH   1  14
ATOM      8 CL   UNL     1      11.747  33.828  74.742  0.00  0.00    +0.000 Cl
ATOM      9  C   UNL     1      10.318  33.797  75.697  0.00  0.00    +0.000 A 
ATOM     10  C   UNL     1       9.917  34.939  76.381  0.00  0.00    +0.000 A 
ATOM     11  C   UNL     1       9.568  32.632  75.798  0.00  0.00    +0.000 A 
ATOM     12  C   UNL     1       8.729  34.932  77.112  0.00  0.00    +0.000 A 
ATOM     13  C   UNL     1       8.403  32.619  76.574  0.00  0.00    +0.000 A 
ATOM     14  C   UNL     1       7.921  33.788  77.203  0.00  0.00    +0.000 A 
ENDBRANCH   1  14
BRANCH   4  15
ATOM     15  C   UNL     1       7.265  35.274  80.608  0.00  0.00    +0.000 A 
ATOM     16  C   UNL     1       8.581  35.760  80.665  0.00  0.00    +0.000 A 
ATOM     17  C   UNL     1       6.233  36.190  80.479  0.00  0.00    +0.000 A 
ATOM     18  C   UNL     1       8.824  37.144  80.714  0.00  0.00    +0.000 A 
ATOM     19  C   UNL     1       6.455  37.559  80.619  0.00  0.00    +0.000 A 
ATOM     20  C   UNL     1       7.756  38.053  80.735  0.00  0.00    +0.000 A 
BRANCH  20  21
ATOM     21  C   UNL     1       7.959  39.547  80.837  0.00  0.00    +0.000 C 
ATOM     22  F   UNL     1       9.069  39.997  80.194  0.00  0.00    +0.000 F 
ATOM     23  F   UNL     1       6.911  40.247  80.320  0.00  0.00    +0.000 F 
ATOM     24  F   UNL     1       8.078  39.959  82.130  0.00  0.00    +0.000 F 
ENDBRANCH  20  21
ENDBRANCH   4  15
BRANCH   3  25
ATOM     25  C   UNL     1       5.491  33.041  75.778  0.00  0.00    +0.000 C 
ATOM     26  O   UNL     1       5.515  34.143  75.245  0.00  0.00    +0.000 OA
ATOM     27  O   UNL     1       5.340  31.918  75.050  0.00  0.00    +0.000 OA
ENDBRANCH   3  25
BRANCH   5  28
ATOM     28  C   UNL     1       7.578  30.819  79.558  0.00  0.00    +0.000 C 
ATOM     29  O   UNL     1       8.472  30.664  78.732  0.00  0.00    +0.000 OA
ATOM     30  O   UNL     1       7.588  30.141  80.723  0.00  0.00    +0.000 OA
ENDBRANCH   5  28
BRANCH   5  31
ATOM     31  C   UNL     1       5.283  31.179  80.354  0.00  0.00    +0.000 C 
BRANCH  31  32
ATOM     32  C   UNL     1       4.027  30.410  79.904  0.00  0.00    +0.000 C 
ATOM     33  C   UNL     1       4.264  28.908  80.141  0.00  0.00    +0.000 C 
ATOM     34  C   UNL     1       2.760  30.832  80.638  0.00  0.00    +0.000 C 
ENDBRANCH  31  32
ENDBRANCH   5  31
TORSDOF 7
ENDMDL
