REMARK  Name = 
REMARK  10 active torsions:
REMARK  status: ('A' for Active; 'I' for Inactive)
REMARK    1  A    between atoms: C_1  and  N_2
REMARK    2  A    between atoms: N_2  and  C_3
REMARK    3  A    between atoms: C_4  and  C_6
REMARK    4  A    between atoms: C_6  and  N_7
REMARK    5  A    between atoms: N_7  and  C_8
REMARK    6  A    between atoms: C_9  and  C_11
REMARK    7  A    between atoms: C_11  and  N_12
REMARK    8  A    between atoms: C_13  and  C_14
REMARK    9  A    between atoms: C_20  and  C_21
REMARK   10  A    between atoms: C_29  and  C_30
REMARK                            x       y       z     vdW  Elec       q    Type
REMARK                         _______ _______ _______ _____ _____    ______ ____
ROOT
ATOM      1  N   UNL     1       1.994   0.333  -5.738  0.00  0.00    -0.331 N 
ATOM      2  C   UNL     1       2.852  -0.699  -5.381  0.00  0.00    +0.054 A 
ATOM      3  C   UNL     1       2.125  -1.887  -5.450  0.00  0.00    -0.011 A 
ATOM      4  C   UNL     1       0.824  -1.551  -5.960  0.00  0.00    +0.005 A 
ATOM      5  C   UNL     1      -0.332  -2.310  -6.257  0.00  0.00    +0.020 A 
ATOM      6  C   UNL     1      -1.472  -1.708  -6.822  0.00  0.00    -0.002 A 
ATOM      7  C   UNL     1      -1.421  -0.346  -7.131  0.00  0.00    +0.012 A 
ATOM      8  C   UNL     1      -0.291   0.429  -6.853  0.00  0.00    +0.027 A 
ATOM      9  C   UNL     1       0.807  -0.182  -6.224  0.00  0.00    +0.050 A 
ENDROOT
BRANCH   2  10
ATOM     10  C   UNL     1       4.258  -0.483  -5.040  0.00  0.00    -0.001 A 
ATOM     11  C   UNL     1       4.643  -0.183  -3.730  0.00  0.00    +0.010 A 
ATOM     12  C   UNL     1       5.988   0.028  -3.420  0.00  0.00    +0.001 A 
ATOM     13  C   UNL     1       6.957  -0.065  -4.418  0.00  0.00    +0.000 A 
ATOM     14  C   UNL     1       6.582  -0.365  -5.727  0.00  0.00    +0.001 A 
ATOM     15  C   UNL     1       5.236  -0.570  -6.037  0.00  0.00    +0.010 A 
ENDBRANCH   2  10
BRANCH   3  16
ATOM     16  C   UNL     1       2.568  -3.306  -5.146  0.00  0.00    +0.022 C 
ATOM     17  C   UNL     1       3.485  -3.876  -6.240  0.00  0.00    +0.008 C 
ATOM     18  C   UNL     1       3.844  -5.336  -5.965  0.00  0.00    +0.001 C 
ATOM     19  C   UNL     1       4.449  -5.516  -4.575  0.00  0.00    +0.000 C 
ATOM     20  C   UNL     1       3.541  -4.950  -3.487  0.00  0.00    +0.001 C 
ATOM     21  C   UNL     1       3.191  -3.486  -3.754  0.00  0.00    +0.008 C 
ENDBRANCH   3  16
BRANCH   6  22
ATOM     22  C   UNL     1      -2.722  -2.521  -7.098  0.00  0.00    +0.072 C 
ATOM     23  O   UNL     1      -2.690  -3.757  -6.802  0.00  0.00    -0.545 OA
ATOM     24  O   UNL     1      -3.716  -1.901  -7.594  0.00  0.00    -0.545 OA
ENDBRANCH   6  22
BRANCH   1  25
ATOM     25  C   UNL     1       2.304   1.759  -5.655  0.00  0.00    +0.218 C 
BRANCH  25  28
ATOM     26  N   UNL     1       1.019   2.449  -3.591  0.00  0.00    -0.294 N 
ATOM     27  C   UNL     1      -0.251   2.583  -4.286  0.00  0.00    +0.132 C 
ATOM     28  C   UNL     1       2.247   2.298  -4.228  0.00  0.00    +0.236 C 
ATOM     29  O   UNL     1       3.291   2.604  -3.644  0.00  0.00    -0.274 OA
BRANCH  26  30
ATOM     30  C   UNL     1       1.037   2.761  -2.156  0.00  0.00    +0.203 C 
BRANCH  30  34
ATOM     31  C   UNL     1       1.949  -0.631  -0.534  0.00  0.00    +0.131 C 
ATOM     32  N   UNL     1       1.251   0.377  -1.312  0.00  0.00    -0.306 N 
ATOM     33  C   UNL     1       0.159  -0.102  -2.141  0.00  0.00    +0.131 C 
ATOM     34  C   UNL     1       1.645   1.704  -1.207  0.00  0.00    +0.232 C 
ATOM     35  O   UNL     1       2.361   2.079  -0.270  0.00  0.00    -0.274 OA
ENDBRANCH  30  34
ENDBRANCH  26  30
ENDBRANCH  25  28
ENDBRANCH   1  25
TORSDOF 7
