
 OpenBabel09132204463D

 35 38  0  0  0  0  0  0  0  0999 V2000
    6.1700   -4.3600    3.0650 N   0  0  0  0  0  0  0  0  0  0  0  0
    5.7860   -5.6360    2.6740 C   0  0  0  0  0  0  0  0  0  0  0  0
    4.3920   -5.6790    2.7050 C   0  0  0  0  0  0  0  0  0  0  0  0
    3.9410   -4.3540    3.0310 C   0  0  0  0  0  0  0  0  0  0  0  0
    2.6620   -3.7730    3.1960 C   0  0  0  0  0  3  0  0  0  0  0  0
    2.5160   -2.3980    3.4570 C   0  0  0  0  0  0  0  0  0  0  0  0
    3.6640   -1.6030    3.5010 C   0  0  0  0  0  3  0  0  0  0  0  0
    4.9420   -2.1480    3.3370 C   0  0  0  0  0  3  0  0  0  0  0  0
    5.0630   -3.5350    3.1480 C   0  0  0  0  0  0  0  0  0  0  0  0
    6.7440   -6.6710    2.2870 C   0  0  0  0  0  0  0  0  0  0  0  0
    7.6660   -6.4510    1.2600 C   0  0  0  0  0  3  0  0  0  0  0  0
    8.5700   -7.4510    0.8960 C   0  0  0  0  0  3  0  0  0  0  0  0
    8.5600   -8.6760    1.5610 C   0  0  0  0  0  3  0  0  0  0  0  0
    7.6450   -8.9040    2.5880 C   0  0  0  0  0  3  0  0  0  0  0  0
    6.7370   -7.9050    2.9470 C   0  0  0  0  0  3  0  0  0  0  0  0
    3.4570   -6.8320    2.3910 C   0  0  0  0  0  3  0  0  0  0  0  0
    3.7970   -7.5080    1.0530 C   0  0  0  0  0  2  0  0  0  0  0  0
    2.7890   -8.6040    0.7070 C   0  0  0  0  0  2  0  0  0  0  0  0
    2.6570   -9.6240    1.8340 C   0  0  0  0  0  2  0  0  0  0  0  0
    2.3200   -8.9560    3.1640 C   0  0  0  0  0  2  0  0  0  0  0  0
    3.3350   -7.8680    3.5180 C   0  0  0  0  0  2  0  0  0  0  0  0
    1.1430   -1.7920    3.6750 C   0  0  0  0  0  0  0  0  0  0  0  0
    1.0710   -0.5250    3.7520 O   0  0  0  0  0  1  0  0  0  0  0  0
    0.1610   -2.5980    3.7520 O   0  0  0  0  0  0  0  0  0  0  0  0
    7.5430   -3.9280    3.3150 C   0  0  0  0  0  2  0  0  0  0  0  0
    9.3300   -2.4470    2.3140 N   0  0  0  0  0  0  0  0  0  0  0  0
   10.3190   -2.7550    3.3340 C   0  0  0  0  0  1  0  0  0  0  0  0
    7.9830   -2.7850    2.4030 C   0  0  0  0  0  0  0  0  0  0  0  0
    7.1420   -2.1600    1.7510 O   0  0  0  0  0  0  0  0  0  0  0  0
    9.7190   -1.4940    1.2660 C   0  0  0  0  0  2  0  0  0  0  0  0
    9.6680    2.3550    0.8810 C   0  0  0  0  0  1  0  0  0  0  0  0
    9.9800    0.9550    0.6550 N   0  0  0  0  0  0  0  0  0  0  0  0
   10.7500    0.6600   -0.5410 C   0  0  0  0  0  1  0  0  0  0  0  0
    9.5530    0.0100    1.5780 C   0  0  0  0  0  0  0  0  0  0  0  0
    9.1800    0.3530    2.7070 O   0  0  0  0  0  0  0  0  0  0  0  0
  1  9  1  0  0  0  0
  1 25  1  0  0  0  0
  2  3  2  0  0  0  0
  2  1  1  0  0  0  0
  3  4  1  0  0  0  0
  4  9  2  0  0  0  0
  4  5  1  0  0  0  0
  5  6  2  0  0  0  0
  6  7  1  0  0  0  0
  6 22  1  0  0  0  0
  8  7  2  0  0  0  0
  9  8  1  0  0  0  0
 10  2  1  0  0  0  0
 10 15  1  0  0  0  0
 11 10  2  0  0  0  0
 12 11  1  0  0  0  0
 12 13  2  0  0  0  0
 13 14  1  0  0  0  0
 14 15  2  0  0  0  0
 16  3  1  0  0  0  0
 16 21  1  0  0  0  0
 17 16  1  0  0  0  0
 18 17  1  0  0  0  0
 18 19  1  0  0  0  0
 19 20  1  0  0  0  0
 20 21  1  0  0  0  0
 22 24  2  0  0  0  0
 22 23  1  0  0  0  0
 26 28  1  0  0  0  0
 26 27  1  0  0  0  0
 28 25  1  0  0  0  0
 29 28  2  0  0  0  0
 30 34  1  0  0  0  0
 30 26  1  0  0  0  0
 32 31  1  0  0  0  0
 32 34  1  0  0  0  0
 33 32  1  0  0  0  0
 34 35  2  0  0  0  0
M  END
>  <minimizedAffinity>
11.6302977

$$$$
