REMARK  Name = 
REMARK  4 active torsions:
REMARK  status: ('A' for Active; 'I' for Inactive)
REMARK    1  A    between atoms: C_2  and  C_4
REMARK    2  A    between atoms: N_8  and  S_9
REMARK    3  A    between atoms: S_9  and  C_12
REMARK    4  A    between atoms: C_20  and  O_21
REMARK                            x       y       z     vdW  Elec       q    Type
REMARK                         _______ _______ _______ _____ _____    ______ ____
ROOT
ATOM      1  S   UNL     1       2.576  -0.802   2.656  0.00  0.00    +0.065 S 
ATOM      2  O   UNL     1       1.343  -1.551   2.556  0.00  0.00    -0.153 OA
ATOM      3  O   UNL     1       3.343  -0.884   3.890  0.00  0.00    -0.153 OA
ENDROOT
BRANCH   1   4
ATOM      4  C   UNL     1       2.326   0.925   2.366  0.00  0.00    +0.150 A 
ATOM      5  C   UNL     1       3.453   1.749   2.474  0.00  0.00    +0.053 A 
ATOM      6  C   UNL     1       3.329   3.129   2.314  0.00  0.00    +0.063 A 
ATOM      7 CL   UNL     1       4.774   4.072   2.480  0.00  0.00    -0.082 Cl
ATOM      8  C   UNL     1       2.075   3.706   2.063  0.00  0.00    +0.081 A 
ATOM      9 CL   UNL     1       1.928   5.434   1.910  0.00  0.00    -0.080 Cl
ATOM     10  C   UNL     1       0.943   2.877   1.962  0.00  0.00    +0.104 A 
ATOM     11 CL   UNL     1      -0.635   3.555   1.673  0.00  0.00    -0.078 Cl
ATOM     12  C   UNL     1       1.073   1.485   2.105  0.00  0.00    +0.163 A 
BRANCH  12  13
ATOM     13  O   UNL     1      -0.041   0.707   1.931  0.00  0.00    -0.503 OA
ATOM     14  H   UNL     1       0.165   0.086   1.172  0.00  0.00    +0.292 HD
ENDBRANCH  12  13
ENDBRANCH   1   4
BRANCH   1  19
ATOM     15  C   UNL     1       3.207  -1.194  -0.038  0.00  0.00    +0.125 C 
ATOM     16  C   UNL     1       2.908  -2.621  -0.477  0.00  0.00    +0.028 C 
ATOM     17  C   UNL     1       4.005  -3.397   0.222  0.00  0.00    +0.019 C 
ATOM     18  C   UNL     1       4.047  -2.763   1.605  0.00  0.00    +0.110 C 
ATOM     19  N   UNL     1       3.633  -1.337   1.417  0.00  0.00    -0.168 NA
BRANCH  15  21
ATOM     20  O   UNL     1       0.913  -0.529  -0.142  0.00  0.00    -0.548 OA
ATOM     21  C   UNL     1       2.103  -0.193  -0.411  0.00  0.00    +0.061 C 
ATOM     22  O   UNL     1       2.516   0.923  -0.838  0.00  0.00    -0.548 OA
ENDBRANCH  15  21
ENDBRANCH   1  19
TORSDOF 4
