
 OpenBabel09122222393D

 22 23  0  0  1  0  0  0  0  0999 V2000
    4.2800   -4.2180    4.6620 S   0  0  0  0  0  0  0  0  0  0  0  0
    3.2820   -5.2500    4.8350 O   0  0  0  0  0  0  0  0  0  0  0  0
    3.8370   -2.8630    4.3720 O   0  0  0  0  0  0  0  0  0  0  0  0
    5.4370   -4.6230    3.3880 C   0  0  0  0  0  0  0  0  0  0  0  0
    6.5220   -3.7530    3.2250 C   0  0  0  0  0  3  0  0  0  0  0  0
    7.4490   -3.9720    2.2060 C   0  0  0  0  0  0  0  0  0  0  0  0
    8.7500   -2.8350    2.0700 Cl  0  0  0  0  0  0  0  0  0  0  0  0
    7.2950   -5.0530    1.3250 C   0  0  0  0  0  0  0  0  0  0  0  0
    8.4340   -5.2890    0.0300 Cl  0  0  0  0  0  0  0  0  0  0  0  0
    6.2000   -5.9220    1.4860 C   0  0  0  0  0  0  0  0  0  0  0  0
    5.9600   -7.2620    0.4000 Cl  0  0  0  0  0  0  0  0  0  0  0  0
    5.2780   -5.7100    2.5240 C   0  0  0  0  0  0  0  0  0  0  0  0
    4.2650   -6.6180    2.6900 O   0  0  0  0  0  0  0  0  0  0  0  0
    4.3710   -6.9920    3.6130 H   0  0  0  0  0  0  0  0  0  0  0  0
    4.5280   -3.5810    7.3720 C   0  0  2  0  0  3  0  0  0  0  0  0
    5.1390   -2.2000    7.5650 C   0  0  0  0  0  2  0  0  0  0  0  0
    6.5800   -2.4390    7.1620 C   0  0  0  0  0  2  0  0  0  0  0  0
    6.4490   -3.3120    5.9220 C   0  0  0  0  0  2  0  0  0  0  0  0
    5.1950   -4.1070    6.1080 N   0  0  0  0  0  0  0  0  0  0  0  0
    2.4630   -4.6740    7.8800 O   0  0  0  0  0  1  0  0  0  0  0  0
    2.9960   -3.5960    7.4850 C   0  0  0  0  0  0  0  0  0  0  0  0
    2.4350   -2.4800    7.2880 O   0  0  0  0  0  0  0  0  0  0  0  0
  1  2  2  0  0  0  0
  1 19  1  0  0  0  0
  3  1  2  0  0  0  0
  4  1  1  0  0  0  0
  5  4  1  0  0  0  0
  6  5  2  0  0  0  0
  7  6  1  0  0  0  0
  8 10  2  0  0  0  0
  8  6  1  0  0  0  0
  9  8  1  0  0  0  0
 10 12  1  0  0  0  0
 11 10  1  0  0  0  0
 12 13  1  0  0  0  0
 12  4  2  0  0  0  0
 13 14  1  0  0  0  0
 15 21  1  6  0  0  0
 15 16  1  0  0  0  0
 17 16  1  0  0  0  0
 18 19  1  0  0  0  0
 18 17  1  0  0  0  0
 19 15  1  0  0  0  0
 21 20  1  0  0  0  0
 22 21  2  0  0  0  0
M  END
>  <minimizedAffinity>
-4.84342289

$$$$
