
 OpenBabel09122222393D

 22 23  0  0  1  0  0  0  0  0999 V2000
    4.1020   -5.7060    4.3640 S   0  0  0  0  0  0  0  0  0  0  0  0
    3.9300   -7.0490    4.8730 O   0  0  0  0  0  0  0  0  0  0  0  0
    2.9190   -4.9450    3.9910 O   0  0  0  0  0  0  0  0  0  0  0  0
    5.1580   -5.6680    2.9450 C   0  0  0  0  0  0  0  0  0  0  0  0
    6.2220   -4.7590    2.9800 C   0  0  0  0  0  3  0  0  0  0  0  0
    7.0680   -4.6280    1.8780 C   0  0  0  0  0  0  0  0  0  0  0  0
    8.3490   -3.4680    2.0040 Cl  0  0  0  0  0  0  0  0  0  0  0  0
    6.8500   -5.3910    0.7200 C   0  0  0  0  0  0  0  0  0  0  0  0
    7.8860   -5.1850   -0.6640 Cl  0  0  0  0  0  0  0  0  0  0  0  0
    5.7760   -6.2980    0.6850 C   0  0  0  0  0  0  0  0  0  0  0  0
    5.4570   -7.2470   -0.7400 Cl  0  0  0  0  0  0  0  0  0  0  0  0
    4.9360   -6.4410    1.8030 C   0  0  0  0  0  0  0  0  0  0  0  0
    3.9440   -7.3850    1.7540 O   0  0  0  0  0  0  0  0  0  0  0  0
    4.1240   -8.0210    2.5080 H   0  0  0  0  0  0  0  0  0  0  0  0
    4.4410   -4.8840    7.0130 C   0  0  2  0  0  3  0  0  0  0  0  0
    3.7330   -3.5630    7.2800 C   0  0  0  0  0  2  0  0  0  0  0  0
    4.6090   -2.5830    6.5280 C   0  0  0  0  0  2  0  0  0  0  0  0
    4.9060   -3.3140    5.2270 C   0  0  0  0  0  2  0  0  0  0  0  0
    4.8950   -4.7730    5.5630 N   0  0  0  0  0  0  0  0  0  0  0  0
    4.3040   -7.1100    7.8730 O   0  0  0  0  0  1  0  0  0  0  0  0
    3.6390   -6.1130    7.4660 C   0  0  0  0  0  0  0  0  0  0  0  0
    2.3860   -5.9510    7.4990 O   0  0  0  0  0  0  0  0  0  0  0  0
  1  2  2  0  0  0  0
  1 19  1  0  0  0  0
  3  1  2  0  0  0  0
  4  5  1  0  0  0  0
  4  1  1  0  0  0  0
  6  7  1  0  0  0  0
  6  5  2  0  0  0  0
  8  6  1  0  0  0  0
  9  8  1  0  0  0  0
 10  8  2  0  0  0  0
 10 12  1  0  0  0  0
 11 10  1  0  0  0  0
 12  4  2  0  0  0  0
 13 12  1  0  0  0  0
 13 14  1  0  0  0  0
 15 16  1  0  0  0  0
 15 21  1  6  0  0  0
 17 16  1  0  0  0  0
 18 19  1  0  0  0  0
 18 17  1  0  0  0  0
 19 15  1  0  0  0  0
 21 22  2  0  0  0  0
 21 20  1  0  0  0  0
M  END
>  <minimizedAffinity>
-5.20248127

$$$$
