
 OpenBabel09122222393D

 22 23  0  0  1  0  0  0  0  0999 V2000
    4.7360   -4.9940    3.2340 S   0  0  0  0  0  0  0  0  0  0  0  0
    3.5230   -5.3210    2.5180 O   0  0  0  0  0  0  0  0  0  0  0  0
    5.4500   -6.0610    3.9200 O   0  0  0  0  0  0  0  0  0  0  0  0
    4.4680   -3.7420    4.4550 C   0  0  0  0  0  0  0  0  0  0  0  0
    5.4730   -3.5760    5.4160 C   0  0  0  0  0  3  0  0  0  0  0  0
    5.3120   -2.6480    6.4440 C   0  0  0  0  0  0  0  0  0  0  0  0
    6.6000   -2.5210    7.5970 Cl  0  0  0  0  0  0  0  0  0  0  0  0
    4.1370   -1.8860    6.5370 C   0  0  0  0  0  0  0  0  0  0  0  0
    3.9310   -0.7630    7.8510 Cl  0  0  0  0  0  0  0  0  0  0  0  0
    3.1260   -2.0590    5.5740 C   0  0  0  0  0  0  0  0  0  0  0  0
    1.6440   -1.1490    5.6660 Cl  0  0  0  0  0  0  0  0  0  0  0  0
    3.2980   -2.9820    4.5280 C   0  0  0  0  0  0  0  0  0  0  0  0
    2.3200   -3.0710    3.5730 O   0  0  0  0  0  0  0  0  0  0  0  0
    2.7590   -2.8480    2.7000 H   0  0  0  0  0  0  0  0  0  0  0  0
    6.2400   -5.1300    0.8820 C   0  0  2  0  0  3  0  0  0  0  0  0
    7.6680   -5.5800    1.1610 C   0  0  0  0  0  2  0  0  0  0  0  0
    8.2510   -4.3580    1.8400 C   0  0  0  0  0  2  0  0  0  0  0  0
    7.1370   -3.9230    2.7810 C   0  0  0  0  0  2  0  0  0  0  0  0
    5.8570   -4.3300    2.1200 N   0  0  0  0  0  0  0  0  0  0  0  0
    5.4380   -7.3800    0.9820 O   0  0  0  0  0  1  0  0  0  0  0  0
    5.3230   -6.2640    0.3980 C   0  0  0  0  0  0  0  0  0  0  0  0
    4.4570   -5.9220   -0.4570 O   0  0  0  0  0  0  0  0  0  0  0  0
  1  3  2  0  0  0  0
  1  4  1  0  0  0  0
  2  1  2  0  0  0  0
  4 12  2  0  0  0  0
  4  5  1  0  0  0  0
  5  6  2  0  0  0  0
  6  8  1  0  0  0  0
  6  7  1  0  0  0  0
  8  9  1  0  0  0  0
 10 11  1  0  0  0  0
 10  8  2  0  0  0  0
 12 10  1  0  0  0  0
 13 12  1  0  0  0  0
 14 13  1  0  0  0  0
 15 21  1  1  0  0  0
 15 16  1  0  0  0  0
 15 19  1  0  0  0  0
 16 17  1  0  0  0  0
 17 18  1  0  0  0  0
 19 18  1  0  0  0  0
 19  1  1  0  0  0  0
 21 20  1  0  0  0  0
 22 21  2  0  0  0  0
M  END
>  <minimizedAffinity>
-4.27901649

$$$$
