
 OpenBabel09122222393D

 22 23  0  0  1  0  0  0  0  0999 V2000
    5.7470   -4.7660    2.4190 S   0  0  0  0  0  0  0  0  0  0  0  0
    7.1230   -4.3350    2.5310 O   0  0  0  0  0  0  0  0  0  0  0  0
    4.8200   -3.9450    1.6550 O   0  0  0  0  0  0  0  0  0  0  0  0
    4.9920   -4.9860    4.0030 C   0  0  0  0  0  0  0  0  0  0  0  0
    3.9130   -5.8770    4.0660 C   0  0  0  0  0  3  0  0  0  0  0  0
    3.2290   -6.0640    5.2670 C   0  0  0  0  0  0  0  0  0  0  0  0
    1.8970   -7.1730    5.2470 Cl  0  0  0  0  0  0  0  0  0  0  0  0
    3.6010   -5.3500    6.4160 C   0  0  0  0  0  0  0  0  0  0  0  0
    2.7100   -5.5610    7.8970 Cl  0  0  0  0  0  0  0  0  0  0  0  0
    4.6810   -4.4510    6.3490 C   0  0  0  0  0  0  0  0  0  0  0  0
    5.1610   -3.5290    7.7470 Cl  0  0  0  0  0  0  0  0  0  0  0  0
    5.3810   -4.2780    5.1430 C   0  0  0  0  0  0  0  0  0  0  0  0
    6.4680   -3.4450    5.1370 O   0  0  0  0  0  0  0  0  0  0  0  0
    7.2510   -4.0070    4.8610 H   0  0  0  0  0  0  0  0  0  0  0  0
    6.5130   -6.5240    0.3860 C   0  0  2  0  0  3  0  0  0  0  0  0
    5.4410   -6.6290   -0.6910 C   0  0  0  0  0  2  0  0  0  0  0  0
    4.3620   -7.4180    0.0210 C   0  0  0  0  0  2  0  0  0  0  0  0
    4.3320   -6.7870    1.4060 C   0  0  0  0  0  2  0  0  0  0  0  0
    5.7250   -6.3080    1.6710 N   0  0  0  0  0  0  0  0  0  0  0  0
    8.7900   -5.8090    0.5230 O   0  0  0  0  0  1  0  0  0  0  0  0
    7.6540   -5.5610    0.0240 C   0  0  0  0  0  0  0  0  0  0  0  0
    7.3600   -4.6860   -0.8400 O   0  0  0  0  0  0  0  0  0  0  0  0
  1  2  2  0  0  0  0
  1  4  1  0  0  0  0
  3  1  2  0  0  0  0
  4  5  2  0  0  0  0
  4 12  1  0  0  0  0
  5  6  1  0  0  0  0
  6  8  2  0  0  0  0
  7  6  1  0  0  0  0
  8  9  1  0  0  0  0
 10  8  1  0  0  0  0
 10 11  1  0  0  0  0
 12 10  2  0  0  0  0
 13 12  1  0  0  0  0
 14 13  1  0  0  0  0
 15 21  1  6  0  0  0
 15 19  1  0  0  0  0
 16 17  1  0  0  0  0
 16 15  1  0  0  0  0
 17 18  1  0  0  0  0
 18 19  1  0  0  0  0
 19  1  1  0  0  0  0
 21 20  1  0  0  0  0
 22 21  2  0  0  0  0
M  END
>  <minimizedAffinity>
-4.48634434

$$$$
