
 OpenBabel09122222393D

 22 23  0  0  1  0  0  0  0  0999 V2000
    4.5980   -5.9700    4.2780 S   0  0  0  0  0  0  0  0  0  0  0  0
    5.1010   -5.1570    5.3630 O   0  0  0  0  0  0  0  0  0  0  0  0
    4.5940   -7.4170    4.4340 O   0  0  0  0  0  0  0  0  0  0  0  0
    5.4580   -5.6580    2.7640 C   0  0  0  0  0  0  0  0  0  0  0  0
    5.0640   -6.4120    1.6520 C   0  0  0  0  0  3  0  0  0  0  0  0
    5.7300   -6.2650    0.4350 C   0  0  0  0  0  0  0  0  0  0  0  0
    5.1850   -7.2510   -0.8830 Cl  0  0  0  0  0  0  0  0  0  0  0  0
    6.8090   -5.3760    0.3180 C   0  0  0  0  0  0  0  0  0  0  0  0
    7.6590   -5.2360   -1.1950 Cl  0  0  0  0  0  0  0  0  0  0  0  0
    7.2080   -4.6250    1.4380 C   0  0  0  0  0  0  0  0  0  0  0  0
    8.5560   -3.5270    1.3410 Cl  0  0  0  0  0  0  0  0  0  0  0  0
    6.5240   -4.7610    2.6580 C   0  0  0  0  0  0  0  0  0  0  0  0
    6.8980   -3.9610    3.7060 O   0  0  0  0  0  0  0  0  0  0  0  0
    6.0880   -3.4250    3.9540 H   0  0  0  0  0  0  0  0  0  0  0  0
    2.5280   -4.0930    4.2310 C   0  0  2  0  0  3  0  0  0  0  0  0
    1.6750   -4.1750    5.4900 C   0  0  0  0  0  2  0  0  0  0  0  0
    0.9290   -5.4750    5.2770 C   0  0  0  0  0  2  0  0  0  0  0  0
    2.0060   -6.4040    4.7350 C   0  0  0  0  0  2  0  0  0  0  0  0
    2.9660   -5.5310    3.9890 N   0  0  0  0  0  0  0  0  0  0  0  0
    4.1120   -2.6490    3.1730 O   0  0  0  0  0  0  0  0  0  0  0  0
    3.5810   -2.9760    4.2740 C   0  0  0  0  0  0  0  0  0  0  0  0
    3.7150   -2.4110    5.3970 O   0  0  0  0  0  1  0  0  0  0  0  0
  1  3  2  0  0  0  0
  1  2  2  0  0  0  0
  4  1  1  0  0  0  0
  5  4  2  0  0  0  0
  6  5  1  0  0  0  0
  7  6  1  0  0  0  0
  8  6  2  0  0  0  0
  8 10  1  0  0  0  0
  9  8  1  0  0  0  0
 10 12  2  0  0  0  0
 11 10  1  0  0  0  0
 12  4  1  0  0  0  0
 12 13  1  0  0  0  0
 13 14  1  0  0  0  0
 15 21  1  1  0  0  0
 15 16  1  0  0  0  0
 17 16  1  0  0  0  0
 18 17  1  0  0  0  0
 19 15  1  0  0  0  0
 19  1  1  0  0  0  0
 19 18  1  0  0  0  0
 20 21  2  0  0  0  0
 21 22  1  0  0  0  0
M  END
>  <minimizedAffinity>
-4.50879335

$$$$
