
 OpenBabel09122222393D

 22 23  0  0  1  0  0  0  0  0999 V2000
    4.0150   -4.7620    4.7500 S   0  0  0  0  0  0  0  0  0  0  0  0
    4.3160   -5.5790    5.9050 O   0  0  0  0  0  0  0  0  0  0  0  0
    2.7030   -4.8850    4.1330 O   0  0  0  0  0  0  0  0  0  0  0  0
    5.1810   -5.0090    3.4430 C   0  0  0  0  0  0  0  0  0  0  0  0
    6.2140   -4.0700    3.3370 C   0  0  0  0  0  3  0  0  0  0  0  0
    7.1410   -4.1640    2.3000 C   0  0  0  0  0  0  0  0  0  0  0  0
    8.3760   -2.9480    2.2380 Cl  0  0  0  0  0  0  0  0  0  0  0  0
    7.0390   -5.1860    1.3440 C   0  0  0  0  0  0  0  0  0  0  0  0
    8.1780   -5.2640    0.0300 Cl  0  0  0  0  0  0  0  0  0  0  0  0
    5.9960   -6.1240    1.4490 C   0  0  0  0  0  0  0  0  0  0  0  0
    5.8200   -7.3950    0.2710 Cl  0  0  0  0  0  0  0  0  0  0  0  0
    5.0730   -6.0390    2.5050 C   0  0  0  0  0  0  0  0  0  0  0  0
    4.1150   -7.0120    2.6110 O   0  0  0  0  0  0  0  0  0  0  0  0
    4.2500   -7.4440    3.5040 H   0  0  0  0  0  0  0  0  0  0  0  0
    5.0400   -2.7440    6.3900 C   0  0  2  0  0  3  0  0  0  0  0  0
    4.0470   -2.3530    7.4760 C   0  0  0  0  0  2  0  0  0  0  0  0
    2.9930   -1.6100    6.6800 C   0  0  0  0  0  2  0  0  0  0  0  0
    2.8290   -2.4740    5.4380 C   0  0  0  0  0  2  0  0  0  0  0  0
    4.1610   -3.1150    5.2030 N   0  0  0  0  0  0  0  0  0  0  0  0
    7.2360   -3.6820    6.2750 O   0  0  0  0  0  0  0  0  0  0  0  0
    6.1200   -3.7250    6.8700 C   0  0  0  0  0  0  0  0  0  0  0  0
    5.8160   -4.3910    7.9010 O   0  0  0  0  0  1  0  0  0  0  0  0
  1 19  1  0  0  0  0
  1  2  2  0  0  0  0
  3  1  2  0  0  0  0
  4  1  1  0  0  0  0
  5  4  1  0  0  0  0
  6  5  2  0  0  0  0
  7  6  1  0  0  0  0
  8 10  2  0  0  0  0
  8  6  1  0  0  0  0
  9  8  1  0  0  0  0
 10 12  1  0  0  0  0
 11 10  1  0  0  0  0
 12 13  1  0  0  0  0
 12  4  2  0  0  0  0
 13 14  1  0  0  0  0
 15 21  1  1  0  0  0
 15 16  1  0  0  0  0
 17 16  1  0  0  0  0
 18 17  1  0  0  0  0
 19 18  1  0  0  0  0
 19 15  1  0  0  0  0
 20 21  2  0  0  0  0
 21 22  1  0  0  0  0
M  END
>  <minimizedAffinity>
-5.6782856

$$$$
