REMARK  Name = 
REMARK  4 active torsions:
REMARK  status: ('A' for Active; 'I' for Inactive)
REMARK    1  A    between atoms: C_2  and  C_4
REMARK    2  A    between atoms: C_4  and  C_6
REMARK    3  A    between atoms: C_6  and  C_7
REMARK    4  A    between atoms: C_7  and  C_9
REMARK                            x       y       z     vdW  Elec       q    Type
REMARK                         _______ _______ _______ _____ _____    ______ ____
ROOT
ATOM      1  C   UNL     1       5.201   0.082  -1.463  0.00  0.00    +0.172 C 
ATOM      2  O   UNL     1       6.397   0.186  -1.168  0.00  0.00    -0.292 OA
ENDROOT
BRANCH   1   3
ATOM      3  C   UNL     1       4.692   0.934  -2.570  0.00  0.00    +0.036 A 
ATOM      4  C   UNL     1       3.620   0.595  -3.397  0.00  0.00    +0.014 A 
ATOM      5  C   UNL     1       3.247   1.460  -4.425  0.00  0.00    +0.020 A 
ATOM      6  C   UNL     1       3.980   2.620  -4.617  0.00  0.00    +0.111 A 
ATOM      7  N   UNL     1       5.046   2.966  -3.866  0.00  0.00    -0.263 NA
ATOM      8  C   UNL     1       5.366   2.120  -2.851  0.00  0.00    +0.122 A 
ENDBRANCH   1   3
BRANCH   1   9
ATOM      9  C   UNL     1       4.358  -0.999  -0.832  0.00  0.00    +0.160 C 
BRANCH   9  10
ATOM     10  C   UNL     1       2.879  -0.787  -0.746  0.00  0.00    +0.186 C 
ATOM     11  O   UNL     1       2.070  -1.615  -1.169  0.00  0.00    -0.290 OA
BRANCH  10  13
ATOM     12  O   UNL     1       1.105   0.723  -0.176  0.00  0.00    -0.542 OA
ATOM     13  C   UNL     1       2.349   0.487  -0.095  0.00  0.00    +0.107 C 
ATOM     14  O   UNL     1       3.239   1.217   0.440  0.00  0.00    -0.542 OA
ENDBRANCH  10  13
ENDBRANCH   9  10
ENDBRANCH   1   9
TORSDOF 4
