
 OpenBabel09122222393D

 14 14  0  0  0  0  0  0  0  0999 V2000
    9.2260   -1.8750    1.2970 C   0  0  0  0  0  0  0  0  0  0  0  0
    8.2900   -1.9790    2.0970 O   0  0  0  0  0  0  0  0  0  0  0  0
    9.5790   -0.5080    0.8300 C   0  0  0  0  0  0  0  0  0  0  0  0
   10.1780   -0.2250   -0.3990 C   0  0  0  0  0  3  0  0  0  0  0  0
   10.4910    1.0950   -0.7200 C   0  0  0  0  0  3  0  0  0  0  0  0
   10.2310    2.0870    0.2130 C   0  0  0  0  0  3  0  0  0  0  0  0
    9.6900    1.8510    1.4260 N   0  0  0  0  0  0  0  0  0  0  0  0
    9.3640    0.5600    1.6980 C   0  0  0  0  0  3  0  0  0  0  0  0
   10.0730   -3.0790    0.9630 C   0  0  0  0  0  2  0  0  0  0  0  0
    9.7500   -3.8520   -0.2770 C   0  0  0  0  0  0  0  0  0  0  0  0
   10.5010   -3.8720   -1.2550 O   0  0  0  0  0  0  0  0  0  0  0  0
    8.0970   -5.2770    0.7180 O   0  0  0  0  0  1  0  0  0  0  0  0
    8.4580   -4.6610   -0.3310 C   0  0  0  0  0  0  0  0  0  0  0  0
    7.8840   -4.6660   -1.4640 O   0  0  0  0  0  0  0  0  0  0  0  0
  1  2  2  0  0  0  0
  3  1  1  0  0  0  0
  3  8  1  0  0  0  0
  4  3  2  0  0  0  0
  5  4  1  0  0  0  0
  5  6  2  0  0  0  0
  6  7  1  0  0  0  0
  7  8  2  0  0  0  0
  9  1  1  0  0  0  0
 10  9  1  0  0  0  0
 11 10  2  0  0  0  0
 13 10  1  0  0  0  0
 13 12  1  0  0  0  0
 14 13  2  0  0  0  0
M  END
>  <minimizedAffinity>
-5.24838781

$$$$
