
 OpenBabel09122222393D

 14 14  0  0  0  0  0  0  0  0999 V2000
   10.1620   -2.4720   -0.3630 C   0  0  0  0  0  0  0  0  0  0  0  0
   10.4640   -2.3860   -1.5580 O   0  0  0  0  0  0  0  0  0  0  0  0
    9.9070   -1.2050    0.3720 C   0  0  0  0  0  0  0  0  0  0  0  0
    9.2470   -1.1240    1.5990 C   0  0  0  0  0  3  0  0  0  0  0  0
    9.0380    0.1240    2.1840 C   0  0  0  0  0  3  0  0  0  0  0  0
    9.4630    1.2560    1.5060 C   0  0  0  0  0  3  0  0  0  0  0  0
   10.0700    1.2250    0.3020 N   0  0  0  0  0  0  0  0  0  0  0  0
   10.2900   -0.0080   -0.2280 C   0  0  0  0  0  3  0  0  0  0  0  0
    9.8960   -3.8230    0.2550 C   0  0  0  0  0  2  0  0  0  0  0  0
    8.6640   -4.5640   -0.1620 C   0  0  0  0  0  0  0  0  0  0  0  0
    8.4510   -4.8800   -1.3340 O   0  0  0  0  0  0  0  0  0  0  0  0
    7.8490   -4.5860    2.0930 O   0  0  0  0  0  1  0  0  0  0  0  0
    7.6430   -4.9620    0.8990 C   0  0  0  0  0  0  0  0  0  0  0  0
    6.6880   -5.6810    0.4710 O   0  0  0  0  0  0  0  0  0  0  0  0
  1  9  1  0  0  0  0
  1  3  1  0  0  0  0
  2  1  2  0  0  0  0
  3  4  1  0  0  0  0
  4  5  2  0  0  0  0
  6  5  1  0  0  0  0
  7  6  2  0  0  0  0
  8  7  1  0  0  0  0
  8  3  2  0  0  0  0
 10  9  1  0  0  0  0
 10 13  1  0  0  0  0
 11 10  2  0  0  0  0
 13 12  1  0  0  0  0
 14 13  2  0  0  0  0
M  END
>  <minimizedAffinity>
-5.22836018

$$$$
