
 OpenBabel09122222393D

 39 44  0  0  1  0  0  0  0  0999 V2000
    5.9710   -7.3840    1.6790 C   0  0  0  0  0  0  0  0  0  0  0  0
    6.3430   -8.3420    2.6260 C   0  0  0  0  0  3  0  0  0  0  0  0
    5.5620   -9.4860    2.8110 C   0  0  0  0  0  3  0  0  0  0  0  0
    4.3810   -9.6690    2.0830 C   0  0  0  0  0  0  0  0  0  0  0  0
    3.9980   -8.7100    1.1500 C   0  0  0  0  0  3  0  0  0  0  0  0
    4.7930   -7.5790    0.9540 C   0  0  0  0  0  0  0  0  0  0  0  0
    4.4230   -6.7000    0.0100 F   0  0  0  0  0  0  0  0  0  0  0  0
    9.7420   -3.0040    0.1160 C   0  0  0  0  0  0  0  0  0  0  0  0
    9.1330   -2.3080    1.1730 C   0  0  0  0  0  3  0  0  0  0  0  0
    8.1130   -2.8730    1.9500 C   0  0  0  0  0  3  0  0  0  0  0  0
    7.7110   -4.1780    1.6410 C   0  0  0  0  0  0  0  0  0  0  0  0
    8.2900   -4.8990    0.5980 C   0  0  0  0  0  0  0  0  0  0  0  0
    9.3100   -4.3140   -0.1690 C   0  0  0  0  0  3  0  0  0  0  0  0
    7.7150   -6.1410    0.4820 N   0  0  0  0  0  0  0  0  0  0  0  0
    6.8230   -6.2220    1.4480 C   0  0  0  0  0  0  0  0  0  0  0  0
    6.7620   -5.0350    2.1610 N   0  0  0  0  0  0  0  0  0  0  0  0
    5.8000   -4.7310    3.2180 C   0  0  0  0  0  3  0  0  0  0  0  0
    6.3610   -3.7900    4.2950 C   0  0  0  0  0  2  0  0  0  0  0  0
    5.3370   -3.5490    5.4050 C   0  0  0  0  0  2  0  0  0  0  0  0
    4.0050   -3.0540    4.8490 C   0  0  0  0  0  2  0  0  0  0  0  0
    3.4460   -4.0020    3.7920 C   0  0  0  0  0  2  0  0  0  0  0  0
    4.4500   -4.2440    2.6670 C   0  0  0  0  0  2  0  0  0  0  0  0
   12.0390   -2.6660   -0.4150 O   0  0  0  0  0  1  0  0  0  0  0  0
   10.8390   -2.3530   -0.7030 C   0  0  0  0  0  0  0  0  0  0  0  0
   10.4840   -1.5400   -1.6130 O   0  0  0  0  0  0  0  0  0  0  0  0
    3.7420  -10.8550    2.3090 O   0  0  0  0  0  0  0  0  0  0  0  0
    2.4150  -11.0810    1.7850 C   0  0  1  0  0  3  0  0  0  0  0  0
    2.3380  -12.3230    0.9070 C   0  0  0  0  0  0  0  0  0  0  0  0
    2.2590  -12.1810   -0.4880 C   0  0  0  0  0  3  0  0  0  0  0  0
    2.2020  -13.3070   -1.3040 C   0  0  0  0  0  3  0  0  0  0  0  0
    2.2240  -14.5520   -0.7030 C   0  0  0  0  0  3  0  0  0  0  0  0
    2.3010  -14.7340    0.6320 N   0  0  0  0  0  0  0  0  0  0  0  0
    2.3820  -13.6220    1.4000 C   0  0  0  0  0  3  0  0  0  0  0  0
    1.2810  -10.7920    2.7600 C   0  0  0  0  0  0  0  0  0  0  0  0
    1.2690   -9.6410    3.5620 C   0  0  0  0  0  3  0  0  0  0  0  0
    0.2350   -9.4260    4.4710 C   0  0  0  0  0  3  0  0  0  0  0  0
   -0.7520  -10.3870    4.5780 C   0  0  0  0  0  3  0  0  0  0  0  0
   -0.7590  -11.5310    3.8650 N   0  0  0  0  0  0  0  0  0  0  0  0
    0.2580  -11.7120    2.9880 C   0  0  0  0  0  3  0  0  0  0  0  0
  1  2  1  0  0  0  0
  2  3  2  0  0  0  0
  4 26  1  0  0  0  0
  4  3  1  0  0  0  0
  5  4  2  0  0  0  0
  6  5  1  0  0  0  0
  6  1  2  0  0  0  0
  7  6  1  0  0  0  0
  8  9  1  0  0  0  0
  9 10  2  0  0  0  0
 11 10  1  0  0  0  0
 11 16  1  0  0  0  0
 12 11  2  0  0  0  0
 13  8  2  0  0  0  0
 13 12  1  0  0  0  0
 14 12  1  0  0  0  0
 14 15  2  0  0  0  0
 15  1  1  0  0  0  0
 15 16  1  0  0  0  0
 16 17  1  0  0  0  0
 17 18  1  0  0  0  0
 18 19  1  0  0  0  0
 20 19  1  0  0  0  0
 21 20  1  0  0  0  0
 22 17  1  0  0  0  0
 22 21  1  0  0  0  0
 24 23  1  0  0  0  0
 24  8  1  0  0  0  0
 25 24  2  0  0  0  0
 27 26  1  1  0  0  0
 27 34  1  0  0  0  0
 28 33  1  0  0  0  0
 28 27  1  0  0  0  0
 29 28  2  0  0  0  0
 30 31  2  0  0  0  0
 30 29  1  0  0  0  0
 31 32  1  0  0  0  0
 32 33  2  0  0  0  0
 34 39  2  0  0  0  0
 34 35  1  0  0  0  0
 35 36  2  0  0  0  0
 36 37  1  0  0  0  0
 38 37  2  0  0  0  0
 39 38  1  0  0  0  0
M  END
>  <minimizedAffinity>
-8.8326149

$$$$
