
 OpenBabel09122222393D

 39 44  0  0  1  0  0  0  0  0999 V2000
    6.2700   -6.5990    0.4270 C   0  0  0  0  0  0  0  0  0  0  0  0
    6.0440   -5.7820   -0.6850 C   0  0  0  0  0  3  0  0  0  0  0  0
    7.0560   -4.9390   -1.1530 C   0  0  0  0  0  3  0  0  0  0  0  0
    8.2890   -4.8710   -0.4960 C   0  0  0  0  0  0  0  0  0  0  0  0
    8.5130   -5.6700    0.6210 C   0  0  0  0  0  3  0  0  0  0  0  0
    7.5060   -6.5260    1.0720 C   0  0  0  0  0  0  0  0  0  0  0  0
    7.7740   -7.3210    2.1190 F   0  0  0  0  0  0  0  0  0  0  0  0
    2.2320  -10.8380    1.6730 C   0  0  0  0  0  0  0  0  0  0  0  0
    1.9400  -10.0230    2.7790 C   0  0  0  0  0  3  0  0  0  0  0  0
    2.6150   -8.8190    3.0180 C   0  0  0  0  0  3  0  0  0  0  0  0
    3.6080   -8.4410    2.1050 C   0  0  0  0  0  0  0  0  0  0  0  0
    3.9270   -9.2260    0.9990 C   0  0  0  0  0  0  0  0  0  0  0  0
    3.2380  -10.4290    0.7770 C   0  0  0  0  0  3  0  0  0  0  0  0
    4.9410   -8.6540    0.2690 N   0  0  0  0  0  0  0  0  0  0  0  0
    5.2310   -7.5200    0.8730 C   0  0  0  0  0  0  0  0  0  0  0  0
    4.4660   -7.3630    2.0180 N   0  0  0  0  0  0  0  0  0  0  0  0
    4.6110   -6.2850    2.9920 C   0  0  0  0  0  3  0  0  0  0  0  0
    4.3780   -4.8900    2.3910 C   0  0  0  0  0  2  0  0  0  0  0  0
    4.5970   -3.7950    3.4360 C   0  0  0  0  0  2  0  0  0  0  0  0
    3.7530   -4.0290    4.6870 C   0  0  0  0  0  2  0  0  0  0  0  0
    4.0030   -5.4090    5.2880 C   0  0  0  0  0  2  0  0  0  0  0  0
    3.7750   -6.5180    4.2610 C   0  0  0  0  0  2  0  0  0  0  0  0
    0.6280  -12.4680    2.3410 O   0  0  0  0  0  1  0  0  0  0  0  0
    1.4790  -12.1360    1.4540 C   0  0  0  0  0  0  0  0  0  0  0  0
    1.7530  -12.8000    0.4050 O   0  0  0  0  0  0  0  0  0  0  0  0
    9.2140   -4.0590   -1.0880 O   0  0  0  0  0  0  0  0  0  0  0  0
   10.3180   -3.5280   -0.3210 C   0  0  1  0  0  3  0  0  0  0  0  0
   11.4630   -3.0470   -1.2020 C   0  0  0  0  0  0  0  0  0  0  0  0
   11.3910   -1.7780   -1.8000 C   0  0  0  0  0  3  0  0  0  0  0  0
   12.4360   -1.3190   -2.5970 C   0  0  0  0  0  3  0  0  0  0  0  0
   13.5300   -2.1450   -2.7790 C   0  0  0  0  0  3  0  0  0  0  0  0
   13.6410   -3.3690   -2.2230 N   0  0  0  0  0  0  0  0  0  0  0  0
   12.6220   -3.7790   -1.4320 C   0  0  0  0  0  3  0  0  0  0  0  0
    9.9180   -2.6990    0.8930 C   0  0  0  0  0  0  0  0  0  0  0  0
    9.2530   -1.4710    0.7650 C   0  0  0  0  0  3  0  0  0  0  0  0
    8.9360   -0.7190    1.8940 C   0  0  0  0  0  3  0  0  0  0  0  0
    9.3200   -1.2030    3.1310 C   0  0  0  0  0  3  0  0  0  0  0  0
   10.0030   -2.3530    3.3010 N   0  0  0  0  0  0  0  0  0  0  0  0
   10.2950   -3.0630    2.1850 C   0  0  0  0  0  3  0  0  0  0  0  0
  1 15  1  0  0  0  0
  1  6  1  0  0  0  0
  2  1  2  0  0  0  0
  3  2  1  0  0  0  0
  3  4  2  0  0  0  0
  4  5  1  0  0  0  0
  5  6  2  0  0  0  0
  6  7  1  0  0  0  0
  8  9  1  0  0  0  0
  9 10  2  0  0  0  0
 11 10  1  0  0  0  0
 12 11  2  0  0  0  0
 13 12  1  0  0  0  0
 13  8  2  0  0  0  0
 14 15  2  0  0  0  0
 14 12  1  0  0  0  0
 15 16  1  0  0  0  0
 16 11  1  0  0  0  0
 16 17  1  0  0  0  0
 17 22  1  0  0  0  0
 18 17  1  0  0  0  0
 18 19  1  0  0  0  0
 19 20  1  0  0  0  0
 20 21  1  0  0  0  0
 22 21  1  0  0  0  0
 24  8  1  0  0  0  0
 24 23  1  0  0  0  0
 25 24  2  0  0  0  0
 26  4  1  0  0  0  0
 27 26  1  6  0  0  0
 27 34  1  0  0  0  0
 28 27  1  0  0  0  0
 29 28  2  0  0  0  0
 30 29  1  0  0  0  0
 31 30  2  0  0  0  0
 31 32  1  0  0  0  0
 32 33  2  0  0  0  0
 33 28  1  0  0  0  0
 34 39  1  0  0  0  0
 35 34  2  0  0  0  0
 35 36  1  0  0  0  0
 36 37  2  0  0  0  0
 37 38  1  0  0  0  0
 39 38  2  0  0  0  0
M  END
>  <minimizedAffinity>
-10.3375521

$$$$
