CHEMBL380997
Actelion Java MolfileCreator 2.0

  0  0  0  0  0  0              0 V3000
M  V30 BEGIN CTAB
M  V30 COUNTS 24 26 0 0 0
M  V30 BEGIN ATOM
M  V30 1 S -1.0739 0.9781 0.0 0
M  V30 2 C -2.0684 1.0826 0.0 0
M  V30 3 C -0.866 0.0 0.0 0
M  V30 4 C -2.6562 1.8916 0.0 0
M  V30 5 C -2.4751 0.1691 0.0 0
M  V30 6 C -1.732 -0.4999 0.0 0
M  V30 7 C 0.0 -0.5 0.0 0 CFG=2
M  V30 8 C -3.6507 1.7871 0.0 0
M  V30 9 C -2.2495 2.8052 0.0 0
M  V30 10 C -3.4697 0.0646 0.0 0
M  V30 11 C -1.732 -1.4999 0.0 0
M  V30 12 O 0.0 -1.5 0.0 0
M  V30 13 C 0.866 0.0 0.0 0
M  V30 14 C 0.866 -1.0 0.0 0
M  V30 15 C -4.0575 0.8736 0.0 0
M  V30 16 C -3.8764 -0.8489 0.0 0
M  V30 17 C -0.866 -1.9999 0.0 0
M  V30 18 C 1.732 -0.5 0.0 0
M  V30 19 C 0.866 -2.0 0.0 0
M  V30 20 F -5.052 0.769 0.0 0
M  V30 21 N -4.2831 -1.7624 0.0 0
M  V30 22 O 2.598 0.0 0.0 0
M  V30 23 O 1.732 -1.5 0.0 0
M  V30 24 C 1.732 -2.5 0.0 0
M  V30 END ATOM
M  V30 BEGIN BOND
M  V30 1 1 1 2
M  V30 2 1 1 3
M  V30 3 2 2 4
M  V30 4 1 2 5
M  V30 5 2 3 6
M  V30 6 1 7 3
M  V30 7 1 4 8
M  V30 8 1 4 9
M  V30 9 2 5 10
M  V30 10 1 6 11
M  V30 11 1 7 12
M  V30 12 1 7 13
M  V30 13 1 7 14 CFG=3
M  V30 14 2 8 15
M  V30 15 1 10 16
M  V30 16 1 11 17
M  V30 17 1 13 18
M  V30 18 1 14 19
M  V30 19 1 15 20
M  V30 20 3 16 21
M  V30 21 2 18 22
M  V30 22 1 18 23
M  V30 23 1 19 24
M  V30 24 1 5 6
M  V30 25 1 10 15
M  V30 26 1 12 17
M  V30 END BOND
M  V30 BEGIN COLLECTION
M  V30 MDLV30/STEABS ATOMS=(1 7)
M  V30 END COLLECTION
M  V30 END CTAB
M  END
>  <Molecule ChEMBL ID>
CHEMBL380997

>  <Smiles>
CCC[C@]1(CC(=O)O)OCCc2c1sc1c(C)cc(F)c(C#N)c21

>  <Standard Value>
50

$$$$
CHEMBL200405
Actelion Java MolfileCreator 2.0

  0  0  0  0  0  0              0 V3000
M  V30 BEGIN CTAB
M  V30 COUNTS 24 26 0 0 0
M  V30 BEGIN ATOM
M  V30 1 S -1.0739 0.9781 0.0 0
M  V30 2 C -2.0684 1.0826 0.0 0
M  V30 3 C -0.866 0.0 0.0 0
M  V30 4 C -2.6562 1.8916 0.0 0
M  V30 5 C -2.4751 0.1691 0.0 0
M  V30 6 C -1.732 -0.4999 0.0 0
M  V30 7 C 0.0 -0.5 0.0 0 CFG=1
M  V30 8 C -3.6507 1.7871 0.0 0
M  V30 9 C -2.2495 2.8052 0.0 0
M  V30 10 C -3.4697 0.0646 0.0 0
M  V30 11 C -1.732 -1.4999 0.0 0
M  V30 12 O 0.0 -1.5 0.0 0
M  V30 13 C 0.866 0.0 0.0 0
M  V30 14 C 0.866 -1.0 0.0 0
M  V30 15 C -4.0575 0.8736 0.0 0
M  V30 16 C -3.8764 -0.8489 0.0 0
M  V30 17 C -0.866 -1.9999 0.0 0
M  V30 18 C 1.732 -0.5 0.0 0
M  V30 19 C 0.866 -2.0 0.0 0
M  V30 20 F -5.052 0.769 0.0 0
M  V30 21 N -4.2831 -1.7624 0.0 0
M  V30 22 O 2.598 0.0 0.0 0
M  V30 23 O 1.732 -1.5 0.0 0
M  V30 24 C 1.732 -2.5 0.0 0
M  V30 END ATOM
M  V30 BEGIN BOND
M  V30 1 1 1 2
M  V30 2 1 1 3
M  V30 3 2 2 4
M  V30 4 1 2 5
M  V30 5 2 3 6
M  V30 6 1 7 3
M  V30 7 1 4 8
M  V30 8 1 4 9
M  V30 9 2 5 10
M  V30 10 1 6 11
M  V30 11 1 7 12
M  V30 12 1 7 13
M  V30 13 1 7 14 CFG=1
M  V30 14 2 8 15
M  V30 15 1 10 16
M  V30 16 1 11 17
M  V30 17 1 13 18
M  V30 18 1 14 19
M  V30 19 1 15 20
M  V30 20 3 16 21
M  V30 21 2 18 22
M  V30 22 1 18 23
M  V30 23 1 19 24
M  V30 24 1 5 6
M  V30 25 1 10 15
M  V30 26 1 12 17
M  V30 END BOND
M  V30 BEGIN COLLECTION
M  V30 MDLV30/STERAC1 ATOMS=(1 7)
M  V30 END COLLECTION
M  V30 END CTAB
M  END
>  <Molecule ChEMBL ID>
CHEMBL200405

>  <Smiles>
CCCC1(CC(=O)O)OCCc2c1sc1c(C)cc(F)c(C#N)c21

>  <Standard Value>
130

$$$$
CHEMBL198349
Actelion Java MolfileCreator 2.0

  0  0  0  0  0  0              0 V3000
M  V30 BEGIN CTAB
M  V30 COUNTS 22 24 0 0 0
M  V30 BEGIN ATOM
M  V30 1 Cl 1.7376 -4.1007 0.0 0
M  V30 2 C 0.7431 -3.9962 0.0 0
M  V30 3 C 0.3364 -3.0826 0.0 0
M  V30 4 C 0.1553 -4.8052 0.0 0
M  V30 5 S 0.7431 -2.1691 0.0 0
M  V30 6 C -0.6581 -2.9781 0.0 0
M  V30 7 C -0.8391 -4.7007 0.0 0
M  V30 8 C 0.0 -1.4999 0.0 0
M  V30 9 C -1.2458 -3.7871 0.0 0
M  V30 10 C -0.866 -1.9999 0.0 0
M  V30 11 C 0.0 -0.5 0.0 0 CFG=1
M  V30 12 Cl -2.2404 -3.6826 0.0 0
M  V30 13 C -1.732 -1.5 0.0 0
M  V30 14 O -0.866 0.0 0.0 0
M  V30 15 C 0.866 0.0 0.0 0
M  V30 16 C 0.0 0.4999 0.0 0
M  V30 17 C -1.732 -0.4999 0.0 0
M  V30 18 C 1.732 -0.5 0.0 0
M  V30 19 C 0.866 0.9999 0.0 0
M  V30 20 O 2.598 0.0 0.0 0
M  V30 21 O 1.732 -1.5 0.0 0
M  V30 22 C 0.866 1.9999 0.0 0
M  V30 END ATOM
M  V30 BEGIN BOND
M  V30 1 1 1 2
M  V30 2 2 2 3
M  V30 3 1 2 4
M  V30 4 1 3 5
M  V30 5 1 3 6
M  V30 6 2 4 7
M  V30 7 1 5 8
M  V30 8 2 6 9
M  V30 9 1 6 10
M  V30 10 1 11 8
M  V30 11 1 9 12
M  V30 12 1 10 13
M  V30 13 1 11 14
M  V30 14 1 11 15
M  V30 15 1 11 16 CFG=3
M  V30 16 1 13 17
M  V30 17 1 15 18
M  V30 18 1 16 19
M  V30 19 2 18 20
M  V30 20 1 18 21
M  V30 21 1 19 22
M  V30 22 1 7 9
M  V30 23 2 8 10
M  V30 24 1 14 17
M  V30 END BOND
M  V30 BEGIN COLLECTION
M  V30 MDLV30/STERAC1 ATOMS=(1 11)
M  V30 END COLLECTION
M  V30 END CTAB
M  END
>  <Molecule ChEMBL ID>
CHEMBL198349

>  <Smiles>
CCCC1(CC(=O)O)OCCc2c1sc1c(Cl)ccc(Cl)c21

>  <Standard Value>
140

$$$$
CHEMBL199954
Actelion Java MolfileCreator 2.0

  0  0  0  0  0  0              0 V3000
M  V30 BEGIN CTAB
M  V30 COUNTS 23 25 0 0 0
M  V30 BEGIN ATOM
M  V30 1 S -1.0739 0.9781 0.0 0
M  V30 2 C -2.0684 1.0826 0.0 0
M  V30 3 C -0.866 0.0 0.0 0
M  V30 4 C -2.6562 1.8916 0.0 0
M  V30 5 C -2.4751 0.1691 0.0 0
M  V30 6 C -1.732 -0.4999 0.0 0
M  V30 7 C 0.0 -0.5 0.0 0 CFG=2
M  V30 8 C -3.6507 1.7871 0.0 0
M  V30 9 C -2.2495 2.8052 0.0 0
M  V30 10 C -3.4697 0.0646 0.0 0
M  V30 11 C -1.732 -1.4999 0.0 0
M  V30 12 O 0.0 -1.5 0.0 0
M  V30 13 C 0.866 0.0 0.0 0
M  V30 14 C 0.866 -1.0 0.0 0
M  V30 15 C -4.0575 0.8736 0.0 0
M  V30 16 C -3.8764 -0.8489 0.0 0
M  V30 17 C -0.866 -1.9999 0.0 0
M  V30 18 C 1.732 -0.5 0.0 0
M  V30 19 C 0.866 -2.0 0.0 0
M  V30 20 N -4.2831 -1.7624 0.0 0
M  V30 21 O 2.598 0.0 0.0 0
M  V30 22 O 1.732 -1.5 0.0 0
M  V30 23 C 1.732 -2.5 0.0 0
M  V30 END ATOM
M  V30 BEGIN BOND
M  V30 1 1 1 2
M  V30 2 1 1 3
M  V30 3 2 2 4
M  V30 4 1 2 5
M  V30 5 2 3 6
M  V30 6 1 7 3
M  V30 7 1 4 8
M  V30 8 1 4 9
M  V30 9 2 5 10
M  V30 10 1 6 11
M  V30 11 1 7 12
M  V30 12 1 7 13
M  V30 13 1 7 14 CFG=3
M  V30 14 2 8 15
M  V30 15 1 10 16
M  V30 16 1 11 17
M  V30 17 1 13 18
M  V30 18 1 14 19
M  V30 19 3 16 20
M  V30 20 2 18 21
M  V30 21 1 18 22
M  V30 22 1 19 23
M  V30 23 1 5 6
M  V30 24 1 10 15
M  V30 25 1 12 17
M  V30 END BOND
M  V30 BEGIN COLLECTION
M  V30 MDLV30/STEABS ATOMS=(1 7)
M  V30 END COLLECTION
M  V30 END CTAB
M  END
>  <Molecule ChEMBL ID>
CHEMBL199954

>  <Smiles>
CCC[C@]1(CC(=O)O)OCCc2c1sc1c(C)ccc(C#N)c21

>  <Standard Value>
170

$$$$
CHEMBL201313
Actelion Java MolfileCreator 2.0

  0  0  0  0  0  0              0 V3000
M  V30 BEGIN CTAB
M  V30 COUNTS 22 24 0 0 0
M  V30 BEGIN ATOM
M  V30 1 Br -3.3606 -5.5239 0.0 0
M  V30 2 C -1.8688 -5.6807 0.0 0
M  V30 3 C -0.9871 -4.4672 0.0 0
M  V30 4 C -1.2587 -7.051 0.0 0
M  V30 5 C 0.5046 -4.624 0.0 0
M  V30 6 C -1.299 -3.0 0.0 0
M  V30 7 C 0.233 -7.2078 0.0 0
M  V30 8 S 1.1147 -3.2536 0.0 0
M  V30 9 C 1.1147 -5.9943 0.0 0
M  V30 10 C 0.0 -2.25 0.0 0
M  V30 11 C -2.598 -2.2499 0.0 0
M  V30 12 C 2.6065 -6.1511 0.0 0
M  V30 13 C 0.0 -0.75 0.0 0 CFG=1
M  V30 14 C -2.598 -0.7499 0.0 0
M  V30 15 O -1.299 0.0 0.0 0
M  V30 16 C 1.299 0.0 0.0 0
M  V30 17 C 1.299 -1.5 0.0 0
M  V30 18 C 1.299 1.5 0.0 0
M  V30 19 C 2.598 -0.75 0.0 0
M  V30 20 O 2.598 2.25 0.0 0
M  V30 21 O 0.0 2.25 0.0 0
M  V30 22 C 3.8971 -1.5 0.0 0
M  V30 END ATOM
M  V30 BEGIN BOND
M  V30 1 1 1 2
M  V30 2 2 2 3
M  V30 3 1 2 4
M  V30 4 1 3 5
M  V30 5 1 3 6
M  V30 6 2 4 7
M  V30 7 1 5 8
M  V30 8 2 5 9
M  V30 9 2 6 10
M  V30 10 1 6 11
M  V30 11 1 9 12
M  V30 12 1 13 10
M  V30 13 1 11 14
M  V30 14 1 13 15
M  V30 15 1 13 16
M  V30 16 1 13 17 CFG=3
M  V30 17 1 16 18
M  V30 18 1 17 19
M  V30 19 2 18 20
M  V30 20 1 18 21
M  V30 21 1 19 22
M  V30 22 1 7 9
M  V30 23 1 8 10
M  V30 24 1 14 15
M  V30 END BOND
M  V30 BEGIN COLLECTION
M  V30 MDLV30/STERAC1 ATOMS=(1 13)
M  V30 END COLLECTION
M  V30 END CTAB
M  END
>  <Molecule ChEMBL ID>
CHEMBL201313

>  <Smiles>
CCCC1(CC(=O)O)OCCc2c1sc1c(C)ccc(Br)c21

>  <Standard Value>
190

$$$$
CHEMBL201475
Actelion Java MolfileCreator 2.0

  0  0  0  0  0  0              0 V3000
M  V30 BEGIN CTAB
M  V30 COUNTS 23 25 0 0 0
M  V30 BEGIN ATOM
M  V30 1 S -1.0739 0.9781 0.0 0
M  V30 2 C -2.0684 1.0826 0.0 0
M  V30 3 C -0.866 0.0 0.0 0
M  V30 4 C -2.6562 1.8916 0.0 0
M  V30 5 C -2.4751 0.1691 0.0 0
M  V30 6 C -1.732 -0.4999 0.0 0
M  V30 7 C 0.0 -0.5 0.0 0 CFG=1
M  V30 8 C -3.6507 1.7871 0.0 0
M  V30 9 C -2.2495 2.8052 0.0 0
M  V30 10 C -3.4697 0.0646 0.0 0
M  V30 11 C -1.732 -1.4999 0.0 0
M  V30 12 O 0.0 -1.5 0.0 0
M  V30 13 C 0.866 0.0 0.0 0
M  V30 14 C 0.866 -1.0 0.0 0
M  V30 15 C -4.0575 0.8736 0.0 0
M  V30 16 C -3.8764 -0.8489 0.0 0
M  V30 17 C -0.866 -1.9999 0.0 0
M  V30 18 C 1.732 -0.5 0.0 0
M  V30 19 C 0.866 -2.0 0.0 0
M  V30 20 N -4.2831 -1.7624 0.0 0
M  V30 21 O 2.598 0.0 0.0 0
M  V30 22 O 1.732 -1.5 0.0 0
M  V30 23 C 1.732 -2.5 0.0 0
M  V30 END ATOM
M  V30 BEGIN BOND
M  V30 1 1 1 2
M  V30 2 1 1 3
M  V30 3 2 2 4
M  V30 4 1 2 5
M  V30 5 2 3 6
M  V30 6 1 7 3
M  V30 7 1 4 8
M  V30 8 1 4 9
M  V30 9 2 5 10
M  V30 10 1 6 11
M  V30 11 1 7 12
M  V30 12 1 7 13
M  V30 13 1 7 14 CFG=1
M  V30 14 2 8 15
M  V30 15 1 10 16
M  V30 16 1 11 17
M  V30 17 1 13 18
M  V30 18 1 14 19
M  V30 19 3 16 20
M  V30 20 2 18 21
M  V30 21 1 18 22
M  V30 22 1 19 23
M  V30 23 1 5 6
M  V30 24 1 10 15
M  V30 25 1 12 17
M  V30 END BOND
M  V30 BEGIN COLLECTION
M  V30 MDLV30/STERAC1 ATOMS=(1 7)
M  V30 END COLLECTION
M  V30 END CTAB
M  END
>  <Molecule ChEMBL ID>
CHEMBL201475

>  <Smiles>
CCCC1(CC(=O)O)OCCc2c1sc1c(C)ccc(C#N)c21

>  <Standard Value>
320

$$$$
CHEMBL201681
Actelion Java MolfileCreator 2.0

  0  0  0  0  0  0              0 V3000
M  V30 BEGIN CTAB
M  V30 COUNTS 23 25 0 0 0
M  V30 BEGIN ATOM
M  V30 1 Cl 1.7376 -4.1007 0.0 0
M  V30 2 C 0.7431 -3.9962 0.0 0
M  V30 3 C 0.3364 -3.0826 0.0 0
M  V30 4 C 0.1553 -4.8052 0.0 0
M  V30 5 S 0.7431 -2.1691 0.0 0
M  V30 6 C -0.6581 -2.9781 0.0 0
M  V30 7 C -0.8391 -4.7007 0.0 0
M  V30 8 C 0.0 -1.4999 0.0 0
M  V30 9 C -1.2458 -3.7871 0.0 0
M  V30 10 C -0.866 -1.9999 0.0 0
M  V30 11 C 0.0 -0.5 0.0 0 CFG=1
M  V30 12 Cl -2.2404 -3.6826 0.0 0
M  V30 13 C -1.732 -1.5 0.0 0
M  V30 14 O -0.866 0.0 0.0 0
M  V30 15 C 0.0 0.4999 0.0 0
M  V30 16 C 0.866 0.0 0.0 0
M  V30 17 C -1.732 -0.4999 0.0 0
M  V30 18 C 0.866 0.9999 0.0 0
M  V30 19 C 1.732 -0.5 0.0 0
M  V30 20 O 1.732 0.4999 0.0 0
M  V30 21 O 0.866 1.9999 0.0 0
M  V30 22 C 2.598 0.0 0.0 0
M  V30 23 C 3.4641 -0.5 0.0 0
M  V30 END ATOM
M  V30 BEGIN BOND
M  V30 1 1 1 2
M  V30 2 2 2 3
M  V30 3 1 2 4
M  V30 4 1 3 5
M  V30 5 1 3 6
M  V30 6 2 4 7
M  V30 7 1 5 8
M  V30 8 2 6 9
M  V30 9 1 6 10
M  V30 10 1 11 8
M  V30 11 1 9 12
M  V30 12 1 10 13
M  V30 13 1 11 14
M  V30 14 1 11 15 CFG=1
M  V30 15 1 11 16
M  V30 16 1 13 17
M  V30 17 1 15 18
M  V30 18 1 16 19
M  V30 19 2 18 20
M  V30 20 1 18 21
M  V30 21 1 19 22
M  V30 22 1 22 23
M  V30 23 1 7 9
M  V30 24 2 8 10
M  V30 25 1 14 17
M  V30 END BOND
M  V30 BEGIN COLLECTION
M  V30 MDLV30/STERAC1 ATOMS=(1 11)
M  V30 END COLLECTION
M  V30 END CTAB
M  END
>  <Molecule ChEMBL ID>
CHEMBL201681

>  <Smiles>
CCCCC1(CC(=O)O)OCCc2c1sc1c(Cl)ccc(Cl)c21

>  <Standard Value>
750

$$$$
CHEMBL200616
Actelion Java MolfileCreator 2.0

  0  0  0  0  0  0              0 V3000
M  V30 BEGIN CTAB
M  V30 COUNTS 22 24 0 0 0
M  V30 BEGIN ATOM
M  V30 1 Cl 1.7376 -4.1007 0.0 0
M  V30 2 C 0.7431 -3.9962 0.0 0
M  V30 3 C 0.3364 -3.0826 0.0 0
M  V30 4 C 0.1553 -4.8052 0.0 0
M  V30 5 O 0.7431 -2.1691 0.0 0
M  V30 6 C -0.6581 -2.9781 0.0 0
M  V30 7 C -0.8391 -4.7007 0.0 0
M  V30 8 C 0.0 -1.4999 0.0 0
M  V30 9 C -1.2458 -3.7871 0.0 0
M  V30 10 C -0.866 -1.9999 0.0 0
M  V30 11 C 0.0 -0.5 0.0 0 CFG=1
M  V30 12 Cl -2.2404 -3.6826 0.0 0
M  V30 13 C -1.732 -1.5 0.0 0
M  V30 14 O -0.866 0.0 0.0 0
M  V30 15 C 0.866 0.0 0.0 0
M  V30 16 C 0.0 0.4999 0.0 0
M  V30 17 C -1.732 -0.4999 0.0 0
M  V30 18 C 1.732 -0.5 0.0 0
M  V30 19 C 0.866 0.9999 0.0 0
M  V30 20 O 2.598 0.0 0.0 0
M  V30 21 O 1.732 -1.5 0.0 0
M  V30 22 C 0.866 1.9999 0.0 0
M  V30 END ATOM
M  V30 BEGIN BOND
M  V30 1 1 1 2
M  V30 2 2 2 3
M  V30 3 1 2 4
M  V30 4 1 3 5
M  V30 5 1 3 6
M  V30 6 2 4 7
M  V30 7 1 5 8
M  V30 8 2 6 9
M  V30 9 1 6 10
M  V30 10 1 11 8
M  V30 11 1 9 12
M  V30 12 1 10 13
M  V30 13 1 11 14
M  V30 14 1 11 15
M  V30 15 1 11 16 CFG=3
M  V30 16 1 13 17
M  V30 17 1 15 18
M  V30 18 1 16 19
M  V30 19 2 18 20
M  V30 20 1 18 21
M  V30 21 1 19 22
M  V30 22 1 7 9
M  V30 23 2 8 10
M  V30 24 1 14 17
M  V30 END BOND
M  V30 BEGIN COLLECTION
M  V30 MDLV30/STERAC1 ATOMS=(1 11)
M  V30 END COLLECTION
M  V30 END CTAB
M  END
>  <Molecule ChEMBL ID>
CHEMBL200616

>  <Smiles>
CCCC1(CC(=O)O)OCCc2c1oc1c(Cl)ccc(Cl)c21

>  <Standard Value>
1490

$$$$
CHEMBL382305
Actelion Java MolfileCreator 2.0

  0  0  0  0  0  0              0 V3000
M  V30 BEGIN CTAB
M  V30 COUNTS 21 23 0 0 0
M  V30 BEGIN ATOM
M  V30 1 Cl 1.7376 -4.1007 0.0 0
M  V30 2 C 0.7431 -3.9962 0.0 0
M  V30 3 C 0.3364 -3.0826 0.0 0
M  V30 4 C 0.1553 -4.8052 0.0 0
M  V30 5 S 0.7431 -2.1691 0.0 0
M  V30 6 C -0.6581 -2.9781 0.0 0
M  V30 7 C -0.8391 -4.7007 0.0 0
M  V30 8 C 0.0 -1.4999 0.0 0
M  V30 9 C -1.2458 -3.7871 0.0 0
M  V30 10 C -0.866 -1.9999 0.0 0
M  V30 11 C 0.0 -0.5 0.0 0 CFG=1
M  V30 12 Cl -2.2404 -3.6826 0.0 0
M  V30 13 C -1.732 -1.5 0.0 0
M  V30 14 O -0.866 0.0 0.0 0
M  V30 15 C 0.866 0.0 0.0 0
M  V30 16 C 0.0 0.5 0.0 0
M  V30 17 C -1.732 -0.4999 0.0 0
M  V30 18 C 1.732 -0.5 0.0 0
M  V30 19 C -0.866 1.0 0.0 0
M  V30 20 O 2.598 0.0 0.0 0
M  V30 21 O 1.732 -1.5 0.0 0
M  V30 END ATOM
M  V30 BEGIN BOND
M  V30 1 1 1 2
M  V30 2 2 2 3
M  V30 3 1 2 4
M  V30 4 1 3 5
M  V30 5 1 3 6
M  V30 6 2 4 7
M  V30 7 1 5 8
M  V30 8 2 6 9
M  V30 9 1 6 10
M  V30 10 1 11 8
M  V30 11 1 9 12
M  V30 12 1 10 13
M  V30 13 1 11 14
M  V30 14 1 11 15
M  V30 15 1 11 16 CFG=3
M  V30 16 1 13 17
M  V30 17 1 15 18
M  V30 18 1 16 19
M  V30 19 2 18 20
M  V30 20 1 18 21
M  V30 21 1 7 9
M  V30 22 2 8 10
M  V30 23 1 14 17
M  V30 END BOND
M  V30 BEGIN COLLECTION
M  V30 MDLV30/STERAC1 ATOMS=(1 11)
M  V30 END COLLECTION
M  V30 END CTAB
M  END
>  <Molecule ChEMBL ID>
CHEMBL382305

>  <Smiles>
CCC1(CC(=O)O)OCCc2c1sc1c(Cl)ccc(Cl)c21

>  <Standard Value>
1900

$$$$
CHEMBL200696
Actelion Java MolfileCreator 2.0

  0  0  0  0  0  0              0 V3000
M  V30 BEGIN CTAB
M  V30 COUNTS 23 25 0 0 0
M  V30 BEGIN ATOM
M  V30 1 S -1.0739 0.9781 0.0 0
M  V30 2 C -2.0684 1.0826 0.0 0
M  V30 3 C -0.866 0.0 0.0 0
M  V30 4 C -2.6562 1.8916 0.0 0
M  V30 5 C -2.4751 0.1691 0.0 0
M  V30 6 C -1.732 -0.4999 0.0 0
M  V30 7 C 0.0 -0.5 0.0 0 CFG=1
M  V30 8 C -3.6507 1.7871 0.0 0
M  V30 9 C -2.2495 2.8052 0.0 0
M  V30 10 C -3.4697 0.0646 0.0 0
M  V30 11 C -1.732 -1.4999 0.0 0
M  V30 12 O 0.0 -1.5 0.0 0
M  V30 13 C 0.866 0.0 0.0 0
M  V30 14 C 0.866 -1.0 0.0 0
M  V30 15 C -4.0575 0.8736 0.0 0
M  V30 16 C -3.8764 -0.8489 0.0 0
M  V30 17 C -0.866 -1.9999 0.0 0
M  V30 18 C 1.732 -0.5 0.0 0
M  V30 19 C 0.866 -2.0 0.0 0
M  V30 20 N -4.2831 -1.7624 0.0 0
M  V30 21 O 2.598 0.0 0.0 0
M  V30 22 O 1.732 -1.5 0.0 0
M  V30 23 C 1.732 -2.5 0.0 0
M  V30 END ATOM
M  V30 BEGIN BOND
M  V30 1 1 1 2
M  V30 2 1 1 3
M  V30 3 2 2 4
M  V30 4 1 2 5
M  V30 5 2 3 6
M  V30 6 1 7 3
M  V30 7 1 4 8
M  V30 8 1 4 9
M  V30 9 2 5 10
M  V30 10 1 6 11
M  V30 11 1 7 12
M  V30 12 1 7 13
M  V30 13 1 7 14 CFG=1
M  V30 14 2 8 15
M  V30 15 1 10 16
M  V30 16 1 11 17
M  V30 17 1 13 18
M  V30 18 1 14 19
M  V30 19 3 16 20
M  V30 20 2 18 21
M  V30 21 1 18 22
M  V30 22 1 19 23
M  V30 23 1 5 6
M  V30 24 1 10 15
M  V30 25 1 12 17
M  V30 END BOND
M  V30 BEGIN COLLECTION
M  V30 MDLV30/STEABS ATOMS=(1 7)
M  V30 END COLLECTION
M  V30 END CTAB
M  END
>  <Molecule ChEMBL ID>
CHEMBL200696

>  <Smiles>
CCC[C@@]1(CC(=O)O)OCCc2c1sc1c(C)ccc(C#N)c21

>  <Standard Value>
2850

$$$$
CHEMBL373183
Actelion Java MolfileCreator 2.0

  0  0  0  0  0  0              0 V3000
M  V30 BEGIN CTAB
M  V30 COUNTS 23 25 0 0 0
M  V30 BEGIN ATOM
M  V30 1 Cl 1.7376 -4.1007 0.0 0
M  V30 2 C 0.7431 -3.9962 0.0 0
M  V30 3 C 0.3364 -3.0826 0.0 0
M  V30 4 C 0.1553 -4.8052 0.0 0
M  V30 5 O 0.7431 -2.1691 0.0 0
M  V30 6 C -0.6581 -2.9781 0.0 0
M  V30 7 C -0.8391 -4.7007 0.0 0
M  V30 8 C 0.0 -1.4999 0.0 0
M  V30 9 C -1.2458 -3.7871 0.0 0
M  V30 10 C -0.866 -1.9999 0.0 0
M  V30 11 C 0.0 -0.5 0.0 0 CFG=1
M  V30 12 Cl -2.2404 -3.6826 0.0 0
M  V30 13 C -1.732 -1.5 0.0 0
M  V30 14 O -0.866 0.0 0.0 0
M  V30 15 C 0.0 0.4999 0.0 0
M  V30 16 C 0.866 0.0 0.0 0
M  V30 17 C -1.732 -0.4999 0.0 0
M  V30 18 C 0.866 0.9999 0.0 0
M  V30 19 C 1.732 -0.5 0.0 0
M  V30 20 O 1.732 0.4999 0.0 0
M  V30 21 O 0.866 1.9999 0.0 0
M  V30 22 C 2.598 0.0 0.0 0
M  V30 23 C 3.4641 -0.5 0.0 0
M  V30 END ATOM
M  V30 BEGIN BOND
M  V30 1 1 1 2
M  V30 2 2 2 3
M  V30 3 1 2 4
M  V30 4 1 3 5
M  V30 5 1 3 6
M  V30 6 2 4 7
M  V30 7 1 5 8
M  V30 8 2 6 9
M  V30 9 1 6 10
M  V30 10 1 11 8
M  V30 11 1 9 12
M  V30 12 1 10 13
M  V30 13 1 11 14
M  V30 14 1 11 15 CFG=1
M  V30 15 1 11 16
M  V30 16 1 13 17
M  V30 17 1 15 18
M  V30 18 1 16 19
M  V30 19 2 18 20
M  V30 20 1 18 21
M  V30 21 1 19 22
M  V30 22 1 22 23
M  V30 23 1 7 9
M  V30 24 2 8 10
M  V30 25 1 14 17
M  V30 END BOND
M  V30 BEGIN COLLECTION
M  V30 MDLV30/STERAC1 ATOMS=(1 11)
M  V30 END COLLECTION
M  V30 END CTAB
M  END
>  <Molecule ChEMBL ID>
CHEMBL373183

>  <Smiles>
CCCCC1(CC(=O)O)OCCc2c1oc1c(Cl)ccc(Cl)c21

>  <Standard Value>
4460

$$$$
