CHEMBL414855
Actelion Java MolfileCreator 2.0

  0  0  0  0  0  0              0 V3000
M  V30 BEGIN CTAB
M  V30 COUNTS 24 26 0 0 0
M  V30 BEGIN ATOM
M  V30 1 S -1.0739 0.9781 0.0 0
M  V30 2 C -2.0684 1.0826 0.0 0
M  V30 3 C -0.866 0.0 0.0 0
M  V30 4 C -2.6562 1.8916 0.0 0
M  V30 5 C -2.4751 0.1691 0.0 0
M  V30 6 C -1.732 -0.4999 0.0 0
M  V30 7 C 0.0 -0.5 0.0 0 CFG=1
M  V30 8 C -3.6507 1.7871 0.0 0
M  V30 9 C -2.2495 2.8052 0.0 0
M  V30 10 C -3.4697 0.0646 0.0 0
M  V30 11 C -1.732 -1.4999 0.0 0
M  V30 12 O 0.0 -1.5 0.0 0
M  V30 13 C 0.866 0.0 0.0 0
M  V30 14 C 0.866 -1.0 0.0 0
M  V30 15 C -4.0575 0.8736 0.0 0
M  V30 16 C -3.8764 -0.8489 0.0 0
M  V30 17 C -0.866 -1.9999 0.0 0
M  V30 18 C 1.732 -0.5 0.0 0
M  V30 19 C 0.866 -2.0 0.0 0
M  V30 20 F -5.052 0.769 0.0 0
M  V30 21 N -4.2831 -1.7624 0.0 0
M  V30 22 O 2.598 0.0 0.0 0
M  V30 23 O 1.732 -1.5 0.0 0
M  V30 24 C 1.732 -2.5 0.0 0
M  V30 END ATOM
M  V30 BEGIN BOND
M  V30 1 1 1 2
M  V30 2 1 1 3
M  V30 3 2 2 4
M  V30 4 1 2 5
M  V30 5 2 3 6
M  V30 6 1 7 3
M  V30 7 1 4 8
M  V30 8 1 4 9
M  V30 9 2 5 10
M  V30 10 1 6 11
M  V30 11 1 7 12
M  V30 12 1 7 13
M  V30 13 1 7 14 CFG=1
M  V30 14 2 8 15
M  V30 15 1 10 16
M  V30 16 1 11 17
M  V30 17 1 13 18
M  V30 18 1 14 19
M  V30 19 1 15 20
M  V30 20 3 16 21
M  V30 21 2 18 22
M  V30 22 1 18 23
M  V30 23 1 19 24
M  V30 24 1 5 6
M  V30 25 1 10 15
M  V30 26 1 12 17
M  V30 END BOND
M  V30 BEGIN COLLECTION
M  V30 MDLV30/STEABS ATOMS=(1 7)
M  V30 END COLLECTION
M  V30 END CTAB
M  END
>  <Molecule ChEMBL ID>
CHEMBL414855

>  <Molecule Name>


>  <Molecule Max Phase>
None

>  <Molecular Weight>
347.41

>  <#RO5 Violations>
0

>  <AlogP>
4.26

>  <Compound Key>
33

>  <Smiles>
CCC[C@@]1(CC(=O)O)OCCc2c1sc1c(C)cc(F)c(C#N)c21

>  <Standard Type>
IC50

>  <Standard Relation>
'='

>  <Standard Value>
5360

>  <Standard Units>
nM

>  <pChEMBL Value>
5.27

>  <Data Validity Comment>


>  <Comment>


>  <Uo Units>
UO_0000065

>  <Ligand Efficiency BEI>
15.17

>  <Ligand Efficiency LE>
0.3

>  <Ligand Efficiency LLE>
1.01

>  <Ligand Efficiency SEI>
7.5

>  <Potential Duplicate>
0

>  <Assay ChEMBL ID>
CHEMBL864623

>  <Assay Description>
Displacement of [alpha-32P]GTP from recombinant HCV NS5B RNA dependent RNA polymerase

>  <Assay Type>
B

>  <BAO Format ID>
BAO_0000357

>  <BAO Label>
single protein format

>  <Assay Organism>
Hepatitis C virus

>  <Assay Tissue ChEMBL ID>
None

>  <Assay Tissue Name>
None

>  <Assay Cell Type>
None

>  <Assay Subcellular Fraction>
None

>  <Assay Parameters>


>  <Assay Variant Accession>


>  <Assay Variant Mutation>


>  <Target ChEMBL ID>
CHEMBL5375

>  <Target Name>
Hepatitis C virus NS5B RNA-dependent RNA polymerase

>  <Target Organism>
Hepatitis C virus

>  <Target Type>
SINGLE PROTEIN

>  <Document ChEMBL ID>
CHEMBL1148590

>  <Source ID>
1

>  <Source Description>
Scientific Literature

>  <Document Journal>
Bioorg Med Chem Lett

>  <Document Year>
2006

>  <Cell ChEMBL ID>
None

>  <Properties>


$$$$
CHEMBL199954
Actelion Java MolfileCreator 2.0

  0  0  0  0  0  0              0 V3000
M  V30 BEGIN CTAB
M  V30 COUNTS 23 25 0 0 0
M  V30 BEGIN ATOM
M  V30 1 S -1.0739 0.9781 0.0 0
M  V30 2 C -2.0684 1.0826 0.0 0
M  V30 3 C -0.866 0.0 0.0 0
M  V30 4 C -2.6562 1.8916 0.0 0
M  V30 5 C -2.4751 0.1691 0.0 0
M  V30 6 C -1.732 -0.4999 0.0 0
M  V30 7 C 0.0 -0.5 0.0 0 CFG=2
M  V30 8 C -3.6507 1.7871 0.0 0
M  V30 9 C -2.2495 2.8052 0.0 0
M  V30 10 C -3.4697 0.0646 0.0 0
M  V30 11 C -1.732 -1.4999 0.0 0
M  V30 12 O 0.0 -1.5 0.0 0
M  V30 13 C 0.866 0.0 0.0 0
M  V30 14 C 0.866 -1.0 0.0 0
M  V30 15 C -4.0575 0.8736 0.0 0
M  V30 16 C -3.8764 -0.8489 0.0 0
M  V30 17 C -0.866 -1.9999 0.0 0
M  V30 18 C 1.732 -0.5 0.0 0
M  V30 19 C 0.866 -2.0 0.0 0
M  V30 20 N -4.2831 -1.7624 0.0 0
M  V30 21 O 2.598 0.0 0.0 0
M  V30 22 O 1.732 -1.5 0.0 0
M  V30 23 C 1.732 -2.5 0.0 0
M  V30 END ATOM
M  V30 BEGIN BOND
M  V30 1 1 1 2
M  V30 2 1 1 3
M  V30 3 2 2 4
M  V30 4 1 2 5
M  V30 5 2 3 6
M  V30 6 1 7 3
M  V30 7 1 4 8
M  V30 8 1 4 9
M  V30 9 2 5 10
M  V30 10 1 6 11
M  V30 11 1 7 12
M  V30 12 1 7 13
M  V30 13 1 7 14 CFG=3
M  V30 14 2 8 15
M  V30 15 1 10 16
M  V30 16 1 11 17
M  V30 17 1 13 18
M  V30 18 1 14 19
M  V30 19 3 16 20
M  V30 20 2 18 21
M  V30 21 1 18 22
M  V30 22 1 19 23
M  V30 23 1 5 6
M  V30 24 1 10 15
M  V30 25 1 12 17
M  V30 END BOND
M  V30 BEGIN COLLECTION
M  V30 MDLV30/STEABS ATOMS=(1 7)
M  V30 END COLLECTION
M  V30 END CTAB
M  END
>  <Molecule ChEMBL ID>
CHEMBL199954

>  <Molecule Name>


>  <Molecule Max Phase>
None

>  <Molecular Weight>
329.42

>  <#RO5 Violations>
0

>  <AlogP>
4.12

>  <Compound Key>
31

>  <Smiles>
CCC[C@]1(CC(=O)O)OCCc2c1sc1c(C)ccc(C#N)c21

>  <Standard Type>
IC50

>  <Standard Relation>
'='

>  <Standard Value>
170

>  <Standard Units>
nM

>  <pChEMBL Value>
6.77

>  <Data Validity Comment>


>  <Comment>


>  <Uo Units>
UO_0000065

>  <Ligand Efficiency BEI>
20.55

>  <Ligand Efficiency LE>
0.4

>  <Ligand Efficiency LLE>
2.65

>  <Ligand Efficiency SEI>
9.63

>  <Potential Duplicate>
0

>  <Assay ChEMBL ID>
CHEMBL864623

>  <Assay Description>
Displacement of [alpha-32P]GTP from recombinant HCV NS5B RNA dependent RNA polymerase

>  <Assay Type>
B

>  <BAO Format ID>
BAO_0000357

>  <BAO Label>
single protein format

>  <Assay Organism>
Hepatitis C virus

>  <Assay Tissue ChEMBL ID>
None

>  <Assay Tissue Name>
None

>  <Assay Cell Type>
None

>  <Assay Subcellular Fraction>
None

>  <Assay Parameters>


>  <Assay Variant Accession>


>  <Assay Variant Mutation>


>  <Target ChEMBL ID>
CHEMBL5375

>  <Target Name>
Hepatitis C virus NS5B RNA-dependent RNA polymerase

>  <Target Organism>
Hepatitis C virus

>  <Target Type>
SINGLE PROTEIN

>  <Document ChEMBL ID>
CHEMBL1148590

>  <Source ID>
1

>  <Source Description>
Scientific Literature

>  <Document Journal>
Bioorg Med Chem Lett

>  <Document Year>
2006

>  <Cell ChEMBL ID>
None

>  <Properties>


$$$$
CHEMBL380997
Actelion Java MolfileCreator 2.0

  0  0  0  0  0  0              0 V3000
M  V30 BEGIN CTAB
M  V30 COUNTS 24 26 0 0 0
M  V30 BEGIN ATOM
M  V30 1 S -1.0739 0.9781 0.0 0
M  V30 2 C -2.0684 1.0826 0.0 0
M  V30 3 C -0.866 0.0 0.0 0
M  V30 4 C -2.6562 1.8916 0.0 0
M  V30 5 C -2.4751 0.1691 0.0 0
M  V30 6 C -1.732 -0.4999 0.0 0
M  V30 7 C 0.0 -0.5 0.0 0 CFG=2
M  V30 8 C -3.6507 1.7871 0.0 0
M  V30 9 C -2.2495 2.8052 0.0 0
M  V30 10 C -3.4697 0.0646 0.0 0
M  V30 11 C -1.732 -1.4999 0.0 0
M  V30 12 O 0.0 -1.5 0.0 0
M  V30 13 C 0.866 0.0 0.0 0
M  V30 14 C 0.866 -1.0 0.0 0
M  V30 15 C -4.0575 0.8736 0.0 0
M  V30 16 C -3.8764 -0.8489 0.0 0
M  V30 17 C -0.866 -1.9999 0.0 0
M  V30 18 C 1.732 -0.5 0.0 0
M  V30 19 C 0.866 -2.0 0.0 0
M  V30 20 F -5.052 0.769 0.0 0
M  V30 21 N -4.2831 -1.7624 0.0 0
M  V30 22 O 2.598 0.0 0.0 0
M  V30 23 O 1.732 -1.5 0.0 0
M  V30 24 C 1.732 -2.5 0.0 0
M  V30 END ATOM
M  V30 BEGIN BOND
M  V30 1 1 1 2
M  V30 2 1 1 3
M  V30 3 2 2 4
M  V30 4 1 2 5
M  V30 5 2 3 6
M  V30 6 1 7 3
M  V30 7 1 4 8
M  V30 8 1 4 9
M  V30 9 2 5 10
M  V30 10 1 6 11
M  V30 11 1 7 12
M  V30 12 1 7 13
M  V30 13 1 7 14 CFG=3
M  V30 14 2 8 15
M  V30 15 1 10 16
M  V30 16 1 11 17
M  V30 17 1 13 18
M  V30 18 1 14 19
M  V30 19 1 15 20
M  V30 20 3 16 21
M  V30 21 2 18 22
M  V30 22 1 18 23
M  V30 23 1 19 24
M  V30 24 1 5 6
M  V30 25 1 10 15
M  V30 26 1 12 17
M  V30 END BOND
M  V30 BEGIN COLLECTION
M  V30 MDLV30/STEABS ATOMS=(1 7)
M  V30 END COLLECTION
M  V30 END CTAB
M  END
>  <Molecule ChEMBL ID>
CHEMBL380997

>  <Molecule Name>


>  <Molecule Max Phase>
None

>  <Molecular Weight>
347.41

>  <#RO5 Violations>
0

>  <AlogP>
4.26

>  <Compound Key>
19

>  <Smiles>
CCC[C@]1(CC(=O)O)OCCc2c1sc1c(C)cc(F)c(C#N)c21

>  <Standard Type>
IC50

>  <Standard Relation>
'>'

>  <Standard Value>
75000

>  <Standard Units>
nM

>  <pChEMBL Value>


>  <Data Validity Comment>


>  <Comment>


>  <Uo Units>
UO_0000065

>  <Ligand Efficiency BEI>


>  <Ligand Efficiency LE>


>  <Ligand Efficiency LLE>


>  <Ligand Efficiency SEI>


>  <Potential Duplicate>
0

>  <Assay ChEMBL ID>
CHEMBL854378

>  <Assay Description>
Inhibition of HCV NS3 helicase

>  <Assay Type>
B

>  <BAO Format ID>
BAO_0000357

>  <BAO Label>
single protein format

>  <Assay Organism>
Hepatitis C virus

>  <Assay Tissue ChEMBL ID>
None

>  <Assay Tissue Name>
None

>  <Assay Cell Type>
None

>  <Assay Subcellular Fraction>
None

>  <Assay Parameters>


>  <Assay Variant Accession>


>  <Assay Variant Mutation>


>  <Target ChEMBL ID>
CHEMBL1293269

>  <Target Name>
NS3

>  <Target Organism>
Hepatitis C virus

>  <Target Type>
SINGLE PROTEIN

>  <Document ChEMBL ID>
CHEMBL1148590

>  <Source ID>
1

>  <Source Description>
Scientific Literature

>  <Document Journal>
Bioorg Med Chem Lett

>  <Document Year>
2006

>  <Cell ChEMBL ID>
None

>  <Properties>


$$$$
CHEMBL201681
Actelion Java MolfileCreator 2.0

  0  0  0  0  0  0              0 V3000
M  V30 BEGIN CTAB
M  V30 COUNTS 23 25 0 0 0
M  V30 BEGIN ATOM
M  V30 1 Cl 1.7376 -4.1007 0.0 0
M  V30 2 C 0.7431 -3.9962 0.0 0
M  V30 3 C 0.3364 -3.0826 0.0 0
M  V30 4 C 0.1553 -4.8052 0.0 0
M  V30 5 S 0.7431 -2.1691 0.0 0
M  V30 6 C -0.6581 -2.9781 0.0 0
M  V30 7 C -0.8391 -4.7007 0.0 0
M  V30 8 C 0.0 -1.4999 0.0 0
M  V30 9 C -1.2458 -3.7871 0.0 0
M  V30 10 C -0.866 -1.9999 0.0 0
M  V30 11 C 0.0 -0.5 0.0 0 CFG=1
M  V30 12 Cl -2.2404 -3.6826 0.0 0
M  V30 13 C -1.732 -1.5 0.0 0
M  V30 14 O -0.866 0.0 0.0 0
M  V30 15 C 0.0 0.4999 0.0 0
M  V30 16 C 0.866 0.0 0.0 0
M  V30 17 C -1.732 -0.4999 0.0 0
M  V30 18 C 0.866 0.9999 0.0 0
M  V30 19 C 1.732 -0.5 0.0 0
M  V30 20 O 1.732 0.4999 0.0 0
M  V30 21 O 0.866 1.9999 0.0 0
M  V30 22 C 2.598 0.0 0.0 0
M  V30 23 C 3.4641 -0.5 0.0 0
M  V30 END ATOM
M  V30 BEGIN BOND
M  V30 1 1 1 2
M  V30 2 2 2 3
M  V30 3 1 2 4
M  V30 4 1 3 5
M  V30 5 1 3 6
M  V30 6 2 4 7
M  V30 7 1 5 8
M  V30 8 2 6 9
M  V30 9 1 6 10
M  V30 10 1 11 8
M  V30 11 1 9 12
M  V30 12 1 10 13
M  V30 13 1 11 14
M  V30 14 1 11 15 CFG=1
M  V30 15 1 11 16
M  V30 16 1 13 17
M  V30 17 1 15 18
M  V30 18 1 16 19
M  V30 19 2 18 20
M  V30 20 1 18 21
M  V30 21 1 19 22
M  V30 22 1 22 23
M  V30 23 1 7 9
M  V30 24 2 8 10
M  V30 25 1 14 17
M  V30 END BOND
M  V30 BEGIN COLLECTION
M  V30 MDLV30/STERAC1 ATOMS=(1 11)
M  V30 END COLLECTION
M  V30 END CTAB
M  END
>  <Molecule ChEMBL ID>
CHEMBL201681

>  <Molecule Name>


>  <Molecule Max Phase>
None

>  <Molecular Weight>
373.3

>  <#RO5 Violations>
1

>  <AlogP>
5.64

>  <Compound Key>
26

>  <Smiles>
CCCCC1(CC(=O)O)OCCc2c1sc1c(Cl)ccc(Cl)c21

>  <Standard Type>
IC50

>  <Standard Relation>
'='

>  <Standard Value>
750

>  <Standard Units>
nM

>  <pChEMBL Value>
6.12

>  <Data Validity Comment>


>  <Comment>


>  <Uo Units>
UO_0000065

>  <Ligand Efficiency BEI>
16.41

>  <Ligand Efficiency LE>
0.36

>  <Ligand Efficiency LLE>
0.48

>  <Ligand Efficiency SEI>
13.16

>  <Potential Duplicate>
0

>  <Assay ChEMBL ID>
CHEMBL864623

>  <Assay Description>
Displacement of [alpha-32P]GTP from recombinant HCV NS5B RNA dependent RNA polymerase

>  <Assay Type>
B

>  <BAO Format ID>
BAO_0000357

>  <BAO Label>
single protein format

>  <Assay Organism>
Hepatitis C virus

>  <Assay Tissue ChEMBL ID>
None

>  <Assay Tissue Name>
None

>  <Assay Cell Type>
None

>  <Assay Subcellular Fraction>
None

>  <Assay Parameters>


>  <Assay Variant Accession>


>  <Assay Variant Mutation>


>  <Target ChEMBL ID>
CHEMBL5375

>  <Target Name>
Hepatitis C virus NS5B RNA-dependent RNA polymerase

>  <Target Organism>
Hepatitis C virus

>  <Target Type>
SINGLE PROTEIN

>  <Document ChEMBL ID>
CHEMBL1148590

>  <Source ID>
1

>  <Source Description>
Scientific Literature

>  <Document Journal>
Bioorg Med Chem Lett

>  <Document Year>
2006

>  <Cell ChEMBL ID>
None

>  <Properties>


$$$$
CHEMBL200616
Actelion Java MolfileCreator 2.0

  0  0  0  0  0  0              0 V3000
M  V30 BEGIN CTAB
M  V30 COUNTS 22 24 0 0 0
M  V30 BEGIN ATOM
M  V30 1 Cl 1.7376 -4.1007 0.0 0
M  V30 2 C 0.7431 -3.9962 0.0 0
M  V30 3 C 0.3364 -3.0826 0.0 0
M  V30 4 C 0.1553 -4.8052 0.0 0
M  V30 5 O 0.7431 -2.1691 0.0 0
M  V30 6 C -0.6581 -2.9781 0.0 0
M  V30 7 C -0.8391 -4.7007 0.0 0
M  V30 8 C 0.0 -1.4999 0.0 0
M  V30 9 C -1.2458 -3.7871 0.0 0
M  V30 10 C -0.866 -1.9999 0.0 0
M  V30 11 C 0.0 -0.5 0.0 0 CFG=1
M  V30 12 Cl -2.2404 -3.6826 0.0 0
M  V30 13 C -1.732 -1.5 0.0 0
M  V30 14 O -0.866 0.0 0.0 0
M  V30 15 C 0.866 0.0 0.0 0
M  V30 16 C 0.0 0.4999 0.0 0
M  V30 17 C -1.732 -0.4999 0.0 0
M  V30 18 C 1.732 -0.5 0.0 0
M  V30 19 C 0.866 0.9999 0.0 0
M  V30 20 O 2.598 0.0 0.0 0
M  V30 21 O 1.732 -1.5 0.0 0
M  V30 22 C 0.866 1.9999 0.0 0
M  V30 END ATOM
M  V30 BEGIN BOND
M  V30 1 1 1 2
M  V30 2 2 2 3
M  V30 3 1 2 4
M  V30 4 1 3 5
M  V30 5 1 3 6
M  V30 6 2 4 7
M  V30 7 1 5 8
M  V30 8 2 6 9
M  V30 9 1 6 10
M  V30 10 1 11 8
M  V30 11 1 9 12
M  V30 12 1 10 13
M  V30 13 1 11 14
M  V30 14 1 11 15
M  V30 15 1 11 16 CFG=3
M  V30 16 1 13 17
M  V30 17 1 15 18
M  V30 18 1 16 19
M  V30 19 2 18 20
M  V30 20 1 18 21
M  V30 21 1 19 22
M  V30 22 1 7 9
M  V30 23 2 8 10
M  V30 24 1 14 17
M  V30 END BOND
M  V30 BEGIN COLLECTION
M  V30 MDLV30/STERAC1 ATOMS=(1 11)
M  V30 END COLLECTION
M  V30 END CTAB
M  END
>  <Molecule ChEMBL ID>
CHEMBL200616

>  <Molecule Name>


>  <Molecule Max Phase>
None

>  <Molecular Weight>
343.21

>  <#RO5 Violations>
0

>  <AlogP>
4.78

>  <Compound Key>
22

>  <Smiles>
CCCC1(CC(=O)O)OCCc2c1oc1c(Cl)ccc(Cl)c21

>  <Standard Type>
IC50

>  <Standard Relation>
'='

>  <Standard Value>
1490

>  <Standard Units>
nM

>  <pChEMBL Value>
5.83

>  <Data Validity Comment>


>  <Comment>


>  <Uo Units>
UO_0000065

>  <Ligand Efficiency BEI>
16.98

>  <Ligand Efficiency LE>
0.36

>  <Ligand Efficiency LLE>
1.05

>  <Ligand Efficiency SEI>
9.77

>  <Potential Duplicate>
0

>  <Assay ChEMBL ID>
CHEMBL864623

>  <Assay Description>
Displacement of [alpha-32P]GTP from recombinant HCV NS5B RNA dependent RNA polymerase

>  <Assay Type>
B

>  <BAO Format ID>
BAO_0000357

>  <BAO Label>
single protein format

>  <Assay Organism>
Hepatitis C virus

>  <Assay Tissue ChEMBL ID>
None

>  <Assay Tissue Name>
None

>  <Assay Cell Type>
None

>  <Assay Subcellular Fraction>
None

>  <Assay Parameters>


>  <Assay Variant Accession>


>  <Assay Variant Mutation>


>  <Target ChEMBL ID>
CHEMBL5375

>  <Target Name>
Hepatitis C virus NS5B RNA-dependent RNA polymerase

>  <Target Organism>
Hepatitis C virus

>  <Target Type>
SINGLE PROTEIN

>  <Document ChEMBL ID>
CHEMBL1148590

>  <Source ID>
1

>  <Source Description>
Scientific Literature

>  <Document Journal>
Bioorg Med Chem Lett

>  <Document Year>
2006

>  <Cell ChEMBL ID>
None

>  <Properties>


$$$$
CHEMBL201475
Actelion Java MolfileCreator 2.0

  0  0  0  0  0  0              0 V3000
M  V30 BEGIN CTAB
M  V30 COUNTS 23 25 0 0 0
M  V30 BEGIN ATOM
M  V30 1 S -1.0739 0.9781 0.0 0
M  V30 2 C -2.0684 1.0826 0.0 0
M  V30 3 C -0.866 0.0 0.0 0
M  V30 4 C -2.6562 1.8916 0.0 0
M  V30 5 C -2.4751 0.1691 0.0 0
M  V30 6 C -1.732 -0.4999 0.0 0
M  V30 7 C 0.0 -0.5 0.0 0 CFG=1
M  V30 8 C -3.6507 1.7871 0.0 0
M  V30 9 C -2.2495 2.8052 0.0 0
M  V30 10 C -3.4697 0.0646 0.0 0
M  V30 11 C -1.732 -1.4999 0.0 0
M  V30 12 O 0.0 -1.5 0.0 0
M  V30 13 C 0.866 0.0 0.0 0
M  V30 14 C 0.866 -1.0 0.0 0
M  V30 15 C -4.0575 0.8736 0.0 0
M  V30 16 C -3.8764 -0.8489 0.0 0
M  V30 17 C -0.866 -1.9999 0.0 0
M  V30 18 C 1.732 -0.5 0.0 0
M  V30 19 C 0.866 -2.0 0.0 0
M  V30 20 N -4.2831 -1.7624 0.0 0
M  V30 21 O 2.598 0.0 0.0 0
M  V30 22 O 1.732 -1.5 0.0 0
M  V30 23 C 1.732 -2.5 0.0 0
M  V30 END ATOM
M  V30 BEGIN BOND
M  V30 1 1 1 2
M  V30 2 1 1 3
M  V30 3 2 2 4
M  V30 4 1 2 5
M  V30 5 2 3 6
M  V30 6 1 7 3
M  V30 7 1 4 8
M  V30 8 1 4 9
M  V30 9 2 5 10
M  V30 10 1 6 11
M  V30 11 1 7 12
M  V30 12 1 7 13
M  V30 13 1 7 14 CFG=1
M  V30 14 2 8 15
M  V30 15 1 10 16
M  V30 16 1 11 17
M  V30 17 1 13 18
M  V30 18 1 14 19
M  V30 19 3 16 20
M  V30 20 2 18 21
M  V30 21 1 18 22
M  V30 22 1 19 23
M  V30 23 1 5 6
M  V30 24 1 10 15
M  V30 25 1 12 17
M  V30 END BOND
M  V30 BEGIN COLLECTION
M  V30 MDLV30/STERAC1 ATOMS=(1 7)
M  V30 END COLLECTION
M  V30 END CTAB
M  END
>  <Molecule ChEMBL ID>
CHEMBL201475

>  <Molecule Name>


>  <Molecule Max Phase>
None

>  <Molecular Weight>
329.42

>  <#RO5 Violations>
0

>  <AlogP>
4.12

>  <Compound Key>
30

>  <Smiles>
CCCC1(CC(=O)O)OCCc2c1sc1c(C)ccc(C#N)c21

>  <Standard Type>
IC50

>  <Standard Relation>
'='

>  <Standard Value>
320

>  <Standard Units>
nM

>  <pChEMBL Value>
6.5

>  <Data Validity Comment>


>  <Comment>


>  <Uo Units>
UO_0000065

>  <Ligand Efficiency BEI>
19.72

>  <Ligand Efficiency LE>
0.39

>  <Ligand Efficiency LLE>
2.37

>  <Ligand Efficiency SEI>
9.24

>  <Potential Duplicate>
0

>  <Assay ChEMBL ID>
CHEMBL864623

>  <Assay Description>
Displacement of [alpha-32P]GTP from recombinant HCV NS5B RNA dependent RNA polymerase

>  <Assay Type>
B

>  <BAO Format ID>
BAO_0000357

>  <BAO Label>
single protein format

>  <Assay Organism>
Hepatitis C virus

>  <Assay Tissue ChEMBL ID>
None

>  <Assay Tissue Name>
None

>  <Assay Cell Type>
None

>  <Assay Subcellular Fraction>
None

>  <Assay Parameters>


>  <Assay Variant Accession>


>  <Assay Variant Mutation>


>  <Target ChEMBL ID>
CHEMBL5375

>  <Target Name>
Hepatitis C virus NS5B RNA-dependent RNA polymerase

>  <Target Organism>
Hepatitis C virus

>  <Target Type>
SINGLE PROTEIN

>  <Document ChEMBL ID>
CHEMBL1148590

>  <Source ID>
1

>  <Source Description>
Scientific Literature

>  <Document Journal>
Bioorg Med Chem Lett

>  <Document Year>
2006

>  <Cell ChEMBL ID>
None

>  <Properties>


$$$$
CHEMBL200356
Actelion Java MolfileCreator 2.0

  0  0  0  0  0  0              0 V3000
M  V30 BEGIN CTAB
M  V30 COUNTS 21 23 0 0 0
M  V30 BEGIN ATOM
M  V30 1 Cl 1.7376 -4.1007 0.0 0
M  V30 2 C 0.7431 -3.9962 0.0 0
M  V30 3 C 0.3364 -3.0826 0.0 0
M  V30 4 C 0.1553 -4.8052 0.0 0
M  V30 5 O 0.7431 -2.1691 0.0 0
M  V30 6 C -0.6581 -2.9781 0.0 0
M  V30 7 C -0.8391 -4.7007 0.0 0
M  V30 8 C 0.0 -1.4999 0.0 0
M  V30 9 C -1.2458 -3.7871 0.0 0
M  V30 10 C -0.866 -1.9999 0.0 0
M  V30 11 C 0.0 -0.5 0.0 0 CFG=1
M  V30 12 Cl -2.2404 -3.6826 0.0 0
M  V30 13 C -1.732 -1.5 0.0 0
M  V30 14 O -0.866 0.0 0.0 0
M  V30 15 C 0.866 0.0 0.0 0
M  V30 16 C 0.0 0.5 0.0 0
M  V30 17 C -1.732 -0.4999 0.0 0
M  V30 18 C 1.732 -0.5 0.0 0
M  V30 19 C -0.866 1.0 0.0 0
M  V30 20 O 2.598 0.0 0.0 0
M  V30 21 O 1.732 -1.5 0.0 0
M  V30 END ATOM
M  V30 BEGIN BOND
M  V30 1 1 1 2
M  V30 2 2 2 3
M  V30 3 1 2 4
M  V30 4 1 3 5
M  V30 5 1 3 6
M  V30 6 2 4 7
M  V30 7 1 5 8
M  V30 8 2 6 9
M  V30 9 1 6 10
M  V30 10 1 11 8
M  V30 11 1 9 12
M  V30 12 1 10 13
M  V30 13 1 11 14
M  V30 14 1 11 15
M  V30 15 1 11 16 CFG=3
M  V30 16 1 13 17
M  V30 17 1 15 18
M  V30 18 1 16 19
M  V30 19 2 18 20
M  V30 20 1 18 21
M  V30 21 1 7 9
M  V30 22 2 8 10
M  V30 23 1 14 17
M  V30 END BOND
M  V30 BEGIN COLLECTION
M  V30 MDLV30/STERAC1 ATOMS=(1 11)
M  V30 END COLLECTION
M  V30 END CTAB
M  END
>  <Molecule ChEMBL ID>
CHEMBL200356

>  <Molecule Name>


>  <Molecule Max Phase>
None

>  <Molecular Weight>
329.18

>  <#RO5 Violations>
0

>  <AlogP>
4.39

>  <Compound Key>
36

>  <Smiles>
CCC1(CC(=O)O)OCCc2c1oc1c(Cl)ccc(Cl)c21

>  <Standard Type>
IC50

>  <Standard Relation>
'='

>  <Standard Value>
16300

>  <Standard Units>
nM

>  <pChEMBL Value>
4.79

>  <Data Validity Comment>


>  <Comment>


>  <Uo Units>
UO_0000065

>  <Ligand Efficiency BEI>
14.54

>  <Ligand Efficiency LE>
0.31

>  <Ligand Efficiency LLE>
0.4

>  <Ligand Efficiency SEI>
8.02

>  <Potential Duplicate>
0

>  <Assay ChEMBL ID>
CHEMBL864623

>  <Assay Description>
Displacement of [alpha-32P]GTP from recombinant HCV NS5B RNA dependent RNA polymerase

>  <Assay Type>
B

>  <BAO Format ID>
BAO_0000357

>  <BAO Label>
single protein format

>  <Assay Organism>
Hepatitis C virus

>  <Assay Tissue ChEMBL ID>
None

>  <Assay Tissue Name>
None

>  <Assay Cell Type>
None

>  <Assay Subcellular Fraction>
None

>  <Assay Parameters>


>  <Assay Variant Accession>


>  <Assay Variant Mutation>


>  <Target ChEMBL ID>
CHEMBL5375

>  <Target Name>
Hepatitis C virus NS5B RNA-dependent RNA polymerase

>  <Target Organism>
Hepatitis C virus

>  <Target Type>
SINGLE PROTEIN

>  <Document ChEMBL ID>
CHEMBL1148590

>  <Source ID>
1

>  <Source Description>
Scientific Literature

>  <Document Journal>
Bioorg Med Chem Lett

>  <Document Year>
2006

>  <Cell ChEMBL ID>
None

>  <Properties>


$$$$
CHEMBL198349
Actelion Java MolfileCreator 2.0

  0  0  0  0  0  0              0 V3000
M  V30 BEGIN CTAB
M  V30 COUNTS 22 24 0 0 0
M  V30 BEGIN ATOM
M  V30 1 Cl 1.7376 -4.1007 0.0 0
M  V30 2 C 0.7431 -3.9962 0.0 0
M  V30 3 C 0.3364 -3.0826 0.0 0
M  V30 4 C 0.1553 -4.8052 0.0 0
M  V30 5 S 0.7431 -2.1691 0.0 0
M  V30 6 C -0.6581 -2.9781 0.0 0
M  V30 7 C -0.8391 -4.7007 0.0 0
M  V30 8 C 0.0 -1.4999 0.0 0
M  V30 9 C -1.2458 -3.7871 0.0 0
M  V30 10 C -0.866 -1.9999 0.0 0
M  V30 11 C 0.0 -0.5 0.0 0 CFG=1
M  V30 12 Cl -2.2404 -3.6826 0.0 0
M  V30 13 C -1.732 -1.5 0.0 0
M  V30 14 O -0.866 0.0 0.0 0
M  V30 15 C 0.866 0.0 0.0 0
M  V30 16 C 0.0 0.4999 0.0 0
M  V30 17 C -1.732 -0.4999 0.0 0
M  V30 18 C 1.732 -0.5 0.0 0
M  V30 19 C 0.866 0.9999 0.0 0
M  V30 20 O 2.598 0.0 0.0 0
M  V30 21 O 1.732 -1.5 0.0 0
M  V30 22 C 0.866 1.9999 0.0 0
M  V30 END ATOM
M  V30 BEGIN BOND
M  V30 1 1 1 2
M  V30 2 2 2 3
M  V30 3 1 2 4
M  V30 4 1 3 5
M  V30 5 1 3 6
M  V30 6 2 4 7
M  V30 7 1 5 8
M  V30 8 2 6 9
M  V30 9 1 6 10
M  V30 10 1 11 8
M  V30 11 1 9 12
M  V30 12 1 10 13
M  V30 13 1 11 14
M  V30 14 1 11 15
M  V30 15 1 11 16 CFG=3
M  V30 16 1 13 17
M  V30 17 1 15 18
M  V30 18 1 16 19
M  V30 19 2 18 20
M  V30 20 1 18 21
M  V30 21 1 19 22
M  V30 22 1 7 9
M  V30 23 2 8 10
M  V30 24 1 14 17
M  V30 END BOND
M  V30 BEGIN COLLECTION
M  V30 MDLV30/STERAC1 ATOMS=(1 11)
M  V30 END COLLECTION
M  V30 END CTAB
M  END
>  <Molecule ChEMBL ID>
CHEMBL198349

>  <Molecule Name>


>  <Molecule Max Phase>
None

>  <Molecular Weight>
359.27

>  <#RO5 Violations>
1

>  <AlogP>
5.25

>  <Compound Key>
25

>  <Smiles>
CCCC1(CC(=O)O)OCCc2c1sc1c(Cl)ccc(Cl)c21

>  <Standard Type>
IC50

>  <Standard Relation>
'='

>  <Standard Value>
140

>  <Standard Units>
nM

>  <pChEMBL Value>
6.85

>  <Data Validity Comment>


>  <Comment>


>  <Uo Units>
UO_0000065

>  <Ligand Efficiency BEI>
19.08

>  <Ligand Efficiency LE>
0.43

>  <Ligand Efficiency LLE>
1.6

>  <Ligand Efficiency SEI>
14.73

>  <Potential Duplicate>
0

>  <Assay ChEMBL ID>
CHEMBL864623

>  <Assay Description>
Displacement of [alpha-32P]GTP from recombinant HCV NS5B RNA dependent RNA polymerase

>  <Assay Type>
B

>  <BAO Format ID>
BAO_0000357

>  <BAO Label>
single protein format

>  <Assay Organism>
Hepatitis C virus

>  <Assay Tissue ChEMBL ID>
None

>  <Assay Tissue Name>
None

>  <Assay Cell Type>
None

>  <Assay Subcellular Fraction>
None

>  <Assay Parameters>


>  <Assay Variant Accession>


>  <Assay Variant Mutation>


>  <Target ChEMBL ID>
CHEMBL5375

>  <Target Name>
Hepatitis C virus NS5B RNA-dependent RNA polymerase

>  <Target Organism>
Hepatitis C virus

>  <Target Type>
SINGLE PROTEIN

>  <Document ChEMBL ID>
CHEMBL1148590

>  <Source ID>
1

>  <Source Description>
Scientific Literature

>  <Document Journal>
Bioorg Med Chem Lett

>  <Document Year>
2006

>  <Cell ChEMBL ID>
None

>  <Properties>


$$$$
CHEMBL200178
Actelion Java MolfileCreator 2.0

  0  0  0  0  0  0              0 V3000
M  V30 BEGIN CTAB
M  V30 COUNTS 20 22 0 0 0
M  V30 BEGIN ATOM
M  V30 1 S -1.6109 1.4672 0.0 0
M  V30 2 C -3.1026 1.624 0.0 0
M  V30 3 C -1.299 0.0 0.0 0
M  V30 4 C -3.7127 0.2536 0.0 0
M  V30 5 C -3.9843 2.8375 0.0 0
M  V30 6 C -2.598 -0.7499 0.0 0
M  V30 7 C 0.0 -0.75 0.0 0 CFG=1
M  V30 8 C -5.2045 0.0969 0.0 0
M  V30 9 C -5.4761 2.6807 0.0 0
M  V30 10 C -2.598 -2.2499 0.0 0
M  V30 11 O 0.0 -2.25 0.0 0
M  V30 12 C 1.299 0.0 0.0 0
M  V30 13 C 1.299 -1.5 0.0 0
M  V30 14 C -6.0862 1.3104 0.0 0
M  V30 15 C -1.299 -2.9999 0.0 0
M  V30 16 C 2.598 -0.75 0.0 0
M  V30 17 C 1.299 -3.0 0.0 0
M  V30 18 O 3.8971 0.0 0.0 0
M  V30 19 O 2.598 -2.25 0.0 0
M  V30 20 C 2.598 -3.75 0.0 0
M  V30 END ATOM
M  V30 BEGIN BOND
M  V30 1 1 1 2
M  V30 2 1 1 3
M  V30 3 2 2 4
M  V30 4 1 2 5
M  V30 5 2 3 6
M  V30 6 1 7 3
M  V30 7 1 4 8
M  V30 8 2 5 9
M  V30 9 1 6 10
M  V30 10 1 7 11
M  V30 11 1 7 12
M  V30 12 1 7 13 CFG=1
M  V30 13 2 8 14
M  V30 14 1 10 15
M  V30 15 1 12 16
M  V30 16 1 13 17
M  V30 17 2 16 18
M  V30 18 1 16 19
M  V30 19 1 17 20
M  V30 20 1 4 6
M  V30 21 1 9 14
M  V30 22 1 11 15
M  V30 END BOND
M  V30 BEGIN COLLECTION
M  V30 MDLV30/STERAC1 ATOMS=(1 7)
M  V30 END COLLECTION
M  V30 END CTAB
M  END
>  <Molecule ChEMBL ID>
CHEMBL200178

>  <Molecule Name>


>  <Molecule Max Phase>
None

>  <Molecular Weight>
290.38

>  <#RO5 Violations>
0

>  <AlogP>
3.94

>  <Compound Key>
27

>  <Smiles>
CCCC1(CC(=O)O)OCCc2c1sc1ccccc21

>  <Standard Type>
IC50

>  <Standard Relation>
'>'

>  <Standard Value>
20000

>  <Standard Units>
nM

>  <pChEMBL Value>


>  <Data Validity Comment>


>  <Comment>


>  <Uo Units>
UO_0000065

>  <Ligand Efficiency BEI>


>  <Ligand Efficiency LE>


>  <Ligand Efficiency LLE>


>  <Ligand Efficiency SEI>


>  <Potential Duplicate>
0

>  <Assay ChEMBL ID>
CHEMBL864623

>  <Assay Description>
Displacement of [alpha-32P]GTP from recombinant HCV NS5B RNA dependent RNA polymerase

>  <Assay Type>
B

>  <BAO Format ID>
BAO_0000357

>  <BAO Label>
single protein format

>  <Assay Organism>
Hepatitis C virus

>  <Assay Tissue ChEMBL ID>
None

>  <Assay Tissue Name>
None

>  <Assay Cell Type>
None

>  <Assay Subcellular Fraction>
None

>  <Assay Parameters>


>  <Assay Variant Accession>


>  <Assay Variant Mutation>


>  <Target ChEMBL ID>
CHEMBL5375

>  <Target Name>
Hepatitis C virus NS5B RNA-dependent RNA polymerase

>  <Target Organism>
Hepatitis C virus

>  <Target Type>
SINGLE PROTEIN

>  <Document ChEMBL ID>
CHEMBL1148590

>  <Source ID>
1

>  <Source Description>
Scientific Literature

>  <Document Journal>
Bioorg Med Chem Lett

>  <Document Year>
2006

>  <Cell ChEMBL ID>
None

>  <Properties>


$$$$
CHEMBL380997
Actelion Java MolfileCreator 2.0

  0  0  0  0  0  0              0 V3000
M  V30 BEGIN CTAB
M  V30 COUNTS 24 26 0 0 0
M  V30 BEGIN ATOM
M  V30 1 S -1.0739 0.9781 0.0 0
M  V30 2 C -2.0684 1.0826 0.0 0
M  V30 3 C -0.866 0.0 0.0 0
M  V30 4 C -2.6562 1.8916 0.0 0
M  V30 5 C -2.4751 0.1691 0.0 0
M  V30 6 C -1.732 -0.4999 0.0 0
M  V30 7 C 0.0 -0.5 0.0 0 CFG=2
M  V30 8 C -3.6507 1.7871 0.0 0
M  V30 9 C -2.2495 2.8052 0.0 0
M  V30 10 C -3.4697 0.0646 0.0 0
M  V30 11 C -1.732 -1.4999 0.0 0
M  V30 12 O 0.0 -1.5 0.0 0
M  V30 13 C 0.866 0.0 0.0 0
M  V30 14 C 0.866 -1.0 0.0 0
M  V30 15 C -4.0575 0.8736 0.0 0
M  V30 16 C -3.8764 -0.8489 0.0 0
M  V30 17 C -0.866 -1.9999 0.0 0
M  V30 18 C 1.732 -0.5 0.0 0
M  V30 19 C 0.866 -2.0 0.0 0
M  V30 20 F -5.052 0.769 0.0 0
M  V30 21 N -4.2831 -1.7624 0.0 0
M  V30 22 O 2.598 0.0 0.0 0
M  V30 23 O 1.732 -1.5 0.0 0
M  V30 24 C 1.732 -2.5 0.0 0
M  V30 END ATOM
M  V30 BEGIN BOND
M  V30 1 1 1 2
M  V30 2 1 1 3
M  V30 3 2 2 4
M  V30 4 1 2 5
M  V30 5 2 3 6
M  V30 6 1 7 3
M  V30 7 1 4 8
M  V30 8 1 4 9
M  V30 9 2 5 10
M  V30 10 1 6 11
M  V30 11 1 7 12
M  V30 12 1 7 13
M  V30 13 1 7 14 CFG=3
M  V30 14 2 8 15
M  V30 15 1 10 16
M  V30 16 1 11 17
M  V30 17 1 13 18
M  V30 18 1 14 19
M  V30 19 1 15 20
M  V30 20 3 16 21
M  V30 21 2 18 22
M  V30 22 1 18 23
M  V30 23 1 19 24
M  V30 24 1 5 6
M  V30 25 1 10 15
M  V30 26 1 12 17
M  V30 END BOND
M  V30 BEGIN COLLECTION
M  V30 MDLV30/STEABS ATOMS=(1 7)
M  V30 END COLLECTION
M  V30 END CTAB
M  END
>  <Molecule ChEMBL ID>
CHEMBL380997

>  <Molecule Name>


>  <Molecule Max Phase>
None

>  <Molecular Weight>
347.41

>  <#RO5 Violations>
0

>  <AlogP>
4.26

>  <Compound Key>
19

>  <Smiles>
CCC[C@]1(CC(=O)O)OCCc2c1sc1c(C)cc(F)c(C#N)c21

>  <Standard Type>
IC50

>  <Standard Relation>
'='

>  <Standard Value>
50

>  <Standard Units>
nM

>  <pChEMBL Value>
7.3

>  <Data Validity Comment>


>  <Comment>


>  <Uo Units>
UO_0000065

>  <Ligand Efficiency BEI>
21.02

>  <Ligand Efficiency LE>
0.42

>  <Ligand Efficiency LLE>
3.04

>  <Ligand Efficiency SEI>
10.38

>  <Potential Duplicate>
0

>  <Assay ChEMBL ID>
CHEMBL864623

>  <Assay Description>
Displacement of [alpha-32P]GTP from recombinant HCV NS5B RNA dependent RNA polymerase

>  <Assay Type>
B

>  <BAO Format ID>
BAO_0000357

>  <BAO Label>
single protein format

>  <Assay Organism>
Hepatitis C virus

>  <Assay Tissue ChEMBL ID>
None

>  <Assay Tissue Name>
None

>  <Assay Cell Type>
None

>  <Assay Subcellular Fraction>
None

>  <Assay Parameters>


>  <Assay Variant Accession>


>  <Assay Variant Mutation>


>  <Target ChEMBL ID>
CHEMBL5375

>  <Target Name>
Hepatitis C virus NS5B RNA-dependent RNA polymerase

>  <Target Organism>
Hepatitis C virus

>  <Target Type>
SINGLE PROTEIN

>  <Document ChEMBL ID>
CHEMBL1148590

>  <Source ID>
1

>  <Source Description>
Scientific Literature

>  <Document Journal>
Bioorg Med Chem Lett

>  <Document Year>
2006

>  <Cell ChEMBL ID>
None

>  <Properties>


$$$$
CHEMBL373183
Actelion Java MolfileCreator 2.0

  0  0  0  0  0  0              0 V3000
M  V30 BEGIN CTAB
M  V30 COUNTS 23 25 0 0 0
M  V30 BEGIN ATOM
M  V30 1 Cl 1.7376 -4.1007 0.0 0
M  V30 2 C 0.7431 -3.9962 0.0 0
M  V30 3 C 0.3364 -3.0826 0.0 0
M  V30 4 C 0.1553 -4.8052 0.0 0
M  V30 5 O 0.7431 -2.1691 0.0 0
M  V30 6 C -0.6581 -2.9781 0.0 0
M  V30 7 C -0.8391 -4.7007 0.0 0
M  V30 8 C 0.0 -1.4999 0.0 0
M  V30 9 C -1.2458 -3.7871 0.0 0
M  V30 10 C -0.866 -1.9999 0.0 0
M  V30 11 C 0.0 -0.5 0.0 0 CFG=1
M  V30 12 Cl -2.2404 -3.6826 0.0 0
M  V30 13 C -1.732 -1.5 0.0 0
M  V30 14 O -0.866 0.0 0.0 0
M  V30 15 C 0.0 0.4999 0.0 0
M  V30 16 C 0.866 0.0 0.0 0
M  V30 17 C -1.732 -0.4999 0.0 0
M  V30 18 C 0.866 0.9999 0.0 0
M  V30 19 C 1.732 -0.5 0.0 0
M  V30 20 O 1.732 0.4999 0.0 0
M  V30 21 O 0.866 1.9999 0.0 0
M  V30 22 C 2.598 0.0 0.0 0
M  V30 23 C 3.4641 -0.5 0.0 0
M  V30 END ATOM
M  V30 BEGIN BOND
M  V30 1 1 1 2
M  V30 2 2 2 3
M  V30 3 1 2 4
M  V30 4 1 3 5
M  V30 5 1 3 6
M  V30 6 2 4 7
M  V30 7 1 5 8
M  V30 8 2 6 9
M  V30 9 1 6 10
M  V30 10 1 11 8
M  V30 11 1 9 12
M  V30 12 1 10 13
M  V30 13 1 11 14
M  V30 14 1 11 15 CFG=1
M  V30 15 1 11 16
M  V30 16 1 13 17
M  V30 17 1 15 18
M  V30 18 1 16 19
M  V30 19 2 18 20
M  V30 20 1 18 21
M  V30 21 1 19 22
M  V30 22 1 22 23
M  V30 23 1 7 9
M  V30 24 2 8 10
M  V30 25 1 14 17
M  V30 END BOND
M  V30 BEGIN COLLECTION
M  V30 MDLV30/STERAC1 ATOMS=(1 11)
M  V30 END COLLECTION
M  V30 END CTAB
M  END
>  <Molecule ChEMBL ID>
CHEMBL373183

>  <Molecule Name>


>  <Molecule Max Phase>
None

>  <Molecular Weight>
357.23

>  <#RO5 Violations>
1

>  <AlogP>
5.17

>  <Compound Key>
37

>  <Smiles>
CCCCC1(CC(=O)O)OCCc2c1oc1c(Cl)ccc(Cl)c21

>  <Standard Type>
IC50

>  <Standard Relation>
'='

>  <Standard Value>
4460

>  <Standard Units>
nM

>  <pChEMBL Value>
5.35

>  <Data Validity Comment>


>  <Comment>


>  <Uo Units>
UO_0000065

>  <Ligand Efficiency BEI>
14.98

>  <Ligand Efficiency LE>
0.32

>  <Ligand Efficiency LLE>
0.18

>  <Ligand Efficiency SEI>
8.97

>  <Potential Duplicate>
0

>  <Assay ChEMBL ID>
CHEMBL864623

>  <Assay Description>
Displacement of [alpha-32P]GTP from recombinant HCV NS5B RNA dependent RNA polymerase

>  <Assay Type>
B

>  <BAO Format ID>
BAO_0000357

>  <BAO Label>
single protein format

>  <Assay Organism>
Hepatitis C virus

>  <Assay Tissue ChEMBL ID>
None

>  <Assay Tissue Name>
None

>  <Assay Cell Type>
None

>  <Assay Subcellular Fraction>
None

>  <Assay Parameters>


>  <Assay Variant Accession>


>  <Assay Variant Mutation>


>  <Target ChEMBL ID>
CHEMBL5375

>  <Target Name>
Hepatitis C virus NS5B RNA-dependent RNA polymerase

>  <Target Organism>
Hepatitis C virus

>  <Target Type>
SINGLE PROTEIN

>  <Document ChEMBL ID>
CHEMBL1148590

>  <Source ID>
1

>  <Source Description>
Scientific Literature

>  <Document Journal>
Bioorg Med Chem Lett

>  <Document Year>
2006

>  <Cell ChEMBL ID>
None

>  <Properties>


$$$$
CHEMBL201313
Actelion Java MolfileCreator 2.0

  0  0  0  0  0  0              0 V3000
M  V30 BEGIN CTAB
M  V30 COUNTS 22 24 0 0 0
M  V30 BEGIN ATOM
M  V30 1 Br -3.3606 -5.5239 0.0 0
M  V30 2 C -1.8688 -5.6807 0.0 0
M  V30 3 C -0.9871 -4.4672 0.0 0
M  V30 4 C -1.2587 -7.051 0.0 0
M  V30 5 C 0.5046 -4.624 0.0 0
M  V30 6 C -1.299 -3.0 0.0 0
M  V30 7 C 0.233 -7.2078 0.0 0
M  V30 8 S 1.1147 -3.2536 0.0 0
M  V30 9 C 1.1147 -5.9943 0.0 0
M  V30 10 C 0.0 -2.25 0.0 0
M  V30 11 C -2.598 -2.2499 0.0 0
M  V30 12 C 2.6065 -6.1511 0.0 0
M  V30 13 C 0.0 -0.75 0.0 0 CFG=1
M  V30 14 C -2.598 -0.7499 0.0 0
M  V30 15 O -1.299 0.0 0.0 0
M  V30 16 C 1.299 0.0 0.0 0
M  V30 17 C 1.299 -1.5 0.0 0
M  V30 18 C 1.299 1.5 0.0 0
M  V30 19 C 2.598 -0.75 0.0 0
M  V30 20 O 2.598 2.25 0.0 0
M  V30 21 O 0.0 2.25 0.0 0
M  V30 22 C 3.8971 -1.5 0.0 0
M  V30 END ATOM
M  V30 BEGIN BOND
M  V30 1 1 1 2
M  V30 2 2 2 3
M  V30 3 1 2 4
M  V30 4 1 3 5
M  V30 5 1 3 6
M  V30 6 2 4 7
M  V30 7 1 5 8
M  V30 8 2 5 9
M  V30 9 2 6 10
M  V30 10 1 6 11
M  V30 11 1 9 12
M  V30 12 1 13 10
M  V30 13 1 11 14
M  V30 14 1 13 15
M  V30 15 1 13 16
M  V30 16 1 13 17 CFG=3
M  V30 17 1 16 18
M  V30 18 1 17 19
M  V30 19 2 18 20
M  V30 20 1 18 21
M  V30 21 1 19 22
M  V30 22 1 7 9
M  V30 23 1 8 10
M  V30 24 1 14 15
M  V30 END BOND
M  V30 BEGIN COLLECTION
M  V30 MDLV30/STERAC1 ATOMS=(1 13)
M  V30 END COLLECTION
M  V30 END CTAB
M  END
>  <Molecule ChEMBL ID>
CHEMBL201313

>  <Molecule Name>


>  <Molecule Max Phase>
None

>  <Molecular Weight>
383.31

>  <#RO5 Violations>
1

>  <AlogP>
5.02

>  <Compound Key>
29

>  <Smiles>
CCCC1(CC(=O)O)OCCc2c1sc1c(C)ccc(Br)c21

>  <Standard Type>
IC50

>  <Standard Relation>
'='

>  <Standard Value>
190

>  <Standard Units>
nM

>  <pChEMBL Value>
6.72

>  <Data Validity Comment>


>  <Comment>


>  <Uo Units>
UO_0000065

>  <Ligand Efficiency BEI>
17.53

>  <Ligand Efficiency LE>
0.42

>  <Ligand Efficiency LLE>
1.7

>  <Ligand Efficiency SEI>
14.44

>  <Potential Duplicate>
0

>  <Assay ChEMBL ID>
CHEMBL864623

>  <Assay Description>
Displacement of [alpha-32P]GTP from recombinant HCV NS5B RNA dependent RNA polymerase

>  <Assay Type>
B

>  <BAO Format ID>
BAO_0000357

>  <BAO Label>
single protein format

>  <Assay Organism>
Hepatitis C virus

>  <Assay Tissue ChEMBL ID>
None

>  <Assay Tissue Name>
None

>  <Assay Cell Type>
None

>  <Assay Subcellular Fraction>
None

>  <Assay Parameters>


>  <Assay Variant Accession>


>  <Assay Variant Mutation>


>  <Target ChEMBL ID>
CHEMBL5375

>  <Target Name>
Hepatitis C virus NS5B RNA-dependent RNA polymerase

>  <Target Organism>
Hepatitis C virus

>  <Target Type>
SINGLE PROTEIN

>  <Document ChEMBL ID>
CHEMBL1148590

>  <Source ID>
1

>  <Source Description>
Scientific Literature

>  <Document Journal>
Bioorg Med Chem Lett

>  <Document Year>
2006

>  <Cell ChEMBL ID>
None

>  <Properties>


$$$$
CHEMBL200963
Actelion Java MolfileCreator 2.0

  0  0  0  0  0  0              0 V3000
M  V30 BEGIN CTAB
M  V30 COUNTS 20 22 0 0 0
M  V30 BEGIN ATOM
M  V30 1 Cl 1.7376 -4.1007 0.0 0
M  V30 2 C 0.7431 -3.9962 0.0 0
M  V30 3 C 0.3364 -3.0826 0.0 0
M  V30 4 C 0.1553 -4.8052 0.0 0
M  V30 5 S 0.7431 -2.1691 0.0 0
M  V30 6 C -0.6581 -2.9781 0.0 0
M  V30 7 C -0.8391 -4.7007 0.0 0
M  V30 8 C 0.0 -1.4999 0.0 0
M  V30 9 C -1.2458 -3.7871 0.0 0
M  V30 10 C -0.866 -1.9999 0.0 0
M  V30 11 C 0.0 -0.5 0.0 0 CFG=1
M  V30 12 Cl -2.2404 -3.6826 0.0 0
M  V30 13 C -1.732 -1.5 0.0 0
M  V30 14 O -0.866 0.0 0.0 0
M  V30 15 C 0.866 0.0 0.0 0
M  V30 16 C 0.0 0.5 0.0 0
M  V30 17 C -1.732 -0.4999 0.0 0
M  V30 18 C 1.732 -0.5 0.0 0
M  V30 19 O 2.598 0.0 0.0 0
M  V30 20 O 1.732 -1.5 0.0 0
M  V30 END ATOM
M  V30 BEGIN BOND
M  V30 1 1 1 2
M  V30 2 2 2 3
M  V30 3 1 2 4
M  V30 4 1 3 5
M  V30 5 1 3 6
M  V30 6 2 4 7
M  V30 7 1 5 8
M  V30 8 2 6 9
M  V30 9 1 6 10
M  V30 10 1 11 8
M  V30 11 1 9 12
M  V30 12 1 10 13
M  V30 13 1 11 14
M  V30 14 1 11 15
M  V30 15 1 11 16 CFG=3
M  V30 16 1 13 17
M  V30 17 1 15 18
M  V30 18 2 18 19
M  V30 19 1 18 20
M  V30 20 1 7 9
M  V30 21 2 8 10
M  V30 22 1 14 17
M  V30 END BOND
M  V30 BEGIN COLLECTION
M  V30 MDLV30/STERAC1 ATOMS=(1 11)
M  V30 END COLLECTION
M  V30 END CTAB
M  END
>  <Molecule ChEMBL ID>
CHEMBL200963

>  <Molecule Name>


>  <Molecule Max Phase>
None

>  <Molecular Weight>
331.22

>  <#RO5 Violations>
0

>  <AlogP>
4.47

>  <Compound Key>
23

>  <Smiles>
CC1(CC(=O)O)OCCc2c1sc1c(Cl)ccc(Cl)c21

>  <Standard Type>
IC50

>  <Standard Relation>
'='

>  <Standard Value>
17600

>  <Standard Units>
nM

>  <pChEMBL Value>
4.75

>  <Data Validity Comment>


>  <Comment>


>  <Uo Units>
UO_0000065

>  <Ligand Efficiency BEI>
14.35

>  <Ligand Efficiency LE>
0.32

>  <Ligand Efficiency LLE>
0.28

>  <Ligand Efficiency SEI>
10.22

>  <Potential Duplicate>
0

>  <Assay ChEMBL ID>
CHEMBL864623

>  <Assay Description>
Displacement of [alpha-32P]GTP from recombinant HCV NS5B RNA dependent RNA polymerase

>  <Assay Type>
B

>  <BAO Format ID>
BAO_0000357

>  <BAO Label>
single protein format

>  <Assay Organism>
Hepatitis C virus

>  <Assay Tissue ChEMBL ID>
None

>  <Assay Tissue Name>
None

>  <Assay Cell Type>
None

>  <Assay Subcellular Fraction>
None

>  <Assay Parameters>


>  <Assay Variant Accession>


>  <Assay Variant Mutation>


>  <Target ChEMBL ID>
CHEMBL5375

>  <Target Name>
Hepatitis C virus NS5B RNA-dependent RNA polymerase

>  <Target Organism>
Hepatitis C virus

>  <Target Type>
SINGLE PROTEIN

>  <Document ChEMBL ID>
CHEMBL1148590

>  <Source ID>
1

>  <Source Description>
Scientific Literature

>  <Document Journal>
Bioorg Med Chem Lett

>  <Document Year>
2006

>  <Cell ChEMBL ID>
None

>  <Properties>


$$$$
CHEMBL200405
Actelion Java MolfileCreator 2.0

  0  0  0  0  0  0              0 V3000
M  V30 BEGIN CTAB
M  V30 COUNTS 24 26 0 0 0
M  V30 BEGIN ATOM
M  V30 1 S -1.0739 0.9781 0.0 0
M  V30 2 C -2.0684 1.0826 0.0 0
M  V30 3 C -0.866 0.0 0.0 0
M  V30 4 C -2.6562 1.8916 0.0 0
M  V30 5 C -2.4751 0.1691 0.0 0
M  V30 6 C -1.732 -0.4999 0.0 0
M  V30 7 C 0.0 -0.5 0.0 0 CFG=1
M  V30 8 C -3.6507 1.7871 0.0 0
M  V30 9 C -2.2495 2.8052 0.0 0
M  V30 10 C -3.4697 0.0646 0.0 0
M  V30 11 C -1.732 -1.4999 0.0 0
M  V30 12 O 0.0 -1.5 0.0 0
M  V30 13 C 0.866 0.0 0.0 0
M  V30 14 C 0.866 -1.0 0.0 0
M  V30 15 C -4.0575 0.8736 0.0 0
M  V30 16 C -3.8764 -0.8489 0.0 0
M  V30 17 C -0.866 -1.9999 0.0 0
M  V30 18 C 1.732 -0.5 0.0 0
M  V30 19 C 0.866 -2.0 0.0 0
M  V30 20 F -5.052 0.769 0.0 0
M  V30 21 N -4.2831 -1.7624 0.0 0
M  V30 22 O 2.598 0.0 0.0 0
M  V30 23 O 1.732 -1.5 0.0 0
M  V30 24 C 1.732 -2.5 0.0 0
M  V30 END ATOM
M  V30 BEGIN BOND
M  V30 1 1 1 2
M  V30 2 1 1 3
M  V30 3 2 2 4
M  V30 4 1 2 5
M  V30 5 2 3 6
M  V30 6 1 7 3
M  V30 7 1 4 8
M  V30 8 1 4 9
M  V30 9 2 5 10
M  V30 10 1 6 11
M  V30 11 1 7 12
M  V30 12 1 7 13
M  V30 13 1 7 14 CFG=1
M  V30 14 2 8 15
M  V30 15 1 10 16
M  V30 16 1 11 17
M  V30 17 1 13 18
M  V30 18 1 14 19
M  V30 19 1 15 20
M  V30 20 3 16 21
M  V30 21 2 18 22
M  V30 22 1 18 23
M  V30 23 1 19 24
M  V30 24 1 5 6
M  V30 25 1 10 15
M  V30 26 1 12 17
M  V30 END BOND
M  V30 BEGIN COLLECTION
M  V30 MDLV30/STERAC1 ATOMS=(1 7)
M  V30 END COLLECTION
M  V30 END CTAB
M  END
>  <Molecule ChEMBL ID>
CHEMBL200405

>  <Molecule Name>


>  <Molecule Max Phase>
None

>  <Molecular Weight>
347.41

>  <#RO5 Violations>
0

>  <AlogP>
4.26

>  <Compound Key>
18

>  <Smiles>
CCCC1(CC(=O)O)OCCc2c1sc1c(C)cc(F)c(C#N)c21

>  <Standard Type>
IC50

>  <Standard Relation>
'='

>  <Standard Value>
130

>  <Standard Units>
nM

>  <pChEMBL Value>
6.89

>  <Data Validity Comment>


>  <Comment>


>  <Uo Units>
UO_0000065

>  <Ligand Efficiency BEI>
19.82

>  <Ligand Efficiency LE>
0.39

>  <Ligand Efficiency LLE>
2.63

>  <Ligand Efficiency SEI>
9.79

>  <Potential Duplicate>
0

>  <Assay ChEMBL ID>
CHEMBL864623

>  <Assay Description>
Displacement of [alpha-32P]GTP from recombinant HCV NS5B RNA dependent RNA polymerase

>  <Assay Type>
B

>  <BAO Format ID>
BAO_0000357

>  <BAO Label>
single protein format

>  <Assay Organism>
Hepatitis C virus

>  <Assay Tissue ChEMBL ID>
None

>  <Assay Tissue Name>
None

>  <Assay Cell Type>
None

>  <Assay Subcellular Fraction>
None

>  <Assay Parameters>


>  <Assay Variant Accession>


>  <Assay Variant Mutation>


>  <Target ChEMBL ID>
CHEMBL5375

>  <Target Name>
Hepatitis C virus NS5B RNA-dependent RNA polymerase

>  <Target Organism>
Hepatitis C virus

>  <Target Type>
SINGLE PROTEIN

>  <Document ChEMBL ID>
CHEMBL1148590

>  <Source ID>
1

>  <Source Description>
Scientific Literature

>  <Document Journal>
Bioorg Med Chem Lett

>  <Document Year>
2006

>  <Cell ChEMBL ID>
None

>  <Properties>


$$$$
CHEMBL370569
Actelion Java MolfileCreator 2.0

  0  0  0  0  0  0              0 V3000
M  V30 BEGIN CTAB
M  V30 COUNTS 20 22 0 0 0
M  V30 BEGIN ATOM
M  V30 1 O 3.8971 0.0 0.0 0
M  V30 2 C 2.598 -0.75 0.0 0
M  V30 3 O 2.598 -2.25 0.0 0
M  V30 4 C 1.299 0.0 0.0 0
M  V30 5 C 0.0 -0.75 0.0 0 CFG=2
M  V30 6 O 0.0 -2.25 0.0 0
M  V30 7 C -1.299 0.0 0.0 0
M  V30 8 C 1.299 -1.5 0.0 0
M  V30 9 C -1.299 -2.9999 0.0 0
M  V30 10 O -1.6109 1.4672 0.0 0
M  V30 11 C -2.598 -0.7499 0.0 0
M  V30 12 C 1.299 -3.0 0.0 0
M  V30 13 C -2.598 -2.2499 0.0 0
M  V30 14 C -3.1026 1.624 0.0 0
M  V30 15 C -3.7127 0.2536 0.0 0
M  V30 16 C 2.598 -3.75 0.0 0
M  V30 17 C -3.9843 2.8375 0.0 0
M  V30 18 C -5.2045 0.0969 0.0 0
M  V30 19 C -5.4761 2.6807 0.0 0
M  V30 20 C -6.0862 1.3104 0.0 0
M  V30 END ATOM
M  V30 BEGIN BOND
M  V30 1 2 1 2
M  V30 2 1 2 3
M  V30 3 1 2 4
M  V30 4 1 5 4
M  V30 5 1 5 6
M  V30 6 1 5 7
M  V30 7 1 5 8 CFG=1
M  V30 8 1 6 9
M  V30 9 1 7 10
M  V30 10 2 7 11
M  V30 11 1 8 12
M  V30 12 1 9 13
M  V30 13 1 10 14
M  V30 14 1 11 15
M  V30 15 1 12 16
M  V30 16 1 14 17
M  V30 17 1 15 18
M  V30 18 2 17 19
M  V30 19 2 18 20
M  V30 20 1 11 13
M  V30 21 2 14 15
M  V30 22 1 19 20
M  V30 END BOND
M  V30 BEGIN COLLECTION
M  V30 MDLV30/STERAC1 ATOMS=(1 5)
M  V30 END COLLECTION
M  V30 END CTAB
M  END
>  <Molecule ChEMBL ID>
CHEMBL370569

>  <Molecule Name>


>  <Molecule Max Phase>
None

>  <Molecular Weight>
274.32

>  <#RO5 Violations>
0

>  <AlogP>
3.48

>  <Compound Key>
34

>  <Smiles>
CCCC1(CC(=O)O)OCCc2c1oc1ccccc21

>  <Standard Type>
IC50

>  <Standard Relation>
'>'

>  <Standard Value>
20000

>  <Standard Units>
nM

>  <pChEMBL Value>


>  <Data Validity Comment>


>  <Comment>


>  <Uo Units>
UO_0000065

>  <Ligand Efficiency BEI>


>  <Ligand Efficiency LE>


>  <Ligand Efficiency LLE>


>  <Ligand Efficiency SEI>


>  <Potential Duplicate>
0

>  <Assay ChEMBL ID>
CHEMBL864623

>  <Assay Description>
Displacement of [alpha-32P]GTP from recombinant HCV NS5B RNA dependent RNA polymerase

>  <Assay Type>
B

>  <BAO Format ID>
BAO_0000357

>  <BAO Label>
single protein format

>  <Assay Organism>
Hepatitis C virus

>  <Assay Tissue ChEMBL ID>
None

>  <Assay Tissue Name>
None

>  <Assay Cell Type>
None

>  <Assay Subcellular Fraction>
None

>  <Assay Parameters>


>  <Assay Variant Accession>


>  <Assay Variant Mutation>


>  <Target ChEMBL ID>
CHEMBL5375

>  <Target Name>
Hepatitis C virus NS5B RNA-dependent RNA polymerase

>  <Target Organism>
Hepatitis C virus

>  <Target Type>
SINGLE PROTEIN

>  <Document ChEMBL ID>
CHEMBL1148590

>  <Source ID>
1

>  <Source Description>
Scientific Literature

>  <Document Journal>
Bioorg Med Chem Lett

>  <Document Year>
2006

>  <Cell ChEMBL ID>
None

>  <Properties>


$$$$
CHEMBL379236
Actelion Java MolfileCreator 2.0

  0  0  0  0  0  0              0 V3000
M  V30 BEGIN CTAB
M  V30 COUNTS 22 24 0 0 0
M  V30 BEGIN ATOM
M  V30 1 S -1.0739 0.9781 0.0 0
M  V30 2 C -2.0684 1.0826 0.0 0
M  V30 3 C -0.866 0.0 0.0 0
M  V30 4 C -2.6562 1.8916 0.0 0
M  V30 5 C -2.4751 0.1691 0.0 0
M  V30 6 C -1.732 -0.4999 0.0 0
M  V30 7 C 0.0 -0.5 0.0 0 CFG=1
M  V30 8 C -3.6507 1.7871 0.0 0
M  V30 9 C -2.2495 2.8052 0.0 0
M  V30 10 C -3.4697 0.0646 0.0 0
M  V30 11 C -1.732 -1.4999 0.0 0
M  V30 12 O 0.0 -1.5 0.0 0
M  V30 13 C 0.866 0.0 0.0 0
M  V30 14 C 0.866 -1.0 0.0 0
M  V30 15 C -4.0575 0.8736 0.0 0
M  V30 16 C -0.866 -1.9999 0.0 0
M  V30 17 C 1.732 -0.5 0.0 0
M  V30 18 C 0.866 -2.0 0.0 0
M  V30 19 F -5.052 0.769 0.0 0
M  V30 20 O 2.598 0.0 0.0 0
M  V30 21 O 1.732 -1.5 0.0 0
M  V30 22 C 1.732 -2.5 0.0 0
M  V30 END ATOM
M  V30 BEGIN BOND
M  V30 1 1 1 2
M  V30 2 1 1 3
M  V30 3 2 2 4
M  V30 4 1 2 5
M  V30 5 2 3 6
M  V30 6 1 7 3
M  V30 7 1 4 8
M  V30 8 1 4 9
M  V30 9 2 5 10
M  V30 10 1 6 11
M  V30 11 1 7 12
M  V30 12 1 7 13
M  V30 13 1 7 14 CFG=1
M  V30 14 2 8 15
M  V30 15 1 11 16
M  V30 16 1 13 17
M  V30 17 1 14 18
M  V30 18 1 15 19
M  V30 19 2 17 20
M  V30 20 1 17 21
M  V30 21 1 18 22
M  V30 22 1 5 6
M  V30 23 1 10 15
M  V30 24 1 12 16
M  V30 END BOND
M  V30 BEGIN COLLECTION
M  V30 MDLV30/STERAC1 ATOMS=(1 7)
M  V30 END COLLECTION
M  V30 END CTAB
M  END
>  <Molecule ChEMBL ID>
CHEMBL379236

>  <Molecule Name>


>  <Molecule Max Phase>
None

>  <Molecular Weight>
322.4

>  <#RO5 Violations>
0

>  <AlogP>
4.39

>  <Compound Key>
28

>  <Smiles>
CCCC1(CC(=O)O)OCCc2c1sc1c(C)cc(F)cc21

>  <Standard Type>
IC50

>  <Standard Relation>
'>'

>  <Standard Value>
20000

>  <Standard Units>
nM

>  <pChEMBL Value>


>  <Data Validity Comment>


>  <Comment>


>  <Uo Units>
UO_0000065

>  <Ligand Efficiency BEI>


>  <Ligand Efficiency LE>


>  <Ligand Efficiency LLE>


>  <Ligand Efficiency SEI>


>  <Potential Duplicate>
0

>  <Assay ChEMBL ID>
CHEMBL864623

>  <Assay Description>
Displacement of [alpha-32P]GTP from recombinant HCV NS5B RNA dependent RNA polymerase

>  <Assay Type>
B

>  <BAO Format ID>
BAO_0000357

>  <BAO Label>
single protein format

>  <Assay Organism>
Hepatitis C virus

>  <Assay Tissue ChEMBL ID>
None

>  <Assay Tissue Name>
None

>  <Assay Cell Type>
None

>  <Assay Subcellular Fraction>
None

>  <Assay Parameters>


>  <Assay Variant Accession>


>  <Assay Variant Mutation>


>  <Target ChEMBL ID>
CHEMBL5375

>  <Target Name>
Hepatitis C virus NS5B RNA-dependent RNA polymerase

>  <Target Organism>
Hepatitis C virus

>  <Target Type>
SINGLE PROTEIN

>  <Document ChEMBL ID>
CHEMBL1148590

>  <Source ID>
1

>  <Source Description>
Scientific Literature

>  <Document Journal>
Bioorg Med Chem Lett

>  <Document Year>
2006

>  <Cell ChEMBL ID>
None

>  <Properties>


$$$$
CHEMBL383598
Actelion Java MolfileCreator 2.0

  0  0  0  0  0  0              0 V3000
M  V30 BEGIN CTAB
M  V30 COUNTS 20 22 0 0 0
M  V30 BEGIN ATOM
M  V30 1 Cl 1.7376 -4.1007 0.0 0
M  V30 2 C 0.7431 -3.9962 0.0 0
M  V30 3 C 0.3364 -3.0826 0.0 0
M  V30 4 C 0.1553 -4.8052 0.0 0
M  V30 5 O 0.7431 -2.1691 0.0 0
M  V30 6 C -0.6581 -2.9781 0.0 0
M  V30 7 C -0.8391 -4.7007 0.0 0
M  V30 8 C 0.0 -1.4999 0.0 0
M  V30 9 C -1.2458 -3.7871 0.0 0
M  V30 10 C -0.866 -1.9999 0.0 0
M  V30 11 C 0.0 -0.5 0.0 0 CFG=1
M  V30 12 Cl -2.2404 -3.6826 0.0 0
M  V30 13 C -1.732 -1.5 0.0 0
M  V30 14 O -0.866 0.0 0.0 0
M  V30 15 C 0.866 0.0 0.0 0
M  V30 16 C 0.0 0.5 0.0 0
M  V30 17 C -1.732 -0.4999 0.0 0
M  V30 18 C 1.732 -0.5 0.0 0
M  V30 19 O 2.598 0.0 0.0 0
M  V30 20 O 1.732 -1.5 0.0 0
M  V30 END ATOM
M  V30 BEGIN BOND
M  V30 1 1 1 2
M  V30 2 2 2 3
M  V30 3 1 2 4
M  V30 4 1 3 5
M  V30 5 1 3 6
M  V30 6 2 4 7
M  V30 7 1 5 8
M  V30 8 2 6 9
M  V30 9 1 6 10
M  V30 10 1 11 8
M  V30 11 1 9 12
M  V30 12 1 10 13
M  V30 13 1 11 14
M  V30 14 1 11 15
M  V30 15 1 11 16 CFG=3
M  V30 16 1 13 17
M  V30 17 1 15 18
M  V30 18 2 18 19
M  V30 19 1 18 20
M  V30 20 1 7 9
M  V30 21 2 8 10
M  V30 22 1 14 17
M  V30 END BOND
M  V30 BEGIN COLLECTION
M  V30 MDLV30/STERAC1 ATOMS=(1 11)
M  V30 END COLLECTION
M  V30 END CTAB
M  END
>  <Molecule ChEMBL ID>
CHEMBL383598

>  <Molecule Name>


>  <Molecule Max Phase>
None

>  <Molecular Weight>
315.15

>  <#RO5 Violations>
0

>  <AlogP>
4

>  <Compound Key>
35

>  <Smiles>
CC1(CC(=O)O)OCCc2c1oc1c(Cl)ccc(Cl)c21

>  <Standard Type>
IC50

>  <Standard Relation>
'>'

>  <Standard Value>
20000

>  <Standard Units>
nM

>  <pChEMBL Value>


>  <Data Validity Comment>


>  <Comment>


>  <Uo Units>
UO_0000065

>  <Ligand Efficiency BEI>


>  <Ligand Efficiency LE>


>  <Ligand Efficiency LLE>


>  <Ligand Efficiency SEI>


>  <Potential Duplicate>
0

>  <Assay ChEMBL ID>
CHEMBL864623

>  <Assay Description>
Displacement of [alpha-32P]GTP from recombinant HCV NS5B RNA dependent RNA polymerase

>  <Assay Type>
B

>  <BAO Format ID>
BAO_0000357

>  <BAO Label>
single protein format

>  <Assay Organism>
Hepatitis C virus

>  <Assay Tissue ChEMBL ID>
None

>  <Assay Tissue Name>
None

>  <Assay Cell Type>
None

>  <Assay Subcellular Fraction>
None

>  <Assay Parameters>


>  <Assay Variant Accession>


>  <Assay Variant Mutation>


>  <Target ChEMBL ID>
CHEMBL5375

>  <Target Name>
Hepatitis C virus NS5B RNA-dependent RNA polymerase

>  <Target Organism>
Hepatitis C virus

>  <Target Type>
SINGLE PROTEIN

>  <Document ChEMBL ID>
CHEMBL1148590

>  <Source ID>
1

>  <Source Description>
Scientific Literature

>  <Document Journal>
Bioorg Med Chem Lett

>  <Document Year>
2006

>  <Cell ChEMBL ID>
None

>  <Properties>


$$$$
CHEMBL200696
Actelion Java MolfileCreator 2.0

  0  0  0  0  0  0              0 V3000
M  V30 BEGIN CTAB
M  V30 COUNTS 23 25 0 0 0
M  V30 BEGIN ATOM
M  V30 1 S -1.0739 0.9781 0.0 0
M  V30 2 C -2.0684 1.0826 0.0 0
M  V30 3 C -0.866 0.0 0.0 0
M  V30 4 C -2.6562 1.8916 0.0 0
M  V30 5 C -2.4751 0.1691 0.0 0
M  V30 6 C -1.732 -0.4999 0.0 0
M  V30 7 C 0.0 -0.5 0.0 0 CFG=1
M  V30 8 C -3.6507 1.7871 0.0 0
M  V30 9 C -2.2495 2.8052 0.0 0
M  V30 10 C -3.4697 0.0646 0.0 0
M  V30 11 C -1.732 -1.4999 0.0 0
M  V30 12 O 0.0 -1.5 0.0 0
M  V30 13 C 0.866 0.0 0.0 0
M  V30 14 C 0.866 -1.0 0.0 0
M  V30 15 C -4.0575 0.8736 0.0 0
M  V30 16 C -3.8764 -0.8489 0.0 0
M  V30 17 C -0.866 -1.9999 0.0 0
M  V30 18 C 1.732 -0.5 0.0 0
M  V30 19 C 0.866 -2.0 0.0 0
M  V30 20 N -4.2831 -1.7624 0.0 0
M  V30 21 O 2.598 0.0 0.0 0
M  V30 22 O 1.732 -1.5 0.0 0
M  V30 23 C 1.732 -2.5 0.0 0
M  V30 END ATOM
M  V30 BEGIN BOND
M  V30 1 1 1 2
M  V30 2 1 1 3
M  V30 3 2 2 4
M  V30 4 1 2 5
M  V30 5 2 3 6
M  V30 6 1 7 3
M  V30 7 1 4 8
M  V30 8 1 4 9
M  V30 9 2 5 10
M  V30 10 1 6 11
M  V30 11 1 7 12
M  V30 12 1 7 13
M  V30 13 1 7 14 CFG=1
M  V30 14 2 8 15
M  V30 15 1 10 16
M  V30 16 1 11 17
M  V30 17 1 13 18
M  V30 18 1 14 19
M  V30 19 3 16 20
M  V30 20 2 18 21
M  V30 21 1 18 22
M  V30 22 1 19 23
M  V30 23 1 5 6
M  V30 24 1 10 15
M  V30 25 1 12 17
M  V30 END BOND
M  V30 BEGIN COLLECTION
M  V30 MDLV30/STEABS ATOMS=(1 7)
M  V30 END COLLECTION
M  V30 END CTAB
M  END
>  <Molecule ChEMBL ID>
CHEMBL200696

>  <Molecule Name>


>  <Molecule Max Phase>
None

>  <Molecular Weight>
329.42

>  <#RO5 Violations>
0

>  <AlogP>
4.12

>  <Compound Key>
32

>  <Smiles>
CCC[C@@]1(CC(=O)O)OCCc2c1sc1c(C)ccc(C#N)c21

>  <Standard Type>
IC50

>  <Standard Relation>
'='

>  <Standard Value>
2850

>  <Standard Units>
nM

>  <pChEMBL Value>
5.54

>  <Data Validity Comment>


>  <Comment>


>  <Uo Units>
UO_0000065

>  <Ligand Efficiency BEI>
16.83

>  <Ligand Efficiency LE>
0.33

>  <Ligand Efficiency LLE>
1.43

>  <Ligand Efficiency SEI>
7.89

>  <Potential Duplicate>
0

>  <Assay ChEMBL ID>
CHEMBL864623

>  <Assay Description>
Displacement of [alpha-32P]GTP from recombinant HCV NS5B RNA dependent RNA polymerase

>  <Assay Type>
B

>  <BAO Format ID>
BAO_0000357

>  <BAO Label>
single protein format

>  <Assay Organism>
Hepatitis C virus

>  <Assay Tissue ChEMBL ID>
None

>  <Assay Tissue Name>
None

>  <Assay Cell Type>
None

>  <Assay Subcellular Fraction>
None

>  <Assay Parameters>


>  <Assay Variant Accession>


>  <Assay Variant Mutation>


>  <Target ChEMBL ID>
CHEMBL5375

>  <Target Name>
Hepatitis C virus NS5B RNA-dependent RNA polymerase

>  <Target Organism>
Hepatitis C virus

>  <Target Type>
SINGLE PROTEIN

>  <Document ChEMBL ID>
CHEMBL1148590

>  <Source ID>
1

>  <Source Description>
Scientific Literature

>  <Document Journal>
Bioorg Med Chem Lett

>  <Document Year>
2006

>  <Cell ChEMBL ID>
None

>  <Properties>


$$$$
CHEMBL380997
Actelion Java MolfileCreator 2.0

  0  0  0  0  0  0              0 V3000
M  V30 BEGIN CTAB
M  V30 COUNTS 24 26 0 0 0
M  V30 BEGIN ATOM
M  V30 1 S -1.0739 0.9781 0.0 0
M  V30 2 C -2.0684 1.0826 0.0 0
M  V30 3 C -0.866 0.0 0.0 0
M  V30 4 C -2.6562 1.8916 0.0 0
M  V30 5 C -2.4751 0.1691 0.0 0
M  V30 6 C -1.732 -0.4999 0.0 0
M  V30 7 C 0.0 -0.5 0.0 0 CFG=2
M  V30 8 C -3.6507 1.7871 0.0 0
M  V30 9 C -2.2495 2.8052 0.0 0
M  V30 10 C -3.4697 0.0646 0.0 0
M  V30 11 C -1.732 -1.4999 0.0 0
M  V30 12 O 0.0 -1.5 0.0 0
M  V30 13 C 0.866 0.0 0.0 0
M  V30 14 C 0.866 -1.0 0.0 0
M  V30 15 C -4.0575 0.8736 0.0 0
M  V30 16 C -3.8764 -0.8489 0.0 0
M  V30 17 C -0.866 -1.9999 0.0 0
M  V30 18 C 1.732 -0.5 0.0 0
M  V30 19 C 0.866 -2.0 0.0 0
M  V30 20 F -5.052 0.769 0.0 0
M  V30 21 N -4.2831 -1.7624 0.0 0
M  V30 22 O 2.598 0.0 0.0 0
M  V30 23 O 1.732 -1.5 0.0 0
M  V30 24 C 1.732 -2.5 0.0 0
M  V30 END ATOM
M  V30 BEGIN BOND
M  V30 1 1 1 2
M  V30 2 1 1 3
M  V30 3 2 2 4
M  V30 4 1 2 5
M  V30 5 2 3 6
M  V30 6 1 7 3
M  V30 7 1 4 8
M  V30 8 1 4 9
M  V30 9 2 5 10
M  V30 10 1 6 11
M  V30 11 1 7 12
M  V30 12 1 7 13
M  V30 13 1 7 14 CFG=3
M  V30 14 2 8 15
M  V30 15 1 10 16
M  V30 16 1 11 17
M  V30 17 1 13 18
M  V30 18 1 14 19
M  V30 19 1 15 20
M  V30 20 3 16 21
M  V30 21 2 18 22
M  V30 22 1 18 23
M  V30 23 1 19 24
M  V30 24 1 5 6
M  V30 25 1 10 15
M  V30 26 1 12 17
M  V30 END BOND
M  V30 BEGIN COLLECTION
M  V30 MDLV30/STEABS ATOMS=(1 7)
M  V30 END COLLECTION
M  V30 END CTAB
M  END
>  <Molecule ChEMBL ID>
CHEMBL380997

>  <Molecule Name>


>  <Molecule Max Phase>
None

>  <Molecular Weight>
347.41

>  <#RO5 Violations>
0

>  <AlogP>
4.26

>  <Compound Key>
19

>  <Smiles>
CCC[C@]1(CC(=O)O)OCCc2c1sc1c(C)cc(F)c(C#N)c21

>  <Standard Type>
IC50

>  <Standard Relation>
'>'

>  <Standard Value>
100000

>  <Standard Units>
nM

>  <pChEMBL Value>


>  <Data Validity Comment>


>  <Comment>


>  <Uo Units>
UO_0000065

>  <Ligand Efficiency BEI>


>  <Ligand Efficiency LE>


>  <Ligand Efficiency LLE>


>  <Ligand Efficiency SEI>


>  <Potential Duplicate>
0

>  <Assay ChEMBL ID>
CHEMBL854379

>  <Assay Description>
Inhibition of HIV reverse transcriptase

>  <Assay Type>
B

>  <BAO Format ID>
BAO_0000357

>  <BAO Label>
single protein format

>  <Assay Organism>
Human immunodeficiency virus

>  <Assay Tissue ChEMBL ID>
None

>  <Assay Tissue Name>
None

>  <Assay Cell Type>
None

>  <Assay Subcellular Fraction>
None

>  <Assay Parameters>


>  <Assay Variant Accession>


>  <Assay Variant Mutation>


>  <Target ChEMBL ID>
CHEMBL247

>  <Target Name>
Human immunodeficiency virus type 1 reverse transcriptase

>  <Target Organism>
Human immunodeficiency virus 1

>  <Target Type>
SINGLE PROTEIN

>  <Document ChEMBL ID>
CHEMBL1148590

>  <Source ID>
1

>  <Source Description>
Scientific Literature

>  <Document Journal>
Bioorg Med Chem Lett

>  <Document Year>
2006

>  <Cell ChEMBL ID>
None

>  <Properties>


$$$$
CHEMBL382305
Actelion Java MolfileCreator 2.0

  0  0  0  0  0  0              0 V3000
M  V30 BEGIN CTAB
M  V30 COUNTS 21 23 0 0 0
M  V30 BEGIN ATOM
M  V30 1 Cl 1.7376 -4.1007 0.0 0
M  V30 2 C 0.7431 -3.9962 0.0 0
M  V30 3 C 0.3364 -3.0826 0.0 0
M  V30 4 C 0.1553 -4.8052 0.0 0
M  V30 5 S 0.7431 -2.1691 0.0 0
M  V30 6 C -0.6581 -2.9781 0.0 0
M  V30 7 C -0.8391 -4.7007 0.0 0
M  V30 8 C 0.0 -1.4999 0.0 0
M  V30 9 C -1.2458 -3.7871 0.0 0
M  V30 10 C -0.866 -1.9999 0.0 0
M  V30 11 C 0.0 -0.5 0.0 0 CFG=1
M  V30 12 Cl -2.2404 -3.6826 0.0 0
M  V30 13 C -1.732 -1.5 0.0 0
M  V30 14 O -0.866 0.0 0.0 0
M  V30 15 C 0.866 0.0 0.0 0
M  V30 16 C 0.0 0.5 0.0 0
M  V30 17 C -1.732 -0.4999 0.0 0
M  V30 18 C 1.732 -0.5 0.0 0
M  V30 19 C -0.866 1.0 0.0 0
M  V30 20 O 2.598 0.0 0.0 0
M  V30 21 O 1.732 -1.5 0.0 0
M  V30 END ATOM
M  V30 BEGIN BOND
M  V30 1 1 1 2
M  V30 2 2 2 3
M  V30 3 1 2 4
M  V30 4 1 3 5
M  V30 5 1 3 6
M  V30 6 2 4 7
M  V30 7 1 5 8
M  V30 8 2 6 9
M  V30 9 1 6 10
M  V30 10 1 11 8
M  V30 11 1 9 12
M  V30 12 1 10 13
M  V30 13 1 11 14
M  V30 14 1 11 15
M  V30 15 1 11 16 CFG=3
M  V30 16 1 13 17
M  V30 17 1 15 18
M  V30 18 1 16 19
M  V30 19 2 18 20
M  V30 20 1 18 21
M  V30 21 1 7 9
M  V30 22 2 8 10
M  V30 23 1 14 17
M  V30 END BOND
M  V30 BEGIN COLLECTION
M  V30 MDLV30/STERAC1 ATOMS=(1 11)
M  V30 END COLLECTION
M  V30 END CTAB
M  END
>  <Molecule ChEMBL ID>
CHEMBL382305

>  <Molecule Name>


>  <Molecule Max Phase>
None

>  <Molecular Weight>
345.25

>  <#RO5 Violations>
0

>  <AlogP>
4.86

>  <Compound Key>
24

>  <Smiles>
CCC1(CC(=O)O)OCCc2c1sc1c(Cl)ccc(Cl)c21

>  <Standard Type>
IC50

>  <Standard Relation>
'='

>  <Standard Value>
1900

>  <Standard Units>
nM

>  <pChEMBL Value>
5.72

>  <Data Validity Comment>


>  <Comment>


>  <Uo Units>
UO_0000065

>  <Ligand Efficiency BEI>
16.57

>  <Ligand Efficiency LE>
0.37

>  <Ligand Efficiency LLE>
0.86

>  <Ligand Efficiency SEI>
12.3

>  <Potential Duplicate>
0

>  <Assay ChEMBL ID>
CHEMBL864623

>  <Assay Description>
Displacement of [alpha-32P]GTP from recombinant HCV NS5B RNA dependent RNA polymerase

>  <Assay Type>
B

>  <BAO Format ID>
BAO_0000357

>  <BAO Label>
single protein format

>  <Assay Organism>
Hepatitis C virus

>  <Assay Tissue ChEMBL ID>
None

>  <Assay Tissue Name>
None

>  <Assay Cell Type>
None

>  <Assay Subcellular Fraction>
None

>  <Assay Parameters>


>  <Assay Variant Accession>


>  <Assay Variant Mutation>


>  <Target ChEMBL ID>
CHEMBL5375

>  <Target Name>
Hepatitis C virus NS5B RNA-dependent RNA polymerase

>  <Target Organism>
Hepatitis C virus

>  <Target Type>
SINGLE PROTEIN

>  <Document ChEMBL ID>
CHEMBL1148590

>  <Source ID>
1

>  <Source Description>
Scientific Literature

>  <Document Journal>
Bioorg Med Chem Lett

>  <Document Year>
2006

>  <Cell ChEMBL ID>
None

>  <Properties>


$$$$
