
 OpenBabel09092210413D

 26 29  0  0  1  0  0  0  0  0999 V2000
    4.3580   -2.8130    1.2920 C   0  0  0  0  0  0  0  0  0  0  0  0
    4.9850   -2.8790    0.0010 C   0  0  0  0  0  3  0  0  0  0  0  0
    4.6990   -4.0360   -0.6950 C   0  0  0  0  0  0  0  0  0  0  0  0
    3.6480   -5.0330    0.2110 S   0  0  0  0  0  0  0  0  0  0  0  0
    3.5030   -3.8840    1.4850 C   0  0  0  0  0  0  0  0  0  0  0  0
    5.2040   -4.4690   -2.0050 C   0  0  0  0  0  0  0  0  0  0  0  0
    4.7610   -3.8740   -3.1960 C   0  0  0  0  0  3  0  0  0  0  0  0
    5.2610   -4.2910   -4.4330 C   0  0  0  0  0  3  0  0  0  0  0  0
    6.2130   -5.3060   -4.4950 C   0  0  0  0  0  3  0  0  0  0  0  0
    6.6660   -5.9050   -3.3210 C   0  0  0  0  0  3  0  0  0  0  0  0
    6.1660   -5.4870   -2.0840 C   0  0  0  0  0  3  0  0  0  0  0  0
    4.0820   -0.3990    2.3010 N   0  0  0  0  0  0  0  0  0  0  0  0
    4.6380    0.2640    3.3610 N   0  0  0  0  0  0  0  0  0  0  0  0
    5.5090   -0.5380    3.9490 N   0  0  0  0  0  0  0  0  0  0  0  0
    5.5080   -1.7160    3.2710 C   0  0  0  0  0  3  0  0  0  0  0  0
    4.6240   -1.6650    2.2130 C   0  0  0  0  0  0  0  0  0  0  0  0
   -1.0550    1.9100    0.8350 C   0  0  0  0  0  1  0  0  0  0  0  0
    0.1840    1.4840    1.6190 C   0  0  1  0  0  3  0  0  0  0  0  0
    0.3200   -0.0450    1.6270 C   0  0  0  0  0  2  0  0  0  0  0  0
    1.5800   -0.5010    2.3650 C   0  0  0  0  0  2  0  0  0  0  0  0
    2.8390    0.1720    1.7930 C   0  0  1  0  0  3  0  0  0  0  0  0
    2.7020    1.7020    1.7930 C   0  0  0  0  0  2  0  0  0  0  0  0
    1.4440    2.1440    1.0430 C   0  0  0  0  0  2  0  0  0  0  0  0
    2.5190   -4.0770    2.5900 C   0  0  0  0  0  0  0  0  0  0  0  0
    2.9760   -4.3950    3.7320 O   0  0  0  0  0  1  0  0  0  0  0  0
    1.2930   -3.9040    2.3130 O   0  0  0  0  0  0  0  0  0  0  0  0
  1  5  2  0  0  0  0
  1 16  1  0  0  0  0
  2  1  1  0  0  0  0
  3  2  2  0  0  0  0
  3  4  1  0  0  0  0
  4  5  1  0  0  0  0
  5 24  1  0  0  0  0
  6  3  1  0  0  0  0
  7  6  2  0  0  0  0
  8  7  1  0  0  0  0
  9  8  2  0  0  0  0
  9 10  1  0  0  0  0
 10 11  2  0  0  0  0
 11  6  1  0  0  0  0
 12 13  1  0  0  0  0
 13 14  2  0  0  0  0
 15 14  1  0  0  0  0
 16 12  1  0  0  0  0
 16 15  2  0  0  0  0
 18 17  1  6  0  0  0
 18 19  1  0  0  0  0
 19 20  1  0  0  0  0
 21 22  1  1  0  0  0
 21 12  1  0  0  0  0
 21 20  1  0  0  0  0
 23 18  1  0  0  0  0
 23 22  1  0  0  0  0
 24 25  1  0  0  0  0
 26 24  2  0  0  0  0
M  END
>  <minimizedAffinity>
-2.87688947

$$$$
