
 OpenBabel09092210413D

 26 29  0  0  1  0  0  0  0  0999 V2000
    5.1220   -4.1710   -0.5490 C   0  0  0  0  0  0  0  0  0  0  0  0
    5.6450   -5.4080   -0.0380 C   0  0  0  0  0  3  0  0  0  0  0  0
    5.4560   -6.4800   -0.8870 C   0  0  0  0  0  0  0  0  0  0  0  0
    4.6630   -5.9800   -2.3150 S   0  0  0  0  0  0  0  0  0  0  0  0
    4.6560   -4.3240   -1.8430 C   0  0  0  0  0  0  0  0  0  0  0  0
    5.8030   -7.8920   -0.6740 C   0  0  0  0  0  0  0  0  0  0  0  0
    5.6490   -8.8470   -1.6910 C   0  0  0  0  0  3  0  0  0  0  0  0
    5.9960  -10.1840   -1.4760 C   0  0  0  0  0  3  0  0  0  0  0  0
    6.5040  -10.5830   -0.2410 C   0  0  0  0  0  3  0  0  0  0  0  0
    6.6660   -9.6470    0.7780 C   0  0  0  0  0  3  0  0  0  0  0  0
    6.3200   -8.3100    0.5610 C   0  0  0  0  0  3  0  0  0  0  0  0
    4.1860   -2.0650    0.7210 N   0  0  0  0  0  0  0  0  0  0  0  0
    4.7490   -1.0840    1.4900 N   0  0  0  0  0  0  0  0  0  0  0  0
    6.0530   -1.2920    1.5510 N   0  0  0  0  0  0  0  0  0  0  0  0
    6.3260   -2.4090    0.8250 C   0  0  0  0  0  3  0  0  0  0  0  0
    5.1700   -2.9230    0.2750 C   0  0  0  0  0  0  0  0  0  0  0  0
   -1.4830   -2.6440    1.9050 C   0  0  0  0  0  1  0  0  0  0  0  0
    0.0040   -2.3090    2.0070 C   0  0  1  0  0  3  0  0  0  0  0  0
    0.8540   -3.5800    1.8780 C   0  0  0  0  0  2  0  0  0  0  0  0
    2.3520   -3.2710    1.9280 C   0  0  0  0  0  2  0  0  0  0  0  0
    2.7430   -2.2230    0.8720 C   0  0  1  0  0  3  0  0  0  0  0  0
    1.8950   -0.9500    1.0090 C   0  0  0  0  0  2  0  0  0  0  0  0
    0.4000   -1.2730    0.9470 C   0  0  0  0  0  2  0  0  0  0  0  0
    4.2310   -3.2520   -2.7910 C   0  0  0  0  0  0  0  0  0  0  0  0
    5.1060   -2.8010   -3.5940 O   0  0  0  0  0  0  0  0  0  0  0  0
    3.0230   -2.8700   -2.7320 O   0  0  0  0  0  1  0  0  0  0  0  0
  1  2  1  0  0  0  0
  1 16  1  0  0  0  0
  3  6  1  0  0  0  0
  3  2  2  0  0  0  0
  4  5  1  0  0  0  0
  4  3  1  0  0  0  0
  5  1  2  0  0  0  0
  6 11  1  0  0  0  0
  7  8  1  0  0  0  0
  7  6  2  0  0  0  0
  8  9  2  0  0  0  0
  9 10  1  0  0  0  0
 11 10  2  0  0  0  0
 12 13  1  0  0  0  0
 13 14  2  0  0  0  0
 15 14  1  0  0  0  0
 16 12  1  0  0  0  0
 16 15  2  0  0  0  0
 18 17  1  6  0  0  0
 19 20  1  0  0  0  0
 19 18  1  0  0  0  0
 21 12  1  1  0  0  0
 21 22  1  0  0  0  0
 21 20  1  0  0  0  0
 23 22  1  0  0  0  0
 23 18  1  0  0  0  0
 24 26  1  0  0  0  0
 24  5  1  0  0  0  0
 25 24  2  0  0  0  0
M  END
>  <minimizedAffinity>
-2.94041276

$$$$
