
 OpenBabel09092210413D

 26 29  0  0  1  0  0  0  0  0999 V2000
    3.6010   -1.8450    1.6520 C   0  0  0  0  0  0  0  0  0  0  0  0
    3.5340   -2.6720    0.4790 C   0  0  0  0  0  3  0  0  0  0  0  0
    4.7720   -3.0490   -0.0030 C   0  0  0  0  0  0  0  0  0  0  0  0
    6.0150   -2.4170    0.9840 S   0  0  0  0  0  0  0  0  0  0  0  0
    4.9040   -1.7210    2.1010 C   0  0  0  0  0  0  0  0  0  0  0  0
    5.0900   -3.8350   -1.2020 C   0  0  0  0  0  0  0  0  0  0  0  0
    4.6560   -3.4400   -2.4760 C   0  0  0  0  0  3  0  0  0  0  0  0
    4.9790   -4.1940   -3.6080 C   0  0  0  0  0  3  0  0  0  0  0  0
    5.7440   -5.3520   -3.4810 C   0  0  0  0  0  3  0  0  0  0  0  0
    6.1850   -5.7570   -2.2230 C   0  0  0  0  0  3  0  0  0  0  0  0
    5.8620   -5.0010   -1.0910 C   0  0  0  0  0  3  0  0  0  0  0  0
    2.0120   -0.0060    2.6590 N   0  0  0  0  0  0  0  0  0  0  0  0
    0.7220   -0.0010    3.1160 N   0  0  0  0  0  0  0  0  0  0  0  0
    0.2360   -1.2280    3.0180 N   0  0  0  0  0  0  0  0  0  0  0  0
    1.2120   -2.0160    2.4930 C   0  0  0  0  0  3  0  0  0  0  0  0
    2.3560   -1.2810    2.2610 C   0  0  0  0  0  0  0  0  0  0  0  0
    3.6360    5.4350    1.3780 C   0  0  0  0  0  1  0  0  0  0  0  0
    2.8550    4.2260    1.8890 C   0  0  1  0  0  3  0  0  0  0  0  0
    2.5070    3.2780    0.7330 C   0  0  0  0  0  2  0  0  0  0  0  0
    1.7670    2.0310    1.2220 C   0  0  0  0  0  2  0  0  0  0  0  0
    2.5570    1.3060    2.3250 C   0  0  1  0  0  3  0  0  0  0  0  0
    2.8970    2.2560    3.4820 C   0  0  0  0  0  2  0  0  0  0  0  0
    3.6470    3.4930    2.9810 C   0  0  0  0  0  2  0  0  0  0  0  0
    5.3720   -1.1270    3.3870 C   0  0  0  0  0  0  0  0  0  0  0  0
    5.7510    0.0850    3.3680 O   0  0  0  0  0  0  0  0  0  0  0  0
    5.3550   -1.8730    4.4130 O   0  0  0  0  0  1  0  0  0  0  0  0
  1  5  2  0  0  0  0
  1 16  1  0  0  0  0
  2  1  1  0  0  0  0
  3  2  2  0  0  0  0
  3  4  1  0  0  0  0
  4  5  1  0  0  0  0
  5 24  1  0  0  0  0
  6 11  1  0  0  0  0
  6  3  1  0  0  0  0
  7  6  2  0  0  0  0
  8  9  2  0  0  0  0
  8  7  1  0  0  0  0
  9 10  1  0  0  0  0
 10 11  2  0  0  0  0
 12 13  1  0  0  0  0
 14 13  2  0  0  0  0
 15 14  1  0  0  0  0
 16 15  2  0  0  0  0
 16 12  1  0  0  0  0
 18 17  1  6  0  0  0
 18 23  1  0  0  0  0
 19 20  1  0  0  0  0
 19 18  1  0  0  0  0
 21 20  1  6  0  0  0
 21 12  1  0  0  0  0
 21 22  1  0  0  0  0
 23 22  1  0  0  0  0
 24 26  1  0  0  0  0
 25 24  2  0  0  0  0
M  END
>  <minimizedAffinity>
-3.12741041

$$$$
