REMARK  Name = 
REMARK  5 active torsions:
REMARK  status: ('A' for Active; 'I' for Inactive)
REMARK    1  A    between atoms: C_1  and  C_2
REMARK    2  A    between atoms: C_5  and  N_6
REMARK    3  A    between atoms: C_10  and  C_11
REMARK    4  A    between atoms: C_13  and  C_14
REMARK    5  A    between atoms: C_21  and  C_22
REMARK                            x       y       z     vdW  Elec       q    Type
REMARK                         _______ _______ _______ _____ _____    ______ ____
ROOT
ATOM      1  C   UNL     1      -2.932  -2.380   1.684  0.00  0.00    +0.018 A 
ATOM      2  C   UNL     1      -3.356  -3.730   1.437  0.00  0.00    +0.026 A 
ATOM      3  C   UNL     1      -2.675  -4.669   2.185  0.00  0.00    +0.021 A 
ATOM      4  S   UNL     1      -1.536  -3.908   3.206  0.00  0.00    -0.086 S 
ATOM      5  C   UNL     1      -2.014  -2.327   2.719  0.00  0.00    +0.044 A 
ENDROOT
BRANCH   3   6
ATOM      6  C   UNL     1      -2.798  -6.133   2.155  0.00  0.00    -0.011 A 
ATOM      7  C   UNL     1      -2.834  -6.891   3.335  0.00  0.00    +0.009 A 
ATOM      8  C   UNL     1      -2.964  -8.282   3.288  0.00  0.00    +0.001 A 
ATOM      9  C   UNL     1      -3.063  -8.933   2.060  0.00  0.00    +0.000 A 
ATOM     10  C   UNL     1      -3.032  -8.194   0.879  0.00  0.00    +0.001 A 
ATOM     11  C   UNL     1      -2.903  -6.803   0.927  0.00  0.00    +0.009 A 
ENDBRANCH   3   6
BRANCH   1  16
ATOM     12  N   UNL     1      -2.933  -0.148   0.291  0.00  0.00    -0.241 N 
ATOM     13  N   UNL     1      -3.899   0.583  -0.345  0.00  0.00    -0.065 NA
ATOM     14  N   UNL     1      -5.066  -0.012  -0.161  0.00  0.00    -0.137 NA
ATOM     15  C   UNL     1      -4.847  -1.126   0.587  0.00  0.00    +0.164 A 
ATOM     16  C   UNL     1      -3.509  -1.242   0.902  0.00  0.00    +0.090 A 
BRANCH  12  21
ATOM     17  C   UNL     1       2.651   1.055  -0.827  0.00  0.00    +0.007 C 
ATOM     18  C   UNL     1       1.354   0.665  -0.121  0.00  0.00    -0.014 C 
ATOM     19  C   UNL     1       0.334   1.809  -0.193  0.00  0.00    +0.005 C 
ATOM     20  C   UNL     1      -0.995   1.430   0.464  0.00  0.00    +0.027 C 
ATOM     21  C   UNL     1      -1.564   0.131  -0.132  0.00  0.00    +0.110 C 
ATOM     22  C   UNL     1      -0.543  -1.013  -0.052  0.00  0.00    +0.027 C 
ATOM     23  C   UNL     1       0.777  -0.624  -0.722  0.00  0.00    +0.005 C 
ENDBRANCH  12  21
ENDBRANCH   1  16
BRANCH   5  24
ATOM     24  C   UNL     1      -1.492  -1.114   3.413  0.00  0.00    +0.079 C 
ATOM     25  O   UNL     1      -0.540  -1.276   4.238  0.00  0.00    -0.544 OA
ATOM     26  O   UNL     1      -2.033  -0.003   3.127  0.00  0.00    -0.544 OA
ENDBRANCH   5  24
TORSDOF 4
