@<TRIPOS>MOLECULE
*****
 28 31 0 0 0
SMALL
GASTEIGER

@<TRIPOS>ATOM
      1 C           0.0000    0.0000    0.0000 C.3     1  UNL11      -0.0042
      2 C           0.0000    0.0000    0.0000 C.3     1  UNL11      -0.0190
      3 H           0.0000    0.0000    0.0000 H       1  UNL11       0.0318
      4 C           0.0000    0.0000    0.0000 C.3     1  UNL11      -0.0023
      5 C           0.0000    0.0000    0.0000 C.3     1  UNL11       0.0183
      6 C           0.0000    0.0000    0.0000 C.3     1  UNL11       0.0698
      7 H           0.0000    0.0000    0.0000 H       1  UNL11       0.0558
      8 N           0.0000    0.0000    0.0000 N.pl3   1  UNL11      -0.2390
      9 N           0.0000    0.0000    0.0000 N.pl3   1  UNL11      -0.0642
     10 N           0.0000    0.0000    0.0000 N.pl3   1  UNL11      -0.1271
     11 C           0.0000    0.0000    0.0000 C.3     1  UNL11       0.1425
     12 C           0.0000    0.0000    0.0000 C.3     1  UNL11       0.1006
     13 C           0.0000    0.0000    0.0000 C.3     1  UNL11       0.0318
     14 C           0.0000    0.0000    0.0000 C.3     1  UNL11       0.0087
     15 C           0.0000    0.0000    0.0000 C.3     1  UNL11       0.0297
     16 C           0.0000    0.0000    0.0000 C.3     1  UNL11       0.0060
     17 C           0.0000    0.0000    0.0000 C.3     1  UNL11       0.0005
     18 C           0.0000    0.0000    0.0000 C.3     1  UNL11       0.0000
     19 C           0.0000    0.0000    0.0000 C.3     1  UNL11       0.0000
     20 C           0.0000    0.0000    0.0000 C.3     1  UNL11       0.0000
     21 C           0.0000    0.0000    0.0000 C.3     1  UNL11       0.0005
     22 S           0.0000    0.0000    0.0000 S.3     1  UNL11      -0.0804
     23 C           0.0000    0.0000    0.0000 C.3     1  UNL11       0.1107
     24 C           0.0000    0.0000    0.0000 C.3     1  UNL11       0.3937
     25 O           0.0000    0.0000    0.0000 O.2     1  UNL11      -0.2400
     26 O           0.0000    0.0000    0.0000 O.2     1  UNL11      -0.2400
     27 C           0.0000    0.0000    0.0000 C.3     1  UNL11       0.0183
     28 C           0.0000    0.0000    0.0000 C.3     1  UNL11      -0.0023
@<TRIPOS>UNITY_ATOM_ATTR
25 1
charge -1
@<TRIPOS>BOND
     1     1     2    1
     2     2     3    1
     3     2     4    1
     4     4     5    1
     5     5     6    1
     6     6     7    1
     7     6     8    1
     8     8     9   ar
     9     9    10   ar
    10    10    11   ar
    11    11    12   ar
    12     8    12   ar
    13    12    13    1
    14    13    14   ar
    15    14    15   ar
    16    15    16    1
    17    16    17   ar
    18    17    18   ar
    19    18    19   ar
    20    19    20   ar
    21    20    21   ar
    22    16    21   ar
    23    15    22   ar
    24    22    23   ar
    25    13    23   ar
    26    23    24    1
    27    24    25    1
    28    24    26    2
    29     6    27    1
    30    27    28    1
    31     2    28    1
