
 OpenBabel09092210413D

 26 29  0  0  1  0  0  0  0  0999 V2000
    3.8540   -2.6960    0.5710 C   0  0  0  0  0  0  0  0  0  0  0  0
    4.9010   -3.2270   -0.2560 C   0  0  0  0  0  3  0  0  0  0  0  0
    4.4550   -3.7170   -1.4660 C   0  0  0  0  0  0  0  0  0  0  0  0
    2.7650   -3.5080   -1.6090 S   0  0  0  0  0  0  0  0  0  0  0  0
    2.6440   -2.6850   -0.1010 C   0  0  0  0  0  0  0  0  0  0  0  0
    5.2230   -4.3800   -2.5290 C   0  0  0  0  0  0  0  0  0  0  0  0
    5.9460   -5.5570   -2.2870 C   0  0  0  0  0  3  0  0  0  0  0  0
    6.6610   -6.1820   -3.3130 C   0  0  0  0  0  3  0  0  0  0  0  0
    6.6590   -5.6380   -4.5960 C   0  0  0  0  0  3  0  0  0  0  0  0
    5.9430   -4.4710   -4.8540 C   0  0  0  0  0  3  0  0  0  0  0  0
    5.2280   -3.8480   -3.8270 C   0  0  0  0  0  3  0  0  0  0  0  0
    4.3820   -2.8450    3.1450 N   0  0  0  0  0  0  0  0  0  0  0  0
    4.6530   -1.9260    4.1210 N   0  0  0  0  0  0  0  0  0  0  0  0
    4.6030   -0.7170    3.5860 N   0  0  0  0  0  0  0  0  0  0  0  0
    4.3060   -0.8620    2.2680 C   0  0  0  0  0  3  0  0  0  0  0  0
    4.1490   -2.1950    1.9510 C   0  0  0  0  0  0  0  0  0  0  0  0
    5.8140   -8.4450    3.8270 C   0  0  0  0  0  1  0  0  0  0  0  0
    5.4810   -7.0870    3.2120 C   0  0  1  0  0  3  0  0  0  0  0  0
    4.0690   -6.6420    3.6160 C   0  0  0  0  0  2  0  0  0  0  0  0
    3.7250   -5.2610    3.0550 C   0  0  0  0  0  2  0  0  0  0  0  0
    4.7800   -4.2150    3.4540 C   0  0  1  0  0  3  0  0  0  0  0  0
    6.1900   -4.6610    3.0420 C   0  0  0  0  0  2  0  0  0  0  0  0
    6.5250   -6.0380    3.6190 C   0  0  0  0  0  2  0  0  0  0  0  0
    1.3710   -2.0320    0.3230 C   0  0  0  0  0  0  0  0  0  0  0  0
    1.0560   -0.9400   -0.2450 O   0  0  0  0  0  0  0  0  0  0  0  0
    0.6890   -2.6150    1.2190 O   0  0  0  0  0  1  0  0  0  0  0  0
  1 16  1  0  0  0  0
  2  1  1  0  0  0  0
  3  2  2  0  0  0  0
  4  3  1  0  0  0  0
  4  5  1  0  0  0  0
  5 24  1  0  0  0  0
  5  1  2  0  0  0  0
  6  7  1  0  0  0  0
  6  3  1  0  0  0  0
  8  7  2  0  0  0  0
  9  8  1  0  0  0  0
 10  9  2  0  0  0  0
 10 11  1  0  0  0  0
 11  6  2  0  0  0  0
 12 13  1  0  0  0  0
 14 13  2  0  0  0  0
 15 14  1  0  0  0  0
 16 15  2  0  0  0  0
 16 12  1  0  0  0  0
 18 19  1  0  0  0  0
 18 23  1  0  0  0  0
 18 17  1  1  0  0  0
 20 21  1  0  0  0  0
 20 19  1  0  0  0  0
 21 12  1  6  0  0  0
 21 22  1  0  0  0  0
 22 23  1  0  0  0  0
 24 26  1  0  0  0  0
 25 24  2  0  0  0  0
M  END
>  <minimizedAffinity>
-3.01880097

$$$$
