
 OpenBabel09092210413D

 26 29  0  0  1  0  0  0  0  0999 V2000
    2.3800   -3.3380    0.6940 C   0  0  0  0  0  0  0  0  0  0  0  0
    2.2350   -4.6650    1.2250 C   0  0  0  0  0  3  0  0  0  0  0  0
    0.9480   -5.1570    1.1370 C   0  0  0  0  0  0  0  0  0  0  0  0
   -0.0780   -4.0170    0.3850 S   0  0  0  0  0  0  0  0  0  0  0  0
    1.2080   -2.9080    0.0960 C   0  0  0  0  0  0  0  0  0  0  0  0
    0.4190   -6.4390    1.6240 C   0  0  0  0  0  0  0  0  0  0  0  0
    1.0370   -7.1370    2.6720 C   0  0  0  0  0  3  0  0  0  0  0  0
    0.5130   -8.3490    3.1320 C   0  0  0  0  0  3  0  0  0  0  0  0
   -0.6380   -8.8770    2.5510 C   0  0  0  0  0  3  0  0  0  0  0  0
   -1.2650   -8.1940    1.5100 C   0  0  0  0  0  3  0  0  0  0  0  0
   -0.7410   -6.9820    1.0520 C   0  0  0  0  0  3  0  0  0  0  0  0
    4.9120   -2.8380    0.1790 N   0  0  0  0  0  0  0  0  0  0  0  0
    5.7890   -1.8580    0.5530 N   0  0  0  0  0  0  0  0  0  0  0  0
    5.1650   -1.0240    1.3690 N   0  0  0  0  0  0  0  0  0  0  0  0
    3.8880   -1.4660    1.5110 C   0  0  0  0  0  3  0  0  0  0  0  0
    3.6900   -2.6200    0.7800 C   0  0  0  0  0  0  0  0  0  0  0  0
    6.0610   -6.2740   -4.3770 C   0  0  0  0  0  1  0  0  0  0  0  0
    5.3790   -5.6160   -3.1790 C   0  0  1  0  0  3  0  0  0  0  0  0
    6.2370   -5.7700   -1.9170 C   0  0  0  0  0  2  0  0  0  0  0  0
    5.6020   -5.0770   -0.7090 C   0  0  0  0  0  2  0  0  0  0  0  0
    5.2990   -3.5990   -1.0060 C   0  0  1  0  0  3  0  0  0  0  0  0
    4.4350   -3.4490   -2.2660 C   0  0  0  0  0  2  0  0  0  0  0  0
    5.0860   -4.1370   -3.4680 C   0  0  0  0  0  2  0  0  0  0  0  0
    1.0050   -1.6920   -0.7430 C   0  0  0  0  0  0  0  0  0  0  0  0
    1.0960   -1.8280   -2.0020 O   0  0  0  0  0  0  0  0  0  0  0  0
    0.7520   -0.6050   -0.1390 O   0  0  0  0  0  1  0  0  0  0  0  0
  1 16  1  0  0  0  0
  1  2  1  0  0  0  0
  3  2  2  0  0  0  0
  3  6  1  0  0  0  0
  4  3  1  0  0  0  0
  5  4  1  0  0  0  0
  5  1  2  0  0  0  0
  6  7  1  0  0  0  0
  7  8  2  0  0  0  0
  9  8  1  0  0  0  0
 10  9  2  0  0  0  0
 11 10  1  0  0  0  0
 11  6  2  0  0  0  0
 12 13  1  0  0  0  0
 12 16  1  0  0  0  0
 13 14  2  0  0  0  0
 14 15  1  0  0  0  0
 16 15  2  0  0  0  0
 18 17  1  6  0  0  0
 18 19  1  0  0  0  0
 19 20  1  0  0  0  0
 21 22  1  6  0  0  0
 21 20  1  0  0  0  0
 21 12  1  0  0  0  0
 23 18  1  0  0  0  0
 23 22  1  0  0  0  0
 24 26  1  0  0  0  0
 24  5  1  0  0  0  0
 25 24  2  0  0  0  0
M  END
>  <minimizedAffinity>
-3.06429482

$$$$
