
 OpenBabel09092210413D

 26 29  0  0  1  0  0  0  0  0999 V2000
    5.2330   -4.1980   -0.5490 C   0  0  0  0  0  0  0  0  0  0  0  0
    5.8000   -5.4230   -0.0590 C   0  0  0  0  0  3  0  0  0  0  0  0
    5.5890   -6.5020   -0.8930 C   0  0  0  0  0  0  0  0  0  0  0  0
    4.7230   -6.0220   -2.2850 S   0  0  0  0  0  0  0  0  0  0  0  0
    4.7090   -4.3640   -1.8190 C   0  0  0  0  0  0  0  0  0  0  0  0
    5.9700   -7.9080   -0.6920 C   0  0  0  0  0  0  0  0  0  0  0  0
    6.2530   -8.4160    0.5840 C   0  0  0  0  0  3  0  0  0  0  0  0
    6.6010   -9.7590    0.7580 C   0  0  0  0  0  3  0  0  0  0  0  0
    6.6670  -10.6110   -0.3420 C   0  0  0  0  0  3  0  0  0  0  0  0
    6.3860  -10.1220   -1.6160 C   0  0  0  0  0  3  0  0  0  0  0  0
    6.0370   -8.7800   -1.7890 C   0  0  0  0  0  3  0  0  0  0  0  0
    4.3270   -2.0690    0.7040 N   0  0  0  0  0  0  0  0  0  0  0  0
    4.9020   -1.0920    1.4700 N   0  0  0  0  0  0  0  0  0  0  0  0
    6.2030   -1.3200    1.5350 N   0  0  0  0  0  0  0  0  0  0  0  0
    6.4610   -2.4460    0.8180 C   0  0  0  0  0  3  0  0  0  0  0  0
    5.2980   -2.9450    0.2670 C   0  0  0  0  0  0  0  0  0  0  0  0
   -1.3440   -2.6700    1.8710 C   0  0  0  0  0  1  0  0  0  0  0  0
    0.1560   -2.4130    2.0060 C   0  0  1  0  0  3  0  0  0  0  0  0
    0.9550   -3.6630    1.6150 C   0  0  0  0  0  2  0  0  0  0  0  0
    2.4640   -3.4220    1.6930 C   0  0  0  0  0  2  0  0  0  0  0  0
    2.8810   -2.2030    0.8520 C   0  0  1  0  0  3  0  0  0  0  0  0
    2.0830   -0.9530    1.2510 C   0  0  0  0  0  2  0  0  0  0  0  0
    0.5770   -1.2050    1.1580 C   0  0  0  0  0  2  0  0  0  0  0  0
    4.2220   -3.3040   -2.7500 C   0  0  0  0  0  0  0  0  0  0  0  0
    5.0790   -2.7550   -3.5110 O   0  0  0  0  0  0  0  0  0  0  0  0
    2.9850   -3.0280   -2.7200 O   0  0  0  0  0  1  0  0  0  0  0  0
  1  2  1  0  0  0  0
  1 16  1  0  0  0  0
  3  6  1  0  0  0  0
  3  2  2  0  0  0  0
  4  5  1  0  0  0  0
  4  3  1  0  0  0  0
  5  1  2  0  0  0  0
  6  7  1  0  0  0  0
  7  8  2  0  0  0  0
  9  8  1  0  0  0  0
 10  9  2  0  0  0  0
 11 10  1  0  0  0  0
 11  6  2  0  0  0  0
 12 13  1  0  0  0  0
 13 14  2  0  0  0  0
 15 14  1  0  0  0  0
 16 12  1  0  0  0  0
 16 15  2  0  0  0  0
 18 17  1  6  0  0  0
 19 20  1  0  0  0  0
 19 18  1  0  0  0  0
 21 12  1  1  0  0  0
 21 22  1  0  0  0  0
 21 20  1  0  0  0  0
 23 22  1  0  0  0  0
 23 18  1  0  0  0  0
 24 26  1  0  0  0  0
 24  5  1  0  0  0  0
 25 24  2  0  0  0  0
M  END
>  <minimizedAffinity>
-3.13904285

$$$$
