
 OpenBabel09092210413D

 26 29  0  0  1  0  0  0  0  0999 V2000
    2.0230   -4.0340   -2.2940 C   0  0  0  0  0  0  0  0  0  0  0  0
    1.6220   -5.3680   -1.9450 C   0  0  0  0  0  3  0  0  0  0  0  0
    2.0110   -6.3210   -2.8640 C   0  0  0  0  0  0  0  0  0  0  0  0
    2.8860   -5.5980   -4.1410 S   0  0  0  0  0  0  0  0  0  0  0  0
    2.8250   -4.0340   -3.4230 C   0  0  0  0  0  0  0  0  0  0  0  0
    1.7300   -7.7630   -2.8670 C   0  0  0  0  0  0  0  0  0  0  0  0
    1.6800   -8.4990   -4.0610 C   0  0  0  0  0  3  0  0  0  0  0  0
    1.4230   -9.8730   -4.0440 C   0  0  0  0  0  3  0  0  0  0  0  0
    1.2170  -10.5300   -2.8330 C   0  0  0  0  0  3  0  0  0  0  0  0
    1.2670   -9.8140   -1.6380 C   0  0  0  0  0  3  0  0  0  0  0  0
    1.5240   -8.4410   -1.6560 C   0  0  0  0  0  3  0  0  0  0  0  0
    2.0170   -2.4390   -0.2010 N   0  0  0  0  0  0  0  0  0  0  0  0
    1.3720   -1.2740    0.1130 N   0  0  0  0  0  0  0  0  0  0  0  0
    0.5800   -0.9470   -0.8950 N   0  0  0  0  0  0  0  0  0  0  0  0
    0.7220   -1.8990   -1.8560 C   0  0  0  0  0  3  0  0  0  0  0  0
    1.6170   -2.8670   -1.4500 C   0  0  0  0  0  0  0  0  0  0  0  0
    6.6670   -4.1580    2.8490 C   0  0  0  0  0  1  0  0  0  0  0  0
    5.5190   -4.1030    1.8430 C   0  0  1  0  0  3  0  0  0  0  0  0
    4.1700   -4.0010    2.5670 C   0  0  0  0  0  2  0  0  0  0  0  0
    3.0020   -3.8950    1.5840 C   0  0  0  0  0  2  0  0  0  0  0  0
    3.2020   -2.7280    0.6010 C   0  0  1  0  0  3  0  0  0  0  0  0
    4.5500   -2.8370   -0.1260 C   0  0  0  0  0  2  0  0  0  0  0  0
    5.7090   -2.9320    0.8690 C   0  0  0  0  0  2  0  0  0  0  0  0
    3.6070   -2.8950   -3.9850 C   0  0  0  0  0  0  0  0  0  0  0  0
    4.8440   -2.8390   -3.7040 O   0  0  0  0  0  1  0  0  0  0  0  0
    2.9820   -2.0620   -4.7100 O   0  0  0  0  0  0  0  0  0  0  0  0
  1  2  1  0  0  0  0
  1 16  1  0  0  0  0
  3  2  2  0  0  0  0
  4  5  1  0  0  0  0
  4  3  1  0  0  0  0
  5  1  2  0  0  0  0
  6  3  1  0  0  0  0
  6 11  1  0  0  0  0
  7  8  1  0  0  0  0
  7  6  2  0  0  0  0
  8  9  2  0  0  0  0
  9 10  1  0  0  0  0
 11 10  2  0  0  0  0
 12 13  1  0  0  0  0
 14 13  2  0  0  0  0
 15 16  2  0  0  0  0
 15 14  1  0  0  0  0
 16 12  1  0  0  0  0
 18 19  1  0  0  0  0
 18 17  1  1  0  0  0
 20 19  1  0  0  0  0
 21 12  1  6  0  0  0
 21 20  1  0  0  0  0
 22 21  1  0  0  0  0
 22 23  1  0  0  0  0
 23 18  1  0  0  0  0
 24 25  1  0  0  0  0
 24  5  1  0  0  0  0
 26 24  2  0  0  0  0
M  END
>  <minimizedAffinity>
-3.02820182

$$$$
