
 OpenBabel09092210413D

 26 29  0  0  1  0  0  0  0  0999 V2000
    3.4660   -2.0190    1.2990 C   0  0  0  0  0  0  0  0  0  0  0  0
    3.4750   -2.8290    0.1130 C   0  0  0  0  0  3  0  0  0  0  0  0
    4.7420   -3.1910   -0.3000 C   0  0  0  0  0  0  0  0  0  0  0  0
    5.9190   -2.5650    0.7680 S   0  0  0  0  0  0  0  0  0  0  0  0
    4.7390   -1.8930    1.8270 C   0  0  0  0  0  0  0  0  0  0  0  0
    5.1370   -3.9580   -1.4900 C   0  0  0  0  0  0  0  0  0  0  0  0
    4.7750   -3.5470   -2.7810 C   0  0  0  0  0  3  0  0  0  0  0  0
    5.1700   -4.2830   -3.9030 C   0  0  0  0  0  3  0  0  0  0  0  0
    5.9350   -5.4360   -3.7470 C   0  0  0  0  0  3  0  0  0  0  0  0
    6.3060   -5.8550   -2.4700 C   0  0  0  0  0  3  0  0  0  0  0  0
    5.9110   -5.1190   -1.3500 C   0  0  0  0  0  3  0  0  0  0  0  0
    1.8280   -0.2230    2.3060 N   0  0  0  0  0  0  0  0  0  0  0  0
    0.5040   -0.2210    2.6500 N   0  0  0  0  0  0  0  0  0  0  0  0
    0.0060   -1.4240    2.4150 N   0  0  0  0  0  0  0  0  0  0  0  0
    1.0100   -2.1940    1.9160 C   0  0  0  0  0  3  0  0  0  0  0  0
    2.1830   -1.4720    1.8410 C   0  0  0  0  0  0  0  0  0  0  0  0
    3.6670    5.2620    1.6710 C   0  0  0  0  0  1  0  0  0  0  0  0
    2.8440    4.0320    2.0490 C   0  0  1  0  0  3  0  0  0  0  0  0
    2.4290    3.2530    0.7940 C   0  0  0  0  0  2  0  0  0  0  0  0
    1.6440    1.9870    1.1420 C   0  0  0  0  0  2  0  0  0  0  0  0
    2.4240    1.0970    2.1240 C   0  0  1  0  0  3  0  0  0  0  0  0
    2.8320    1.8780    3.3820 C   0  0  0  0  0  2  0  0  0  0  0  0
    3.6250    3.1350    3.0190 C   0  0  0  0  0  2  0  0  0  0  0  0
    5.1260   -1.3140    3.1460 C   0  0  0  0  0  0  0  0  0  0  0  0
    5.7110   -0.1870    3.1420 O   0  0  0  0  0  0  0  0  0  0  0  0
    4.8380   -1.9870    4.1820 O   0  0  0  0  0  1  0  0  0  0  0  0
  1  5  2  0  0  0  0
  1 16  1  0  0  0  0
  2  1  1  0  0  0  0
  3  2  2  0  0  0  0
  3  4  1  0  0  0  0
  4  5  1  0  0  0  0
  5 24  1  0  0  0  0
  6 11  1  0  0  0  0
  6  3  1  0  0  0  0
  7  6  2  0  0  0  0
  8  9  2  0  0  0  0
  8  7  1  0  0  0  0
  9 10  1  0  0  0  0
 10 11  2  0  0  0  0
 12 13  1  0  0  0  0
 14 13  2  0  0  0  0
 15 14  1  0  0  0  0
 16 15  2  0  0  0  0
 16 12  1  0  0  0  0
 18 17  1  6  0  0  0
 18 23  1  0  0  0  0
 19 20  1  0  0  0  0
 19 18  1  0  0  0  0
 21 20  1  1  0  0  0
 21 12  1  0  0  0  0
 21 22  1  0  0  0  0
 23 22  1  0  0  0  0
 24 26  1  0  0  0  0
 25 24  2  0  0  0  0
M  END
>  <minimizedAffinity>
-3.1802268

$$$$
