REMARK  Name = 
REMARK  6 active torsions:
REMARK  status: ('A' for Active; 'I' for Inactive)
REMARK    1  A    between atoms: C_1  and  C_2
REMARK    2  A    between atoms: C_2  and  O_3
REMARK    3  A    between atoms: C_4  and  O_5
REMARK    4  A    between atoms: C_6  and  C_7
REMARK    5  A    between atoms: C_7  and  O_8
REMARK    6  A    between atoms: C_10  and  N_11
REMARK                            x       y       z     vdW  Elec       q    Type
REMARK                         _______ _______ _______ _____ _____    ______ ____
ROOT
ATOM      1  C   UNL     1       0.682   0.453  -2.616  0.00  0.00    +0.049 C 
ATOM      2  C   UNL     1       0.387   0.885  -1.174  0.00  0.00    +0.136 C 
ATOM      3  C   UNL     1      -1.053   1.349  -0.962  0.00  0.00    +0.181 C 
ATOM      4  C   UNL     1      -1.010   2.776  -1.482  0.00  0.00    +0.178 C 
ATOM      5  O   UNL     1       0.292   3.300  -1.124  0.00  0.00    -0.345 OA
ATOM      6  C   UNL     1       1.164   2.179  -0.822  0.00  0.00    +0.256 C 
ENDROOT
BRANCH   6   7
ATOM      7  N   UNL     1       1.610   2.283   0.556  0.00  0.00    -0.285 N 
ATOM      8  C   UNL     1       1.193   3.164   1.517  0.00  0.00    +0.203 A 
ATOM      9  N   UNL     1       1.859   3.016   2.645  0.00  0.00    -0.231 NA
ATOM     10  C   UNL     1       2.760   2.001   2.394  0.00  0.00    +0.147 A 
ATOM     11  C   UNL     1       3.749   1.387   3.181  0.00  0.00    +0.147 A 
ATOM     12  N   UNL     1       4.007   1.749   4.482  0.00  0.00    -0.341 N 
ATOM     13  N   UNL     1       4.485   0.394   2.629  0.00  0.00    -0.219 NA
ATOM     14  C   UNL     1       4.232   0.037   1.352  0.00  0.00    +0.225 A 
ATOM     15  N   UNL     1       3.310   0.544   0.503  0.00  0.00    -0.216 NA
ATOM     16  C   UNL     1       2.620   1.534   1.099  0.00  0.00    +0.167 A 
ATOM     17  H   UNL     1       3.468   2.492   4.902  0.00  0.00    +0.144 HD
ATOM     18  H   UNL     1       4.737   1.265   4.979  0.00  0.00    +0.144 HD
ENDBRANCH   6   7
BRANCH   2  19
ATOM     19  O   UNL     1       0.629  -0.257  -0.350  0.00  0.00    -0.382 OA
ATOM     20  H   UNL     1       1.599  -0.379  -0.271  0.00  0.00    +0.210 HD
ENDBRANCH   2  19
BRANCH   3  21
ATOM     21  O   UNL     1      -2.012   0.543  -1.628  0.00  0.00    -0.386 OA
ATOM     22  H   UNL     1      -1.871  -0.369  -1.307  0.00  0.00    +0.210 HD
ENDBRANCH   3  21
BRANCH   4  23
ATOM     23  C   UNL     1      -2.096   3.664  -0.883  0.00  0.00    +0.190 C 
BRANCH  23  24
ATOM     24  O   UNL     1      -1.968   4.992  -1.392  0.00  0.00    -0.392 OA
ATOM     25  H   UNL     1      -1.023   5.225  -1.321  0.00  0.00    +0.210 HD
ENDBRANCH  23  24
ENDBRANCH   4  23
TORSDOF 5
