
 OpenBabel09132204463D

 25 27  0  0  1  0  0  0  0  0999 V2000
    2.3040   -3.7280    6.6700 C   0  0  0  0  0  1  0  0  0  0  0  0
    3.4420   -2.9340    6.0140 C   0  0  2  0  0  0  0  0  0  0  0  0
    3.4070   -2.9720    4.4880 C   0  0  1  0  0  3  0  0  0  0  0  0
    4.0440   -4.3180    4.1860 C   0  0  2  0  0  3  0  0  0  0  0  0
    5.0730   -4.5140    5.1860 O   0  0  0  0  0  0  0  0  0  0  0  0
    4.8090   -3.6100    6.2910 C   0  0  1  0  0  3  0  0  0  0  0  0
    5.9330   -2.7030    6.4410 N   0  0  0  0  0  0  0  0  0  0  0  0
    7.1190   -2.7040    5.7570 C   0  0  0  0  0  3  0  0  0  0  0  0
    7.9420   -1.7730    6.1950 N   0  0  0  0  0  0  0  0  0  0  0  0
    7.2610   -1.1520    7.2220 C   0  0  0  0  0  0  0  0  0  0  0  0
    7.5950   -0.0980    8.0890 C   0  0  0  0  0  0  0  0  0  0  0  0
    8.8040    0.5570    8.0460 N   0  0  0  0  0  0  0  0  0  0  0  0
    6.6850    0.2880    9.0130 N   0  0  0  0  0  0  0  0  0  0  0  0
    5.4980   -0.3530    9.0560 C   0  0  0  0  0  3  0  0  0  0  0  0
    5.0610   -1.3680    8.2780 N   0  0  0  0  0  0  0  0  0  0  0  0
    6.0100   -1.7190    7.3900 C   0  0  0  0  0  0  0  0  0  0  0  0
    9.4920    0.2740    7.3640 H   0  0  0  0  0  0  0  0  0  0  0  0
    8.9710    1.2990    8.7060 H   0  0  0  0  0  0  0  0  0  0  0  0
    3.2920   -1.5800    6.4450 O   0  0  0  0  0  0  0  0  0  0  0  0
    3.5900   -1.5200    7.3780 H   0  0  0  0  0  0  0  0  0  0  0  0
    2.1020   -2.8410    3.9470 O   0  0  0  0  0  0  0  0  0  0  0  0
    1.7440   -2.0030    4.3000 H   0  0  0  0  0  0  0  0  0  0  0  0
    4.6690   -4.3860    2.7960 C   0  0  0  0  0  2  0  0  0  0  0  0
    6.0890   -4.4910    2.9100 O   0  0  0  0  0  0  0  0  0  0  0  0
    6.3640   -3.8180    3.5600 H   0  0  0  0  0  0  0  0  0  0  0  0
  2  6  1  0  0  0  0
  2 19  1  0  0  0  0
  2  1  1  1  0  0  0
  3 21  1  1  0  0  0
  3  2  1  0  0  0  0
  4 23  1  6  0  0  0
  4  3  1  0  0  0  0
  4  5  1  0  0  0  0
  5  6  1  0  0  0  0
  6  7  1  6  0  0  0
  7 16  1  0  0  0  0
  8  9  2  0  0  0  0
  8  7  1  0  0  0  0
  9 10  1  0  0  0  0
 10 16  2  0  0  0  0
 10 11  1  0  0  0  0
 11 13  2  0  0  0  0
 12 11  1  0  0  0  0
 12 18  1  0  0  0  0
 13 14  1  0  0  0  0
 15 14  2  0  0  0  0
 16 15  1  0  0  0  0
 17 12  1  0  0  0  0
 19 20  1  0  0  0  0
 21 22  1  0  0  0  0
 23 24  1  0  0  0  0
 24 25  1  0  0  0  0
M  END
>  <minimizedAffinity>
-4.69879007

$$$$
