
 OpenBabel09132204463D

 25 27  0  0  1  0  0  0  0  0999 V2000
    1.4270   -4.5030    7.5260 C   0  0  0  0  0  1  0  0  0  0  0  0
    2.7360   -3.7670    7.2130 C   0  0  2  0  0  0  0  0  0  0  0  0
    2.7690   -2.3350    7.7440 C   0  0  1  0  0  3  0  0  0  0  0  0
    1.9820   -1.5820    6.6850 C   0  0  2  0  0  3  0  0  0  0  0  0
    2.3030   -2.2070    5.4180 O   0  0  0  0  0  0  0  0  0  0  0  0
    2.8700   -3.5150    5.6890 C   0  0  1  0  0  3  0  0  0  0  0  0
    4.2240   -3.5640    5.1660 N   0  0  0  0  0  0  0  0  0  0  0  0
    4.6730   -4.1900    4.0350 C   0  0  0  0  0  3  0  0  0  0  0  0
    5.9800   -4.0820    3.8960 N   0  0  0  0  0  0  0  0  0  0  0  0
    6.3950   -3.3640    5.0000 C   0  0  0  0  0  0  0  0  0  0  0  0
    7.6580   -2.9300    5.4350 C   0  0  0  0  0  0  0  0  0  0  0  0
    8.8200   -3.1870    4.7470 N   0  0  0  0  0  0  0  0  0  0  0  0
    7.7340   -2.2270    6.5900 N   0  0  0  0  0  0  0  0  0  0  0  0
    6.5930   -1.9730    7.2660 C   0  0  0  0  0  3  0  0  0  0  0  0
    5.3290   -2.3280    6.9470 N   0  0  0  0  0  0  0  0  0  0  0  0
    5.3160   -3.0340    5.8010 C   0  0  0  0  0  0  0  0  0  0  0  0
    8.7770   -3.7150    3.8880 H   0  0  0  0  0  0  0  0  0  0  0  0
    9.6890   -2.8470    5.1280 H   0  0  0  0  0  0  0  0  0  0  0  0
    3.7820   -4.5140    7.8380 O   0  0  0  0  0  0  0  0  0  0  0  0
    3.9390   -5.3250    7.3080 H   0  0  0  0  0  0  0  0  0  0  0  0
    2.2210   -2.2000    9.0450 O   0  0  0  0  0  0  0  0  0  0  0  0
    2.7230   -2.8130    9.6170 H   0  0  0  0  0  0  0  0  0  0  0  0
    2.3300   -0.0990    6.6220 C   0  0  0  0  0  2  0  0  0  0  0  0
    3.3310    0.2030    7.5950 O   0  0  0  0  0  0  0  0  0  0  0  0
    3.0420   -0.2170    8.4270 H   0  0  0  0  0  0  0  0  0  0  0  0
  2  1  1  1  0  0  0
  2  3  1  0  0  0  0
  2 19  1  0  0  0  0
  3 21  1  1  0  0  0
  4 23  1  6  0  0  0
  4  3  1  0  0  0  0
  5  6  1  0  0  0  0
  5  4  1  0  0  0  0
  6  7  1  1  0  0  0
  6  2  1  0  0  0  0
  7 16  1  0  0  0  0
  8  7  1  0  0  0  0
  9  8  2  0  0  0  0
  9 10  1  0  0  0  0
 10 11  2  0  0  0  0
 10 16  1  0  0  0  0
 11 13  1  0  0  0  0
 12 18  1  0  0  0  0
 12 11  1  0  0  0  0
 13 14  2  0  0  0  0
 15 14  1  0  0  0  0
 16 15  2  0  0  0  0
 17 12  1  0  0  0  0
 20 19  1  0  0  0  0
 21 22  1  0  0  0  0
 23 24  1  0  0  0  0
 24 25  1  0  0  0  0
M  END
>  <minimizedAffinity>
-1.81103897

$$$$
