
 OpenBabel09132204463D

 25 27  0  0  1  0  0  0  0  0999 V2000
    7.8000   -4.1530    8.9010 C   0  0  0  0  0  1  0  0  0  0  0  0
    7.1260   -3.2860    7.8300 C   0  0  2  0  0  0  0  0  0  0  0  0
    7.4510   -1.7990    7.9600 C   0  0  1  0  0  3  0  0  0  0  0  0
    6.4960   -1.3560    9.0560 C   0  0  2  0  0  3  0  0  0  0  0  0
    5.2800   -2.1200    8.8690 O   0  0  0  0  0  0  0  0  0  0  0  0
    5.5890   -3.2660    8.0320 C   0  0  1  0  0  3  0  0  0  0  0  0
    4.8020   -3.1900    6.8150 N   0  0  0  0  0  0  0  0  0  0  0  0
    5.0310   -3.8120    5.6170 C   0  0  0  0  0  3  0  0  0  0  0  0
    4.1450   -3.4680    4.7040 N   0  0  0  0  0  0  0  0  0  0  0  0
    3.3140   -2.5670    5.3390 C   0  0  0  0  0  0  0  0  0  0  0  0
    2.1920   -1.8380    4.9090 C   0  0  0  0  0  0  0  0  0  0  0  0
    1.6890   -1.9150    3.6320 N   0  0  0  0  0  0  0  0  0  0  0  0
    1.5800   -1.0180    5.7960 N   0  0  0  0  0  0  0  0  0  0  0  0
    2.0730   -0.9420    7.0500 C   0  0  0  0  0  3  0  0  0  0  0  0
    3.1330   -1.5940    7.5800 N   0  0  0  0  0  0  0  0  0  0  0  0
    3.7080   -2.3820    6.6520 C   0  0  0  0  0  0  0  0  0  0  0  0
    2.1400   -2.5190    2.9610 H   0  0  0  0  0  0  0  0  0  0  0  0
    0.8840   -1.3560    3.3990 H   0  0  0  0  0  0  0  0  0  0  0  0
    7.6050   -3.7530    6.5680 O   0  0  0  0  0  0  0  0  0  0  0  0
    7.1610   -4.6050    6.3670 H   0  0  0  0  0  0  0  0  0  0  0  0
    8.8110   -1.5410    8.2700 O   0  0  0  0  0  0  0  0  0  0  0  0
    9.3370   -1.9700    7.5670 H   0  0  0  0  0  0  0  0  0  0  0  0
    6.1730    0.1340    9.0030 C   0  0  0  0  0  2  0  0  0  0  0  0
    7.0150    0.7750    8.0440 O   0  0  0  0  0  0  0  0  0  0  0  0
    7.9210    0.4570    8.2160 H   0  0  0  0  0  0  0  0  0  0  0  0
  2  3  1  0  0  0  0
  2  6  1  0  0  0  0
  2  1  1  1  0  0  0
  3 21  1  1  0  0  0
  3  4  1  0  0  0  0
  4 23  1  6  0  0  0
  5  4  1  0  0  0  0
  6  7  1  6  0  0  0
  6  5  1  0  0  0  0
  8  7  1  0  0  0  0
  9 10  1  0  0  0  0
  9  8  2  0  0  0  0
 10 16  1  0  0  0  0
 11 10  2  0  0  0  0
 11 13  1  0  0  0  0
 12 11  1  0  0  0  0
 13 14  2  0  0  0  0
 14 15  1  0  0  0  0
 16  7  1  0  0  0  0
 16 15  2  0  0  0  0
 17 12  1  0  0  0  0
 18 12  1  0  0  0  0
 19  2  1  0  0  0  0
 20 19  1  0  0  0  0
 22 21  1  0  0  0  0
 24 25  1  0  0  0  0
 24 23  1  0  0  0  0
M  END
>  <minimizedAffinity>
-3.91778898

$$$$
