
 OpenBabel09132204463D

 25 27  0  0  1  0  0  0  0  0999 V2000
    2.2280   -1.8830    7.4860 C   0  0  0  0  0  1  0  0  0  0  0  0
    3.0650   -2.9640    6.7910 C   0  0  2  0  0  0  0  0  0  0  0  0
    3.5040   -4.0880    7.7280 C   0  0  1  0  0  3  0  0  0  0  0  0
    4.7050   -3.4720    8.4270 C   0  0  2  0  0  3  0  0  0  0  0  0
    5.3730   -2.6500    7.4390 O   0  0  0  0  0  0  0  0  0  0  0  0
    4.4390   -2.3940    6.3560 C   0  0  1  0  0  3  0  0  0  0  0  0
    4.9800   -2.9410    5.1250 N   0  0  0  0  0  0  0  0  0  0  0  0
    4.3030   -3.5280    4.0900 C   0  0  0  0  0  3  0  0  0  0  0  0
    5.1190   -3.9710    3.1540 N   0  0  0  0  0  0  0  0  0  0  0  0
    6.3840   -3.6690    3.6150 C   0  0  0  0  0  0  0  0  0  0  0  0
    7.6690   -3.8870    3.0890 C   0  0  0  0  0  0  0  0  0  0  0  0
    7.8920   -4.5140    1.8860 N   0  0  0  0  0  0  0  0  0  0  0  0
    8.7370   -3.4600    3.8030 N   0  0  0  0  0  0  0  0  0  0  0  0
    8.5190   -2.8430    4.9830 C   0  0  0  0  0  3  0  0  0  0  0  0
    7.3390   -2.5720    5.5860 N   0  0  0  0  0  0  0  0  0  0  0  0
    6.3170   -3.0290    4.8400 C   0  0  0  0  0  0  0  0  0  0  0  0
    7.1030   -4.8410    1.3480 H   0  0  0  0  0  0  0  0  0  0  0  0
    8.8430   -4.6380    1.5790 H   0  0  0  0  0  0  0  0  0  0  0  0
    2.2420   -3.5170    5.7620 O   0  0  0  0  0  0  0  0  0  0  0  0
    2.1950   -2.8710    5.0260 H   0  0  0  0  0  0  0  0  0  0  0  0
    2.4900   -4.5040    8.6280 O   0  0  0  0  0  0  0  0  0  0  0  0
    1.7270   -4.7660    8.0760 H   0  0  0  0  0  0  0  0  0  0  0  0
    5.6820   -4.5120    8.9650 C   0  0  0  0  0  2  0  0  0  0  0  0
    6.8960   -4.4680    8.2150 O   0  0  0  0  0  0  0  0  0  0  0  0
    6.6380   -4.4510    7.2740 H   0  0  0  0  0  0  0  0  0  0  0  0
  2  1  1  1  0  0  0
  2  3  1  0  0  0  0
  3  4  1  0  0  0  0
  3 21  1  1  0  0  0
  4 23  1  6  0  0  0
  5  4  1  0  0  0  0
  6  7  1  6  0  0  0
  6  2  1  0  0  0  0
  6  5  1  0  0  0  0
  8  7  1  0  0  0  0
  9 10  1  0  0  0  0
  9  8  2  0  0  0  0
 10 16  1  0  0  0  0
 11 10  2  0  0  0  0
 11 13  1  0  0  0  0
 12 11  1  0  0  0  0
 13 14  2  0  0  0  0
 14 15  1  0  0  0  0
 16  7  1  0  0  0  0
 16 15  2  0  0  0  0
 17 12  1  0  0  0  0
 18 12  1  0  0  0  0
 19  2  1  0  0  0  0
 20 19  1  0  0  0  0
 22 21  1  0  0  0  0
 24 23  1  0  0  0  0
 25 24  1  0  0  0  0
M  END
>  <minimizedAffinity>
-3.12643242

$$$$
