
 OpenBabel09132204463D

 25 27  0  0  1  0  0  0  0  0999 V2000
    1.3340   -1.0220    8.1680 C   0  0  0  0  0  1  0  0  0  0  0  0
    2.4960   -1.3260    7.2130 C   0  0  2  0  0  0  0  0  0  0  0  0
    2.0410   -1.6640    5.7940 C   0  0  1  0  0  3  0  0  0  0  0  0
    1.6400   -3.1230    5.9240 C   0  0  2  0  0  3  0  0  0  0  0  0
    2.5680   -3.7170    6.8650 O   0  0  0  0  0  0  0  0  0  0  0  0
    3.2010   -2.6470    7.6140 C   0  0  1  0  0  3  0  0  0  0  0  0
    4.6330   -2.6850    7.3770 N   0  0  0  0  0  0  0  0  0  0  0  0
    5.6400   -2.2740    8.2080 C   0  0  0  0  0  3  0  0  0  0  0  0
    6.8260   -2.3960    7.6450 N   0  0  0  0  0  0  0  0  0  0  0  0
    6.5690   -2.8960    6.3840 C   0  0  0  0  0  0  0  0  0  0  0  0
    7.4030   -3.2330    5.3040 C   0  0  0  0  0  0  0  0  0  0  0  0
    8.7700   -3.0980    5.3390 N   0  0  0  0  0  0  0  0  0  0  0  0
    6.8290   -3.7110    4.1750 N   0  0  0  0  0  0  0  0  0  0  0  0
    5.4870   -3.8460    4.1400 C   0  0  0  0  0  3  0  0  0  0  0  0
    4.5870   -3.5640    5.1100 N   0  0  0  0  0  0  0  0  0  0  0  0
    5.2110   -3.0810    6.2000 C   0  0  0  0  0  0  0  0  0  0  0  0
    9.2080   -2.7370    6.1740 H   0  0  0  0  0  0  0  0  0  0  0  0
    9.2990   -3.3560    4.5210 H   0  0  0  0  0  0  0  0  0  0  0  0
    3.3050   -0.1500    7.1700 O   0  0  0  0  0  0  0  0  0  0  0  0
    3.8140   -0.0960    8.0060 H   0  0  0  0  0  0  0  0  0  0  0  0
    0.9880   -0.8370    5.3240 O   0  0  0  0  0  0  0  0  0  0  0  0
    1.3110    0.0820    5.3950 H   0  0  0  0  0  0  0  0  0  0  0  0
    1.7040   -3.8820    4.6020 C   0  0  0  0  0  2  0  0  0  0  0  0
    2.2390   -3.0340    3.5850 O   0  0  0  0  0  0  0  0  0  0  0  0
    1.7690   -2.1810    3.6610 H   0  0  0  0  0  0  0  0  0  0  0  0
  2  6  1  0  0  0  0
  2  1  1  1  0  0  0
  3 21  1  1  0  0  0
  3  4  1  0  0  0  0
  3  2  1  0  0  0  0
  4 23  1  6  0  0  0
  4  5  1  0  0  0  0
  5  6  1  0  0  0  0
  6  7  1  6  0  0  0
  7  8  1  0  0  0  0
  9  8  2  0  0  0  0
 10  9  1  0  0  0  0
 11 12  1  0  0  0  0
 11 10  2  0  0  0  0
 12 17  1  0  0  0  0
 13 11  1  0  0  0  0
 14 13  2  0  0  0  0
 14 15  1  0  0  0  0
 15 16  2  0  0  0  0
 16 10  1  0  0  0  0
 16  7  1  0  0  0  0
 18 12  1  0  0  0  0
 19  2  1  0  0  0  0
 19 20  1  0  0  0  0
 21 22  1  0  0  0  0
 24 25  1  0  0  0  0
 24 23  1  0  0  0  0
M  END
>  <minimizedAffinity>
-2.86636353

$$$$
