
 OpenBabel09132204463D

 25 27  0  0  1  0  0  0  0  0999 V2000
    2.1990   -4.5140    7.3950 C   0  0  0  0  0  1  0  0  0  0  0  0
    3.0490   -3.3080    6.9740 C   0  0  2  0  0  0  0  0  0  0  0  0
    3.0920   -3.0940    5.4620 C   0  0  1  0  0  3  0  0  0  0  0  0
    4.1390   -4.1050    5.0250 C   0  0  2  0  0  3  0  0  0  0  0  0
    5.1330   -4.1410    6.0780 O   0  0  0  0  0  0  0  0  0  0  0  0
    4.5470   -3.5650    7.2740 C   0  0  1  0  0  3  0  0  0  0  0  0
    5.3150   -2.3950    7.6620 N   0  0  0  0  0  0  0  0  0  0  0  0
    4.9690   -1.4100    8.5480 C   0  0  0  0  0  3  0  0  0  0  0  0
    5.8820   -0.4610    8.6110 N   0  0  0  0  0  0  0  0  0  0  0  0
    6.8560   -0.8440    7.7120 C   0  0  0  0  0  0  0  0  0  0  0  0
    8.0700   -0.2600    7.3140 C   0  0  0  0  0  0  0  0  0  0  0  0
    8.5320    0.9320    7.8180 N   0  0  0  0  0  0  0  0  0  0  0  0
    8.8190   -0.9020    6.3860 N   0  0  0  0  0  0  0  0  0  0  0  0
    8.3670   -2.0740    5.8910 C   0  0  0  0  0  3  0  0  0  0  0  0
    7.2280   -2.7340    6.1980 N   0  0  0  0  0  0  0  0  0  0  0  0
    6.5190   -2.0450    7.1110 C   0  0  0  0  0  0  0  0  0  0  0  0
    7.9790    1.4220    8.5060 H   0  0  0  0  0  0  0  0  0  0  0  0
    9.4100    1.2900    7.4780 H   0  0  0  0  0  0  0  0  0  0  0  0
    2.4560   -2.1600    7.5850 O   0  0  0  0  0  0  0  0  0  0  0  0
    2.6790   -2.1710    8.5400 H   0  0  0  0  0  0  0  0  0  0  0  0
    1.8380   -3.2820    4.8270 O   0  0  0  0  0  0  0  0  0  0  0  0
    1.2160   -2.6680    5.2650 H   0  0  0  0  0  0  0  0  0  0  0  0
    4.8110   -3.7380    3.7060 C   0  0  0  0  0  2  0  0  0  0  0  0
    4.0450   -2.7340    3.0380 O   0  0  0  0  0  0  0  0  0  0  0  0
    3.1150   -3.0280    3.0710 H   0  0  0  0  0  0  0  0  0  0  0  0
  2  6  1  0  0  0  0
  2  1  1  1  0  0  0
  2 19  1  0  0  0  0
  3 21  1  6  0  0  0
  3  2  1  0  0  0  0
  4 23  1  6  0  0  0
  4  3  1  0  0  0  0
  4  5  1  0  0  0  0
  5  6  1  0  0  0  0
  6  7  1  6  0  0  0
  7  8  1  0  0  0  0
  8  9  2  0  0  0  0
 10  9  1  0  0  0  0
 11 10  1  0  0  0  0
 11 12  1  0  0  0  0
 12 17  1  0  0  0  0
 13 11  2  0  0  0  0
 14 15  2  0  0  0  0
 14 13  1  0  0  0  0
 15 16  1  0  0  0  0
 16  7  1  0  0  0  0
 16 10  2  0  0  0  0
 18 12  1  0  0  0  0
 19 20  1  0  0  0  0
 21 22  1  0  0  0  0
 24 25  1  0  0  0  0
 24 23  1  0  0  0  0
M  END
>  <minimizedAffinity>
-4.43135548

$$$$
