REMARK  Name = 
REMARK  3 active torsions:
REMARK  status: ('A' for Active; 'I' for Inactive)
REMARK    1  A    between atoms: O_1  and  C_2
REMARK    2  A    between atoms: C_8  and  C_9
REMARK    3  A    between atoms: C_15  and  C_16
REMARK                            x       y       z     vdW  Elec       q    Type
REMARK                         _______ _______ _______ _____ _____    ______ ____
ROOT
ATOM      1  C   UNL     1       0.315  -1.182   0.616  0.00  0.00    +0.244 A 
ATOM      2  N   UNL     1       0.629  -1.462   1.890  0.00  0.00    -0.200 NA
ATOM      3  C   UNL     1      -0.131  -2.407   2.442  0.00  0.00    +0.227 A 
ATOM      4  N   UNL     1      -1.129  -3.056   1.836  0.00  0.00    -0.214 NA
ATOM      5  C   UNL     1      -1.395  -2.739   0.569  0.00  0.00    +0.186 A 
ATOM      6  N   UNL     1      -2.386  -3.399  -0.031  0.00  0.00    -0.224 NA
ATOM      7  C   UNL     1      -2.690  -3.111  -1.331  0.00  0.00    +0.099 A 
ATOM      8  C   UNL     1      -2.002  -2.110  -2.030  0.00  0.00    +0.098 A 
ATOM      9  N   UNL     1      -0.979  -1.444  -1.436  0.00  0.00    -0.236 NA
ATOM     10  C   UNL     1      -0.688  -1.766  -0.142  0.00  0.00    +0.170 A 
ENDROOT
BRANCH   7  11
ATOM     11  C   UNL     1      -3.758  -3.961  -1.890  0.00  0.00    +0.003 A 
ATOM     12  C   UNL     1      -3.599  -4.655  -3.103  0.00  0.00    +0.010 A 
ATOM     13  C   UNL     1      -4.624  -5.453  -3.618  0.00  0.00    +0.001 A 
ATOM     14  C   UNL     1      -5.824  -5.582  -2.924  0.00  0.00    +0.000 A 
ATOM     15  C   UNL     1      -5.998  -4.921  -1.712  0.00  0.00    +0.001 A 
ATOM     16  C   UNL     1      -4.972  -4.122  -1.199  0.00  0.00    +0.010 A 
ENDBRANCH   7  11
BRANCH   8  17
ATOM     17  C   UNL     1      -2.297  -1.660  -3.402  0.00  0.00    +0.002 A 
ATOM     18  C   UNL     1      -1.262  -1.535  -4.347  0.00  0.00    +0.010 A 
ATOM     19  C   UNL     1      -1.519  -1.111  -5.653  0.00  0.00    +0.001 A 
ATOM     20  C   UNL     1      -2.818  -0.793  -6.038  0.00  0.00    +0.000 A 
ATOM     21  C   UNL     1      -3.857  -0.890  -5.117  0.00  0.00    +0.001 A 
ATOM     22  C   UNL     1      -3.598  -1.313  -3.809  0.00  0.00    +0.010 A 
ENDBRANCH   8  17
BRANCH   1  23
ATOM     23  O   UNL     1       1.116  -0.212   0.086  0.00  0.00    -0.491 OA
ATOM     24  H   UNL     1       1.693  -0.010   0.843  0.00  0.00    +0.294 HD
ENDBRANCH   1  23
TORSDOF 3
