
 OpenBabel09122223143D

 24 27  0  0  1  0  0  0  0  0999 V2000
    4.8410   -8.1580    0.0050 C   0  0  0  0  0  0  0  0  0  0  0  0
    5.4550   -7.6460   -1.0730 N   0  0  0  0  0  0  0  0  0  0  0  0
    5.7220   -6.3440   -0.9780 C   0  0  0  0  0  2  0  0  0  0  0  0
    5.4330   -5.5640    0.0680 N   0  0  0  0  0  0  0  0  0  0  0  0
    4.8260   -6.1270    1.1120 C   0  0  0  0  0  0  0  0  0  0  0  0
    4.5500   -5.3430    2.1540 N   0  0  0  0  0  0  0  0  0  0  0  0
    3.9330   -5.8790    3.2490 C   0  0  0  0  0  0  0  0  0  0  0  0
    3.5540   -7.2280    3.2770 C   0  0  0  0  0  0  0  0  0  0  0  0
    3.8450   -8.0400    2.2290 N   0  0  0  0  0  0  0  0  0  0  0  0
    4.4770   -7.4800    1.1570 C   0  0  1  0  0  3  0  0  0  0  0  0
    3.7510   -4.9190    4.3530 C   0  0  0  0  0  0  0  0  0  0  0  0
    4.6780   -4.8100    5.4050 C   0  0  0  0  0  3  0  0  0  0  0  0
    4.4870   -3.8960    6.4450 C   0  0  0  0  0  3  0  0  0  0  0  0
    3.3700   -3.0640    6.4460 C   0  0  0  0  0  3  0  0  0  0  0  0
    2.4480   -3.1400    5.4060 C   0  0  0  0  0  3  0  0  0  0  0  0
    2.6410   -4.0560    4.3680 C   0  0  0  0  0  3  0  0  0  0  0  0
    2.8130   -7.8910    4.3650 C   0  0  0  0  0  0  0  0  0  0  0  0
    3.4200   -8.9130    5.1180 C   0  0  0  0  0  3  0  0  0  0  0  0
    2.7380   -9.5550    6.1540 C   0  0  0  0  0  3  0  0  0  0  0  0
    1.4270   -9.1930    6.4520 C   0  0  0  0  0  3  0  0  0  0  0  0
    0.7970   -8.1980    5.7100 C   0  0  0  0  0  3  0  0  0  0  0  0
    1.4820   -7.5580    4.6720 C   0  0  0  0  0  3  0  0  0  0  0  0
    4.5860   -9.4930   -0.1300 O   0  0  0  0  0  0  0  0  0  0  0  0
    4.9430   -9.6640   -1.0190 H   0  0  0  0  0  0  0  0  0  0  0  0
  2  3  1  0  0  0  0
  2  1  2  0  0  0  0
  3  4  1  0  0  0  0
  4  5  2  0  0  0  0
  5 10  1  0  0  0  0
  5  6  1  0  0  0  0
  6  7  2  0  0  0  0
  7  8  1  0  0  0  0
  7 11  1  0  0  0  0
  8 17  1  0  0  0  0
  9  8  2  0  0  0  0
 10  1  1  6  0  0  0
 10  9  1  0  0  0  0
 11 16  2  0  0  0  0
 11 12  1  0  0  0  0
 12 13  2  0  0  0  0
 13 14  1  0  0  0  0
 15 14  2  0  0  0  0
 16 15  1  0  0  0  0
 17 22  2  0  0  0  0
 17 18  1  0  0  0  0
 18 19  2  0  0  0  0
 19 20  1  0  0  0  0
 21 20  2  0  0  0  0
 22 21  1  0  0  0  0
 23  1  1  0  0  0  0
 24 23  1  0  0  0  0
M  END
>  <minimizedAffinity>
-6.25573587

$$$$

 OpenBabel09122223143D

 24 27  0  0  1  0  0  0  0  0999 V2000
   -2.1600   -7.4590    5.7200 C   0  0  0  0  0  0  0  0  0  0  0  0
   -3.1170   -8.3780    5.5250 N   0  0  0  0  0  0  0  0  0  0  0  0
   -2.6890   -9.4910    4.9300 C   0  0  0  0  0  2  0  0  0  0  0  0
   -1.4340   -9.7320    4.5400 N   0  0  0  0  0  0  0  0  0  0  0  0
   -0.5240   -8.7840    4.7610 C   0  0  0  0  0  0  0  0  0  0  0  0
    0.7280   -9.0370    4.3770 N   0  0  0  0  0  0  0  0  0  0  0  0
    1.6950   -8.0970    4.5890 C   0  0  0  0  0  0  0  0  0  0  0  0
    1.3860   -6.8590    5.1690 C   0  0  0  0  0  0  0  0  0  0  0  0
    0.1190   -6.5970    5.5810 N   0  0  0  0  0  0  0  0  0  0  0  0
   -0.8220   -7.5630    5.3710 C   0  0  1  0  0  3  0  0  0  0  0  0
    3.0430   -8.5340    4.1810 C   0  0  0  0  0  0  0  0  0  0  0  0
    3.8520   -9.3280    5.0120 C   0  0  0  0  0  3  0  0  0  0  0  0
    5.1290   -9.7290    4.6090 C   0  0  0  0  0  3  0  0  0  0  0  0
    5.6160   -9.3540    3.3600 C   0  0  0  0  0  3  0  0  0  0  0  0
    4.8260   -8.5840    2.5110 C   0  0  0  0  0  3  0  0  0  0  0  0
    3.5510   -8.1830    2.9170 C   0  0  0  0  0  3  0  0  0  0  0  0
    2.3270   -5.7430    5.3700 C   0  0  0  0  0  0  0  0  0  0  0  0
    2.1910   -4.5560    4.6280 C   0  0  0  0  0  3  0  0  0  0  0  0
    3.0710   -3.4850    4.8030 C   0  0  0  0  0  3  0  0  0  0  0  0
    4.1140   -3.5850    5.7180 C   0  0  0  0  0  3  0  0  0  0  0  0
    4.2820   -4.7560    6.4520 C   0  0  0  0  0  3  0  0  0  0  0  0
    3.4010   -5.8280    6.2740 C   0  0  0  0  0  3  0  0  0  0  0  0
   -2.6360   -6.3360    6.3320 O   0  0  0  0  0  0  0  0  0  0  0  0
   -3.5770   -6.5630    6.4360 H   0  0  0  0  0  0  0  0  0  0  0  0
  1 23  1  0  0  0  0
  2  1  2  0  0  0  0
  3  2  1  0  0  0  0
  4  5  2  0  0  0  0
  4  3  1  0  0  0  0
  6  7  2  0  0  0  0
  6  5  1  0  0  0  0
  7  8  1  0  0  0  0
  8 17  1  0  0  0  0
  8  9  2  0  0  0  0
 10  5  1  6  0  0  0
 10  9  1  0  0  0  0
 10  1  1  0  0  0  0
 11  7  1  0  0  0  0
 11 12  1  0  0  0  0
 13 12  2  0  0  0  0
 14 13  1  0  0  0  0
 15 16  1  0  0  0  0
 15 14  2  0  0  0  0
 16 11  2  0  0  0  0
 17 22  1  0  0  0  0
 18 19  1  0  0  0  0
 18 17  2  0  0  0  0
 19 20  2  0  0  0  0
 20 21  1  0  0  0  0
 22 21  2  0  0  0  0
 23 24  1  0  0  0  0
M  END
>  <minimizedAffinity>
-5.09401321

$$$$

 OpenBabel09122223143D

 24 27  0  0  1  0  0  0  0  0999 V2000
    5.3660   -6.1650   -0.1320 C   0  0  0  0  0  0  0  0  0  0  0  0
    5.6600   -6.9700   -1.1640 N   0  0  0  0  0  0  0  0  0  0  0  0
    5.3240   -8.2450   -0.9710 C   0  0  0  0  0  2  0  0  0  0  0  0
    4.7440   -8.7400    0.1260 N   0  0  0  0  0  0  0  0  0  0  0  0
    4.4720   -7.8930    1.1190 C   0  0  0  0  0  0  0  0  0  0  0  0
    3.8830   -8.3940    2.2050 N   0  0  0  0  0  0  0  0  0  0  0  0
    3.5810   -7.5620    3.2450 C   0  0  0  0  0  0  0  0  0  0  0  0
    3.9120   -6.2010    3.2020 C   0  0  0  0  0  0  0  0  0  0  0  0
    4.4940   -5.6760    2.0940 N   0  0  0  0  0  0  0  0  0  0  0  0
    4.7690   -6.5290    1.0650 C   0  0  1  0  0  3  0  0  0  0  0  0
    2.8720   -8.2330    4.3510 C   0  0  0  0  0  0  0  0  0  0  0  0
    3.5600   -8.8460    5.4130 C   0  0  0  0  0  3  0  0  0  0  0  0
    2.8710   -9.4790    6.4510 C   0  0  0  0  0  3  0  0  0  0  0  0
    1.4790   -9.5020    6.4520 C   0  0  0  0  0  3  0  0  0  0  0  0
    0.7750   -8.8850    5.4220 C   0  0  0  0  0  3  0  0  0  0  0  0
    1.4660   -8.2530    4.3840 C   0  0  0  0  0  3  0  0  0  0  0  0
    3.7080   -5.2310    4.2930 C   0  0  0  0  0  0  0  0  0  0  0  0
    2.6300   -4.3280    4.2490 C   0  0  0  0  0  3  0  0  0  0  0  0
    2.4180   -3.4010    5.2720 C   0  0  0  0  0  3  0  0  0  0  0  0
    3.2880   -3.3510    6.3570 C   0  0  0  0  0  3  0  0  0  0  0  0
    4.3740   -4.2200    6.4150 C   0  0  0  0  0  3  0  0  0  0  0  0
    4.5860   -5.1470    5.3890 C   0  0  0  0  0  3  0  0  0  0  0  0
    5.7220   -4.8680   -0.3680 O   0  0  0  0  0  0  0  0  0  0  0  0
    6.1070   -4.9380   -1.2590 H   0  0  0  0  0  0  0  0  0  0  0  0
  2  3  1  0  0  0  0
  2  1  2  0  0  0  0
  3  4  1  0  0  0  0
  4  5  2  0  0  0  0
  5  6  1  0  0  0  0
  6  7  2  0  0  0  0
  7 11  1  0  0  0  0
  8  7  1  0  0  0  0
  8 17  1  0  0  0  0
  9  8  2  0  0  0  0
 10  1  1  1  0  0  0
 10  5  1  0  0  0  0
 10  9  1  0  0  0  0
 11 16  2  0  0  0  0
 11 12  1  0  0  0  0
 12 13  2  0  0  0  0
 13 14  1  0  0  0  0
 15 14  2  0  0  0  0
 16 15  1  0  0  0  0
 17 22  1  0  0  0  0
 18 17  2  0  0  0  0
 18 19  1  0  0  0  0
 19 20  2  0  0  0  0
 20 21  1  0  0  0  0
 22 21  2  0  0  0  0
 23  1  1  0  0  0  0
 24 23  1  0  0  0  0
M  END
>  <minimizedAffinity>
-4.39679289

$$$$
