REMARK  Name = 
REMARK  3 active torsions:
REMARK  status: ('A' for Active; 'I' for Inactive)
REMARK    1  A    between atoms: C_2  and  C_4
REMARK    2  A    between atoms: C_11  and  C_12
REMARK    3  A    between atoms: N_22  and  C_23
REMARK                            x       y       z     vdW  Elec       q    Type
REMARK                         _______ _______ _______ _____ _____    ______ ____
ROOT
ATOM      1  C   UNL     1       3.586  -0.724   0.943  0.00  0.00    -0.001 A 
ATOM      2  C   UNL     1       2.987  -1.939   0.576  0.00  0.00    +0.012 A 
ATOM      3  C   UNL     1       3.351  -3.159   1.162  0.00  0.00    +0.028 A 
ATOM      4  C   UNL     1       4.348  -3.133   2.146  0.00  0.00    +0.069 A 
ATOM      5  C   UNL     1       4.981  -1.951   2.515  0.00  0.00    +0.090 A 
ATOM      6  C   UNL     1       4.598  -0.738   1.922  0.00  0.00    +0.039 A 
ATOM      7  N   UNL     1       5.947  -2.190   3.458  0.00  0.00    -0.226 NA
ATOM      8  C   UNL     1       5.968  -3.500   3.651  0.00  0.00    +0.161 A 
ATOM      9  N   UNL     1       4.925  -4.098   2.953  0.00  0.00    -0.319 N 
ENDROOT
BRANCH   8  10
ATOM     10  C   UNL     1       6.962  -4.170   4.504  0.00  0.00    +0.107 A 
ATOM     11  C   UNL     1       7.597  -3.468   5.519  0.00  0.00    +0.032 A 
ATOM     12  C   UNL     1       8.559  -4.119   6.283  0.00  0.00    +0.012 A 
ATOM     13  C   UNL     1       8.874  -5.453   6.007  0.00  0.00    +0.000 A 
ATOM     14  C   UNL     1       9.841  -6.155   6.748  0.00  0.00    +0.010 A 
ATOM     15  C   UNL     1      10.135  -7.482   6.443  0.00  0.00    +0.001 A 
ATOM     16  C   UNL     1       9.466  -8.111   5.398  0.00  0.00    +0.002 A 
ATOM     17  C   UNL     1       8.506  -7.409   4.663  0.00  0.00    +0.028 A 
ATOM     18  C   UNL     1       8.192  -6.086   4.947  0.00  0.00    +0.072 A 
ATOM     19  N   UNL     1       7.258  -5.461   4.210  0.00  0.00    -0.244 NA
ENDBRANCH   8  10
BRANCH   9  20
ATOM     20  C   UNL     1       4.478  -5.482   3.088  0.00  0.00    +0.089 C 
ATOM     21  C   UNL     1       2.988  -5.623   3.456  0.00  0.00    +0.025 C 
ATOM     22  C   UNL     1       2.605  -7.091   3.646  0.00  0.00    +0.002 C 
ATOM     23  C   UNL     1       2.967  -7.928   2.422  0.00  0.00    +0.000 C 
ATOM     24  C   UNL     1       4.444  -7.794   2.062  0.00  0.00    +0.002 C 
ATOM     25  C   UNL     1       4.850  -6.335   1.866  0.00  0.00    +0.025 C 
ENDBRANCH   9  20
BRANCH   1  27
ATOM     26  O   UNL     1       2.240   0.507  -0.588  0.00  0.00    -0.545 OA
ATOM     27  C   UNL     1       3.157   0.576   0.293  0.00  0.00    +0.072 C 
ATOM     28  O   UNL     1       3.739   1.640   0.675  0.00  0.00    -0.545 OA
ENDBRANCH   1  27
TORSDOF 3
