
 OpenBabel09122222393D

 28 32  0  0  0  0  0  0  0  0999 V2000
    7.5480   -5.2050    1.1660 C   0  0  0  0  0  0  0  0  0  0  0  0
    8.2840   -5.1850   -0.0290 C   0  0  0  0  0  3  0  0  0  0  0  0
    9.0980   -4.1020   -0.3880 C   0  0  0  0  0  3  0  0  0  0  0  0
    9.1600   -3.0170    0.4960 C   0  0  0  0  0  0  0  0  0  0  0  0
    8.4240   -2.9920    1.6760 C   0  0  0  0  0  0  0  0  0  0  0  0
    7.6200   -4.0890    2.0220 C   0  0  0  0  0  3  0  0  0  0  0  0
    8.6160   -1.8110    2.3450 N   0  0  0  0  0  0  0  0  0  0  0  0
    9.4160   -1.0760    1.5870 C   0  0  0  0  0  0  0  0  0  0  0  0
    9.8630   -1.8250    0.5050 N   0  0  0  0  0  0  0  0  0  0  0  0
    9.7610    0.3190    1.9020 C   0  0  0  0  0  0  0  0  0  0  0  0
    9.9590    0.7090    3.2190 C   0  0  0  0  0  3  0  0  0  0  0  0
   10.2470    2.0430    3.4870 C   0  0  0  0  0  3  0  0  0  0  0  0
   10.3170    2.9590    2.4330 C   0  0  0  0  0  0  0  0  0  0  0  0
   10.6010    4.3190    2.6510 C   0  0  0  0  0  3  0  0  0  0  0  0
   10.6580    5.2070    1.5790 C   0  0  0  0  0  3  0  0  0  0  0  0
   10.4300    4.7410    0.2880 C   0  0  0  0  0  3  0  0  0  0  0  0
   10.1460    3.3880    0.0760 C   0  0  0  0  0  3  0  0  0  0  0  0
   10.0860    2.4810    1.1260 C   0  0  0  0  0  0  0  0  0  0  0  0
    9.8130    1.1920    0.8640 N   0  0  0  0  0  0  0  0  0  0  0  0
   10.9260   -1.4500   -0.4240 C   0  0  0  0  0  3  0  0  0  0  0  0
   11.9570   -2.5660   -0.6760 C   0  0  0  0  0  2  0  0  0  0  0  0
   13.0740   -2.0850   -1.6030 C   0  0  0  0  0  2  0  0  0  0  0  0
   12.5160   -1.5250   -2.9090 C   0  0  0  0  0  2  0  0  0  0  0  0
   11.5000   -0.4140   -2.6600 C   0  0  0  0  0  2  0  0  0  0  0  0
   10.3730   -0.8730   -1.7370 C   0  0  0  0  0  2  0  0  0  0  0  0
    6.7400   -7.4050    0.7420 O   0  0  0  0  0  0  0  0  0  0  0  0
    6.6880   -6.4000    1.5230 C   0  0  0  0  0  0  0  0  0  0  0  0
    5.9800   -6.3160    2.5760 O   0  0  0  0  0  1  0  0  0  0  0  0
  1 27  1  0  0  0  0
  1  6  1  0  0  0  0
  2  1  2  0  0  0  0
  3  2  1  0  0  0  0
  3  4  2  0  0  0  0
  4  9  1  0  0  0  0
  4  5  1  0  0  0  0
  5  6  2  0  0  0  0
  5  7  1  0  0  0  0
  8 10  1  0  0  0  0
  8  7  2  0  0  0  0
  9  8  1  0  0  0  0
 10 11  1  0  0  0  0
 11 12  2  0  0  0  0
 13 14  1  0  0  0  0
 13 12  1  0  0  0  0
 15 14  2  0  0  0  0
 16 15  1  0  0  0  0
 17 16  2  0  0  0  0
 17 18  1  0  0  0  0
 18 13  2  0  0  0  0
 19 18  1  0  0  0  0
 19 10  2  0  0  0  0
 20  9  1  0  0  0  0
 21 20  1  0  0  0  0
 22 21  1  0  0  0  0
 23 24  1  0  0  0  0
 23 22  1  0  0  0  0
 24 25  1  0  0  0  0
 25 20  1  0  0  0  0
 26 27  2  0  0  0  0
 27 28  1  0  0  0  0
M  END
>  <minimizedAffinity>
-7.76429319

$$$$
