
 OpenBabel09122222393D

 28 32  0  0  0  0  0  0  0  0999 V2000
    7.3580   -5.6350    1.0170 C   0  0  0  0  0  0  0  0  0  0  0  0
    8.0910   -5.4570   -0.1670 C   0  0  0  0  0  3  0  0  0  0  0  0
    8.8810   -4.3220   -0.3940 C   0  0  0  0  0  3  0  0  0  0  0  0
    8.9230   -3.3500    0.6140 C   0  0  0  0  0  0  0  0  0  0  0  0
    8.1880   -3.4810    1.7880 C   0  0  0  0  0  0  0  0  0  0  0  0
    7.4080   -4.6280    2.0000 C   0  0  0  0  0  3  0  0  0  0  0  0
    8.3580   -2.3840    2.5930 N   0  0  0  0  0  0  0  0  0  0  0  0
    9.1400   -1.5480    1.9290 C   0  0  0  0  0  0  0  0  0  0  0  0
    9.6010   -2.1530    0.7660 N   0  0  0  0  0  0  0  0  0  0  0  0
    9.4570   -0.1930    2.4090 C   0  0  0  0  0  0  0  0  0  0  0  0
    9.4060    0.8850    1.5370 C   0  0  0  0  0  3  0  0  0  0  0  0
    9.7470    2.1470    2.0110 C   0  0  0  0  0  3  0  0  0  0  0  0
   10.1450    2.3000    3.3420 C   0  0  0  0  0  0  0  0  0  0  0  0
   10.5040    3.5530    3.8700 C   0  0  0  0  0  3  0  0  0  0  0  0
   10.9010    3.6700    5.2000 C   0  0  0  0  0  3  0  0  0  0  0  0
   10.9430    2.5370    6.0060 C   0  0  0  0  0  3  0  0  0  0  0  0
   10.5870    1.2920    5.4770 C   0  0  0  0  0  3  0  0  0  0  0  0
   10.1850    1.1480    4.1550 C   0  0  0  0  0  0  0  0  0  0  0  0
    9.8510   -0.0720    3.7010 N   0  0  0  0  0  0  0  0  0  0  0  0
   10.6530   -1.6470   -0.1120 C   0  0  0  0  0  3  0  0  0  0  0  0
   11.6700   -2.7190   -0.5490 C   0  0  0  0  0  2  0  0  0  0  0  0
   12.7780   -2.1090   -1.4080 C   0  0  0  0  0  2  0  0  0  0  0  0
   12.2070   -1.3520   -2.6040 C   0  0  0  0  0  2  0  0  0  0  0  0
   11.2050   -0.2850   -2.1710 C   0  0  0  0  0  2  0  0  0  0  0  0
   10.0880   -0.8710   -1.3110 C   0  0  0  0  0  2  0  0  0  0  0  0
    5.9920   -7.4040    0.1960 O   0  0  0  0  0  0  0  0  0  0  0  0
    6.5230   -6.8810    1.2290 C   0  0  0  0  0  0  0  0  0  0  0  0
    6.4160   -7.3180    2.4180 O   0  0  0  0  0  1  0  0  0  0  0  0
  1 27  1  0  0  0  0
  1  6  1  0  0  0  0
  2  1  2  0  0  0  0
  3  2  1  0  0  0  0
  3  4  2  0  0  0  0
  4  9  1  0  0  0  0
  4  5  1  0  0  0  0
  5  6  2  0  0  0  0
  5  7  1  0  0  0  0
  8 10  1  0  0  0  0
  8  7  2  0  0  0  0
  9  8  1  0  0  0  0
 10 19  1  0  0  0  0
 11 12  1  0  0  0  0
 11 10  2  0  0  0  0
 12 13  2  0  0  0  0
 13 14  1  0  0  0  0
 13 18  1  0  0  0  0
 14 15  2  0  0  0  0
 15 16  1  0  0  0  0
 17 16  2  0  0  0  0
 18 17  1  0  0  0  0
 19 18  2  0  0  0  0
 20  9  1  0  0  0  0
 21 20  1  0  0  0  0
 22 21  1  0  0  0  0
 23 24  1  0  0  0  0
 23 22  1  0  0  0  0
 24 25  1  0  0  0  0
 25 20  1  0  0  0  0
 26 27  2  0  0  0  0
 27 28  1  0  0  0  0
M  END
>  <minimizedAffinity>
-7.8891139

$$$$
