
 OpenBabel09122222393D

 28 32  0  0  0  0  0  0  0  0999 V2000
    5.9290   -6.2780    0.4660 C   0  0  0  0  0  0  0  0  0  0  0  0
    6.1460   -5.7860    1.7620 C   0  0  0  0  0  3  0  0  0  0  0  0
    7.1820   -4.8890    2.0580 C   0  0  0  0  0  3  0  0  0  0  0  0
    8.0100   -4.4860    1.0020 C   0  0  0  0  0  0  0  0  0  0  0  0
    7.8390   -4.9730   -0.2890 C   0  0  0  0  0  0  0  0  0  0  0  0
    6.7920   -5.8650   -0.5670 C   0  0  0  0  0  3  0  0  0  0  0  0
    8.7960   -4.4680   -1.1310 N   0  0  0  0  0  0  0  0  0  0  0  0
    9.5930   -3.7160   -0.3860 C   0  0  0  0  0  0  0  0  0  0  0  0
    9.0760   -3.6090    0.9000 N   0  0  0  0  0  0  0  0  0  0  0  0
   10.8230   -3.0950   -0.9010 C   0  0  0  0  0  0  0  0  0  0  0  0
   11.9990   -3.8290   -0.9710 C   0  0  0  0  0  3  0  0  0  0  0  0
   13.1530   -3.2030   -1.4260 C   0  0  0  0  0  3  0  0  0  0  0  0
   13.1100   -1.8540   -1.7890 C   0  0  0  0  0  0  0  0  0  0  0  0
   14.2500   -1.1730   -2.2530 C   0  0  0  0  0  3  0  0  0  0  0  0
   14.1730    0.1730   -2.6010 C   0  0  0  0  0  3  0  0  0  0  0  0
   12.9600    0.8440   -2.4870 C   0  0  0  0  0  3  0  0  0  0  0  0
   11.8290    0.1640   -2.0250 C   0  0  0  0  0  3  0  0  0  0  0  0
   11.8770   -1.1780   -1.6720 C   0  0  0  0  0  0  0  0  0  0  0  0
   10.7580   -1.7820   -1.2370 N   0  0  0  0  0  0  0  0  0  0  0  0
    9.5360   -2.6930    1.9410 C   0  0  0  0  0  3  0  0  0  0  0  0
    8.8050   -1.3360    1.9450 C   0  0  0  0  0  2  0  0  0  0  0  0
    9.3800   -0.4050    3.0130 C   0  0  0  0  0  2  0  0  0  0  0  0
    9.3660   -1.0590    4.3930 C   0  0  0  0  0  2  0  0  0  0  0  0
   10.0950   -2.3990    4.3900 C   0  0  0  0  0  2  0  0  0  0  0  0
    9.5370   -3.3470    3.3310 C   0  0  0  0  0  2  0  0  0  0  0  0
    4.7030   -7.7010   -0.9980 O   0  0  0  0  0  0  0  0  0  0  0  0
    4.7910   -7.2390    0.1850 C   0  0  0  0  0  0  0  0  0  0  0  0
    4.0100   -7.5170    1.1490 O   0  0  0  0  0  1  0  0  0  0  0  0
  1  2  1  0  0  0  0
  2  3  2  0  0  0  0
  4  3  1  0  0  0  0
  5  4  2  0  0  0  0
  6  5  1  0  0  0  0
  6  1  2  0  0  0  0
  7  8  2  0  0  0  0
  7  5  1  0  0  0  0
  8  9  1  0  0  0  0
  9  4  1  0  0  0  0
  9 20  1  0  0  0  0
 10  8  1  0  0  0  0
 11 10  1  0  0  0  0
 12 11  2  0  0  0  0
 13 18  1  0  0  0  0
 13 12  1  0  0  0  0
 14 13  2  0  0  0  0
 15 16  2  0  0  0  0
 15 14  1  0  0  0  0
 16 17  1  0  0  0  0
 17 18  2  0  0  0  0
 18 19  1  0  0  0  0
 19 10  2  0  0  0  0
 20 21  1  0  0  0  0
 20 25  1  0  0  0  0
 21 22  1  0  0  0  0
 22 23  1  0  0  0  0
 24 23  1  0  0  0  0
 25 24  1  0  0  0  0
 26 27  2  0  0  0  0
 27  1  1  0  0  0  0
 27 28  1  0  0  0  0
M  END
>  <minimizedAffinity>
-9.29486942

$$$$
