REMARK  Name = 
REMARK  8 active torsions:
REMARK  status: ('A' for Active; 'I' for Inactive)
REMARK    1  A    between atoms: C_2  and  C_19
REMARK    2  A    between atoms: N_3  and  CA_4
REMARK    3  A    between atoms: CA_4  and  C_5
REMARK    4  A    between atoms: CA_4  and  C_16
REMARK    5  A    between atoms: C_5  and  C_6
REMARK    6  A    between atoms: C_12  and  O_13
REMARK    7  A    between atoms: C_26  and  C_27
REMARK    8  A    between atoms: N_33  and  C_34
REMARK                            x       y       z     vdW  Elec       q    Type
REMARK                         _______ _______ _______ _____ _____    ______ ____
ROOT
ATOM      1  O   UNL     1       1.817   0.093   1.615  0.00  0.00    -0.270 OA
ATOM      2  C   UNL     1       3.021   0.065   1.369  0.00  0.00    +0.245 C 
ATOM      3  N   UNL     1       3.839   1.121   1.640  0.00  0.00    -0.303 N 
ATOM      4  H   UNL     1       3.441   1.895   2.169  0.00  0.00    +0.150 HD
ENDROOT
BRANCH   2   5
ATOM      5  C   UNL     1       3.581  -1.149   0.739  0.00  0.00    +0.039 A 
ATOM      6  C   UNL     1       2.969  -1.647  -0.415  0.00  0.00    +0.015 A 
ATOM      7  C   UNL     1       3.427  -2.821  -1.027  0.00  0.00    +0.029 A 
ATOM      8  C   UNL     1       4.514  -3.481  -0.433  0.00  0.00    +0.069 A 
ATOM      9  C   UNL     1       5.101  -3.014   0.740  0.00  0.00    +0.090 A 
ATOM     10  C   UNL     1       4.635  -1.840   1.346  0.00  0.00    +0.043 A 
ATOM     11  N   UNL     1       6.101  -3.849   1.150  0.00  0.00    -0.226 NA
ATOM     12  C   UNL     1       6.141  -4.850   0.285  0.00  0.00    +0.160 A 
ATOM     13  N   UNL     1       5.243  -4.615  -0.752  0.00  0.00    -0.319 N 
BRANCH  12  14
ATOM     14  C   UNL     1       7.037  -6.006   0.438  0.00  0.00    +0.106 A 
ATOM     15  C   UNL     1       8.237  -5.872   1.132  0.00  0.00    +0.031 A 
ATOM     16  C   UNL     1       9.048  -6.991   1.299  0.00  0.00    +0.004 A 
ATOM     17  C   UNL     1       8.633  -8.211   0.782  0.00  0.00    +0.020 A 
ATOM     18  C   UNL     1       7.419  -8.261   0.117  0.00  0.00    +0.111 A 
ATOM     19  N   UNL     1       6.613  -7.192  -0.067  0.00  0.00    -0.252 NA
ENDBRANCH  12  14
BRANCH  13  20
ATOM     20  C   UNL     1       5.118  -5.404  -1.976  0.00  0.00    +0.089 C 
ATOM     21  C   UNL     1       3.841  -6.256  -1.984  0.00  0.00    +0.025 C 
ATOM     22  C   UNL     1       3.767  -7.136  -3.231  0.00  0.00    +0.002 C 
ATOM     23  C   UNL     1       3.914  -6.318  -4.511  0.00  0.00    +0.000 C 
ATOM     24  C   UNL     1       5.191  -5.481  -4.504  0.00  0.00    +0.002 C 
ATOM     25  C   UNL     1       5.268  -4.582  -3.270  0.00  0.00    +0.025 C 
ENDBRANCH  13  20
ENDBRANCH   2   5
BRANCH   3  26
ATOM     26  CA  UNL     1       5.235   1.412   1.219  0.00  0.00    +0.123 C 
BRANCH  26  27
ATOM     27  C   UNL     1       5.906   2.552   2.046  0.00  0.00    +0.062 C 
ATOM     28  O   UNL     1       7.146   2.710   1.847  0.00  0.00    -0.548 OA
ATOM     29  OXT UNL     1       5.138   3.136   2.870  0.00  0.00    -0.548 OA
ENDBRANCH  26  27
BRANCH  26  30
ATOM     30  C   UNL     1       5.357   1.741  -0.278  0.00  0.00    +0.065 C 
BRANCH  30  31
ATOM     31  C   UNL     1       4.576   2.939  -0.749  0.00  0.00    -0.020 A 
ATOM     32  C   UNL     1       3.207   3.011  -0.925  0.00  0.00    +0.087 A 
ATOM     33  N   UNL     1       2.889   4.276  -1.330  0.00  0.00    -0.360 N 
ATOM     34  C   UNL     1       4.027   5.032  -1.480  0.00  0.00    +0.047 A 
ATOM     35  C   UNL     1       4.180   6.363  -1.889  0.00  0.00    +0.030 A 
ATOM     36  C   UNL     1       5.476   6.885  -1.928  0.00  0.00    +0.047 A 
ATOM     37  C   UNL     1       6.564   6.097  -1.565  0.00  0.00    +0.118 A 
ATOM     38  C   UNL     1       6.402   4.773  -1.156  0.00  0.00    +0.055 A 
ATOM     39  C   UNL     1       5.104   4.222  -1.114  0.00  0.00    +0.006 A 
ATOM     40  H   UNL     1       1.951   4.614  -1.483  0.00  0.00    +0.165 HD
BRANCH  37  41
ATOM     41  O   UNL     1       7.832   6.606  -1.597  0.00  0.00    -0.507 OA
ATOM     42  H   UNL     1       7.762   7.571  -1.553  0.00  0.00    +0.292 HD
ENDBRANCH  37  41
ENDBRANCH  30  31
ENDBRANCH  26  30
ENDBRANCH   3  26
TORSDOF 8
