
 OpenBabel09132204463D

 42 47  0  0  1  0  0  0  0  0999 V2000
    7.1810   -5.2150   -1.4060 O   0  0  0  0  0  0  0  0  0  0  0  0
    7.0830   -5.2900   -0.1830 C   0  0  0  0  0  0  0  0  0  0  0  0
    7.5730   -4.3220    0.6420 N   0  0  0  0  0  0  0  0  0  0  0  0
    7.9170   -3.4680    0.2060 H   0  0  0  0  0  0  0  0  0  0  0  0
    6.4330   -6.4830    0.3980 C   0  0  0  0  0  0  0  0  0  0  0  0
    5.4400   -7.1310   -0.3420 C   0  0  0  0  0  3  0  0  0  0  0  0
    4.7560   -8.2370    0.1780 C   0  0  0  0  0  3  0  0  0  0  0  0
    5.0990   -8.6630    1.4710 C   0  0  0  0  0  0  0  0  0  0  0  0
    6.0570   -7.9960    2.2300 C   0  0  0  0  0  0  0  0  0  0  0  0
    6.7340   -6.8900    1.7020 C   0  0  0  0  0  3  0  0  0  0  0  0
    6.1780   -8.5630    3.4670 N   0  0  0  0  0  0  0  0  0  0  0  0
    5.2990   -9.5500    3.5230 C   0  0  0  0  0  0  0  0  0  0  0  0
    4.6790   -9.7020    2.2860 N   0  0  0  0  0  0  0  0  0  0  0  0
    5.0660  -10.3490    4.7360 C   0  0  0  0  0  0  0  0  0  0  0  0
    5.6110  -11.6260    4.8460 C   0  0  0  0  0  3  0  0  0  0  0  0
    5.4110  -12.3450    6.0210 C   0  0  0  0  0  3  0  0  0  0  0  0
    4.6870  -11.7660    7.0540 C   0  0  0  0  0  3  0  0  0  0  0  0
    4.1910  -10.4860    6.8690 C   0  0  0  0  0  3  0  0  0  0  0  0
    4.3620   -9.7650    5.7390 N   0  0  0  0  0  0  0  0  0  0  0  0
    3.7760  -10.7850    1.9040 C   0  0  0  0  0  3  0  0  0  0  0  0
    2.3380  -10.5300    2.3780 C   0  0  0  0  0  2  0  0  0  0  0  0
    1.4250  -11.7090    2.0450 C   0  0  0  0  0  2  0  0  0  0  0  0
    1.4810  -12.0670    0.5620 C   0  0  0  0  0  2  0  0  0  0  0  0
    2.9110  -12.3310    0.0970 C   0  0  0  0  0  2  0  0  0  0  0  0
    3.8310  -11.1510    0.4090 C   0  0  0  0  0  2  0  0  0  0  0  0
    7.7910   -4.3060    2.1130 C   0  0  2  0  0  3  0  0  0  0  0  0
    6.5120   -3.9300    2.9240 C   0  0  0  0  0  0  0  0  0  0  0  0
    5.4970   -3.6310    2.2300 O   0  0  0  0  0  0  0  0  0  0  0  0
    6.6680   -3.9030    4.1830 O   0  0  0  0  0  1  0  0  0  0  0  0
    8.9440   -3.3840    2.5410 C   0  0  0  0  0  2  0  0  0  0  0  0
    9.2860   -2.2760    1.5810 C   0  0  0  0  0  0  0  0  0  0  0  0
    8.8340   -0.9710    1.6360 C   0  0  0  0  0  3  0  0  0  0  0  0
    9.3980   -0.2740    0.6060 N   0  0  0  0  0  0  0  0  0  0  0  0
   10.1750   -1.1040   -0.1660 C   0  0  0  0  0  0  0  0  0  0  0  0
   10.9200   -0.8290   -1.3200 C   0  0  0  0  0  3  0  0  0  0  0  0
   11.6440   -1.8800   -1.8910 C   0  0  0  0  0  3  0  0  0  0  0  0
   11.6170   -3.1470   -1.3170 C   0  0  0  0  0  0  0  0  0  0  0  0
   10.8750   -3.4110   -0.1660 C   0  0  0  0  0  3  0  0  0  0  0  0
   10.1320   -2.3680    0.4260 C   0  0  0  0  0  0  0  0  0  0  0  0
    9.2760    0.7140    0.4430 H   0  0  0  0  0  0  0  0  0  0  0  0
   12.3280   -4.1750   -1.8700 O   0  0  0  0  0  0  0  0  0  0  0  0
   13.0310   -3.7880   -2.4120 H   0  0  0  0  0  0  0  0  0  0  0  0
  1  2  2  0  0  0  0
  2  5  1  0  0  0  0
  2  3  1  0  0  0  0
  3 26  1  0  0  0  0
  4  3  1  0  0  0  0
  5 10  1  0  0  0  0
  6  7  1  0  0  0  0
  6  5  2  0  0  0  0
  7  8  2  0  0  0  0
  8  9  1  0  0  0  0
  8 13  1  0  0  0  0
  9 11  1  0  0  0  0
 10  9  2  0  0  0  0
 11 12  2  0  0  0  0
 12 14  1  0  0  0  0
 13 12  1  0  0  0  0
 14 15  2  0  0  0  0
 14 19  1  0  0  0  0
 15 16  1  0  0  0  0
 16 17  2  0  0  0  0
 18 17  1  0  0  0  0
 19 18  2  0  0  0  0
 20 13  1  0  0  0  0
 20 21  1  0  0  0  0
 22 21  1  0  0  0  0
 23 22  1  0  0  0  0
 24 25  1  0  0  0  0
 24 23  1  0  0  0  0
 25 20  1  0  0  0  0
 26 30  1  6  0  0  0
 26 27  1  0  0  0  0
 27 29  1  0  0  0  0
 28 27  2  0  0  0  0
 31 32  2  0  0  0  0
 31 30  1  0  0  0  0
 33 32  1  0  0  0  0
 34 39  1  0  0  0  0
 34 33  1  0  0  0  0
 35 34  2  0  0  0  0
 36 35  1  0  0  0  0
 36 37  2  0  0  0  0
 37 38  1  0  0  0  0
 38 39  2  0  0  0  0
 39 31  1  0  0  0  0
 40 33  1  0  0  0  0
 41 37  1  0  0  0  0
 42 41  1  0  0  0  0
M  END
>  <minimizedAffinity>
-7.8058362

$$$$
