
 OpenBabel09132204463D

 42 47  0  0  1  0  0  0  0  0999 V2000
   12.4940   -3.2790    1.2340 O   0  0  0  0  0  0  0  0  0  0  0  0
   11.5320   -2.9910    0.5240 C   0  0  0  0  0  0  0  0  0  0  0  0
   11.6470   -2.1470   -0.5400 N   0  0  0  0  0  0  0  0  0  0  0  0
   12.5860   -1.8560   -0.8050 H   0  0  0  0  0  0  0  0  0  0  0  0
   10.2130   -3.5670    0.8600 C   0  0  0  0  0  0  0  0  0  0  0  0
    9.6180   -4.4500   -0.0450 C   0  0  0  0  0  3  0  0  0  0  0  0
    8.3480   -4.9880    0.1990 C   0  0  0  0  0  3  0  0  0  0  0  0
    7.6940   -4.6000    1.3790 C   0  0  0  0  0  0  0  0  0  0  0  0
    8.2630   -3.6890    2.2640 C   0  0  0  0  0  0  0  0  0  0  0  0
    9.5330   -3.1540    2.0110 C   0  0  0  0  0  3  0  0  0  0  0  0
    7.4190   -3.4310    3.3070 N   0  0  0  0  0  0  0  0  0  0  0  0
    6.3180   -4.1310    3.0880 C   0  0  0  0  0  0  0  0  0  0  0  0
    6.4820   -4.9320    1.9610 N   0  0  0  0  0  0  0  0  0  0  0  0
    5.1310   -4.0490    3.9530 C   0  0  0  0  0  0  0  0  0  0  0  0
    4.0230   -3.3090    3.5490 C   0  0  0  0  0  3  0  0  0  0  0  0
    2.8960   -3.2810    4.3670 C   0  0  0  0  0  3  0  0  0  0  0  0
    2.9030   -4.0020    5.5530 C   0  0  0  0  0  3  0  0  0  0  0  0
    4.0410   -4.7230    5.8740 C   0  0  0  0  0  3  0  0  0  0  0  0
    5.1520   -4.7650    5.1050 N   0  0  0  0  0  0  0  0  0  0  0  0
    5.5560   -5.9630    1.4980 C   0  0  0  0  0  3  0  0  0  0  0  0
    5.3200   -5.8870   -0.0170 C   0  0  0  0  0  2  0  0  0  0  0  0
    4.2880   -6.9170   -0.4720 C   0  0  0  0  0  2  0  0  0  0  0  0
    4.6600   -8.3280   -0.0250 C   0  0  0  0  0  2  0  0  0  0  0  0
    4.8830   -8.4020    1.4840 C   0  0  0  0  0  2  0  0  0  0  0  0
    5.9280   -7.3880    1.9500 C   0  0  0  0  0  2  0  0  0  0  0  0
   10.6140   -1.4720   -1.3700 C   0  0  2  0  0  3  0  0  0  0  0  0
   11.1770   -0.8860   -2.7020 C   0  0  0  0  0  0  0  0  0  0  0  0
   10.3080   -0.4620   -3.5190 O   0  0  0  0  0  0  0  0  0  0  0  0
   12.4360   -0.9710   -2.8320 O   0  0  0  0  0  1  0  0  0  0  0  0
    9.8620   -0.3650   -0.6140 C   0  0  0  0  0  2  0  0  0  0  0  0
   10.6260    0.9160   -0.4030 C   0  0  0  0  0  0  0  0  0  0  0  0
   11.4810    1.5220   -1.3040 C   0  0  0  0  0  3  0  0  0  0  0  0
   11.9470    2.6790   -0.7470 N   0  0  0  0  0  0  0  0  0  0  0  0
   11.4600    2.8260    0.5300 C   0  0  0  0  0  0  0  0  0  0  0  0
   11.6830    3.8410    1.4700 C   0  0  0  0  0  3  0  0  0  0  0  0
   11.0290    3.7400    2.7010 C   0  0  0  0  0  3  0  0  0  0  0  0
   10.1840    2.6660    2.9640 C   0  0  0  0  0  0  0  0  0  0  0  0
    9.9650    1.6620    2.0200 C   0  0  0  0  0  3  0  0  0  0  0  0
   10.6200    1.7380    0.7730 C   0  0  0  0  0  0  0  0  0  0  0  0
   12.5500    3.3400   -1.2120 H   0  0  0  0  0  0  0  0  0  0  0  0
    9.5390    2.5670    4.1640 O   0  0  0  0  0  0  0  0  0  0  0  0
    9.5030    3.4540    4.5520 H   0  0  0  0  0  0  0  0  0  0  0  0
  2  5  1  0  0  0  0
  2  1  2  0  0  0  0
  3  2  1  0  0  0  0
  4  3  1  0  0  0  0
  5 10  1  0  0  0  0
  6  7  1  0  0  0  0
  6  5  2  0  0  0  0
  7  8  2  0  0  0  0
  8 13  1  0  0  0  0
  8  9  1  0  0  0  0
  9 11  1  0  0  0  0
 10  9  2  0  0  0  0
 12 11  2  0  0  0  0
 12 14  1  0  0  0  0
 13 12  1  0  0  0  0
 14 19  1  0  0  0  0
 15 14  2  0  0  0  0
 15 16  1  0  0  0  0
 16 17  2  0  0  0  0
 17 18  1  0  0  0  0
 19 18  2  0  0  0  0
 20 25  1  0  0  0  0
 20 13  1  0  0  0  0
 21 20  1  0  0  0  0
 22 23  1  0  0  0  0
 22 21  1  0  0  0  0
 23 24  1  0  0  0  0
 24 25  1  0  0  0  0
 26 30  1  1  0  0  0
 26  3  1  0  0  0  0
 27 26  1  0  0  0  0
 28 27  2  0  0  0  0
 29 27  1  0  0  0  0
 30 31  1  0  0  0  0
 31 39  1  0  0  0  0
 32 33  1  0  0  0  0
 32 31  2  0  0  0  0
 33 34  1  0  0  0  0
 34 39  2  0  0  0  0
 34 35  1  0  0  0  0
 35 36  2  0  0  0  0
 36 37  1  0  0  0  0
 37 41  1  0  0  0  0
 38 37  2  0  0  0  0
 39 38  1  0  0  0  0
 40 33  1  0  0  0  0
 41 42  1  0  0  0  0
M  END
>  <minimizedAffinity>
-8.2751894

$$$$
