
 OpenBabel09132204463D

 42 47  0  0  1  0  0  0  0  0999 V2000
    3.8070   -6.8880   -0.2220 O   0  0  0  0  0  0  0  0  0  0  0  0
    4.5540   -7.0660    0.7380 C   0  0  0  0  0  0  0  0  0  0  0  0
    4.3410   -8.0600    1.6460 N   0  0  0  0  0  0  0  0  0  0  0  0
    3.6060   -8.7330    1.4350 H   0  0  0  0  0  0  0  0  0  0  0  0
    5.7020   -6.1520    0.9130 C   0  0  0  0  0  0  0  0  0  0  0  0
    5.7450   -5.3420    2.0520 C   0  0  0  0  0  3  0  0  0  0  0  0
    6.7840   -4.4220    2.2470 C   0  0  0  0  0  3  0  0  0  0  0  0
    7.7720   -4.3390    1.2530 C   0  0  0  0  0  0  0  0  0  0  0  0
    7.7120   -5.1120    0.0960 C   0  0  0  0  0  0  0  0  0  0  0  0
    6.6690   -6.0280   -0.0910 C   0  0  0  0  0  3  0  0  0  0  0  0
    8.7520   -4.8180   -0.7400 N   0  0  0  0  0  0  0  0  0  0  0  0
    9.4490   -3.8550   -0.1580 C   0  0  0  0  0  0  0  0  0  0  0  0
    8.9320   -3.5960    1.1080 N   0  0  0  0  0  0  0  0  0  0  0  0
   10.6040   -3.2050   -0.7950 C   0  0  0  0  0  0  0  0  0  0  0  0
   10.5600   -1.8470   -1.0990 C   0  0  0  0  0  3  0  0  0  0  0  0
   11.6810   -1.2450   -1.6640 C   0  0  0  0  0  3  0  0  0  0  0  0
   12.8160   -2.0110   -1.8950 C   0  0  0  0  0  3  0  0  0  0  0  0
   12.7820   -3.3520   -1.5500 C   0  0  0  0  0  3  0  0  0  0  0  0
   11.7070   -3.9660   -1.0070 N   0  0  0  0  0  0  0  0  0  0  0  0
    9.5280   -2.7240    2.1180 C   0  0  0  0  0  3  0  0  0  0  0  0
    8.8920   -1.3260    2.1190 C   0  0  0  0  0  2  0  0  0  0  0  0
    9.5820   -0.4020    3.1220 C   0  0  0  0  0  2  0  0  0  0  0  0
    9.6200   -1.0120    4.5210 C   0  0  0  0  0  2  0  0  0  0  0  0
   10.2640   -2.3970    4.5170 C   0  0  0  0  0  2  0  0  0  0  0  0
    9.5700   -3.3370    3.5310 C   0  0  0  0  0  2  0  0  0  0  0  0
    4.9400   -8.3110    2.9830 C   0  0  2  0  0  3  0  0  0  0  0  0
    6.2570   -9.1460    2.9240 C   0  0  0  0  0  0  0  0  0  0  0  0
    6.1390  -10.3670    3.2350 O   0  0  0  0  0  1  0  0  0  0  0  0
    7.2980   -8.4800    2.6380 O   0  0  0  0  0  0  0  0  0  0  0  0
    3.9650   -8.9810    3.9650 C   0  0  0  0  0  2  0  0  0  0  0  0
    2.9560   -8.0680    4.6080 C   0  0  0  0  0  0  0  0  0  0  0  0
    3.2240   -6.8970    5.2910 C   0  0  0  0  0  3  0  0  0  0  0  0
    2.0390   -6.3490    5.6910 N   0  0  0  0  0  0  0  0  0  0  0  0
    0.9890   -7.1620    5.3340 C   0  0  0  0  0  0  0  0  0  0  0  0
   -0.3860   -7.0090    5.5520 C   0  0  0  0  0  3  0  0  0  0  0  0
   -1.2360   -7.9990    5.0500 C   0  0  0  0  0  3  0  0  0  0  0  0
   -0.7170   -9.0880    4.3560 C   0  0  0  0  0  0  0  0  0  0  0  0
    0.6540   -9.2300    4.1420 C   0  0  0  0  0  3  0  0  0  0  0  0
    1.5330   -8.2470    4.6440 C   0  0  0  0  0  0  0  0  0  0  0  0
    1.9430   -5.4640    6.1670 H   0  0  0  0  0  0  0  0  0  0  0  0
   -1.5460  -10.0540    3.8600 O   0  0  0  0  0  0  0  0  0  0  0  0
   -2.4290   -9.6670    3.7730 H   0  0  0  0  0  0  0  0  0  0  0  0
  1  2  2  0  0  0  0
  2  5  1  0  0  0  0
  2  3  1  0  0  0  0
  3 26  1  0  0  0  0
  4  3  1  0  0  0  0
  5  6  1  0  0  0  0
  6  7  2  0  0  0  0
  8  7  1  0  0  0  0
  9  8  2  0  0  0  0
 10  9  1  0  0  0  0
 10  5  2  0  0  0  0
 11 12  2  0  0  0  0
 11  9  1  0  0  0  0
 12 13  1  0  0  0  0
 13  8  1  0  0  0  0
 13 20  1  0  0  0  0
 14 12  1  0  0  0  0
 15 14  2  0  0  0  0
 16 15  1  0  0  0  0
 17 16  2  0  0  0  0
 17 18  1  0  0  0  0
 18 19  2  0  0  0  0
 19 14  1  0  0  0  0
 20 21  1  0  0  0  0
 20 25  1  0  0  0  0
 21 22  1  0  0  0  0
 22 23  1  0  0  0  0
 24 23  1  0  0  0  0
 25 24  1  0  0  0  0
 26 30  1  1  0  0  0
 27 26  1  0  0  0  0
 27 28  1  0  0  0  0
 29 27  2  0  0  0  0
 30 31  1  0  0  0  0
 31 39  1  0  0  0  0
 31 32  2  0  0  0  0
 32 33  1  0  0  0  0
 33 40  1  0  0  0  0
 34 35  1  0  0  0  0
 34 33  1  0  0  0  0
 36 35  2  0  0  0  0
 37 36  1  0  0  0  0
 38 37  2  0  0  0  0
 38 39  1  0  0  0  0
 39 34  2  0  0  0  0
 41 37  1  0  0  0  0
 42 41  1  0  0  0  0
M  END
>  <minimizedAffinity>
-9.77355862

$$$$
