
 OpenBabel09132202573D

 42 47  0  0  1  0  0  0  0  0999 V2000
    4.7880   -7.3740   -1.1690 O   0  0  0  0  0  0  0  0  0  0  0  0
    5.2040   -7.2870   -0.0160 C   0  0  0  0  0  0  0  0  0  0  0  0
    4.7170   -8.0690    0.9890 N   0  0  0  0  0  0  0  0  0  0  0  0
    4.0790   -8.8190    0.7290 H   0  0  0  0  0  0  0  0  0  0  0  0
    6.2480   -6.2840    0.2800 C   0  0  0  0  0  0  0  0  0  0  0  0
    6.1930   -5.6010    1.4990 C   0  0  0  0  0  3  0  0  0  0  0  0
    7.1270   -4.6050    1.8130 C   0  0  0  0  0  3  0  0  0  0  0  0
    8.1110   -4.3140    0.8550 C   0  0  0  0  0  0  0  0  0  0  0  0
    8.1460   -4.9600   -0.3780 C   0  0  0  0  0  0  0  0  0  0  0  0
    7.2060   -5.9530   -0.6830 C   0  0  0  0  0  3  0  0  0  0  0  0
    9.1570   -4.4720   -1.1550 N   0  0  0  0  0  0  0  0  0  0  0  0
    9.7430   -3.5100   -0.4590 C   0  0  0  0  0  0  0  0  0  0  0  0
    9.1880   -3.4440    0.8160 N   0  0  0  0  0  0  0  0  0  0  0  0
   10.8300   -2.6790   -0.9980 C   0  0  0  0  0  0  0  0  0  0  0  0
   12.1140   -3.2040   -1.1230 C   0  0  0  0  0  3  0  0  0  0  0  0
   13.1160   -2.4110   -1.6750 C   0  0  0  0  0  3  0  0  0  0  0  0
   12.8060   -1.1250   -2.0970 C   0  0  0  0  0  3  0  0  0  0  0  0
   11.5010   -0.6850   -1.9500 C   0  0  0  0  0  3  0  0  0  0  0  0
   10.5090   -1.4280   -1.4120 N   0  0  0  0  0  0  0  0  0  0  0  0
    9.6780   -2.6280    1.9250 C   0  0  0  0  0  3  0  0  0  0  0  0
    8.9730   -1.2660    1.9930 C   0  0  0  0  0  2  0  0  0  0  0  0
    9.5540   -0.3940    3.1050 C   0  0  0  0  0  2  0  0  0  0  0  0
    9.5410   -1.1110    4.4530 C   0  0  0  0  0  2  0  0  0  0  0  0
   10.2530   -2.4590    4.3830 C   0  0  0  0  0  2  0  0  0  0  0  0
    9.6680   -3.3490    3.2860 C   0  0  0  0  0  2  0  0  0  0  0  0
    4.8770   -7.9790    2.4650 C   0  0  2  0  0  3  0  0  0  0  0  0
    5.8950   -9.0120    3.0410 C   0  0  0  0  0  0  0  0  0  0  0  0
    5.3860  -10.0690    3.5170 O   0  0  0  0  0  1  0  0  0  0  0  0
    7.1060   -8.6340    3.0240 O   0  0  0  0  0  0  0  0  0  0  0  0
    3.5470   -8.1100    3.2240 C   0  0  0  0  0  2  0  0  0  0  0  0
    3.4250   -7.2810    4.4750 C   0  0  0  0  0  0  0  0  0  0  0  0
    3.2350   -7.7550    5.7600 C   0  0  0  0  0  3  0  0  0  0  0  0
    3.2110   -6.6890    6.6140 N   0  0  0  0  0  0  0  0  0  0  0  0
    3.3250   -5.5110    5.9150 C   0  0  0  0  0  0  0  0  0  0  0  0
    3.3300   -4.1870    6.3710 C   0  0  0  0  0  3  0  0  0  0  0  0
    3.4860   -3.1740    5.4210 C   0  0  0  0  0  3  0  0  0  0  0  0
    3.6350   -3.4890    4.0730 C   0  0  0  0  0  0  0  0  0  0  0  0
    3.6310   -4.8110    3.6280 C   0  0  0  0  0  3  0  0  0  0  0  0
    3.4690   -5.8510    4.5680 C   0  0  0  0  0  0  0  0  0  0  0  0
    3.1350   -6.7560    7.6180 H   0  0  0  0  0  0  0  0  0  0  0  0
    3.7930   -2.5010    3.1420 O   0  0  0  0  0  0  0  0  0  0  0  0
    4.1170   -1.7130    3.6030 H   0  0  0  0  0  0  0  0  0  0  0  0
  1  2  2  0  0  0  0
  2  5  1  0  0  0  0
  2  3  1  0  0  0  0
  3 26  1  0  0  0  0
  4  3  1  0  0  0  0
  5  6  1  0  0  0  0
  6  7  2  0  0  0  0
  8  7  1  0  0  0  0
  9  8  2  0  0  0  0
 10  9  1  0  0  0  0
 10  5  2  0  0  0  0
 11 12  2  0  0  0  0
 11  9  1  0  0  0  0
 12 13  1  0  0  0  0
 13  8  1  0  0  0  0
 13 20  1  0  0  0  0
 14 12  1  0  0  0  0
 15 14  1  0  0  0  0
 16 15  2  0  0  0  0
 17 18  2  0  0  0  0
 17 16  1  0  0  0  0
 18 19  1  0  0  0  0
 19 14  2  0  0  0  0
 20 21  1  0  0  0  0
 20 25  1  0  0  0  0
 21 22  1  0  0  0  0
 22 23  1  0  0  0  0
 24 23  1  0  0  0  0
 25 24  1  0  0  0  0
 26 27  1  0  0  0  0
 26 30  1  1  0  0  0
 27 28  1  0  0  0  0
 29 27  2  0  0  0  0
 30 31  1  0  0  0  0
 31 39  1  0  0  0  0
 31 32  2  0  0  0  0
 32 33  1  0  0  0  0
 33 40  1  0  0  0  0
 34 35  1  0  0  0  0
 34 33  1  0  0  0  0
 36 35  2  0  0  0  0
 37 36  1  0  0  0  0
 38 37  2  0  0  0  0
 38 39  1  0  0  0  0
 39 34  2  0  0  0  0
 41 42  1  0  0  0  0
 41 37  1  0  0  0  0
M  END
>  <minimizedAffinity>
-10.3647528

$$$$

 OpenBabel09132202573D

 42 47  0  0  1  0  0  0  0  0999 V2000
    3.8070   -6.8880   -0.2220 O   0  0  0  0  0  0  0  0  0  0  0  0
    4.5540   -7.0660    0.7380 C   0  0  0  0  0  0  0  0  0  0  0  0
    4.3410   -8.0600    1.6460 N   0  0  0  0  0  0  0  0  0  0  0  0
    3.6060   -8.7330    1.4350 H   0  0  0  0  0  0  0  0  0  0  0  0
    5.7020   -6.1520    0.9130 C   0  0  0  0  0  0  0  0  0  0  0  0
    5.7450   -5.3420    2.0520 C   0  0  0  0  0  3  0  0  0  0  0  0
    6.7840   -4.4220    2.2470 C   0  0  0  0  0  3  0  0  0  0  0  0
    7.7720   -4.3390    1.2530 C   0  0  0  0  0  0  0  0  0  0  0  0
    7.7120   -5.1120    0.0960 C   0  0  0  0  0  0  0  0  0  0  0  0
    6.6690   -6.0280   -0.0910 C   0  0  0  0  0  3  0  0  0  0  0  0
    8.7520   -4.8180   -0.7400 N   0  0  0  0  0  0  0  0  0  0  0  0
    9.4490   -3.8550   -0.1580 C   0  0  0  0  0  0  0  0  0  0  0  0
    8.9320   -3.5960    1.1080 N   0  0  0  0  0  0  0  0  0  0  0  0
   10.6040   -3.2050   -0.7950 C   0  0  0  0  0  0  0  0  0  0  0  0
   10.5600   -1.8470   -1.0990 C   0  0  0  0  0  3  0  0  0  0  0  0
   11.6810   -1.2450   -1.6640 C   0  0  0  0  0  3  0  0  0  0  0  0
   12.8160   -2.0110   -1.8950 C   0  0  0  0  0  3  0  0  0  0  0  0
   12.7820   -3.3520   -1.5500 C   0  0  0  0  0  3  0  0  0  0  0  0
   11.7070   -3.9660   -1.0070 N   0  0  0  0  0  0  0  0  0  0  0  0
    9.5280   -2.7240    2.1180 C   0  0  0  0  0  3  0  0  0  0  0  0
    8.8920   -1.3260    2.1190 C   0  0  0  0  0  2  0  0  0  0  0  0
    9.5820   -0.4020    3.1220 C   0  0  0  0  0  2  0  0  0  0  0  0
    9.6200   -1.0120    4.5210 C   0  0  0  0  0  2  0  0  0  0  0  0
   10.2640   -2.3970    4.5170 C   0  0  0  0  0  2  0  0  0  0  0  0
    9.5700   -3.3370    3.5310 C   0  0  0  0  0  2  0  0  0  0  0  0
    4.9400   -8.3110    2.9830 C   0  0  2  0  0  3  0  0  0  0  0  0
    6.2570   -9.1460    2.9240 C   0  0  0  0  0  0  0  0  0  0  0  0
    6.1390  -10.3670    3.2350 O   0  0  0  0  0  1  0  0  0  0  0  0
    7.2980   -8.4800    2.6380 O   0  0  0  0  0  0  0  0  0  0  0  0
    3.9650   -8.9810    3.9650 C   0  0  0  0  0  2  0  0  0  0  0  0
    2.9560   -8.0680    4.6080 C   0  0  0  0  0  0  0  0  0  0  0  0
    3.2240   -6.8970    5.2910 C   0  0  0  0  0  3  0  0  0  0  0  0
    2.0390   -6.3490    5.6910 N   0  0  0  0  0  0  0  0  0  0  0  0
    0.9890   -7.1620    5.3340 C   0  0  0  0  0  0  0  0  0  0  0  0
   -0.3860   -7.0090    5.5520 C   0  0  0  0  0  3  0  0  0  0  0  0
   -1.2360   -7.9990    5.0500 C   0  0  0  0  0  3  0  0  0  0  0  0
   -0.7170   -9.0880    4.3560 C   0  0  0  0  0  0  0  0  0  0  0  0
    0.6540   -9.2300    4.1420 C   0  0  0  0  0  3  0  0  0  0  0  0
    1.5330   -8.2470    4.6440 C   0  0  0  0  0  0  0  0  0  0  0  0
    1.9430   -5.4640    6.1670 H   0  0  0  0  0  0  0  0  0  0  0  0
   -1.5460  -10.0540    3.8600 O   0  0  0  0  0  0  0  0  0  0  0  0
   -2.4290   -9.6670    3.7730 H   0  0  0  0  0  0  0  0  0  0  0  0
  1  2  2  0  0  0  0
  2  5  1  0  0  0  0
  2  3  1  0  0  0  0
  3 26  1  0  0  0  0
  4  3  1  0  0  0  0
  5  6  1  0  0  0  0
  6  7  2  0  0  0  0
  8  7  1  0  0  0  0
  9  8  2  0  0  0  0
 10  9  1  0  0  0  0
 10  5  2  0  0  0  0
 11 12  2  0  0  0  0
 11  9  1  0  0  0  0
 12 13  1  0  0  0  0
 13  8  1  0  0  0  0
 13 20  1  0  0  0  0
 14 12  1  0  0  0  0
 15 14  2  0  0  0  0
 16 15  1  0  0  0  0
 17 16  2  0  0  0  0
 17 18  1  0  0  0  0
 18 19  2  0  0  0  0
 19 14  1  0  0  0  0
 20 21  1  0  0  0  0
 20 25  1  0  0  0  0
 21 22  1  0  0  0  0
 22 23  1  0  0  0  0
 24 23  1  0  0  0  0
 25 24  1  0  0  0  0
 26 30  1  1  0  0  0
 27 26  1  0  0  0  0
 27 28  1  0  0  0  0
 29 27  2  0  0  0  0
 30 31  1  0  0  0  0
 31 39  1  0  0  0  0
 31 32  2  0  0  0  0
 32 33  1  0  0  0  0
 33 40  1  0  0  0  0
 34 35  1  0  0  0  0
 34 33  1  0  0  0  0
 36 35  2  0  0  0  0
 37 36  1  0  0  0  0
 38 37  2  0  0  0  0
 38 39  1  0  0  0  0
 39 34  2  0  0  0  0
 41 37  1  0  0  0  0
 42 41  1  0  0  0  0
M  END
>  <minimizedAffinity>
-9.77355862

$$$$

 OpenBabel09132202573D

 42 47  0  0  1  0  0  0  0  0999 V2000
    4.5440   -7.4440   -0.3310 O   0  0  0  0  0  0  0  0  0  0  0  0
    4.8440   -7.0680    0.8000 C   0  0  0  0  0  0  0  0  0  0  0  0
    4.1660   -7.4880    1.9050 N   0  0  0  0  0  0  0  0  0  0  0  0
    3.4750   -8.2250    1.7760 H   0  0  0  0  0  0  0  0  0  0  0  0
    5.9620   -6.1130    0.9490 C   0  0  0  0  0  0  0  0  0  0  0  0
    5.9720   -5.2620    2.0590 C   0  0  0  0  0  3  0  0  0  0  0  0
    6.9800   -4.3040    2.2260 C   0  0  0  0  0  3  0  0  0  0  0  0
    7.9710   -4.2250    1.2350 C   0  0  0  0  0  0  0  0  0  0  0  0
    7.9440   -5.0400    0.1070 C   0  0  0  0  0  0  0  0  0  0  0  0
    6.9310   -5.9940   -0.0530 C   0  0  0  0  0  3  0  0  0  0  0  0
    8.9790   -4.7440   -0.7330 N   0  0  0  0  0  0  0  0  0  0  0  0
    9.6420   -3.7400   -0.1820 C   0  0  0  0  0  0  0  0  0  0  0  0
    9.1090   -3.4520    1.0710 N   0  0  0  0  0  0  0  0  0  0  0  0
   10.7810   -3.0760   -0.8350 C   0  0  0  0  0  0  0  0  0  0  0  0
   10.7130   -1.7210   -1.1490 C   0  0  0  0  0  3  0  0  0  0  0  0
   11.8190   -1.1070   -1.7290 C   0  0  0  0  0  3  0  0  0  0  0  0
   12.9630   -1.8570   -1.9660 C   0  0  0  0  0  3  0  0  0  0  0  0
   12.9530   -3.1960   -1.6120 C   0  0  0  0  0  3  0  0  0  0  0  0
   11.8930   -3.8220   -1.0530 N   0  0  0  0  0  0  0  0  0  0  0  0
    9.6710   -2.5260    2.0520 C   0  0  0  0  0  3  0  0  0  0  0  0
    8.9520   -1.1690    2.0410 C   0  0  0  0  0  2  0  0  0  0  0  0
    9.6040   -0.1860    3.0130 C   0  0  0  0  0  2  0  0  0  0  0  0
    9.7060   -0.7650    4.4210 C   0  0  0  0  0  2  0  0  0  0  0  0
   10.4310   -2.1090    4.4290 C   0  0  0  0  0  2  0  0  0  0  0  0
    9.7770   -3.1080    3.4740 C   0  0  0  0  0  2  0  0  0  0  0  0
    4.1800   -6.9970    3.3090 C   0  0  2  0  0  3  0  0  0  0  0  0
    3.7560   -8.0810    4.3480 C   0  0  0  0  0  0  0  0  0  0  0  0
    2.5270   -8.0930    4.6490 O   0  0  0  0  0  0  0  0  0  0  0  0
    4.7110   -8.7730    4.8160 O   0  0  0  0  0  1  0  0  0  0  0  0
    3.3190   -5.7410    3.5160 C   0  0  0  0  0  2  0  0  0  0  0  0
    3.6830   -4.8890    4.7030 C   0  0  0  0  0  0  0  0  0  0  0  0
    4.6880   -5.1390    5.6190 C   0  0  0  0  0  3  0  0  0  0  0  0
    4.7160   -4.1150    6.5210 N   0  0  0  0  0  0  0  0  0  0  0  0
    3.7130   -3.2140    6.2560 C   0  0  0  0  0  0  0  0  0  0  0  0
    3.3580   -2.0340    6.9230 C   0  0  0  0  0  3  0  0  0  0  0  0
    2.2900   -1.2940    6.4080 C   0  0  0  0  0  3  0  0  0  0  0  0
    1.6170   -1.7260    5.2690 C   0  0  0  0  0  0  0  0  0  0  0  0
    1.9790   -2.9010    4.6100 C   0  0  0  0  0  3  0  0  0  0  0  0
    3.0500   -3.6680    5.1130 C   0  0  0  0  0  0  0  0  0  0  0  0
    5.3880   -4.0220    7.2680 H   0  0  0  0  0  0  0  0  0  0  0  0
    0.5760   -1.0010    4.7600 O   0  0  0  0  0  0  0  0  0  0  0  0
    0.6660   -0.0920    5.0830 H   0  0  0  0  0  0  0  0  0  0  0  0
  1  2  2  0  0  0  0
  2  5  1  0  0  0  0
  2  3  1  0  0  0  0
  3 26  1  0  0  0  0
  4  3  1  0  0  0  0
  5  6  1  0  0  0  0
  6  7  2  0  0  0  0
  8  7  1  0  0  0  0
  9  8  2  0  0  0  0
 10  9  1  0  0  0  0
 10  5  2  0  0  0  0
 11 12  2  0  0  0  0
 11  9  1  0  0  0  0
 12 13  1  0  0  0  0
 13  8  1  0  0  0  0
 13 20  1  0  0  0  0
 14 12  1  0  0  0  0
 15 14  2  0  0  0  0
 16 15  1  0  0  0  0
 17 16  2  0  0  0  0
 17 18  1  0  0  0  0
 18 19  2  0  0  0  0
 19 14  1  0  0  0  0
 20 25  1  0  0  0  0
 21 20  1  0  0  0  0
 21 22  1  0  0  0  0
 22 23  1  0  0  0  0
 23 24  1  0  0  0  0
 25 24  1  0  0  0  0
 26 30  1  6  0  0  0
 26 27  1  0  0  0  0
 27 28  2  0  0  0  0
 27 29  1  0  0  0  0
 30 31  1  0  0  0  0
 31 39  1  0  0  0  0
 31 32  2  0  0  0  0
 32 33  1  0  0  0  0
 33 40  1  0  0  0  0
 34 33  1  0  0  0  0
 34 35  1  0  0  0  0
 36 35  2  0  0  0  0
 37 36  1  0  0  0  0
 38 39  1  0  0  0  0
 38 37  2  0  0  0  0
 39 34  2  0  0  0  0
 41 42  1  0  0  0  0
 41 37  1  0  0  0  0
M  END
>  <minimizedAffinity>
-9.2132864

$$$$

 OpenBabel09132202573D

 42 47  0  0  1  0  0  0  0  0999 V2000
    7.7170   -4.9650   -1.4230 O   0  0  0  0  0  0  0  0  0  0  0  0
    7.8970   -4.8780   -0.2100 C   0  0  0  0  0  0  0  0  0  0  0  0
    8.6790   -3.9050    0.3370 N   0  0  0  0  0  0  0  0  0  0  0  0
    9.0150   -3.1720   -0.2860 H   0  0  0  0  0  0  0  0  0  0  0  0
    7.2570   -5.8800    0.6680 C   0  0  0  0  0  0  0  0  0  0  0  0
    7.9350   -7.0760    0.9230 C   0  0  0  0  0  3  0  0  0  0  0  0
    7.3560   -8.0810    1.7080 C   0  0  0  0  0  3  0  0  0  0  0  0
    6.0700   -7.8460    2.2200 C   0  0  0  0  0  0  0  0  0  0  0  0
    5.3730   -6.6750    1.9350 C   0  0  0  0  0  0  0  0  0  0  0  0
    5.9590   -5.6760    1.1470 C   0  0  0  0  0  3  0  0  0  0  0  0
    4.1290   -6.6990    2.5000 N   0  0  0  0  0  0  0  0  0  0  0  0
    4.0090   -7.8690    3.1070 C   0  0  0  0  0  0  0  0  0  0  0  0
    5.2120   -8.5660    3.0350 N   0  0  0  0  0  0  0  0  0  0  0  0
    2.7680   -8.3080    3.7620 C   0  0  0  0  0  0  0  0  0  0  0  0
    2.0550   -9.3910    3.2530 C   0  0  0  0  0  3  0  0  0  0  0  0
    0.9060   -9.8130    3.9150 C   0  0  0  0  0  3  0  0  0  0  0  0
    0.5090   -9.1530    5.0700 C   0  0  0  0  0  3  0  0  0  0  0  0
    1.2820   -8.0940    5.5170 C   0  0  0  0  0  3  0  0  0  0  0  0
    2.3980   -7.6570    4.8930 N   0  0  0  0  0  0  0  0  0  0  0  0
    5.5250   -9.8150    3.7270 C   0  0  0  0  0  3  0  0  0  0  0  0
    5.1190   -9.7710    5.2070 C   0  0  0  0  0  2  0  0  0  0  0  0
    5.5280  -11.0510    5.9340 C   0  0  0  0  0  2  0  0  0  0  0  0
    4.9910  -12.2960    5.2330 C   0  0  0  0  0  2  0  0  0  0  0  0
    5.4070  -12.3420    3.7640 C   0  0  0  0  0  2  0  0  0  0  0  0
    4.9870  -11.0740    3.0210 C   0  0  0  0  0  2  0  0  0  0  0  0
    9.2320   -3.7480    1.7080 C   0  0  2  0  0  3  0  0  0  0  0  0
    8.2850   -2.9690    2.6720 C   0  0  0  0  0  0  0  0  0  0  0  0
    8.3150   -1.7080    2.5620 O   0  0  0  0  0  0  0  0  0  0  0  0
    7.6520   -3.6940    3.4990 O   0  0  0  0  0  1  0  0  0  0  0  0
   10.6200   -3.0860    1.7260 C   0  0  0  0  0  2  0  0  0  0  0  0
   11.3330   -3.0290    0.4020 C   0  0  0  0  0  0  0  0  0  0  0  0
   12.2090   -3.9720   -0.1020 C   0  0  0  0  0  3  0  0  0  0  0  0
   12.6130   -3.5680   -1.3430 N   0  0  0  0  0  0  0  0  0  0  0  0
   12.0660   -2.3450   -1.6510 C   0  0  0  0  0  0  0  0  0  0  0  0
   12.2150   -1.5510   -2.7950 C   0  0  0  0  0  3  0  0  0  0  0  0
   11.5100   -0.3450   -2.8450 C   0  0  0  0  0  3  0  0  0  0  0  0
   10.6880    0.0340   -1.7880 C   0  0  0  0  0  0  0  0  0  0  0  0
   10.5420   -0.7650   -0.6530 C   0  0  0  0  0  3  0  0  0  0  0  0
   11.2490   -1.9840   -0.5770 C   0  0  0  0  0  0  0  0  0  0  0  0
   13.2160   -4.0970   -1.9540 H   0  0  0  0  0  0  0  0  0  0  0  0
    9.9920    1.2090   -1.8350 O   0  0  0  0  0  0  0  0  0  0  0  0
    9.9120    1.4650   -2.7660 H   0  0  0  0  0  0  0  0  0  0  0  0
  1  2  2  0  0  0  0
  2  3  1  0  0  0  0
  2  5  1  0  0  0  0
  3 26  1  0  0  0  0
  4  3  1  0  0  0  0
  5  6  2  0  0  0  0
  5 10  1  0  0  0  0
  6  7  1  0  0  0  0
  7  8  2  0  0  0  0
  8 13  1  0  0  0  0
  9  8  1  0  0  0  0
  9 11  1  0  0  0  0
 10  9  2  0  0  0  0
 11 12  2  0  0  0  0
 12 14  1  0  0  0  0
 13 12  1  0  0  0  0
 13 20  1  0  0  0  0
 14 19  1  0  0  0  0
 15 14  2  0  0  0  0
 15 16  1  0  0  0  0
 16 17  2  0  0  0  0
 17 18  1  0  0  0  0
 19 18  2  0  0  0  0
 20 21  1  0  0  0  0
 21 22  1  0  0  0  0
 23 22  1  0  0  0  0
 24 23  1  0  0  0  0
 25 20  1  0  0  0  0
 25 24  1  0  0  0  0
 26 30  1  6  0  0  0
 26 27  1  0  0  0  0
 27 29  1  0  0  0  0
 28 27  2  0  0  0  0
 31 30  1  0  0  0  0
 32 31  2  0  0  0  0
 33 32  1  0  0  0  0
 34 33  1  0  0  0  0
 34 39  1  0  0  0  0
 35 34  2  0  0  0  0
 36 35  1  0  0  0  0
 36 37  2  0  0  0  0
 37 38  1  0  0  0  0
 38 39  2  0  0  0  0
 39 31  1  0  0  0  0
 40 33  1  0  0  0  0
 41 37  1  0  0  0  0
 42 41  1  0  0  0  0
M  END
>  <minimizedAffinity>
-8.77837372

$$$$

 OpenBabel09132202573D

 42 47  0  0  1  0  0  0  0  0999 V2000
    3.7970   -6.9170   -0.2810 O   0  0  0  0  0  0  0  0  0  0  0  0
    4.5420   -7.0640    0.6850 C   0  0  0  0  0  0  0  0  0  0  0  0
    4.3470   -8.0500    1.6060 N   0  0  0  0  0  0  0  0  0  0  0  0
    3.6300   -8.7440    1.4000 H   0  0  0  0  0  0  0  0  0  0  0  0
    5.6670   -6.1200    0.8550 C   0  0  0  0  0  0  0  0  0  0  0  0
    6.6310   -6.0400   -0.1550 C   0  0  0  0  0  3  0  0  0  0  0  0
    7.7440   -5.1990   -0.0270 C   0  0  0  0  0  3  0  0  0  0  0  0
    7.8590   -4.4500    1.1550 C   0  0  0  0  0  0  0  0  0  0  0  0
    6.9250   -4.5570    2.1820 C   0  0  0  0  0  0  0  0  0  0  0  0
    5.8160   -5.4020    2.0460 C   0  0  0  0  0  3  0  0  0  0  0  0
    7.2780   -3.7740    3.2440 N   0  0  0  0  0  0  0  0  0  0  0  0
    8.4270   -3.1990    2.9290 C   0  0  0  0  0  0  0  0  0  0  0  0
    8.7720   -3.5180    1.6180 N   0  0  0  0  0  0  0  0  0  0  0  0
    9.1770   -2.3420    3.8600 C   0  0  0  0  0  0  0  0  0  0  0  0
    9.8800   -2.9110    4.9190 C   0  0  0  0  0  3  0  0  0  0  0  0
   10.6160   -2.0820    5.7620 C   0  0  0  0  0  3  0  0  0  0  0  0
   10.6400   -0.7160    5.5160 C   0  0  0  0  0  3  0  0  0  0  0  0
    9.9240   -0.2330    4.4330 C   0  0  0  0  0  3  0  0  0  0  0  0
    9.1950   -1.0100    3.6010 N   0  0  0  0  0  0  0  0  0  0  0  0
    9.8790   -2.9430    0.8570 C   0  0  0  0  0  3  0  0  0  0  0  0
   10.5120   -3.9640   -0.0990 C   0  0  0  0  0  2  0  0  0  0  0  0
   11.7190   -3.3720   -0.8260 C   0  0  0  0  0  2  0  0  0  0  0  0
   11.3680   -2.0680   -1.5370 C   0  0  0  0  0  2  0  0  0  0  0  0
   10.7500   -1.0510   -0.5800 C   0  0  0  0  0  2  0  0  0  0  0  0
    9.5300   -1.6250    0.1400 C   0  0  0  0  0  2  0  0  0  0  0  0
    4.9450   -8.2680    2.9490 C   0  0  2  0  0  3  0  0  0  0  0  0
    6.2580   -9.1100    2.9140 C   0  0  0  0  0  0  0  0  0  0  0  0
    6.1330  -10.3260    3.2420 O   0  0  0  0  0  1  0  0  0  0  0  0
    7.3040   -8.4530    2.6260 O   0  0  0  0  0  0  0  0  0  0  0  0
    3.9660   -8.9090    3.9480 C   0  0  0  0  0  2  0  0  0  0  0  0
    2.9570   -7.9760    4.5630 C   0  0  0  0  0  0  0  0  0  0  0  0
    3.2080   -6.7200    5.0820 C   0  0  0  0  0  3  0  0  0  0  0  0
    2.0270   -6.1870    5.5130 N   0  0  0  0  0  0  0  0  0  0  0  0
    1.0030   -7.0870    5.3410 C   0  0  0  0  0  0  0  0  0  0  0  0
   -0.3580   -6.9770    5.6530 C   0  0  0  0  0  3  0  0  0  0  0  0
   -1.1850   -8.0610    5.3420 C   0  0  0  0  0  3  0  0  0  0  0  0
   -0.6580   -9.1980    4.7380 C   0  0  0  0  0  0  0  0  0  0  0  0
    0.6990   -9.2980    4.4280 C   0  0  0  0  0  3  0  0  0  0  0  0
    1.5540   -8.2190    4.7380 C   0  0  0  0  0  0  0  0  0  0  0  0
    1.9170   -5.2570    5.8900 H   0  0  0  0  0  0  0  0  0  0  0  0
   -1.4640  -10.2570    4.4270 O   0  0  0  0  0  0  0  0  0  0  0  0
   -2.3730   -9.9270    4.3710 H   0  0  0  0  0  0  0  0  0  0  0  0
  1  2  2  0  0  0  0
  2  5  1  0  0  0  0
  2  3  1  0  0  0  0
  3 26  1  0  0  0  0
  4  3  1  0  0  0  0
  5 10  1  0  0  0  0
  6  7  1  0  0  0  0
  6  5  2  0  0  0  0
  7  8  2  0  0  0  0
  8 13  1  0  0  0  0
  8  9  1  0  0  0  0
  9 11  1  0  0  0  0
 10  9  2  0  0  0  0
 12 11  2  0  0  0  0
 12 14  1  0  0  0  0
 13 12  1  0  0  0  0
 14 15  1  0  0  0  0
 15 16  2  0  0  0  0
 17 16  1  0  0  0  0
 18 17  2  0  0  0  0
 19 14  2  0  0  0  0
 19 18  1  0  0  0  0
 20 13  1  0  0  0  0
 21 20  1  0  0  0  0
 22 21  1  0  0  0  0
 23 22  1  0  0  0  0
 23 24  1  0  0  0  0
 24 25  1  0  0  0  0
 25 20  1  0  0  0  0
 26 30  1  1  0  0  0
 27 26  1  0  0  0  0
 27 28  1  0  0  0  0
 29 27  2  0  0  0  0
 30 31  1  0  0  0  0
 31 39  1  0  0  0  0
 31 32  2  0  0  0  0
 32 33  1  0  0  0  0
 33 40  1  0  0  0  0
 34 33  1  0  0  0  0
 34 35  1  0  0  0  0
 36 35  2  0  0  0  0
 37 36  1  0  0  0  0
 38 37  2  0  0  0  0
 38 39  1  0  0  0  0
 39 34  2  0  0  0  0
 41 37  1  0  0  0  0
 42 41  1  0  0  0  0
M  END
>  <minimizedAffinity>
-8.75622177

$$$$

 OpenBabel09132202573D

 42 47  0  0  1  0  0  0  0  0999 V2000
    3.9250   -6.7830   -0.0880 O   0  0  0  0  0  0  0  0  0  0  0  0
    4.6480   -6.8700    0.9010 C   0  0  0  0  0  0  0  0  0  0  0  0
    4.4210   -7.7850    1.8850 N   0  0  0  0  0  0  0  0  0  0  0  0
    3.6980   -8.4820    1.7160 H   0  0  0  0  0  0  0  0  0  0  0  0
    5.7830   -5.9310    1.0260 C   0  0  0  0  0  0  0  0  0  0  0  0
    6.7510   -5.9140    0.0180 C   0  0  0  0  0  3  0  0  0  0  0  0
    7.8730   -5.0800    0.1070 C   0  0  0  0  0  3  0  0  0  0  0  0
    7.9920   -4.2720    1.2480 C   0  0  0  0  0  0  0  0  0  0  0  0
    7.0540   -4.3150    2.2750 C   0  0  0  0  0  0  0  0  0  0  0  0
    5.9360   -5.1530    2.1790 C   0  0  0  0  0  3  0  0  0  0  0  0
    7.4110   -3.4810    3.2960 N   0  0  0  0  0  0  0  0  0  0  0  0
    8.5680   -2.9360    2.9570 C   0  0  0  0  0  0  0  0  0  0  0  0
    8.9140   -3.3270    1.6660 N   0  0  0  0  0  0  0  0  0  0  0  0
    9.3240   -2.0400    3.8450 C   0  0  0  0  0  0  0  0  0  0  0  0
   10.0610   -2.5660    4.9030 C   0  0  0  0  0  3  0  0  0  0  0  0
   10.8010   -1.7010    5.7050 C   0  0  0  0  0  3  0  0  0  0  0  0
   10.7960   -0.3420    5.4200 C   0  0  0  0  0  3  0  0  0  0  0  0
   10.0470    0.0970    4.3400 C   0  0  0  0  0  3  0  0  0  0  0  0
    9.3130   -0.7160    3.5480 N   0  0  0  0  0  0  0  0  0  0  0  0
   10.0310   -2.8050    0.8810 C   0  0  0  0  0  3  0  0  0  0  0  0
   10.8240   -3.9240    0.1930 C   0  0  0  0  0  2  0  0  0  0  0  0
   12.0350   -3.3700   -0.5560 C   0  0  0  0  0  2  0  0  0  0  0  0
   11.6390   -2.2680   -1.5350 C   0  0  0  0  0  2  0  0  0  0  0  0
   10.8610   -1.1500   -0.8450 C   0  0  0  0  0  2  0  0  0  0  0  0
    9.6360   -1.6900   -0.1070 C   0  0  0  0  0  2  0  0  0  0  0  0
    4.9880   -7.9140    3.2540 C   0  0  2  0  0  3  0  0  0  0  0  0
    6.0700   -9.0310    3.3720 C   0  0  0  0  0  0  0  0  0  0  0  0
    6.9600   -9.0240    2.4720 O   0  0  0  0  0  0  0  0  0  0  0  0
    5.8840   -9.8550    4.3190 O   0  0  0  0  0  1  0  0  0  0  0  0
    3.9160   -8.1380    4.3330 C   0  0  0  0  0  2  0  0  0  0  0  0
    3.0310   -6.9570    4.6290 C   0  0  0  0  0  0  0  0  0  0  0  0
    1.6490   -6.9390    4.6060 C   0  0  0  0  0  3  0  0  0  0  0  0
    1.2270   -5.6900    4.9640 N   0  0  0  0  0  0  0  0  0  0  0  0
    2.3030   -4.8610    5.1710 C   0  0  0  0  0  0  0  0  0  0  0  0
    2.3450   -3.5080    5.5320 C   0  0  0  0  0  3  0  0  0  0  0  0
    3.6020   -2.9190    5.6970 C   0  0  0  0  0  3  0  0  0  0  0  0
    4.7600   -3.6670    5.5100 C   0  0  0  0  0  0  0  0  0  0  0  0
    4.7090   -5.0150    5.1540 C   0  0  0  0  0  3  0  0  0  0  0  0
    3.4520   -5.6300    4.9760 C   0  0  0  0  0  0  0  0  0  0  0  0
    0.2620   -5.4180    5.0770 H   0  0  0  0  0  0  0  0  0  0  0  0
    5.9910   -3.0960    5.6760 O   0  0  0  0  0  0  0  0  0  0  0  0
    5.8780   -2.3130    6.2350 H   0  0  0  0  0  0  0  0  0  0  0  0
  1  2  2  0  0  0  0
  2  5  1  0  0  0  0
  2  3  1  0  0  0  0
  3 26  1  0  0  0  0
  4  3  1  0  0  0  0
  5 10  1  0  0  0  0
  6  7  1  0  0  0  0
  6  5  2  0  0  0  0
  7  8  2  0  0  0  0
  8 13  1  0  0  0  0
  8  9  1  0  0  0  0
  9 11  1  0  0  0  0
 10  9  2  0  0  0  0
 12 11  2  0  0  0  0
 12 14  1  0  0  0  0
 13 12  1  0  0  0  0
 14 15  1  0  0  0  0
 15 16  2  0  0  0  0
 17 16  1  0  0  0  0
 18 17  2  0  0  0  0
 19 14  2  0  0  0  0
 19 18  1  0  0  0  0
 20 13  1  0  0  0  0
 21 20  1  0  0  0  0
 22 21  1  0  0  0  0
 23 24  1  0  0  0  0
 23 22  1  0  0  0  0
 24 25  1  0  0  0  0
 25 20  1  0  0  0  0
 26 27  1  0  0  0  0
 26 30  1  1  0  0  0
 27 29  1  0  0  0  0
 28 27  2  0  0  0  0
 30 31  1  0  0  0  0
 31 39  1  0  0  0  0
 32 31  2  0  0  0  0
 32 33  1  0  0  0  0
 33 40  1  0  0  0  0
 33 34  1  0  0  0  0
 34 35  1  0  0  0  0
 35 36  2  0  0  0  0
 37 41  1  0  0  0  0
 37 36  1  0  0  0  0
 38 37  2  0  0  0  0
 39 38  1  0  0  0  0
 39 34  2  0  0  0  0
 41 42  1  0  0  0  0
M  END
>  <minimizedAffinity>
-8.4789753

$$$$

 OpenBabel09132202573D

 42 47  0  0  1  0  0  0  0  0999 V2000
   12.4940   -3.2790    1.2340 O   0  0  0  0  0  0  0  0  0  0  0  0
   11.5320   -2.9910    0.5240 C   0  0  0  0  0  0  0  0  0  0  0  0
   11.6470   -2.1470   -0.5400 N   0  0  0  0  0  0  0  0  0  0  0  0
   12.5860   -1.8560   -0.8050 H   0  0  0  0  0  0  0  0  0  0  0  0
   10.2130   -3.5670    0.8600 C   0  0  0  0  0  0  0  0  0  0  0  0
    9.6180   -4.4500   -0.0450 C   0  0  0  0  0  3  0  0  0  0  0  0
    8.3480   -4.9880    0.1990 C   0  0  0  0  0  3  0  0  0  0  0  0
    7.6940   -4.6000    1.3790 C   0  0  0  0  0  0  0  0  0  0  0  0
    8.2630   -3.6890    2.2640 C   0  0  0  0  0  0  0  0  0  0  0  0
    9.5330   -3.1540    2.0110 C   0  0  0  0  0  3  0  0  0  0  0  0
    7.4190   -3.4310    3.3070 N   0  0  0  0  0  0  0  0  0  0  0  0
    6.3180   -4.1310    3.0880 C   0  0  0  0  0  0  0  0  0  0  0  0
    6.4820   -4.9320    1.9610 N   0  0  0  0  0  0  0  0  0  0  0  0
    5.1310   -4.0490    3.9530 C   0  0  0  0  0  0  0  0  0  0  0  0
    4.0230   -3.3090    3.5490 C   0  0  0  0  0  3  0  0  0  0  0  0
    2.8960   -3.2810    4.3670 C   0  0  0  0  0  3  0  0  0  0  0  0
    2.9030   -4.0020    5.5530 C   0  0  0  0  0  3  0  0  0  0  0  0
    4.0410   -4.7230    5.8740 C   0  0  0  0  0  3  0  0  0  0  0  0
    5.1520   -4.7650    5.1050 N   0  0  0  0  0  0  0  0  0  0  0  0
    5.5560   -5.9630    1.4980 C   0  0  0  0  0  3  0  0  0  0  0  0
    5.3200   -5.8870   -0.0170 C   0  0  0  0  0  2  0  0  0  0  0  0
    4.2880   -6.9170   -0.4720 C   0  0  0  0  0  2  0  0  0  0  0  0
    4.6600   -8.3280   -0.0250 C   0  0  0  0  0  2  0  0  0  0  0  0
    4.8830   -8.4020    1.4840 C   0  0  0  0  0  2  0  0  0  0  0  0
    5.9280   -7.3880    1.9500 C   0  0  0  0  0  2  0  0  0  0  0  0
   10.6140   -1.4720   -1.3700 C   0  0  2  0  0  3  0  0  0  0  0  0
   11.1770   -0.8860   -2.7020 C   0  0  0  0  0  0  0  0  0  0  0  0
   10.3080   -0.4620   -3.5190 O   0  0  0  0  0  0  0  0  0  0  0  0
   12.4360   -0.9710   -2.8320 O   0  0  0  0  0  1  0  0  0  0  0  0
    9.8620   -0.3650   -0.6140 C   0  0  0  0  0  2  0  0  0  0  0  0
   10.6260    0.9160   -0.4030 C   0  0  0  0  0  0  0  0  0  0  0  0
   11.4810    1.5220   -1.3040 C   0  0  0  0  0  3  0  0  0  0  0  0
   11.9470    2.6790   -0.7470 N   0  0  0  0  0  0  0  0  0  0  0  0
   11.4600    2.8260    0.5300 C   0  0  0  0  0  0  0  0  0  0  0  0
   11.6830    3.8410    1.4700 C   0  0  0  0  0  3  0  0  0  0  0  0
   11.0290    3.7400    2.7010 C   0  0  0  0  0  3  0  0  0  0  0  0
   10.1840    2.6660    2.9640 C   0  0  0  0  0  0  0  0  0  0  0  0
    9.9650    1.6620    2.0200 C   0  0  0  0  0  3  0  0  0  0  0  0
   10.6200    1.7380    0.7730 C   0  0  0  0  0  0  0  0  0  0  0  0
   12.5500    3.3400   -1.2120 H   0  0  0  0  0  0  0  0  0  0  0  0
    9.5390    2.5670    4.1640 O   0  0  0  0  0  0  0  0  0  0  0  0
    9.5030    3.4540    4.5520 H   0  0  0  0  0  0  0  0  0  0  0  0
  2  5  1  0  0  0  0
  2  1  2  0  0  0  0
  3  2  1  0  0  0  0
  4  3  1  0  0  0  0
  5 10  1  0  0  0  0
  6  7  1  0  0  0  0
  6  5  2  0  0  0  0
  7  8  2  0  0  0  0
  8 13  1  0  0  0  0
  8  9  1  0  0  0  0
  9 11  1  0  0  0  0
 10  9  2  0  0  0  0
 12 11  2  0  0  0  0
 12 14  1  0  0  0  0
 13 12  1  0  0  0  0
 14 19  1  0  0  0  0
 15 14  2  0  0  0  0
 15 16  1  0  0  0  0
 16 17  2  0  0  0  0
 17 18  1  0  0  0  0
 19 18  2  0  0  0  0
 20 25  1  0  0  0  0
 20 13  1  0  0  0  0
 21 20  1  0  0  0  0
 22 23  1  0  0  0  0
 22 21  1  0  0  0  0
 23 24  1  0  0  0  0
 24 25  1  0  0  0  0
 26 30  1  1  0  0  0
 26  3  1  0  0  0  0
 27 26  1  0  0  0  0
 28 27  2  0  0  0  0
 29 27  1  0  0  0  0
 30 31  1  0  0  0  0
 31 39  1  0  0  0  0
 32 33  1  0  0  0  0
 32 31  2  0  0  0  0
 33 34  1  0  0  0  0
 34 39  2  0  0  0  0
 34 35  1  0  0  0  0
 35 36  2  0  0  0  0
 36 37  1  0  0  0  0
 37 41  1  0  0  0  0
 38 37  2  0  0  0  0
 39 38  1  0  0  0  0
 40 33  1  0  0  0  0
 41 42  1  0  0  0  0
M  END
>  <minimizedAffinity>
-8.2751894

$$$$

 OpenBabel09132202573D

 42 47  0  0  1  0  0  0  0  0999 V2000
   10.2200   -0.7090   -3.0890 O   0  0  0  0  0  0  0  0  0  0  0  0
   10.4420   -0.9500   -1.9040 C   0  0  0  0  0  0  0  0  0  0  0  0
   10.6310   -2.2200   -1.4470 N   0  0  0  0  0  0  0  0  0  0  0  0
   10.7040   -2.9600   -2.1440 H   0  0  0  0  0  0  0  0  0  0  0  0
   10.4810    0.1810   -0.9530 C   0  0  0  0  0  0  0  0  0  0  0  0
   11.0380    1.3910   -1.3750 C   0  0  0  0  0  3  0  0  0  0  0  0
   11.1450    2.4820   -0.5020 C   0  0  0  0  0  3  0  0  0  0  0  0
   10.6820    2.3090    0.8110 C   0  0  0  0  0  0  0  0  0  0  0  0
   10.1650    1.0930    1.2510 C   0  0  0  0  0  0  0  0  0  0  0  0
   10.0630    0.0080    0.3710 C   0  0  0  0  0  3  0  0  0  0  0  0
    9.8300    1.1550    2.5730 N   0  0  0  0  0  0  0  0  0  0  0  0
   10.1520    2.3690    2.9910 C   0  0  0  0  0  0  0  0  0  0  0  0
   10.5950    3.1370    1.9180 N   0  0  0  0  0  0  0  0  0  0  0  0
   10.0230    2.7950    4.3930 C   0  0  0  0  0  0  0  0  0  0  0  0
   10.1530    4.1400    4.7290 C   0  0  0  0  0  3  0  0  0  0  0  0
    9.9850    4.5220    6.0570 C   0  0  0  0  0  3  0  0  0  0  0  0
    9.6790    3.5560    7.0060 C   0  0  0  0  0  3  0  0  0  0  0  0
    9.5540    2.2420    6.5860 C   0  0  0  0  0  3  0  0  0  0  0  0
    9.7170    1.8390    5.3070 N   0  0  0  0  0  0  0  0  0  0  0  0
   10.8800    4.5700    1.9470 C   0  0  0  0  0  3  0  0  0  0  0  0
   12.3860    4.8590    1.8620 C   0  0  0  0  0  2  0  0  0  0  0  0
   12.6720    6.3560    1.9760 C   0  0  0  0  0  2  0  0  0  0  0  0
   11.8780    7.1650    0.9550 C   0  0  0  0  0  2  0  0  0  0  0  0
   10.3810    6.8830    1.0510 C   0  0  0  0  0  2  0  0  0  0  0  0
   10.0790    5.3900    0.9180 C   0  0  0  0  0  2  0  0  0  0  0  0
   10.6660   -2.7690   -0.0660 C   0  0  2  0  0  3  0  0  0  0  0  0
   12.0890   -3.2220    0.3850 C   0  0  0  0  0  0  0  0  0  0  0  0
   12.2380   -3.3840    1.6310 O   0  0  0  0  0  1  0  0  0  0  0  0
   12.9430   -3.3040   -0.5500 O   0  0  0  0  0  0  0  0  0  0  0  0
    9.6810   -3.9310    0.1460 C   0  0  0  0  0  2  0  0  0  0  0  0
    8.6900   -3.7510    1.2660 C   0  0  0  0  0  0  0  0  0  0  0  0
    8.7300   -2.7830    2.2520 C   0  0  0  0  0  3  0  0  0  0  0  0
    7.6370   -2.9380    3.0550 N   0  0  0  0  0  0  0  0  0  0  0  0
    6.8980   -4.0260    2.6550 C   0  0  0  0  0  0  0  0  0  0  0  0
    5.7210   -4.5650    3.1890 C   0  0  0  0  0  3  0  0  0  0  0  0
    5.1710   -5.6810    2.5530 C   0  0  0  0  0  3  0  0  0  0  0  0
    5.7820   -6.2220    1.4260 C   0  0  0  0  0  0  0  0  0  0  0  0
    6.9530   -5.6770    0.8980 C   0  0  0  0  0  3  0  0  0  0  0  0
    7.5300   -4.5530    1.5270 C   0  0  0  0  0  0  0  0  0  0  0  0
    7.3950   -2.3320    3.8240 H   0  0  0  0  0  0  0  0  0  0  0  0
    5.2430   -7.3090    0.7980 O   0  0  0  0  0  0  0  0  0  0  0  0
    4.3060   -7.3530    1.0390 H   0  0  0  0  0  0  0  0  0  0  0  0
  1  2  2  0  0  0  0
  2  3  1  0  0  0  0
  2  5  1  0  0  0  0
  3 26  1  0  0  0  0
  4  3  1  0  0  0  0
  5 10  1  0  0  0  0
  6  5  2  0  0  0  0
  6  7  1  0  0  0  0
  7  8  2  0  0  0  0
  8  9  1  0  0  0  0
  8 13  1  0  0  0  0
  9 11  1  0  0  0  0
 10  9  2  0  0  0  0
 11 12  2  0  0  0  0
 12 14  1  0  0  0  0
 13 20  1  0  0  0  0
 13 12  1  0  0  0  0
 14 15  2  0  0  0  0
 14 19  1  0  0  0  0
 15 16  1  0  0  0  0
 16 17  2  0  0  0  0
 18 17  1  0  0  0  0
 19 18  2  0  0  0  0
 21 20  1  0  0  0  0
 21 22  1  0  0  0  0
 23 24  1  0  0  0  0
 23 22  1  0  0  0  0
 25 24  1  0  0  0  0
 25 20  1  0  0  0  0
 26 30  1  6  0  0  0
 26 27  1  0  0  0  0
 27 28  1  0  0  0  0
 29 27  2  0  0  0  0
 30 31  1  0  0  0  0
 31 39  1  0  0  0  0
 31 32  2  0  0  0  0
 32 33  1  0  0  0  0
 33 40  1  0  0  0  0
 34 33  1  0  0  0  0
 34 35  1  0  0  0  0
 36 35  2  0  0  0  0
 37 36  1  0  0  0  0
 38 37  2  0  0  0  0
 38 39  1  0  0  0  0
 39 34  2  0  0  0  0
 41 42  1  0  0  0  0
 41 37  1  0  0  0  0
M  END
>  <minimizedAffinity>
-8.15448761

$$$$

 OpenBabel09132202573D

 42 47  0  0  1  0  0  0  0  0999 V2000
   10.1040   -0.0120   -2.8460 O   0  0  0  0  0  0  0  0  0  0  0  0
   10.2950   -0.5810   -1.7740 C   0  0  0  0  0  0  0  0  0  0  0  0
   10.4670   -1.9300   -1.6920 N   0  0  0  0  0  0  0  0  0  0  0  0
   10.5530   -2.4430   -2.5670 H   0  0  0  0  0  0  0  0  0  0  0  0
   10.3150    0.2340   -0.5410 C   0  0  0  0  0  0  0  0  0  0  0  0
    9.6490   -0.2470    0.5900 C   0  0  0  0  0  3  0  0  0  0  0  0
    9.5940    0.5040    1.7710 C   0  0  0  0  0  3  0  0  0  0  0  0
   10.2230    1.7580    1.7720 C   0  0  0  0  0  0  0  0  0  0  0  0
   10.8520    2.2620    0.6370 C   0  0  0  0  0  0  0  0  0  0  0  0
   10.9000    1.5050   -0.5400 C   0  0  0  0  0  3  0  0  0  0  0  0
   11.3420    3.5160    0.8680 N   0  0  0  0  0  0  0  0  0  0  0  0
   11.0120    3.8320    2.1100 C   0  0  0  0  0  0  0  0  0  0  0  0
   10.4020    2.7450    2.7280 N   0  0  0  0  0  0  0  0  0  0  0  0
   11.2900    5.1490    2.7020 C   0  0  0  0  0  0  0  0  0  0  0  0
   12.4640    5.3570    3.4230 C   0  0  0  0  0  3  0  0  0  0  0  0
   12.7240    6.6230    3.9380 C   0  0  0  0  0  3  0  0  0  0  0  0
   11.8140    7.6470    3.7090 C   0  0  0  0  0  3  0  0  0  0  0  0
   10.6780    7.3600    2.9700 C   0  0  0  0  0  3  0  0  0  0  0  0
   10.3940    6.1400    2.4630 N   0  0  0  0  0  0  0  0  0  0  0  0
   10.0490    2.6480    4.1430 C   0  0  0  0  0  3  0  0  0  0  0  0
   11.0910    1.8540    4.9440 C   0  0  0  0  0  2  0  0  0  0  0  0
   10.6660    1.6920    6.4030 C   0  0  0  0  0  2  0  0  0  0  0  0
   10.3500    3.0350    7.0540 C   0  0  0  0  0  2  0  0  0  0  0  0
    9.3050    3.8170    6.2610 C   0  0  0  0  0  2  0  0  0  0  0  0
    9.7270    4.0020    4.8030 C   0  0  0  0  0  2  0  0  0  0  0  0
   10.4640   -2.8490   -0.5220 C   0  0  2  0  0  3  0  0  0  0  0  0
   11.8850   -3.3650   -0.1380 C   0  0  0  0  0  0  0  0  0  0  0  0
   12.1380   -3.3850    1.1020 O   0  0  0  0  0  1  0  0  0  0  0  0
   12.6380   -3.6360   -1.1220 O   0  0  0  0  0  0  0  0  0  0  0  0
    9.5260   -4.0530   -0.7040 C   0  0  0  0  0  2  0  0  0  0  0  0
    8.5500   -4.2960    0.4160 C   0  0  0  0  0  0  0  0  0  0  0  0
    8.5790   -3.7180    1.6720 C   0  0  0  0  0  3  0  0  0  0  0  0
    7.5040   -4.1720    2.3810 N   0  0  0  0  0  0  0  0  0  0  0  0
    6.7900   -5.0840    1.6410 C   0  0  0  0  0  0  0  0  0  0  0  0
    5.6380   -5.8100    1.9680 C   0  0  0  0  0  3  0  0  0  0  0  0
    5.1090   -6.6620    0.9950 C   0  0  0  0  0  3  0  0  0  0  0  0
    5.7170   -6.7690   -0.2530 C   0  0  0  0  0  0  0  0  0  0  0  0
    6.8630   -6.0400   -0.5720 C   0  0  0  0  0  3  0  0  0  0  0  0
    7.4180   -5.1770    0.3970 C   0  0  0  0  0  0  0  0  0  0  0  0
    7.2580   -3.8700    3.3120 H   0  0  0  0  0  0  0  0  0  0  0  0
    5.1990   -7.5970   -1.2090 O   0  0  0  0  0  0  0  0  0  0  0  0
    4.2680   -7.7510   -0.9910 H   0  0  0  0  0  0  0  0  0  0  0  0
  1  2  2  0  0  0  0
  2  3  1  0  0  0  0
  2  5  1  0  0  0  0
  3 26  1  0  0  0  0
  4  3  1  0  0  0  0
  5 10  2  0  0  0  0
  5  6  1  0  0  0  0
  6  7  2  0  0  0  0
  7  8  1  0  0  0  0
  8 13  1  0  0  0  0
  9 11  1  0  0  0  0
  9  8  2  0  0  0  0
 10  9  1  0  0  0  0
 11 12  2  0  0  0  0
 12 14  1  0  0  0  0
 12 13  1  0  0  0  0
 13 20  1  0  0  0  0
 14 15  1  0  0  0  0
 15 16  2  0  0  0  0
 17 16  1  0  0  0  0
 18 17  2  0  0  0  0
 19 14  2  0  0  0  0
 19 18  1  0  0  0  0
 20 25  1  0  0  0  0
 20 21  1  0  0  0  0
 21 22  1  0  0  0  0
 22 23  1  0  0  0  0
 24 23  1  0  0  0  0
 25 24  1  0  0  0  0
 26 30  1  6  0  0  0
 26 27  1  0  0  0  0
 27 28  1  0  0  0  0
 29 27  2  0  0  0  0
 30 31  1  0  0  0  0
 31 32  2  0  0  0  0
 32 33  1  0  0  0  0
 33 40  1  0  0  0  0
 34 35  1  0  0  0  0
 34 33  1  0  0  0  0
 36 35  2  0  0  0  0
 37 36  1  0  0  0  0
 38 37  2  0  0  0  0
 38 39  1  0  0  0  0
 39 31  1  0  0  0  0
 39 34  2  0  0  0  0
 41 42  1  0  0  0  0
 41 37  1  0  0  0  0
M  END
>  <minimizedAffinity>
-7.92982769

$$$$

 OpenBabel09132202573D

 42 47  0  0  1  0  0  0  0  0999 V2000
    7.1810   -5.2150   -1.4060 O   0  0  0  0  0  0  0  0  0  0  0  0
    7.0830   -5.2900   -0.1830 C   0  0  0  0  0  0  0  0  0  0  0  0
    7.5730   -4.3220    0.6420 N   0  0  0  0  0  0  0  0  0  0  0  0
    7.9170   -3.4680    0.2060 H   0  0  0  0  0  0  0  0  0  0  0  0
    6.4330   -6.4830    0.3980 C   0  0  0  0  0  0  0  0  0  0  0  0
    5.4400   -7.1310   -0.3420 C   0  0  0  0  0  3  0  0  0  0  0  0
    4.7560   -8.2370    0.1780 C   0  0  0  0  0  3  0  0  0  0  0  0
    5.0990   -8.6630    1.4710 C   0  0  0  0  0  0  0  0  0  0  0  0
    6.0570   -7.9960    2.2300 C   0  0  0  0  0  0  0  0  0  0  0  0
    6.7340   -6.8900    1.7020 C   0  0  0  0  0  3  0  0  0  0  0  0
    6.1780   -8.5630    3.4670 N   0  0  0  0  0  0  0  0  0  0  0  0
    5.2990   -9.5500    3.5230 C   0  0  0  0  0  0  0  0  0  0  0  0
    4.6790   -9.7020    2.2860 N   0  0  0  0  0  0  0  0  0  0  0  0
    5.0660  -10.3490    4.7360 C   0  0  0  0  0  0  0  0  0  0  0  0
    5.6110  -11.6260    4.8460 C   0  0  0  0  0  3  0  0  0  0  0  0
    5.4110  -12.3450    6.0210 C   0  0  0  0  0  3  0  0  0  0  0  0
    4.6870  -11.7660    7.0540 C   0  0  0  0  0  3  0  0  0  0  0  0
    4.1910  -10.4860    6.8690 C   0  0  0  0  0  3  0  0  0  0  0  0
    4.3620   -9.7650    5.7390 N   0  0  0  0  0  0  0  0  0  0  0  0
    3.7760  -10.7850    1.9040 C   0  0  0  0  0  3  0  0  0  0  0  0
    2.3380  -10.5300    2.3780 C   0  0  0  0  0  2  0  0  0  0  0  0
    1.4250  -11.7090    2.0450 C   0  0  0  0  0  2  0  0  0  0  0  0
    1.4810  -12.0670    0.5620 C   0  0  0  0  0  2  0  0  0  0  0  0
    2.9110  -12.3310    0.0970 C   0  0  0  0  0  2  0  0  0  0  0  0
    3.8310  -11.1510    0.4090 C   0  0  0  0  0  2  0  0  0  0  0  0
    7.7910   -4.3060    2.1130 C   0  0  2  0  0  3  0  0  0  0  0  0
    6.5120   -3.9300    2.9240 C   0  0  0  0  0  0  0  0  0  0  0  0
    5.4970   -3.6310    2.2300 O   0  0  0  0  0  0  0  0  0  0  0  0
    6.6680   -3.9030    4.1830 O   0  0  0  0  0  1  0  0  0  0  0  0
    8.9440   -3.3840    2.5410 C   0  0  0  0  0  2  0  0  0  0  0  0
    9.2860   -2.2760    1.5810 C   0  0  0  0  0  0  0  0  0  0  0  0
    8.8340   -0.9710    1.6360 C   0  0  0  0  0  3  0  0  0  0  0  0
    9.3980   -0.2740    0.6060 N   0  0  0  0  0  0  0  0  0  0  0  0
   10.1750   -1.1040   -0.1660 C   0  0  0  0  0  0  0  0  0  0  0  0
   10.9200   -0.8290   -1.3200 C   0  0  0  0  0  3  0  0  0  0  0  0
   11.6440   -1.8800   -1.8910 C   0  0  0  0  0  3  0  0  0  0  0  0
   11.6170   -3.1470   -1.3170 C   0  0  0  0  0  0  0  0  0  0  0  0
   10.8750   -3.4110   -0.1660 C   0  0  0  0  0  3  0  0  0  0  0  0
   10.1320   -2.3680    0.4260 C   0  0  0  0  0  0  0  0  0  0  0  0
    9.2760    0.7140    0.4430 H   0  0  0  0  0  0  0  0  0  0  0  0
   12.3280   -4.1750   -1.8700 O   0  0  0  0  0  0  0  0  0  0  0  0
   13.0310   -3.7880   -2.4120 H   0  0  0  0  0  0  0  0  0  0  0  0
  1  2  2  0  0  0  0
  2  5  1  0  0  0  0
  2  3  1  0  0  0  0
  3 26  1  0  0  0  0
  4  3  1  0  0  0  0
  5 10  1  0  0  0  0
  6  7  1  0  0  0  0
  6  5  2  0  0  0  0
  7  8  2  0  0  0  0
  8  9  1  0  0  0  0
  8 13  1  0  0  0  0
  9 11  1  0  0  0  0
 10  9  2  0  0  0  0
 11 12  2  0  0  0  0
 12 14  1  0  0  0  0
 13 12  1  0  0  0  0
 14 15  2  0  0  0  0
 14 19  1  0  0  0  0
 15 16  1  0  0  0  0
 16 17  2  0  0  0  0
 18 17  1  0  0  0  0
 19 18  2  0  0  0  0
 20 13  1  0  0  0  0
 20 21  1  0  0  0  0
 22 21  1  0  0  0  0
 23 22  1  0  0  0  0
 24 25  1  0  0  0  0
 24 23  1  0  0  0  0
 25 20  1  0  0  0  0
 26 30  1  6  0  0  0
 26 27  1  0  0  0  0
 27 29  1  0  0  0  0
 28 27  2  0  0  0  0
 31 32  2  0  0  0  0
 31 30  1  0  0  0  0
 33 32  1  0  0  0  0
 34 39  1  0  0  0  0
 34 33  1  0  0  0  0
 35 34  2  0  0  0  0
 36 35  1  0  0  0  0
 36 37  2  0  0  0  0
 37 38  1  0  0  0  0
 38 39  2  0  0  0  0
 39 31  1  0  0  0  0
 40 33  1  0  0  0  0
 41 37  1  0  0  0  0
 42 41  1  0  0  0  0
M  END
>  <minimizedAffinity>
-7.8058362

$$$$
