
 OpenBabel09132204463D

 42 47  0  0  1  0  0  0  0  0999 V2000
    3.9250   -6.7830   -0.0880 O   0  0  0  0  0  0  0  0  0  0  0  0
    4.6480   -6.8700    0.9010 C   0  0  0  0  0  0  0  0  0  0  0  0
    4.4210   -7.7850    1.8850 N   0  0  0  0  0  0  0  0  0  0  0  0
    3.6980   -8.4820    1.7160 H   0  0  0  0  0  0  0  0  0  0  0  0
    5.7830   -5.9310    1.0260 C   0  0  0  0  0  0  0  0  0  0  0  0
    6.7510   -5.9140    0.0180 C   0  0  0  0  0  3  0  0  0  0  0  0
    7.8730   -5.0800    0.1070 C   0  0  0  0  0  3  0  0  0  0  0  0
    7.9920   -4.2720    1.2480 C   0  0  0  0  0  0  0  0  0  0  0  0
    7.0540   -4.3150    2.2750 C   0  0  0  0  0  0  0  0  0  0  0  0
    5.9360   -5.1530    2.1790 C   0  0  0  0  0  3  0  0  0  0  0  0
    7.4110   -3.4810    3.2960 N   0  0  0  0  0  0  0  0  0  0  0  0
    8.5680   -2.9360    2.9570 C   0  0  0  0  0  0  0  0  0  0  0  0
    8.9140   -3.3270    1.6660 N   0  0  0  0  0  0  0  0  0  0  0  0
    9.3240   -2.0400    3.8450 C   0  0  0  0  0  0  0  0  0  0  0  0
   10.0610   -2.5660    4.9030 C   0  0  0  0  0  3  0  0  0  0  0  0
   10.8010   -1.7010    5.7050 C   0  0  0  0  0  3  0  0  0  0  0  0
   10.7960   -0.3420    5.4200 C   0  0  0  0  0  3  0  0  0  0  0  0
   10.0470    0.0970    4.3400 C   0  0  0  0  0  3  0  0  0  0  0  0
    9.3130   -0.7160    3.5480 N   0  0  0  0  0  0  0  0  0  0  0  0
   10.0310   -2.8050    0.8810 C   0  0  0  0  0  3  0  0  0  0  0  0
   10.8240   -3.9240    0.1930 C   0  0  0  0  0  2  0  0  0  0  0  0
   12.0350   -3.3700   -0.5560 C   0  0  0  0  0  2  0  0  0  0  0  0
   11.6390   -2.2680   -1.5350 C   0  0  0  0  0  2  0  0  0  0  0  0
   10.8610   -1.1500   -0.8450 C   0  0  0  0  0  2  0  0  0  0  0  0
    9.6360   -1.6900   -0.1070 C   0  0  0  0  0  2  0  0  0  0  0  0
    4.9880   -7.9140    3.2540 C   0  0  2  0  0  3  0  0  0  0  0  0
    6.0700   -9.0310    3.3720 C   0  0  0  0  0  0  0  0  0  0  0  0
    6.9600   -9.0240    2.4720 O   0  0  0  0  0  0  0  0  0  0  0  0
    5.8840   -9.8550    4.3190 O   0  0  0  0  0  1  0  0  0  0  0  0
    3.9160   -8.1380    4.3330 C   0  0  0  0  0  2  0  0  0  0  0  0
    3.0310   -6.9570    4.6290 C   0  0  0  0  0  0  0  0  0  0  0  0
    1.6490   -6.9390    4.6060 C   0  0  0  0  0  3  0  0  0  0  0  0
    1.2270   -5.6900    4.9640 N   0  0  0  0  0  0  0  0  0  0  0  0
    2.3030   -4.8610    5.1710 C   0  0  0  0  0  0  0  0  0  0  0  0
    2.3450   -3.5080    5.5320 C   0  0  0  0  0  3  0  0  0  0  0  0
    3.6020   -2.9190    5.6970 C   0  0  0  0  0  3  0  0  0  0  0  0
    4.7600   -3.6670    5.5100 C   0  0  0  0  0  0  0  0  0  0  0  0
    4.7090   -5.0150    5.1540 C   0  0  0  0  0  3  0  0  0  0  0  0
    3.4520   -5.6300    4.9760 C   0  0  0  0  0  0  0  0  0  0  0  0
    0.2620   -5.4180    5.0770 H   0  0  0  0  0  0  0  0  0  0  0  0
    5.9910   -3.0960    5.6760 O   0  0  0  0  0  0  0  0  0  0  0  0
    5.8780   -2.3130    6.2350 H   0  0  0  0  0  0  0  0  0  0  0  0
  1  2  2  0  0  0  0
  2  5  1  0  0  0  0
  2  3  1  0  0  0  0
  3 26  1  0  0  0  0
  4  3  1  0  0  0  0
  5 10  1  0  0  0  0
  6  7  1  0  0  0  0
  6  5  2  0  0  0  0
  7  8  2  0  0  0  0
  8 13  1  0  0  0  0
  8  9  1  0  0  0  0
  9 11  1  0  0  0  0
 10  9  2  0  0  0  0
 12 11  2  0  0  0  0
 12 14  1  0  0  0  0
 13 12  1  0  0  0  0
 14 15  1  0  0  0  0
 15 16  2  0  0  0  0
 17 16  1  0  0  0  0
 18 17  2  0  0  0  0
 19 14  2  0  0  0  0
 19 18  1  0  0  0  0
 20 13  1  0  0  0  0
 21 20  1  0  0  0  0
 22 21  1  0  0  0  0
 23 24  1  0  0  0  0
 23 22  1  0  0  0  0
 24 25  1  0  0  0  0
 25 20  1  0  0  0  0
 26 27  1  0  0  0  0
 26 30  1  1  0  0  0
 27 29  1  0  0  0  0
 28 27  2  0  0  0  0
 30 31  1  0  0  0  0
 31 39  1  0  0  0  0
 32 31  2  0  0  0  0
 32 33  1  0  0  0  0
 33 40  1  0  0  0  0
 33 34  1  0  0  0  0
 34 35  1  0  0  0  0
 35 36  2  0  0  0  0
 37 41  1  0  0  0  0
 37 36  1  0  0  0  0
 38 37  2  0  0  0  0
 39 38  1  0  0  0  0
 39 34  2  0  0  0  0
 41 42  1  0  0  0  0
M  END
>  <minimizedAffinity>
-8.4789753

$$$$
