REMARK  Name = 
REMARK  7 active torsions:
REMARK  status: ('A' for Active; 'I' for Inactive)
REMARK    1  A    between atoms: C_2  and  C_4
REMARK    2  A    between atoms: C_11  and  C_12
REMARK    3  A    between atoms: C_15  and  O_16
REMARK    4  A    between atoms: O_16  and  C_17
REMARK    5  A    between atoms: C_17  and  C_18
REMARK    6  A    between atoms: C_24  and  C_25
REMARK    7  A    between atoms: N_33  and  C_34
REMARK                            x       y       z     vdW  Elec       q    Type
REMARK                         _______ _______ _______ _____ _____    ______ ____
ROOT
ATOM      1  C   UNL     1       6.876  -5.426  -1.559  0.00  0.00    +0.018 A 
ATOM      2  C   UNL     1       7.958  -5.265  -2.431  0.00  0.00    +0.015 A 
ATOM      3  C   UNL     1       9.027  -6.164  -2.401  0.00  0.00    +0.046 A 
ATOM      4  C   UNL     1       9.042  -7.227  -1.494  0.00  0.00    +0.121 A 
ATOM      5  C   UNL     1       7.978  -7.379  -0.606  0.00  0.00    +0.046 A 
ATOM      6  C   UNL     1       6.904  -6.480  -0.638  0.00  0.00    +0.015 A 
ENDROOT
BRANCH   1  14
ATOM      7  C   UNL     1       2.691  -1.225  -0.716  0.00  0.00    -0.001 A 
ATOM      8  C   UNL     1       2.418  -1.430  -2.078  0.00  0.00    +0.012 A 
ATOM      9  C   UNL     1       3.104  -2.382  -2.843  0.00  0.00    +0.028 A 
ATOM     10  C   UNL     1       4.093  -3.139  -2.200  0.00  0.00    +0.069 A 
ATOM     11  C   UNL     1       4.395  -2.959  -0.853  0.00  0.00    +0.090 A 
ATOM     12  C   UNL     1       3.692  -2.004  -0.102  0.00  0.00    +0.039 A 
ATOM     13  N   UNL     1       5.402  -3.805  -0.462  0.00  0.00    -0.228 NA
ATOM     14  C   UNL     1       5.765  -4.472  -1.540  0.00  0.00    +0.142 A 
ATOM     15  N   UNL     1       4.941  -4.149  -2.609  0.00  0.00    -0.320 N 
BRANCH  15  16
ATOM     16  C   UNL     1       4.937  -4.807  -3.914  0.00  0.00    +0.089 C 
ATOM     17  C   UNL     1       3.598  -5.493  -4.238  0.00  0.00    +0.025 C 
ATOM     18  C   UNL     1       3.653  -6.209  -5.587  0.00  0.00    +0.002 C 
ATOM     19  C   UNL     1       4.097  -5.271  -6.705  0.00  0.00    +0.000 C 
ATOM     20  C   UNL     1       5.435  -4.609  -6.387  0.00  0.00    +0.002 C 
ATOM     21  C   UNL     1       5.398  -3.877  -5.047  0.00  0.00    +0.025 C 
ENDBRANCH  15  16
BRANCH   7  23
ATOM     22  O   UNL     1       1.042   0.484  -0.553  0.00  0.00    -0.545 OA
ATOM     23  C   UNL     1       1.923  -0.185   0.076  0.00  0.00    +0.072 C 
ATOM     24  O   UNL     1       2.211  -0.058   1.307  0.00  0.00    -0.545 OA
ENDBRANCH   7  23
ENDBRANCH   1  14
BRANCH   4  25
ATOM     25  O   UNL     1      10.173  -7.993  -1.542  0.00  0.00    -0.487 OA
BRANCH  25  26
ATOM     26  C   UNL     1      10.206  -9.224  -0.812  0.00  0.00    +0.265 C 
BRANCH  26  27
ATOM     27  C   UNL     1      10.801  -9.117   0.584  0.00  0.00    -0.001 A 
ATOM     28  C   UNL     1      11.137  -7.865   1.137  0.00  0.00    +0.027 A 
ATOM     29  C   UNL     1      11.668  -7.770   2.423  0.00  0.00    +0.041 A 
ATOM     30 CL   UNL     1      12.073  -6.229   3.072  0.00  0.00    -0.084 Cl
ATOM     31  C   UNL     1      11.877  -8.912   3.185  0.00  0.00    +0.020 A 
ATOM     32  C   UNL     1      11.560 -10.161   2.652  0.00  0.00    +0.010 A 
ATOM     33  C   UNL     1      11.026 -10.285   1.355  0.00  0.00    -0.011 A 
BRANCH  33  34
ATOM     34  C   UNL     1      10.740 -11.632   0.842  0.00  0.00    -0.018 A 
ATOM     35  C   UNL     1      11.711 -12.337   0.114  0.00  0.00    +0.008 A 
ATOM     36  C   UNL     1      11.448 -13.620  -0.369  0.00  0.00    +0.001 A 
ATOM     37  C   UNL     1      10.212 -14.215  -0.127  0.00  0.00    +0.000 A 
ATOM     38  C   UNL     1       9.240 -13.530   0.598  0.00  0.00    +0.001 A 
ATOM     39  C   UNL     1       9.502 -12.245   1.081  0.00  0.00    +0.008 A 
ENDBRANCH  33  34
ENDBRANCH  26  27
ENDBRANCH  25  26
ENDBRANCH   4  25
TORSDOF 7
