
 OpenBabel09122222393D

 39 44  0  0  0  0  0  0  0  0999 V2000
    4.7370   -7.3860    1.9830 C   0  0  0  0  0  0  0  0  0  0  0  0
    4.3200   -7.7680    3.2630 C   0  0  0  0  0  3  0  0  0  0  0  0
    3.2570   -8.6620    3.4200 C   0  0  0  0  0  3  0  0  0  0  0  0
    2.5850   -9.1770    2.3080 C   0  0  0  0  0  0  0  0  0  0  0  0
    2.9810   -8.7810    1.0310 C   0  0  0  0  0  3  0  0  0  0  0  0
    4.0480   -7.8880    0.8730 C   0  0  0  0  0  3  0  0  0  0  0  0
    9.3220   -3.8570    0.4360 C   0  0  0  0  0  0  0  0  0  0  0  0
    8.7820   -2.9820    1.3920 C   0  0  0  0  0  3  0  0  0  0  0  0
    7.6510   -3.3100    2.1510 C   0  0  0  0  0  3  0  0  0  0  0  0
    7.0590   -4.5590    1.9240 C   0  0  0  0  0  0  0  0  0  0  0  0
    7.5620   -5.4500    0.9800 C   0  0  0  0  0  0  0  0  0  0  0  0
    8.7000   -5.1060    0.2340 C   0  0  0  0  0  3  0  0  0  0  0  0
    6.8050   -6.5930    0.9360 N   0  0  0  0  0  0  0  0  0  0  0  0
    5.8180   -6.4170    1.7930 C   0  0  0  0  0  0  0  0  0  0  0  0
    5.9760   -5.2180    2.4730 N   0  0  0  0  0  0  0  0  0  0  0  0
    5.1720   -4.7670    3.6070 C   0  0  0  0  0  3  0  0  0  0  0  0
    5.9800   -3.9460    4.6280 C   0  0  0  0  0  2  0  0  0  0  0  0
    5.1150   -3.5370    5.8200 C   0  0  0  0  0  2  0  0  0  0  0  0
    3.8520   -2.8060    5.3750 C   0  0  0  0  0  2  0  0  0  0  0  0
    3.0450   -3.6330    4.3770 C   0  0  0  0  0  2  0  0  0  0  0  0
    3.8880   -4.0430    3.1720 C   0  0  0  0  0  2  0  0  0  0  0  0
   10.4210   -2.4960   -1.1780 O   0  0  0  0  0  0  0  0  0  0  0  0
   10.5490   -3.4640   -0.3630 C   0  0  0  0  0  0  0  0  0  0  0  0
   11.6150   -4.1250   -0.1590 O   0  0  0  0  0  1  0  0  0  0  0  0
    1.5350   -9.9960    2.6140 O   0  0  0  0  0  0  0  0  0  0  0  0
    1.8010  -11.3540    2.9800 C   0  0  0  0  0  2  0  0  0  0  0  0
    2.6090  -12.1390    1.9580 C   0  0  0  0  0  0  0  0  0  0  0  0
    2.1290  -12.3340    0.6470 C   0  0  0  0  0  3  0  0  0  0  0  0
    2.8800  -13.0410   -0.2920 C   0  0  0  0  0  0  0  0  0  0  0  0
    2.2690  -13.2680   -1.8840 Cl  0  0  0  0  0  0  0  0  0  0  0  0
    4.1190  -13.5690    0.0490 C   0  0  0  0  0  3  0  0  0  0  0  0
    4.6060  -13.3950    1.3440 C   0  0  0  0  0  3  0  0  0  0  0  0
    3.8670  -12.6880    2.3120 C   0  0  0  0  0  0  0  0  0  0  0  0
    4.4250  -12.5650    3.6660 C   0  0  0  0  0  0  0  0  0  0  0  0
    5.1800  -11.4370    4.0240 C   0  0  0  0  0  3  0  0  0  0  0  0
    5.7060  -11.3110    5.3110 C   0  0  0  0  0  3  0  0  0  0  0  0
    5.4800  -12.3080    6.2560 C   0  0  0  0  0  3  0  0  0  0  0  0
    4.7290  -13.4310    5.9170 C   0  0  0  0  0  3  0  0  0  0  0  0
    4.2030  -13.5590    4.6290 C   0  0  0  0  0  3  0  0  0  0  0  0
  1  2  1  0  0  0  0
  2  3  2  0  0  0  0
  4 25  1  0  0  0  0
  4  3  1  0  0  0  0
  5  4  2  0  0  0  0
  6  5  1  0  0  0  0
  6  1  2  0  0  0  0
  7  8  1  0  0  0  0
  8  9  2  0  0  0  0
 10  9  1  0  0  0  0
 10 15  1  0  0  0  0
 11 10  2  0  0  0  0
 12  7  2  0  0  0  0
 12 11  1  0  0  0  0
 13 11  1  0  0  0  0
 13 14  2  0  0  0  0
 14  1  1  0  0  0  0
 14 15  1  0  0  0  0
 15 16  1  0  0  0  0
 16 17  1  0  0  0  0
 17 18  1  0  0  0  0
 19 18  1  0  0  0  0
 20 19  1  0  0  0  0
 21 16  1  0  0  0  0
 21 20  1  0  0  0  0
 22 23  2  0  0  0  0
 23 24  1  0  0  0  0
 23  7  1  0  0  0  0
 25 26  1  0  0  0  0
 27 33  1  0  0  0  0
 27 26  1  0  0  0  0
 28 27  2  0  0  0  0
 29 31  2  0  0  0  0
 29 28  1  0  0  0  0
 30 29  1  0  0  0  0
 31 32  1  0  0  0  0
 32 33  2  0  0  0  0
 33 34  1  0  0  0  0
 34 35  2  0  0  0  0
 34 39  1  0  0  0  0
 35 36  1  0  0  0  0
 36 37  2  0  0  0  0
 38 37  1  0  0  0  0
 39 38  2  0  0  0  0
M  END
>  <minimizedAffinity>
-9.20346069

$$$$
