
 OpenBabel09122222393D

 39 44  0  0  0  0  0  0  0  0999 V2000
    4.2680   -8.9000    3.2380 C   0  0  0  0  0  0  0  0  0  0  0  0
    3.6430   -9.5980    2.1990 C   0  0  0  0  0  3  0  0  0  0  0  0
    3.9420  -10.9440    1.9730 C   0  0  0  0  0  3  0  0  0  0  0  0
    4.8770  -11.6110    2.7690 C   0  0  0  0  0  0  0  0  0  0  0  0
    5.5220  -10.9150    3.7910 C   0  0  0  0  0  3  0  0  0  0  0  0
    5.2200   -9.5670    4.0190 C   0  0  0  0  0  3  0  0  0  0  0  0
    2.8310   -3.3430    4.9490 C   0  0  0  0  0  0  0  0  0  0  0  0
    3.7540   -2.9570    3.9640 C   0  0  0  0  0  3  0  0  0  0  0  0
    4.4240   -3.8890    3.1600 C   0  0  0  0  0  3  0  0  0  0  0  0
    4.1440   -5.2460    3.3720 C   0  0  0  0  0  0  0  0  0  0  0  0
    3.2400   -5.6660    4.3440 C   0  0  0  0  0  0  0  0  0  0  0  0
    2.5750   -4.7160    5.1350 C   0  0  0  0  0  3  0  0  0  0  0  0
    3.1490   -7.0350    4.3650 N   0  0  0  0  0  0  0  0  0  0  0  0
    4.0060   -7.4780    3.4660 C   0  0  0  0  0  0  0  0  0  0  0  0
    4.5820   -6.4160    2.7830 N   0  0  0  0  0  0  0  0  0  0  0  0
    5.4510   -6.5230    1.6130 C   0  0  0  0  0  3  0  0  0  0  0  0
    4.6830   -6.4220    0.2830 C   0  0  0  0  0  2  0  0  0  0  0  0
    5.6200   -6.5880   -0.9130 C   0  0  0  0  0  2  0  0  0  0  0  0
    6.7880   -5.6090   -0.8540 C   0  0  0  0  0  2  0  0  0  0  0  0
    7.5570   -5.7280    0.4580 C   0  0  0  0  0  2  0  0  0  0  0  0
    6.6410   -5.5530    1.6680 C   0  0  0  0  0  2  0  0  0  0  0  0
    1.3170   -1.5230    5.1970 O   0  0  0  0  0  0  0  0  0  0  0  0
    2.1270   -2.3010    5.7960 C   0  0  0  0  0  0  0  0  0  0  0  0
    2.3920   -2.2810    7.0380 O   0  0  0  0  0  1  0  0  0  0  0  0
    5.1070  -12.9070    2.4010 O   0  0  0  0  0  0  0  0  0  0  0  0
    5.6040  -13.8260    3.3790 C   0  0  0  0  0  2  0  0  0  0  0  0
    4.5580  -14.7710    3.9500 C   0  0  0  0  0  0  0  0  0  0  0  0
    3.9540  -14.5180    5.1980 C   0  0  0  0  0  3  0  0  0  0  0  0
    2.9840  -15.3790    5.7110 C   0  0  0  0  0  0  0  0  0  0  0  0
    2.2650  -15.0480    7.2390 Cl  0  0  0  0  0  0  0  0  0  0  0  0
    2.5940  -16.5060    4.9990 C   0  0  0  0  0  3  0  0  0  0  0  0
    3.1870  -16.7790    3.7670 C   0  0  0  0  0  3  0  0  0  0  0  0
    4.1720  -15.9280    3.2280 C   0  0  0  0  0  0  0  0  0  0  0  0
    4.7770  -16.2880    1.9390 C   0  0  0  0  0  0  0  0  0  0  0  0
    5.7740  -17.2740    1.8710 C   0  0  0  0  0  3  0  0  0  0  0  0
    6.3470  -17.6250    0.6480 C   0  0  0  0  0  3  0  0  0  0  0  0
    5.9290  -16.9980   -0.5230 C   0  0  0  0  0  3  0  0  0  0  0  0
    4.9370  -16.0210   -0.4730 C   0  0  0  0  0  3  0  0  0  0  0  0
    4.3640  -15.6670    0.7510 C   0  0  0  0  0  3  0  0  0  0  0  0
  1 14  1  0  0  0  0
  1  6  1  0  0  0  0
  2  1  2  0  0  0  0
  3  2  1  0  0  0  0
  3  4  2  0  0  0  0
  4  5  1  0  0  0  0
  5  6  2  0  0  0  0
  7 12  1  0  0  0  0
  7 23  1  0  0  0  0
  8  7  2  0  0  0  0
  9 10  2  0  0  0  0
  9  8  1  0  0  0  0
 10 11  1  0  0  0  0
 11 13  1  0  0  0  0
 11 12  2  0  0  0  0
 14 13  2  0  0  0  0
 15 10  1  0  0  0  0
 15 14  1  0  0  0  0
 16 21  1  0  0  0  0
 16 15  1  0  0  0  0
 17 16  1  0  0  0  0
 18 19  1  0  0  0  0
 18 17  1  0  0  0  0
 19 20  1  0  0  0  0
 20 21  1  0  0  0  0
 22 23  2  0  0  0  0
 23 24  1  0  0  0  0
 25  4  1  0  0  0  0
 25 26  1  0  0  0  0
 26 27  1  0  0  0  0
 27 28  1  0  0  0  0
 28 29  2  0  0  0  0
 29 30  1  0  0  0  0
 31 29  1  0  0  0  0
 32 31  2  0  0  0  0
 33 32  1  0  0  0  0
 33 27  2  0  0  0  0
 34 33  1  0  0  0  0
 35 34  1  0  0  0  0
 36 35  2  0  0  0  0
 37 38  2  0  0  0  0
 37 36  1  0  0  0  0
 38 39  1  0  0  0  0
 39 34  2  0  0  0  0
M  END
>  <minimizedAffinity>
-9.29992104

$$$$
