REMARK  Name = 
REMARK  8 active torsions:
REMARK  status: ('A' for Active; 'I' for Inactive)
REMARK    1  A    between atoms: C_1  and  C_2
REMARK    2  A    between atoms: C_2  and  C_3
REMARK    3  A    between atoms: C_2  and  C_4
REMARK    4  A    between atoms: C_2  and  O_5
REMARK    5  A    between atoms: O_5  and  C_6
REMARK    6  A    between atoms: C_6  and  C_8
REMARK    7  A    between atoms: C_12  and  O_13
REMARK    8  A    between atoms: C_14  and  C_15
REMARK                            x       y       z     vdW  Elec       q    Type
REMARK                         _______ _______ _______ _____ _____    ______ ____
ROOT
ATOM      1  C   UNL     1       0.926  -4.775   0.565  0.00  0.00    +0.216 A 
ATOM      2  C   UNL     1       2.039  -4.756  -0.181  0.00  0.00    +0.108 A 
ATOM      3  C   UNL     1       2.539  -6.021  -0.737  0.00  0.00    +0.228 A 
ATOM      4  O   UNL     1       3.559  -6.057  -1.422  0.00  0.00    -0.284 OA
ATOM      5  C   UNL     1       1.773  -7.257  -0.455  0.00  0.00    +0.209 A 
ATOM      6  C   UNL     1       0.679  -7.142   0.308  0.00  0.00    +0.196 A 
ATOM      7  O   UNL     1       0.231  -5.942   0.846  0.00  0.00    -0.443 OA
ENDROOT
BRANCH   6   8
ATOM      8  C   UNL     1      -0.167  -8.373   0.634  0.00  0.00    +0.111 C 
ATOM      9  O   UNL     1       0.163  -8.985   1.691  0.00  0.00    -0.541 OA
ATOM     10  O   UNL     1      -1.132  -8.581  -0.158  0.00  0.00    -0.541 OA
ENDBRANCH   6   8
BRANCH   1  11
ATOM     11  C   UNL     1       0.379  -3.518   1.157  0.00  0.00    +0.375 C 
ATOM     12  O   UNL     1      -0.511  -3.489   1.993  0.00  0.00    -0.241 OA
BRANCH  11  13
ATOM     13  O   UNL     1       0.997  -2.427   0.629  0.00  0.00    -0.453 OA
BRANCH  13  15
ATOM     14  C   UNL     1       1.514  -0.160   0.208  0.00  0.00    +0.055 C 
ATOM     15  C   UNL     1       0.615  -1.090   1.038  0.00  0.00    +0.106 C 
ATOM     16  C   UNL     1       0.911  -0.857   2.524  0.00  0.00    +0.055 C 
ATOM     17  C   UNL     1      -0.847  -0.791   0.690  0.00  0.00    +0.055 C 
ENDBRANCH  13  15
ENDBRANCH  11  13
ENDBRANCH   1  11
BRANCH   5  18
ATOM     18  O   UNL     1       2.238  -8.436  -1.000  0.00  0.00    -0.501 OA
ATOM     19  H   UNL     1       3.046  -8.189  -1.490  0.00  0.00    +0.292 HD
ENDBRANCH   5  18
TORSDOF 5
