
 OpenBabel09122222393D

 19 19  0  0  0  0  0  0  0  0999 V2000
    4.1950   -9.1880    2.1380 C   0  0  0  0  0  0  0  0  0  0  0  0
    3.1490   -8.9600    2.9440 C   0  0  0  0  0  3  0  0  0  0  0  0
    1.9440   -9.7860    2.7900 C   0  0  0  0  0  0  0  0  0  0  0  0
    0.9570   -9.6110    3.5010 O   0  0  0  0  0  0  0  0  0  0  0  0
    1.9540  -10.8460    1.7550 C   0  0  0  0  0  0  0  0  0  0  0  0
    3.0600  -10.9690    1.0120 C   0  0  0  0  0  0  0  0  0  0  0  0
    4.1840  -10.1650    1.1530 O   0  0  0  0  0  0  0  0  0  0  0  0
    3.1460  -12.0460   -0.0700 C   0  0  0  0  0  0  0  0  0  0  0  0
    4.1910  -12.7580   -0.0350 O   0  0  0  0  0  1  0  0  0  0  0  0
    2.1280  -12.1330   -0.8170 O   0  0  0  0  0  0  0  0  0  0  0  0
    5.4410   -8.3730    2.2500 C   0  0  0  0  0  0  0  0  0  0  0  0
    6.0890   -8.2560    3.2790 O   0  0  0  0  0  0  0  0  0  0  0  0
    5.7390   -7.7800    1.0620 O   0  0  0  0  0  0  0  0  0  0  0  0
    5.3020   -6.0500   -0.4870 C   0  0  0  0  0  1  0  0  0  0  0  0
    5.7790   -6.3360    0.9460 C   0  0  0  0  0  0  0  0  0  0  0  0
    7.2080   -5.8050    1.1010 C   0  0  0  0  0  1  0  0  0  0  0  0
    4.8080   -5.6660    1.9240 C   0  0  0  0  0  1  0  0  0  0  0  0
    0.8260  -11.6310    1.6340 O   0  0  0  0  0  0  0  0  0  0  0  0
    0.2040  -11.2890    2.3050 H   0  0  0  0  0  0  0  0  0  0  0  0
  1 11  1  0  0  0  0
  1  2  2  0  0  0  0
  3  2  1  0  0  0  0
  3  4  2  0  0  0  0
  5  3  1  0  0  0  0
  6  7  1  0  0  0  0
  6  5  2  0  0  0  0
  7  1  1  0  0  0  0
  8  9  1  0  0  0  0
  8  6  1  0  0  0  0
 10  8  2  0  0  0  0
 11 12  2  0  0  0  0
 13 11  1  0  0  0  0
 14 15  1  0  0  0  0
 15 13  1  0  0  0  0
 15 16  1  0  0  0  0
 15 17  1  0  0  0  0
 18  5  1  0  0  0  0
 18 19  1  0  0  0  0
M  END
>  <minimizedAffinity>
-5.76994419

$$$$
