
 OpenBabel09122222393D

 19 19  0  0  0  0  0  0  0  0999 V2000
    4.1550   -7.1090    2.9210 C   0  0  0  0  0  0  0  0  0  0  0  0
    3.5780   -8.2300    2.4670 C   0  0  0  0  0  3  0  0  0  0  0  0
    3.9500   -8.7270    1.1340 C   0  0  0  0  0  0  0  0  0  0  0  0
    3.4450   -9.7470    0.6700 O   0  0  0  0  0  0  0  0  0  0  0  0
    4.9610   -7.9650    0.3640 C   0  0  0  0  0  0  0  0  0  0  0  0
    5.4580   -6.8580    0.9290 C   0  0  0  0  0  0  0  0  0  0  0  0
    5.0800   -6.3880    2.1810 O   0  0  0  0  0  0  0  0  0  0  0  0
    6.5120   -6.0260    0.1980 C   0  0  0  0  0  0  0  0  0  0  0  0
    7.5470   -5.7590    0.8740 O   0  0  0  0  0  1  0  0  0  0  0  0
    6.2430   -5.7710   -1.0120 O   0  0  0  0  0  0  0  0  0  0  0  0
    3.8080   -6.5600    4.2660 C   0  0  0  0  0  0  0  0  0  0  0  0
    4.0550   -7.1290    5.3180 O   0  0  0  0  0  0  0  0  0  0  0  0
    3.1770   -5.3610    4.1490 O   0  0  0  0  0  0  0  0  0  0  0  0
    3.0660   -3.0010    4.1050 C   0  0  0  0  0  1  0  0  0  0  0  0
    3.6630   -4.1970    4.8630 C   0  0  0  0  0  0  0  0  0  0  0  0
    5.1920   -4.1020    4.7980 C   0  0  0  0  0  1  0  0  0  0  0  0
    3.1460   -4.1650    6.3050 C   0  0  0  0  0  1  0  0  0  0  0  0
    5.3200   -8.4520   -0.8760 O   0  0  0  0  0  0  0  0  0  0  0  0
    4.7810   -9.2570   -0.9990 H   0  0  0  0  0  0  0  0  0  0  0  0
  1 11  1  0  0  0  0
  2  1  2  0  0  0  0
  3  2  1  0  0  0  0
  4  3  2  0  0  0  0
  5  6  2  0  0  0  0
  5  3  1  0  0  0  0
  6  7  1  0  0  0  0
  7  1  1  0  0  0  0
  8  9  1  0  0  0  0
  8  6  1  0  0  0  0
 10  8  2  0  0  0  0
 11 12  2  0  0  0  0
 13 11  1  0  0  0  0
 13 15  1  0  0  0  0
 14 15  1  0  0  0  0
 15 17  1  0  0  0  0
 16 15  1  0  0  0  0
 18  5  1  0  0  0  0
 19 18  1  0  0  0  0
M  END
>  <minimizedAffinity>
-5.77598858

$$$$
