
 OpenBabel09122222393D

 19 19  0  0  0  0  0  0  0  0999 V2000
    5.3070   -8.6350    2.7910 C   0  0  0  0  0  0  0  0  0  0  0  0
    5.1950   -8.8670    1.4760 C   0  0  0  0  0  3  0  0  0  0  0  0
    4.9760   -7.7290    0.5730 C   0  0  0  0  0  0  0  0  0  0  0  0
    4.8600   -7.8910   -0.6400 O   0  0  0  0  0  0  0  0  0  0  0  0
    4.9050   -6.3730    1.1650 C   0  0  0  0  0  0  0  0  0  0  0  0
    5.0280   -6.2760    2.4940 C   0  0  0  0  0  0  0  0  0  0  0  0
    5.2120   -7.3640    3.3380 O   0  0  0  0  0  0  0  0  0  0  0  0
    4.9750   -4.9080    3.1750 C   0  0  0  0  0  0  0  0  0  0  0  0
    6.0820   -4.4870    3.6190 O   0  0  0  0  0  1  0  0  0  0  0  0
    3.8430   -4.3420    3.1460 O   0  0  0  0  0  0  0  0  0  0  0  0
    5.5250   -9.7570    3.7520 C   0  0  0  0  0  0  0  0  0  0  0  0
    5.5050   -9.6280    4.9660 O   0  0  0  0  0  0  0  0  0  0  0  0
    5.7580  -10.9220    3.0880 O   0  0  0  0  0  0  0  0  0  0  0  0
    5.5430  -13.0060    4.1800 C   0  0  0  0  0  1  0  0  0  0  0  0
    4.8430  -12.0390    3.2130 C   0  0  0  0  0  0  0  0  0  0  0  0
    4.6470  -12.7490    1.8680 C   0  0  0  0  0  1  0  0  0  0  0  0
    3.5100  -11.6090    3.8340 C   0  0  0  0  0  1  0  0  0  0  0  0
    4.7220   -5.3090    0.3060 O   0  0  0  0  0  0  0  0  0  0  0  0
    4.6630   -5.7070   -0.5840 H   0  0  0  0  0  0  0  0  0  0  0  0
  1  7  1  0  0  0  0
  1 11  1  0  0  0  0
  2  1  2  0  0  0  0
  3  5  1  0  0  0  0
  3  2  1  0  0  0  0
  4  3  2  0  0  0  0
  5  6  2  0  0  0  0
  6  8  1  0  0  0  0
  6  7  1  0  0  0  0
  8  9  1  0  0  0  0
 10  8  2  0  0  0  0
 11 12  2  0  0  0  0
 13 15  1  0  0  0  0
 13 11  1  0  0  0  0
 15 17  1  0  0  0  0
 15 14  1  0  0  0  0
 16 15  1  0  0  0  0
 18  5  1  0  0  0  0
 19 18  1  0  0  0  0
M  END
>  <minimizedAffinity>
-5.43475103

$$$$
