
 OpenBabel09122222393D

 19 19  0  0  0  0  0  0  0  0999 V2000
    5.1070   -6.1070    2.5270 C   0  0  0  0  0  0  0  0  0  0  0  0
    5.7160   -5.6040    1.4450 C   0  0  0  0  0  3  0  0  0  0  0  0
    5.7300   -6.3970    0.2080 C   0  0  0  0  0  0  0  0  0  0  0  0
    6.2800   -5.9810   -0.8090 O   0  0  0  0  0  0  0  0  0  0  0  0
    5.0520   -7.7140    0.2180 C   0  0  0  0  0  0  0  0  0  0  0  0
    4.4850   -8.1050    1.3650 C   0  0  0  0  0  0  0  0  0  0  0  0
    4.5000   -7.3540    2.5340 O   0  0  0  0  0  0  0  0  0  0  0  0
    3.7600   -9.4490    1.4480 C   0  0  0  0  0  0  0  0  0  0  0  0
    4.3050  -10.3060    2.2030 O   0  0  0  0  0  1  0  0  0  0  0  0
    2.6700   -9.5070    0.8070 O   0  0  0  0  0  0  0  0  0  0  0  0
    5.0690   -5.3440    3.8100 C   0  0  0  0  0  0  0  0  0  0  0  0
    5.6860   -4.3080    4.0050 O   0  0  0  0  0  0  0  0  0  0  0  0
    4.2710   -5.9660    4.7190 O   0  0  0  0  0  0  0  0  0  0  0  0
    3.4510   -4.7280    6.5570 C   0  0  0  0  0  1  0  0  0  0  0  0
    3.0600   -5.3300    5.1980 C   0  0  0  0  0  0  0  0  0  0  0  0
    1.9440   -6.3570    5.4220 C   0  0  0  0  0  1  0  0  0  0  0  0
    2.6170   -4.1930    4.2710 C   0  0  0  0  0  1  0  0  0  0  0  0
    5.0510   -8.4410   -0.9550 O   0  0  0  0  0  0  0  0  0  0  0  0
    5.5460   -7.8940   -1.5950 H   0  0  0  0  0  0  0  0  0  0  0  0
  1  7  1  0  0  0  0
  1 11  1  0  0  0  0
  2  1  2  0  0  0  0
  3  5  1  0  0  0  0
  3  2  1  0  0  0  0
  4  3  2  0  0  0  0
  5  6  2  0  0  0  0
  6  8  1  0  0  0  0
  6  7  1  0  0  0  0
  8  9  1  0  0  0  0
 10  8  2  0  0  0  0
 11 12  2  0  0  0  0
 11 13  1  0  0  0  0
 13 15  1  0  0  0  0
 15 16  1  0  0  0  0
 15 14  1  0  0  0  0
 17 15  1  0  0  0  0
 18  5  1  0  0  0  0
 19 18  1  0  0  0  0
M  END
>  <minimizedAffinity>
-5.72516537

$$$$
