
 OpenBabel09122222393D

 19 19  0  0  0  0  0  0  0  0999 V2000
    5.1360   -5.6440    2.6740 C   0  0  0  0  0  0  0  0  0  0  0  0
    4.8010   -5.6360    1.3760 C   0  0  0  0  0  3  0  0  0  0  0  0
    4.6100   -6.9200    0.6880 C   0  0  0  0  0  0  0  0  0  0  0  0
    4.3080   -6.9660   -0.5030 O   0  0  0  0  0  0  0  0  0  0  0  0
    4.7840   -8.1640    1.4720 C   0  0  0  0  0  0  0  0  0  0  0  0
    5.1240   -8.0360    2.7610 C   0  0  0  0  0  0  0  0  0  0  0  0
    5.3230   -6.8150    3.3930 O   0  0  0  0  0  0  0  0  0  0  0  0
    5.3120   -9.2760    3.6360 C   0  0  0  0  0  0  0  0  0  0  0  0
    6.0590  -10.1700    3.1430 O   0  0  0  0  0  0  0  0  0  0  0  0
    4.7520   -9.2180    4.7690 O   0  0  0  0  0  1  0  0  0  0  0  0
    5.3460   -4.3670    3.4190 C   0  0  0  0  0  0  0  0  0  0  0  0
    6.4110   -4.0360    3.9170 O   0  0  0  0  0  0  0  0  0  0  0  0
    4.1950   -3.6440    3.4710 O   0  0  0  0  0  0  0  0  0  0  0  0
    2.2420   -2.6480    4.3520 C   0  0  0  0  0  1  0  0  0  0  0  0
    3.4370   -3.5480    4.7030 C   0  0  0  0  0  0  0  0  0  0  0  0
    4.2540   -2.8660    5.8060 C   0  0  0  0  0  1  0  0  0  0  0  0
    2.9040   -4.9150    5.1440 C   0  0  0  0  0  1  0  0  0  0  0  0
    4.5810   -9.3640    0.8220 O   0  0  0  0  0  0  0  0  0  0  0  0
    4.3550   -9.1210   -0.0960 H   0  0  0  0  0  0  0  0  0  0  0  0
  1  7  1  0  0  0  0
  1 11  1  0  0  0  0
  2  1  2  0  0  0  0
  3  2  1  0  0  0  0
  3  5  1  0  0  0  0
  4  3  2  0  0  0  0
  5  6  2  0  0  0  0
  6  7  1  0  0  0  0
  6  8  1  0  0  0  0
  8 10  1  0  0  0  0
  9  8  2  0  0  0  0
 11 13  1  0  0  0  0
 11 12  2  0  0  0  0
 13 15  1  0  0  0  0
 14 15  1  0  0  0  0
 15 17  1  0  0  0  0
 15 16  1  0  0  0  0
 18  5  1  0  0  0  0
 19 18  1  0  0  0  0
M  END
>  <minimizedAffinity>
-6.10569286

$$$$
