REMARK  Name = 
REMARK  6 active torsions:
REMARK  status: ('A' for Active; 'I' for Inactive)
REMARK    1  A    between atoms: C_2  and  C_3
REMARK    2  A    between atoms: C_4  and  C_5
REMARK    3  A    between atoms: C_13  and  S_14
REMARK    4  A    between atoms: S_14  and  C_15
REMARK    5  A    between atoms: C_15  and  C_16
REMARK    6  A    between atoms: C_21  and  C_22
REMARK                            x       y       z     vdW  Elec       q    Type
REMARK                         _______ _______ _______ _____ _____    ______ ____
ROOT
ATOM      1  C   UNL     1       3.814   0.059   0.074  0.00  0.00    +0.142 A 
ATOM      2  C   UNL     1       4.581   1.117   0.394  0.00  0.00    +0.096 A 
ATOM      3  N   UNL     1       5.959   1.114   0.329  0.00  0.00    -0.222 NA
ATOM      4  C   UNL     1       6.530   0.052  -0.128  0.00  0.00    +0.170 A 
ATOM      5  N   UNL     1       5.857  -1.047  -0.550  0.00  0.00    -0.301 N 
ATOM      6  C   UNL     1       4.505  -1.150  -0.420  0.00  0.00    +0.270 A 
ATOM      7  O   UNL     1       3.917  -2.186  -0.707  0.00  0.00    -0.266 OA
ATOM      8  H   UNL     1       6.350  -1.838  -0.931  0.00  0.00    +0.171 HD
ENDROOT
BRANCH   2   9
ATOM      9  C   UNL     1       3.965   2.411   0.759  0.00  0.00    +0.002 A 
ATOM     10  C   UNL     1       3.256   2.580   1.956  0.00  0.00    +0.011 A 
ATOM     11  C   UNL     1       2.667   3.811   2.258  0.00  0.00    +0.016 A 
ATOM     12  C   UNL     1       2.793   4.878   1.370  0.00  0.00    +0.018 A 
ATOM     13 BR   UNL     1       1.993   6.541   1.778  0.00  0.00    -0.050 Br
ATOM     14  C   UNL     1       3.508   4.730   0.184  0.00  0.00    +0.016 A 
ATOM     15  C   UNL     1       4.096   3.499  -0.118  0.00  0.00    +0.011 A 
ENDBRANCH   2   9
BRANCH   1  17
ATOM     16  N   UNL     1       1.033   0.059   0.074  0.00  0.00    -0.191 NA
ATOM     17  C   UNL     1       2.294   0.059   0.074  0.00  0.00    +0.107 C 
ENDBRANCH   1  17
BRANCH   4  18
ATOM     18  S   UNL     1       8.252  -0.027  -0.285  0.00  0.00    -0.083 S 
BRANCH  18  19
ATOM     19  C   UNL     1       8.688  -1.494   0.681  0.00  0.00    +0.113 C 
BRANCH  19  20
ATOM     20  C   UNL     1       7.901  -1.709   1.956  0.00  0.00    -0.026 A 
ATOM     21  C   UNL     1       7.006  -2.800   1.998  0.00  0.00    +0.005 A 
ATOM     22  C   UNL     1       6.220  -3.050   3.121  0.00  0.00    +0.000 A 
ATOM     23  C   UNL     1       6.316  -2.220   4.230  0.00  0.00    +0.001 A 
ATOM     24  C   UNL     1       7.208  -1.149   4.218  0.00  0.00    +0.012 A 
ATOM     25  C   UNL     1       8.024  -0.883   3.098  0.00  0.00    +0.059 A 
BRANCH  25  26
ATOM     26  C   UNL     1       8.980   0.293   3.180  0.00  0.00    +0.418 C 
ATOM     27  F   UNL     1       8.469   1.428   2.636  0.00  0.00    -0.166 F 
ATOM     28  F   UNL     1       9.309   0.617   4.464  0.00  0.00    -0.166 F 
ATOM     29  F   UNL     1      10.169   0.067   2.556  0.00  0.00    -0.166 F 
ENDBRANCH  25  26
ENDBRANCH  19  20
ENDBRANCH  18  19
ENDBRANCH   4  18
TORSDOF 6
