
 OpenBabel09122222393D

 29 31  0  0  0  0  0  0  0  0999 V2000
   10.5200    3.0800    2.9740 C   0  0  0  0  0  0  0  0  0  0  0  0
   10.5320    3.0410    1.6290 C   0  0  0  0  0  0  0  0  0  0  0  0
   10.2270    1.9160    0.8910 N   0  0  0  0  0  0  0  0  0  0  0  0
    9.8470    0.8660    1.5370 C   0  0  0  0  0  0  0  0  0  0  0  0
    9.7260    0.8110    2.8870 N   0  0  0  0  0  0  0  0  0  0  0  0
   10.1060    1.8500    3.6810 C   0  0  0  0  0  0  0  0  0  0  0  0
   10.0910    1.7540    4.9020 O   0  0  0  0  0  0  0  0  0  0  0  0
    9.3920   -0.0240    3.3400 H   0  0  0  0  0  0  0  0  0  0  0  0
   10.7940    4.2650    0.8420 C   0  0  0  0  0  0  0  0  0  0  0  0
   12.0780    4.5870    0.3830 C   0  0  0  0  0  3  0  0  0  0  0  0
   12.2930    5.7640   -0.3390 C   0  0  0  0  0  3  0  0  0  0  0  0
   11.2250    6.6180   -0.6110 C   0  0  0  0  0  0  0  0  0  0  0  0
   11.5190    8.2110   -1.5840 Br  0  0  0  0  0  0  0  0  0  0  0  0
    9.9410    6.3030   -0.1750 C   0  0  0  0  0  3  0  0  0  0  0  0
    9.7260    5.1260    0.5470 C   0  0  0  0  0  3  0  0  0  0  0  0
   11.0080    5.3540    4.4980 N   0  0  0  0  0  1  0  0  0  0  0  0
   10.7870    4.3230    3.8070 C   0  0  0  0  0  2  0  0  0  0  0  0
    9.4050   -0.5790    0.6930 S   0  0  0  0  0  0  0  0  0  0  0  0
   10.0890   -0.3160   -0.9620 C   0  0  0  0  0  2  0  0  0  0  0  0
   11.1980   -1.2580   -1.3800 C   0  0  0  0  0  0  0  0  0  0  0  0
   10.9940   -2.6410   -1.1800 C   0  0  0  0  0  3  0  0  0  0  0  0
   11.9760   -3.5730   -1.5070 C   0  0  0  0  0  3  0  0  0  0  0  0
   13.1810   -3.1460   -2.0490 C   0  0  0  0  0  3  0  0  0  0  0  0
   13.3960   -1.7880   -2.2740 C   0  0  0  0  0  3  0  0  0  0  0  0
   12.4120   -0.8250   -1.9640 C   0  0  0  0  0  0  0  0  0  0  0  0
   12.7240    0.6300   -2.2600 C   0  0  0  0  0  0  0  0  0  0  0  0
   12.6600    1.4200   -1.1570 F   0  0  0  0  0  0  0  0  0  0  0  0
   13.9790    0.8080   -2.7670 F   0  0  0  0  0  0  0  0  0  0  0  0
   11.8890    1.1850   -3.1820 F   0  0  0  0  0  0  0  0  0  0  0  0
  1  6  1  0  0  0  0
  1 17  1  0  0  0  0
  2  1  2  0  0  0  0
  3  4  2  0  0  0  0
  3  2  1  0  0  0  0
  4  5  1  0  0  0  0
  5  8  1  0  0  0  0
  5  6  1  0  0  0  0
  6  7  2  0  0  0  0
  9  2  1  0  0  0  0
 10  9  2  0  0  0  0
 11 10  1  0  0  0  0
 12 11  2  0  0  0  0
 12 14  1  0  0  0  0
 13 12  1  0  0  0  0
 14 15  2  0  0  0  0
 15  9  1  0  0  0  0
 17 16  1  0  0  0  0
 18  4  1  0  0  0  0
 19 18  1  0  0  0  0
 20 21  1  0  0  0  0
 20 19  1  0  0  0  0
 22 21  2  0  0  0  0
 23 22  1  0  0  0  0
 24 23  2  0  0  0  0
 24 25  1  0  0  0  0
 25 20  2  0  0  0  0
 26 25  1  0  0  0  0
 26 27  1  0  0  0  0
 28 26  1  0  0  0  0
 29 26  1  0  0  0  0
M  END
>  <minimizedAffinity>
-7.32190084

$$$$
