
 OpenBabel09122219253D

 29 31  0  0  0  0  0  0  0  0999 V2000
    6.7780   -5.5180    0.1750 C   0  0  0  0  0  0  0  0  0  0  0  0
    6.8190   -5.1030    1.4550 C   0  0  0  0  0  0  0  0  0  0  0  0
    7.8060   -4.2870    1.9660 N   0  0  0  0  0  0  0  0  0  0  0  0
    8.6990   -3.8490    1.1460 C   0  0  0  0  0  0  0  0  0  0  0  0
    8.7170   -4.1390   -0.1790 N   0  0  0  0  0  0  0  0  0  0  0  0
    7.8340   -5.0170   -0.7290 C   0  0  0  0  0  0  0  0  0  0  0  0
    7.9220   -5.3530   -1.9040 O   0  0  0  0  0  0  0  0  0  0  0  0
    9.4180   -3.7420   -0.7830 H   0  0  0  0  0  0  0  0  0  0  0  0
    5.7240   -5.4390    2.3910 C   0  0  0  0  0  0  0  0  0  0  0  0
    5.4330   -6.7650    2.7410 C   0  0  0  0  0  3  0  0  0  0  0  0
    4.3760   -7.0470    3.6110 C   0  0  0  0  0  3  0  0  0  0  0  0
    3.6140   -6.0060    4.1390 C   0  0  0  0  0  0  0  0  0  0  0  0
    2.1820   -6.3900    5.3120 Br  0  0  0  0  0  0  0  0  0  0  0  0
    3.9010   -4.6830    3.8130 C   0  0  0  0  0  3  0  0  0  0  0  0
    4.9570   -4.4010    2.9430 C   0  0  0  0  0  3  0  0  0  0  0  0
    4.7450   -7.0630   -0.9270 N   0  0  0  0  0  1  0  0  0  0  0  0
    5.6670   -6.3620   -0.4270 C   0  0  0  0  0  2  0  0  0  0  0  0
    9.9520   -2.7850    1.6890 S   0  0  0  0  0  0  0  0  0  0  0  0
   11.2020   -2.9200    0.3880 C   0  0  0  0  0  2  0  0  0  0  0  0
   11.1790   -1.8390   -0.6720 C   0  0  0  0  0  0  0  0  0  0  0  0
   10.3380   -0.7260   -0.4550 C   0  0  0  0  0  3  0  0  0  0  0  0
   10.2340    0.2970   -1.3950 C   0  0  0  0  0  3  0  0  0  0  0  0
   10.9720    0.2350   -2.5690 C   0  0  0  0  0  3  0  0  0  0  0  0
   11.8240   -0.8450   -2.7950 C   0  0  0  0  0  3  0  0  0  0  0  0
   11.9570   -1.8870   -1.8520 C   0  0  0  0  0  0  0  0  0  0  0  0
   12.9230   -3.0140   -2.1720 C   0  0  0  0  0  0  0  0  0  0  0  0
   12.3120   -4.2240   -2.2570 F   0  0  0  0  0  0  0  0  0  0  0  0
   13.5590   -2.8400   -3.3670 F   0  0  0  0  0  0  0  0  0  0  0  0
   13.9200   -3.1470   -1.2550 F   0  0  0  0  0  0  0  0  0  0  0  0
  1  2  2  0  0  0  0
  2  3  1  0  0  0  0
  2  9  1  0  0  0  0
  4 18  1  0  0  0  0
  4  3  2  0  0  0  0
  5  4  1  0  0  0  0
  6  5  1  0  0  0  0
  6  1  1  0  0  0  0
  7  6  2  0  0  0  0
  8  5  1  0  0  0  0
  9 10  2  0  0  0  0
  9 15  1  0  0  0  0
 10 11  1  0  0  0  0
 11 12  2  0  0  0  0
 12 13  1  0  0  0  0
 14 12  1  0  0  0  0
 15 14  2  0  0  0  0
 16 17  1  0  0  0  0
 17  1  1  0  0  0  0
 19 18  1  0  0  0  0
 20 21  1  0  0  0  0
 20 19  1  0  0  0  0
 22 21  2  0  0  0  0
 23 22  1  0  0  0  0
 24 23  2  0  0  0  0
 24 25  1  0  0  0  0
 25 20  2  0  0  0  0
 26 25  1  0  0  0  0
 26 29  1  0  0  0  0
 27 26  1  0  0  0  0
 28 26  1  0  0  0  0
M  END
>  <minimizedAffinity>
-7.97276545

$$$$

 OpenBabel09122219253D

 29 31  0  0  0  0  0  0  0  0999 V2000
    6.4610   -5.2740    2.0750 C   0  0  0  0  0  0  0  0  0  0  0  0
    6.6460   -4.1790    2.8330 C   0  0  0  0  0  0  0  0  0  0  0  0
    7.7410   -3.3460    2.7250 N   0  0  0  0  0  0  0  0  0  0  0  0
    8.5960   -3.6070    1.7960 C   0  0  0  0  0  0  0  0  0  0  0  0
    8.4760   -4.6390    0.9250 N   0  0  0  0  0  0  0  0  0  0  0  0
    7.4760   -5.5570    1.0390 C   0  0  0  0  0  0  0  0  0  0  0  0
    7.4340   -6.5430    0.3130 O   0  0  0  0  0  0  0  0  0  0  0  0
    9.1550   -4.7790    0.1950 H   0  0  0  0  0  0  0  0  0  0  0  0
    5.6090   -3.7430    3.7940 C   0  0  0  0  0  0  0  0  0  0  0  0
    4.3230   -3.3770    3.3770 C   0  0  0  0  0  3  0  0  0  0  0  0
    3.3750   -2.9480    4.3100 C   0  0  0  0  0  3  0  0  0  0  0  0
    3.7060   -2.8940    5.6630 C   0  0  0  0  0  0  0  0  0  0  0  0
    2.4250   -2.3100    6.9230 Br  0  0  0  0  0  0  0  0  0  0  0  0
    4.9760   -3.2700    6.0950 C   0  0  0  0  0  3  0  0  0  0  0  0
    5.9240   -3.6980    5.1610 C   0  0  0  0  0  3  0  0  0  0  0  0
    4.2140   -6.9100    2.1750 N   0  0  0  0  0  1  0  0  0  0  0  0
    5.2330   -6.1680    2.1300 C   0  0  0  0  0  2  0  0  0  0  0  0
    9.9790   -2.5930    1.5590 S   0  0  0  0  0  0  0  0  0  0  0  0
   10.5110   -3.0070   -0.1210 C   0  0  0  0  0  2  0  0  0  0  0  0
   10.9390   -1.8430   -0.9890 C   0  0  0  0  0  0  0  0  0  0  0  0
   10.2060   -0.6400   -0.8810 C   0  0  0  0  0  3  0  0  0  0  0  0
   10.5140    0.4690   -1.6670 C   0  0  0  0  0  3  0  0  0  0  0  0
   11.5640    0.4040   -2.5720 C   0  0  0  0  0  3  0  0  0  0  0  0
   12.3130   -0.7670   -2.6810 C   0  0  0  0  0  3  0  0  0  0  0  0
   12.0300   -1.8980   -1.8870 C   0  0  0  0  0  0  0  0  0  0  0  0
   12.9100   -3.1230   -2.0580 C   0  0  0  0  0  0  0  0  0  0  0  0
   12.2050   -4.2390   -2.3810 F   0  0  0  0  0  0  0  0  0  0  0  0
   13.8360   -2.9740   -3.0490 F   0  0  0  0  0  0  0  0  0  0  0  0
   13.6310   -3.4300   -0.9440 F   0  0  0  0  0  0  0  0  0  0  0  0
  1 17  1  0  0  0  0
  1  2  2  0  0  0  0
  2  9  1  0  0  0  0
  3  2  1  0  0  0  0
  4  3  2  0  0  0  0
  5  6  1  0  0  0  0
  5  4  1  0  0  0  0
  6  1  1  0  0  0  0
  7  6  2  0  0  0  0
  8  5  1  0  0  0  0
  9 15  1  0  0  0  0
 10  9  2  0  0  0  0
 10 11  1  0  0  0  0
 11 12  2  0  0  0  0
 12 14  1  0  0  0  0
 12 13  1  0  0  0  0
 15 14  2  0  0  0  0
 17 16  1  0  0  0  0
 18  4  1  0  0  0  0
 19 18  1  0  0  0  0
 20 21  1  0  0  0  0
 20 19  1  0  0  0  0
 22 21  2  0  0  0  0
 23 22  1  0  0  0  0
 24 23  2  0  0  0  0
 24 25  1  0  0  0  0
 25 20  2  0  0  0  0
 26 25  1  0  0  0  0
 26 29  1  0  0  0  0
 27 26  1  0  0  0  0
 28 26  1  0  0  0  0
M  END
>  <minimizedAffinity>
-7.89579725

$$$$

 OpenBabel09122219253D

 29 31  0  0  0  0  0  0  0  0999 V2000
    6.4770   -5.2540    2.0720 C   0  0  0  0  0  0  0  0  0  0  0  0
    6.6720   -4.1610    2.8310 C   0  0  0  0  0  0  0  0  0  0  0  0
    7.7800   -3.3440    2.7310 N   0  0  0  0  0  0  0  0  0  0  0  0
    8.6390   -3.6190    1.8090 C   0  0  0  0  0  0  0  0  0  0  0  0
    8.5110   -4.6500    0.9380 N   0  0  0  0  0  0  0  0  0  0  0  0
    7.4960   -5.5530    1.0440 C   0  0  0  0  0  0  0  0  0  0  0  0
    7.4460   -6.5390    0.3190 O   0  0  0  0  0  0  0  0  0  0  0  0
    9.1940   -4.8000    0.2140 H   0  0  0  0  0  0  0  0  0  0  0  0
    5.6340   -3.7100    3.7820 C   0  0  0  0  0  0  0  0  0  0  0  0
    4.3420   -3.3700    3.3600 C   0  0  0  0  0  3  0  0  0  0  0  0
    3.3920   -2.9250    4.2840 C   0  0  0  0  0  3  0  0  0  0  0  0
    3.7290   -2.8280    5.6330 C   0  0  0  0  0  0  0  0  0  0  0  0
    2.4450   -2.2230    6.8810 Br  0  0  0  0  0  0  0  0  0  0  0  0
    5.0040   -3.1770    6.0710 C   0  0  0  0  0  3  0  0  0  0  0  0
    5.9530   -3.6210    5.1460 C   0  0  0  0  0  3  0  0  0  0  0  0
    4.2060   -6.8580    2.1550 N   0  0  0  0  0  1  0  0  0  0  0  0
    5.2360   -6.1310    2.1170 C   0  0  0  0  0  2  0  0  0  0  0  0
   10.0380   -2.6250    1.5820 S   0  0  0  0  0  0  0  0  0  0  0  0
    9.8340   -2.0050   -0.1060 C   0  0  0  0  0  2  0  0  0  0  0  0
   11.0260   -2.1720   -1.0240 C   0  0  0  0  0  0  0  0  0  0  0  0
   11.6990   -3.4130   -1.0060 C   0  0  0  0  0  3  0  0  0  0  0  0
   12.8240   -3.6400   -1.7960 C   0  0  0  0  0  3  0  0  0  0  0  0
   13.2980   -2.6340   -2.6280 C   0  0  0  0  0  3  0  0  0  0  0  0
   12.6370   -1.4080   -2.6770 C   0  0  0  0  0  3  0  0  0  0  0  0
   11.4880   -1.1590   -1.8970 C   0  0  0  0  0  0  0  0  0  0  0  0
   10.8220    0.1990   -2.0280 C   0  0  0  0  0  0  0  0  0  0  0  0
    9.6000    0.1320   -2.6190 F   0  0  0  0  0  0  0  0  0  0  0  0
   10.6140    0.8030   -0.8230 F   0  0  0  0  0  0  0  0  0  0  0  0
   11.5530    1.0910   -2.7510 F   0  0  0  0  0  0  0  0  0  0  0  0
  1 17  1  0  0  0  0
  1  2  2  0  0  0  0
  2  9  1  0  0  0  0
  3  2  1  0  0  0  0
  4  3  2  0  0  0  0
  5  6  1  0  0  0  0
  5  4  1  0  0  0  0
  6  1  1  0  0  0  0
  7  6  2  0  0  0  0
  8  5  1  0  0  0  0
  9 15  1  0  0  0  0
 10  9  2  0  0  0  0
 10 11  1  0  0  0  0
 11 12  2  0  0  0  0
 12 14  1  0  0  0  0
 12 13  1  0  0  0  0
 15 14  2  0  0  0  0
 17 16  1  0  0  0  0
 18  4  1  0  0  0  0
 19 18  1  0  0  0  0
 20 21  1  0  0  0  0
 20 19  1  0  0  0  0
 22 21  2  0  0  0  0
 23 22  1  0  0  0  0
 24 23  2  0  0  0  0
 24 25  1  0  0  0  0
 25 20  2  0  0  0  0
 26 25  1  0  0  0  0
 26 28  1  0  0  0  0
 27 26  1  0  0  0  0
 29 26  1  0  0  0  0
M  END
>  <minimizedAffinity>
-7.81289053

$$$$

 OpenBabel09122219253D

 29 31  0  0  0  0  0  0  0  0999 V2000
    6.6560   -5.5650    0.1560 C   0  0  0  0  0  0  0  0  0  0  0  0
    6.7450   -5.1280    1.4250 C   0  0  0  0  0  0  0  0  0  0  0  0
    7.7700   -4.3330    1.8940 N   0  0  0  0  0  0  0  0  0  0  0  0
    8.6530   -3.9390    1.0420 C   0  0  0  0  0  0  0  0  0  0  0  0
    8.6260   -4.2530   -0.2770 N   0  0  0  0  0  0  0  0  0  0  0  0
    7.7010   -5.1140   -0.7870 C   0  0  0  0  0  0  0  0  0  0  0  0
    7.7470   -5.4750   -1.9570 O   0  0  0  0  0  0  0  0  0  0  0  0
    9.3220   -3.8900   -0.9080 H   0  0  0  0  0  0  0  0  0  0  0  0
    5.6660   -5.4130    2.3960 C   0  0  0  0  0  0  0  0  0  0  0  0
    5.2650   -6.7220    2.6930 C   0  0  0  0  0  3  0  0  0  0  0  0
    4.2260   -6.9530    3.5990 C   0  0  0  0  0  3  0  0  0  0  0  0
    3.5920   -5.8770    4.2180 C   0  0  0  0  0  0  0  0  0  0  0  0
    2.1850   -6.1910    5.4400 Br  0  0  0  0  0  0  0  0  0  0  0  0
    3.9900   -4.5710    3.9460 C   0  0  0  0  0  3  0  0  0  0  0  0
    5.0280   -4.3400    3.0390 C   0  0  0  0  0  3  0  0  0  0  0  0
    4.5480   -7.0660   -0.8610 N   0  0  0  0  0  1  0  0  0  0  0  0
    5.5040   -6.3850   -0.4000 C   0  0  0  0  0  2  0  0  0  0  0  0
    9.9520   -2.9040    1.5300 S   0  0  0  0  0  0  0  0  0  0  0  0
   10.0840   -1.7310    0.1590 C   0  0  0  0  0  2  0  0  0  0  0  0
   11.2120   -1.9770   -0.8210 C   0  0  0  0  0  0  0  0  0  0  0  0
   11.8550   -3.2330   -0.7790 C   0  0  0  0  0  3  0  0  0  0  0  0
   12.9230   -3.5290   -1.6230 C   0  0  0  0  0  3  0  0  0  0  0  0
   13.3680   -2.5800   -2.5330 C   0  0  0  0  0  3  0  0  0  0  0  0
   12.7350   -1.3400   -2.6060 C   0  0  0  0  0  3  0  0  0  0  0  0
   11.6430   -1.0210   -1.7710 C   0  0  0  0  0  0  0  0  0  0  0  0
   11.0030    0.3450   -1.9320 C   0  0  0  0  0  0  0  0  0  0  0  0
   11.0110    1.0710   -0.7830 F   0  0  0  0  0  0  0  0  0  0  0  0
   11.6360    1.1190   -2.8600 F   0  0  0  0  0  0  0  0  0  0  0  0
    9.7060    0.2890   -2.3440 F   0  0  0  0  0  0  0  0  0  0  0  0
  1  2  2  0  0  0  0
  2  3  1  0  0  0  0
  2  9  1  0  0  0  0
  4 18  1  0  0  0  0
  4  3  2  0  0  0  0
  5  4  1  0  0  0  0
  6  5  1  0  0  0  0
  6  1  1  0  0  0  0
  7  6  2  0  0  0  0
  8  5  1  0  0  0  0
  9 10  2  0  0  0  0
  9 15  1  0  0  0  0
 10 11  1  0  0  0  0
 11 12  2  0  0  0  0
 12 13  1  0  0  0  0
 14 12  1  0  0  0  0
 15 14  2  0  0  0  0
 16 17  1  0  0  0  0
 17  1  1  0  0  0  0
 19 18  1  0  0  0  0
 20 21  1  0  0  0  0
 20 19  1  0  0  0  0
 22 21  2  0  0  0  0
 23 22  1  0  0  0  0
 24 23  2  0  0  0  0
 24 25  1  0  0  0  0
 25 20  2  0  0  0  0
 26 25  1  0  0  0  0
 26 27  1  0  0  0  0
 28 26  1  0  0  0  0
 29 26  1  0  0  0  0
M  END
>  <minimizedAffinity>
-7.58074474

$$$$

 OpenBabel09122219253D

 29 31  0  0  0  0  0  0  0  0999 V2000
    8.8450   -3.7350    0.6460 C   0  0  0  0  0  0  0  0  0  0  0  0
    8.3480   -3.6610    1.8940 C   0  0  0  0  0  0  0  0  0  0  0  0
    7.3240   -4.4580    2.3610 N   0  0  0  0  0  0  0  0  0  0  0  0
    6.8680   -5.3670    1.5680 C   0  0  0  0  0  0  0  0  0  0  0  0
    7.3410   -5.5830    0.3150 N   0  0  0  0  0  0  0  0  0  0  0  0
    8.2790   -4.7700   -0.2440 C   0  0  0  0  0  0  0  0  0  0  0  0
    8.6250   -4.9090   -1.4120 O   0  0  0  0  0  0  0  0  0  0  0  0
    6.9730   -6.3300   -0.2520 H   0  0  0  0  0  0  0  0  0  0  0  0
    8.9530   -2.7530    2.8930 C   0  0  0  0  0  0  0  0  0  0  0  0
    9.5040   -3.2330    4.0890 C   0  0  0  0  0  3  0  0  0  0  0  0
   10.0470   -2.3440    5.0210 C   0  0  0  0  0  3  0  0  0  0  0  0
   10.0490   -0.9750    4.7550 C   0  0  0  0  0  0  0  0  0  0  0  0
   10.7810    0.2260    6.0180 Br  0  0  0  0  0  0  0  0  0  0  0  0
    9.5210   -0.4850    3.5640 C   0  0  0  0  0  3  0  0  0  0  0  0
    8.9770   -1.3740    2.6330 C   0  0  0  0  0  3  0  0  0  0  0  0
   10.9860   -2.2350   -0.3000 N   0  0  0  0  0  1  0  0  0  0  0  0
   10.0150   -2.9150    0.1290 C   0  0  0  0  0  2  0  0  0  0  0  0
    5.6120   -6.4410    2.0830 S   0  0  0  0  0  0  0  0  0  0  0  0
    4.2580   -5.3180    2.5090 C   0  0  0  0  0  2  0  0  0  0  0  0
    3.6550   -5.4960    3.8850 C   0  0  0  0  0  0  0  0  0  0  0  0
    3.5520   -6.8090    4.3920 C   0  0  0  0  0  3  0  0  0  0  0  0
    2.9800   -7.0640    5.6370 C   0  0  0  0  0  3  0  0  0  0  0  0
    2.5040   -6.0110    6.4060 C   0  0  0  0  0  3  0  0  0  0  0  0
    2.6130   -4.7040    5.9350 C   0  0  0  0  0  3  0  0  0  0  0  0
    3.2010   -4.4190    4.6830 C   0  0  0  0  0  0  0  0  0  0  0  0
    3.2950   -2.9650    4.2580 C   0  0  0  0  0  0  0  0  0  0  0  0
    4.1840   -2.7670    3.2500 F   0  0  0  0  0  0  0  0  0  0  0  0
    2.1070   -2.4710    3.8040 F   0  0  0  0  0  0  0  0  0  0  0  0
    3.6630   -2.1300    5.2680 F   0  0  0  0  0  0  0  0  0  0  0  0
  1  2  2  0  0  0  0
  2  3  1  0  0  0  0
  2  9  1  0  0  0  0
  4 18  1  0  0  0  0
  4  3  2  0  0  0  0
  5  4  1  0  0  0  0
  6  5  1  0  0  0  0
  6  1  1  0  0  0  0
  7  6  2  0  0  0  0
  8  5  1  0  0  0  0
  9 10  1  0  0  0  0
 10 11  2  0  0  0  0
 12 11  1  0  0  0  0
 12 13  1  0  0  0  0
 14 12  2  0  0  0  0
 15  9  2  0  0  0  0
 15 14  1  0  0  0  0
 16 17  1  0  0  0  0
 17  1  1  0  0  0  0
 18 19  1  0  0  0  0
 19 20  1  0  0  0  0
 20 21  2  0  0  0  0
 20 25  1  0  0  0  0
 21 22  1  0  0  0  0
 22 23  2  0  0  0  0
 24 23  1  0  0  0  0
 25 24  2  0  0  0  0
 26 25  1  0  0  0  0
 26 29  1  0  0  0  0
 27 26  1  0  0  0  0
 28 26  1  0  0  0  0
M  END
>  <minimizedAffinity>
-7.35818672

$$$$

 OpenBabel09122219253D

 29 31  0  0  0  0  0  0  0  0999 V2000
    6.3880   -5.2700    2.1120 C   0  0  0  0  0  0  0  0  0  0  0  0
    6.5890   -4.1890    2.8880 C   0  0  0  0  0  0  0  0  0  0  0  0
    7.7050   -3.3820    2.8080 N   0  0  0  0  0  0  0  0  0  0  0  0
    8.5680   -3.6520    1.8880 C   0  0  0  0  0  0  0  0  0  0  0  0
    8.4360   -4.6700    1.0020 N   0  0  0  0  0  0  0  0  0  0  0  0
    7.4120   -5.5640    1.0880 C   0  0  0  0  0  0  0  0  0  0  0  0
    7.3580   -6.5400    0.3490 O   0  0  0  0  0  0  0  0  0  0  0  0
    9.1230   -4.8160    0.2800 H   0  0  0  0  0  0  0  0  0  0  0  0
    5.5480   -3.7410    3.8390 C   0  0  0  0  0  0  0  0  0  0  0  0
    4.2710   -3.3550    3.4080 C   0  0  0  0  0  3  0  0  0  0  0  0
    3.3200   -2.9140    4.3320 C   0  0  0  0  0  3  0  0  0  0  0  0
    3.6380   -2.8680    5.6890 C   0  0  0  0  0  0  0  0  0  0  0  0
    2.3510   -2.2690    6.9370 Br  0  0  0  0  0  0  0  0  0  0  0  0
    4.8970   -3.2630    6.1330 C   0  0  0  0  0  3  0  0  0  0  0  0
    5.8490   -3.7020    5.2090 C   0  0  0  0  0  3  0  0  0  0  0  0
    4.1020   -6.8520    2.1570 N   0  0  0  0  0  1  0  0  0  0  0  0
    5.1390   -6.1340    2.1370 C   0  0  0  0  0  2  0  0  0  0  0  0
    9.9780   -2.6690    1.6850 S   0  0  0  0  0  0  0  0  0  0  0  0
    9.5870   -1.6840    0.2180 C   0  0  0  0  0  2  0  0  0  0  0  0
    9.8110   -0.1920    0.3390 C   0  0  0  0  0  0  0  0  0  0  0  0
    9.3570    0.4450    1.5140 C   0  0  0  0  0  3  0  0  0  0  0  0
    9.4940    1.8200    1.6920 C   0  0  0  0  0  3  0  0  0  0  0  0
   10.0940    2.5880    0.7030 C   0  0  0  0  0  3  0  0  0  0  0  0
   10.5680    1.9770   -0.4560 C   0  0  0  0  0  3  0  0  0  0  0  0
   10.4530    0.5850   -0.6540 C   0  0  0  0  0  0  0  0  0  0  0  0
   11.0130    0.0020   -1.9380 C   0  0  0  0  0  0  0  0  0  0  0  0
   10.0610   -0.5760   -2.7160 F   0  0  0  0  0  0  0  0  0  0  0  0
   11.6110    0.9410   -2.7270 F   0  0  0  0  0  0  0  0  0  0  0  0
   11.9680   -0.9460   -1.7300 F   0  0  0  0  0  0  0  0  0  0  0  0
  1 17  1  0  0  0  0
  1  2  2  0  0  0  0
  2  9  1  0  0  0  0
  3  2  1  0  0  0  0
  4  3  2  0  0  0  0
  5  6  1  0  0  0  0
  5  4  1  0  0  0  0
  6  1  1  0  0  0  0
  7  6  2  0  0  0  0
  8  5  1  0  0  0  0
  9 15  1  0  0  0  0
 10  9  2  0  0  0  0
 10 11  1  0  0  0  0
 11 12  2  0  0  0  0
 12 14  1  0  0  0  0
 12 13  1  0  0  0  0
 15 14  2  0  0  0  0
 17 16  1  0  0  0  0
 18  4  1  0  0  0  0
 19 20  1  0  0  0  0
 19 18  1  0  0  0  0
 20 21  1  0  0  0  0
 21 22  2  0  0  0  0
 23 22  1  0  0  0  0
 24 23  2  0  0  0  0
 25 24  1  0  0  0  0
 25 20  2  0  0  0  0
 26 29  1  0  0  0  0
 26 25  1  0  0  0  0
 27 26  1  0  0  0  0
 28 26  1  0  0  0  0
M  END
>  <minimizedAffinity>
-7.33631897

$$$$

 OpenBabel09122219253D

 29 31  0  0  0  0  0  0  0  0999 V2000
   10.5200    3.0800    2.9740 C   0  0  0  0  0  0  0  0  0  0  0  0
   10.5320    3.0410    1.6290 C   0  0  0  0  0  0  0  0  0  0  0  0
   10.2270    1.9160    0.8910 N   0  0  0  0  0  0  0  0  0  0  0  0
    9.8470    0.8660    1.5370 C   0  0  0  0  0  0  0  0  0  0  0  0
    9.7260    0.8110    2.8870 N   0  0  0  0  0  0  0  0  0  0  0  0
   10.1060    1.8500    3.6810 C   0  0  0  0  0  0  0  0  0  0  0  0
   10.0910    1.7540    4.9020 O   0  0  0  0  0  0  0  0  0  0  0  0
    9.3920   -0.0240    3.3400 H   0  0  0  0  0  0  0  0  0  0  0  0
   10.7940    4.2650    0.8420 C   0  0  0  0  0  0  0  0  0  0  0  0
   12.0780    4.5870    0.3830 C   0  0  0  0  0  3  0  0  0  0  0  0
   12.2930    5.7640   -0.3390 C   0  0  0  0  0  3  0  0  0  0  0  0
   11.2250    6.6180   -0.6110 C   0  0  0  0  0  0  0  0  0  0  0  0
   11.5190    8.2110   -1.5840 Br  0  0  0  0  0  0  0  0  0  0  0  0
    9.9410    6.3030   -0.1750 C   0  0  0  0  0  3  0  0  0  0  0  0
    9.7260    5.1260    0.5470 C   0  0  0  0  0  3  0  0  0  0  0  0
   11.0080    5.3540    4.4980 N   0  0  0  0  0  1  0  0  0  0  0  0
   10.7870    4.3230    3.8070 C   0  0  0  0  0  2  0  0  0  0  0  0
    9.4050   -0.5790    0.6930 S   0  0  0  0  0  0  0  0  0  0  0  0
   10.0890   -0.3160   -0.9620 C   0  0  0  0  0  2  0  0  0  0  0  0
   11.1980   -1.2580   -1.3800 C   0  0  0  0  0  0  0  0  0  0  0  0
   10.9940   -2.6410   -1.1800 C   0  0  0  0  0  3  0  0  0  0  0  0
   11.9760   -3.5730   -1.5070 C   0  0  0  0  0  3  0  0  0  0  0  0
   13.1810   -3.1460   -2.0490 C   0  0  0  0  0  3  0  0  0  0  0  0
   13.3960   -1.7880   -2.2740 C   0  0  0  0  0  3  0  0  0  0  0  0
   12.4120   -0.8250   -1.9640 C   0  0  0  0  0  0  0  0  0  0  0  0
   12.7240    0.6300   -2.2600 C   0  0  0  0  0  0  0  0  0  0  0  0
   12.6600    1.4200   -1.1570 F   0  0  0  0  0  0  0  0  0  0  0  0
   13.9790    0.8080   -2.7670 F   0  0  0  0  0  0  0  0  0  0  0  0
   11.8890    1.1850   -3.1820 F   0  0  0  0  0  0  0  0  0  0  0  0
  1  6  1  0  0  0  0
  1 17  1  0  0  0  0
  2  1  2  0  0  0  0
  3  4  2  0  0  0  0
  3  2  1  0  0  0  0
  4  5  1  0  0  0  0
  5  8  1  0  0  0  0
  5  6  1  0  0  0  0
  6  7  2  0  0  0  0
  9  2  1  0  0  0  0
 10  9  2  0  0  0  0
 11 10  1  0  0  0  0
 12 11  2  0  0  0  0
 12 14  1  0  0  0  0
 13 12  1  0  0  0  0
 14 15  2  0  0  0  0
 15  9  1  0  0  0  0
 17 16  1  0  0  0  0
 18  4  1  0  0  0  0
 19 18  1  0  0  0  0
 20 21  1  0  0  0  0
 20 19  1  0  0  0  0
 22 21  2  0  0  0  0
 23 22  1  0  0  0  0
 24 23  2  0  0  0  0
 24 25  1  0  0  0  0
 25 20  2  0  0  0  0
 26 25  1  0  0  0  0
 26 27  1  0  0  0  0
 28 26  1  0  0  0  0
 29 26  1  0  0  0  0
M  END
>  <minimizedAffinity>
-7.32190084

$$$$

 OpenBabel09122219253D

 29 31  0  0  0  0  0  0  0  0999 V2000
   10.2110    2.3860    2.5230 C   0  0  0  0  0  0  0  0  0  0  0  0
   10.9620    3.1590    1.7180 C   0  0  0  0  0  0  0  0  0  0  0  0
   11.2560    2.8440    0.4070 N   0  0  0  0  0  0  0  0  0  0  0  0
   10.7200    1.7780   -0.0820 C   0  0  0  0  0  0  0  0  0  0  0  0
    9.8870    0.9630    0.6110 N   0  0  0  0  0  0  0  0  0  0  0  0
    9.6360    1.1590    1.9360 C   0  0  0  0  0  0  0  0  0  0  0  0
    8.9660    0.3590    2.5790 O   0  0  0  0  0  0  0  0  0  0  0  0
    9.4680    0.1600    0.1710 H   0  0  0  0  0  0  0  0  0  0  0  0
   11.4570    4.4730    2.1820 C   0  0  0  0  0  0  0  0  0  0  0  0
   12.6780    4.6070    2.8550 C   0  0  0  0  0  3  0  0  0  0  0  0
   13.1030    5.8620    3.3000 C   0  0  0  0  0  3  0  0  0  0  0  0
   12.3140    6.9870    3.0640 C   0  0  0  0  0  0  0  0  0  0  0  0
   12.8890    8.6830    3.6690 Br  0  0  0  0  0  0  0  0  0  0  0  0
   11.1050    6.8720    2.3820 C   0  0  0  0  0  3  0  0  0  0  0  0
   10.6800    5.6170    1.9390 C   0  0  0  0  0  3  0  0  0  0  0  0
    9.4940    3.0390    5.1300 N   0  0  0  0  0  1  0  0  0  0  0  0
    9.8190    2.7430    3.9480 C   0  0  0  0  0  2  0  0  0  0  0  0
   10.9980    1.3260   -1.7300 S   0  0  0  0  0  0  0  0  0  0  0  0
   10.4650   -0.4030   -1.7800 C   0  0  0  0  0  2  0  0  0  0  0  0
   11.5650   -1.4340   -1.9110 C   0  0  0  0  0  0  0  0  0  0  0  0
   12.6370   -1.1420   -2.7820 C   0  0  0  0  0  3  0  0  0  0  0  0
   13.6740   -2.0510   -2.9850 C   0  0  0  0  0  3  0  0  0  0  0  0
   13.6670   -3.2680   -2.3170 C   0  0  0  0  0  3  0  0  0  0  0  0
   12.6290   -3.5680   -1.4360 C   0  0  0  0  0  3  0  0  0  0  0  0
   11.5750   -2.6590   -1.2040 C   0  0  0  0  0  0  0  0  0  0  0  0
   10.4970   -3.0620   -0.2140 C   0  0  0  0  0  0  0  0  0  0  0  0
    9.2690   -3.1680   -0.7850 F   0  0  0  0  0  0  0  0  0  0  0  0
   10.7390   -4.2730    0.3660 F   0  0  0  0  0  0  0  0  0  0  0  0
   10.3650   -2.1910    0.8250 F   0  0  0  0  0  0  0  0  0  0  0  0
  1 17  1  0  0  0  0
  2  9  1  0  0  0  0
  2  1  2  0  0  0  0
  3  2  1  0  0  0  0
  4  3  2  0  0  0  0
  4  5  1  0  0  0  0
  5  6  1  0  0  0  0
  6  1  1  0  0  0  0
  6  7  2  0  0  0  0
  8  5  1  0  0  0  0
  9 10  1  0  0  0  0
 10 11  2  0  0  0  0
 12 11  1  0  0  0  0
 12 13  1  0  0  0  0
 14 12  2  0  0  0  0
 15  9  2  0  0  0  0
 15 14  1  0  0  0  0
 17 16  1  0  0  0  0
 18  4  1  0  0  0  0
 19 18  1  0  0  0  0
 20 19  1  0  0  0  0
 20 25  1  0  0  0  0
 21 20  2  0  0  0  0
 22 21  1  0  0  0  0
 22 23  2  0  0  0  0
 23 24  1  0  0  0  0
 24 25  2  0  0  0  0
 25 26  1  0  0  0  0
 26 28  1  0  0  0  0
 26 29  1  0  0  0  0
 27 26  1  0  0  0  0
M  END
>  <minimizedAffinity>
-7.19951773

$$$$

 OpenBabel09122219253D

 29 31  0  0  0  0  0  0  0  0999 V2000
    8.5680   -3.7000    1.1420 C   0  0  0  0  0  0  0  0  0  0  0  0
    9.5750   -2.8460    1.4000 C   0  0  0  0  0  0  0  0  0  0  0  0
    9.7570   -2.2170    2.6130 N   0  0  0  0  0  0  0  0  0  0  0  0
    8.9460   -2.5210    3.5680 C   0  0  0  0  0  0  0  0  0  0  0  0
    7.9400   -3.4220    3.4480 N   0  0  0  0  0  0  0  0  0  0  0  0
    7.6420   -4.0040    2.2530 C   0  0  0  0  0  0  0  0  0  0  0  0
    6.6670   -4.7360    2.1290 O   0  0  0  0  0  0  0  0  0  0  0  0
    7.3560   -3.6500    4.2360 H   0  0  0  0  0  0  0  0  0  0  0  0
   10.6280   -2.5980    0.3910 C   0  0  0  0  0  0  0  0  0  0  0  0
   10.4940   -1.6020   -0.5870 C   0  0  0  0  0  3  0  0  0  0  0  0
   11.4990   -1.4110   -1.5390 C   0  0  0  0  0  3  0  0  0  0  0  0
   12.6430   -2.2060   -1.5110 C   0  0  0  0  0  0  0  0  0  0  0  0
   13.9990   -1.9470   -2.8020 Br  0  0  0  0  0  0  0  0  0  0  0  0
   12.7980   -3.1880   -0.5360 C   0  0  0  0  0  3  0  0  0  0  0  0
   11.7930   -3.3800    0.4150 C   0  0  0  0  0  3  0  0  0  0  0  0
    8.2320   -5.0830   -1.2470 N   0  0  0  0  0  1  0  0  0  0  0  0
    8.3840   -4.4560   -0.1630 C   0  0  0  0  0  2  0  0  0  0  0  0
    9.1240   -1.8130    5.1380 S   0  0  0  0  0  0  0  0  0  0  0  0
    7.9650   -2.7630    6.1530 C   0  0  0  0  0  2  0  0  0  0  0  0
    6.9380   -1.9580    6.9200 C   0  0  0  0  0  0  0  0  0  0  0  0
    7.3990   -0.8570    7.6750 C   0  0  0  0  0  3  0  0  0  0  0  0
    6.5240   -0.0830    8.4360 C   0  0  0  0  0  3  0  0  0  0  0  0
    5.1700   -0.3870    8.4530 C   0  0  0  0  0  3  0  0  0  0  0  0
    4.6900   -1.4560    7.6980 C   0  0  0  0  0  3  0  0  0  0  0  0
    5.5540   -2.2470    6.9100 C   0  0  0  0  0  0  0  0  0  0  0  0
    4.9420   -3.3790    6.1060 C   0  0  0  0  0  0  0  0  0  0  0  0
    3.6020   -3.4980    6.2960 F   0  0  0  0  0  0  0  0  0  0  0  0
    5.1100   -3.2220    4.7610 F   0  0  0  0  0  0  0  0  0  0  0  0
    5.4820   -4.5970    6.3910 F   0  0  0  0  0  0  0  0  0  0  0  0
  1  2  2  0  0  0  0
  1  6  1  0  0  0  0
  2  3  1  0  0  0  0
  3  4  2  0  0  0  0
  4 18  1  0  0  0  0
  5  4  1  0  0  0  0
  5  8  1  0  0  0  0
  6  5  1  0  0  0  0
  7  6  2  0  0  0  0
  9 15  1  0  0  0  0
  9  2  1  0  0  0  0
 10  9  2  0  0  0  0
 11 12  2  0  0  0  0
 11 10  1  0  0  0  0
 12 14  1  0  0  0  0
 13 12  1  0  0  0  0
 14 15  2  0  0  0  0
 16 17  1  0  0  0  0
 17  1  1  0  0  0  0
 18 19  1  0  0  0  0
 19 20  1  0  0  0  0
 20 21  1  0  0  0  0
 21 22  2  0  0  0  0
 22 23  1  0  0  0  0
 24 23  2  0  0  0  0
 25 20  2  0  0  0  0
 25 24  1  0  0  0  0
 26 27  1  0  0  0  0
 26 29  1  0  0  0  0
 26 25  1  0  0  0  0
 28 26  1  0  0  0  0
M  END
>  <minimizedAffinity>
-7.13495588

$$$$

 OpenBabel09122219253D

 29 31  0  0  0  0  0  0  0  0999 V2000
   10.7560   -0.1230    5.7460 C   0  0  0  0  0  0  0  0  0  0  0  0
   10.4720    1.0630    5.1780 C   0  0  0  0  0  0  0  0  0  0  0  0
    9.9360    1.2000    3.9140 N   0  0  0  0  0  0  0  0  0  0  0  0
    9.6330    0.1200    3.2770 C   0  0  0  0  0  0  0  0  0  0  0  0
    9.8040   -1.1280    3.7790 N   0  0  0  0  0  0  0  0  0  0  0  0
   10.4200   -1.3380    4.9750 C   0  0  0  0  0  0  0  0  0  0  0  0
   10.6650   -2.4710    5.3730 O   0  0  0  0  0  0  0  0  0  0  0  0
    9.5190   -1.9380    3.2530 H   0  0  0  0  0  0  0  0  0  0  0  0
   10.6420    2.3220    5.9350 C   0  0  0  0  0  0  0  0  0  0  0  0
   11.8630    3.0090    5.9620 C   0  0  0  0  0  3  0  0  0  0  0  0
   11.9940    4.1840    6.7080 C   0  0  0  0  0  3  0  0  0  0  0  0
   10.9040    4.6800    7.4200 C   0  0  0  0  0  0  0  0  0  0  0  0
   11.0830    6.2670    8.4310 Br  0  0  0  0  0  0  0  0  0  0  0  0
    9.6790    4.0170    7.3900 C   0  0  0  0  0  3  0  0  0  0  0  0
    9.5490    2.8420    6.6450 C   0  0  0  0  0  3  0  0  0  0  0  0
   11.7220   -0.4490    8.3330 N   0  0  0  0  0  1  0  0  0  0  0  0
   11.2840   -0.3010    7.1600 C   0  0  0  0  0  2  0  0  0  0  0  0
    8.9160    0.1950    1.7030 S   0  0  0  0  0  0  0  0  0  0  0  0
    9.6950   -1.1860    0.8290 C   0  0  0  0  0  2  0  0  0  0  0  0
   10.4320   -0.8350   -0.4460 C   0  0  0  0  0  0  0  0  0  0  0  0
   10.4400    0.5180   -0.8480 C   0  0  0  0  0  3  0  0  0  0  0  0
   11.0680    0.9210   -2.0240 C   0  0  0  0  0  3  0  0  0  0  0  0
   11.7080   -0.0180   -2.8220 C   0  0  0  0  0  3  0  0  0  0  0  0
   11.7300   -1.3570   -2.4340 C   0  0  0  0  0  3  0  0  0  0  0  0
   11.1130   -1.7870   -1.2400 C   0  0  0  0  0  0  0  0  0  0  0  0
   11.2030   -3.2610   -0.8860 C   0  0  0  0  0  0  0  0  0  0  0  0
    9.9880   -3.8670   -0.8350 F   0  0  0  0  0  0  0  0  0  0  0  0
   11.9330   -3.9770   -1.7900 F   0  0  0  0  0  0  0  0  0  0  0  0
   11.8010   -3.4920    0.3150 F   0  0  0  0  0  0  0  0  0  0  0  0
  1 17  1  0  0  0  0
  2  1  2  0  0  0  0
  2  9  1  0  0  0  0
  3  2  1  0  0  0  0
  4  5  1  0  0  0  0
  4  3  2  0  0  0  0
  5  6  1  0  0  0  0
  6  7  2  0  0  0  0
  6  1  1  0  0  0  0
  8  5  1  0  0  0  0
  9 10  2  0  0  0  0
  9 15  1  0  0  0  0
 10 11  1  0  0  0  0
 11 12  2  0  0  0  0
 12 13  1  0  0  0  0
 14 12  1  0  0  0  0
 15 14  2  0  0  0  0
 17 16  1  0  0  0  0
 18  4  1  0  0  0  0
 19 18  1  0  0  0  0
 20 19  1  0  0  0  0
 21 20  1  0  0  0  0
 22 21  2  0  0  0  0
 23 24  2  0  0  0  0
 23 22  1  0  0  0  0
 24 25  1  0  0  0  0
 25 26  1  0  0  0  0
 25 20  2  0  0  0  0
 26 27  1  0  0  0  0
 26 29  1  0  0  0  0
 28 26  1  0  0  0  0
M  END
>  <minimizedAffinity>
-7.04613972

$$$$
