
 OpenBabel09122222393D

 29 31  0  0  0  0  0  0  0  0999 V2000
    6.6560   -5.5650    0.1560 C   0  0  0  0  0  0  0  0  0  0  0  0
    6.7450   -5.1280    1.4250 C   0  0  0  0  0  0  0  0  0  0  0  0
    7.7700   -4.3330    1.8940 N   0  0  0  0  0  0  0  0  0  0  0  0
    8.6530   -3.9390    1.0420 C   0  0  0  0  0  0  0  0  0  0  0  0
    8.6260   -4.2530   -0.2770 N   0  0  0  0  0  0  0  0  0  0  0  0
    7.7010   -5.1140   -0.7870 C   0  0  0  0  0  0  0  0  0  0  0  0
    7.7470   -5.4750   -1.9570 O   0  0  0  0  0  0  0  0  0  0  0  0
    9.3220   -3.8900   -0.9080 H   0  0  0  0  0  0  0  0  0  0  0  0
    5.6660   -5.4130    2.3960 C   0  0  0  0  0  0  0  0  0  0  0  0
    5.2650   -6.7220    2.6930 C   0  0  0  0  0  3  0  0  0  0  0  0
    4.2260   -6.9530    3.5990 C   0  0  0  0  0  3  0  0  0  0  0  0
    3.5920   -5.8770    4.2180 C   0  0  0  0  0  0  0  0  0  0  0  0
    2.1850   -6.1910    5.4400 Br  0  0  0  0  0  0  0  0  0  0  0  0
    3.9900   -4.5710    3.9460 C   0  0  0  0  0  3  0  0  0  0  0  0
    5.0280   -4.3400    3.0390 C   0  0  0  0  0  3  0  0  0  0  0  0
    4.5480   -7.0660   -0.8610 N   0  0  0  0  0  1  0  0  0  0  0  0
    5.5040   -6.3850   -0.4000 C   0  0  0  0  0  2  0  0  0  0  0  0
    9.9520   -2.9040    1.5300 S   0  0  0  0  0  0  0  0  0  0  0  0
   10.0840   -1.7310    0.1590 C   0  0  0  0  0  2  0  0  0  0  0  0
   11.2120   -1.9770   -0.8210 C   0  0  0  0  0  0  0  0  0  0  0  0
   11.8550   -3.2330   -0.7790 C   0  0  0  0  0  3  0  0  0  0  0  0
   12.9230   -3.5290   -1.6230 C   0  0  0  0  0  3  0  0  0  0  0  0
   13.3680   -2.5800   -2.5330 C   0  0  0  0  0  3  0  0  0  0  0  0
   12.7350   -1.3400   -2.6060 C   0  0  0  0  0  3  0  0  0  0  0  0
   11.6430   -1.0210   -1.7710 C   0  0  0  0  0  0  0  0  0  0  0  0
   11.0030    0.3450   -1.9320 C   0  0  0  0  0  0  0  0  0  0  0  0
   11.0110    1.0710   -0.7830 F   0  0  0  0  0  0  0  0  0  0  0  0
   11.6360    1.1190   -2.8600 F   0  0  0  0  0  0  0  0  0  0  0  0
    9.7060    0.2890   -2.3440 F   0  0  0  0  0  0  0  0  0  0  0  0
  1  2  2  0  0  0  0
  2  3  1  0  0  0  0
  2  9  1  0  0  0  0
  4 18  1  0  0  0  0
  4  3  2  0  0  0  0
  5  4  1  0  0  0  0
  6  5  1  0  0  0  0
  6  1  1  0  0  0  0
  7  6  2  0  0  0  0
  8  5  1  0  0  0  0
  9 10  2  0  0  0  0
  9 15  1  0  0  0  0
 10 11  1  0  0  0  0
 11 12  2  0  0  0  0
 12 13  1  0  0  0  0
 14 12  1  0  0  0  0
 15 14  2  0  0  0  0
 16 17  1  0  0  0  0
 17  1  1  0  0  0  0
 19 18  1  0  0  0  0
 20 21  1  0  0  0  0
 20 19  1  0  0  0  0
 22 21  2  0  0  0  0
 23 22  1  0  0  0  0
 24 23  2  0  0  0  0
 24 25  1  0  0  0  0
 25 20  2  0  0  0  0
 26 25  1  0  0  0  0
 26 27  1  0  0  0  0
 28 26  1  0  0  0  0
 29 26  1  0  0  0  0
M  END
>  <minimizedAffinity>
-7.58074474

$$$$
