
 OpenBabel09122222393D

 29 31  0  0  0  0  0  0  0  0999 V2000
    8.8450   -3.7350    0.6460 C   0  0  0  0  0  0  0  0  0  0  0  0
    8.3480   -3.6610    1.8940 C   0  0  0  0  0  0  0  0  0  0  0  0
    7.3240   -4.4580    2.3610 N   0  0  0  0  0  0  0  0  0  0  0  0
    6.8680   -5.3670    1.5680 C   0  0  0  0  0  0  0  0  0  0  0  0
    7.3410   -5.5830    0.3150 N   0  0  0  0  0  0  0  0  0  0  0  0
    8.2790   -4.7700   -0.2440 C   0  0  0  0  0  0  0  0  0  0  0  0
    8.6250   -4.9090   -1.4120 O   0  0  0  0  0  0  0  0  0  0  0  0
    6.9730   -6.3300   -0.2520 H   0  0  0  0  0  0  0  0  0  0  0  0
    8.9530   -2.7530    2.8930 C   0  0  0  0  0  0  0  0  0  0  0  0
    9.5040   -3.2330    4.0890 C   0  0  0  0  0  3  0  0  0  0  0  0
   10.0470   -2.3440    5.0210 C   0  0  0  0  0  3  0  0  0  0  0  0
   10.0490   -0.9750    4.7550 C   0  0  0  0  0  0  0  0  0  0  0  0
   10.7810    0.2260    6.0180 Br  0  0  0  0  0  0  0  0  0  0  0  0
    9.5210   -0.4850    3.5640 C   0  0  0  0  0  3  0  0  0  0  0  0
    8.9770   -1.3740    2.6330 C   0  0  0  0  0  3  0  0  0  0  0  0
   10.9860   -2.2350   -0.3000 N   0  0  0  0  0  1  0  0  0  0  0  0
   10.0150   -2.9150    0.1290 C   0  0  0  0  0  2  0  0  0  0  0  0
    5.6120   -6.4410    2.0830 S   0  0  0  0  0  0  0  0  0  0  0  0
    4.2580   -5.3180    2.5090 C   0  0  0  0  0  2  0  0  0  0  0  0
    3.6550   -5.4960    3.8850 C   0  0  0  0  0  0  0  0  0  0  0  0
    3.5520   -6.8090    4.3920 C   0  0  0  0  0  3  0  0  0  0  0  0
    2.9800   -7.0640    5.6370 C   0  0  0  0  0  3  0  0  0  0  0  0
    2.5040   -6.0110    6.4060 C   0  0  0  0  0  3  0  0  0  0  0  0
    2.6130   -4.7040    5.9350 C   0  0  0  0  0  3  0  0  0  0  0  0
    3.2010   -4.4190    4.6830 C   0  0  0  0  0  0  0  0  0  0  0  0
    3.2950   -2.9650    4.2580 C   0  0  0  0  0  0  0  0  0  0  0  0
    4.1840   -2.7670    3.2500 F   0  0  0  0  0  0  0  0  0  0  0  0
    2.1070   -2.4710    3.8040 F   0  0  0  0  0  0  0  0  0  0  0  0
    3.6630   -2.1300    5.2680 F   0  0  0  0  0  0  0  0  0  0  0  0
  1  2  2  0  0  0  0
  2  3  1  0  0  0  0
  2  9  1  0  0  0  0
  4 18  1  0  0  0  0
  4  3  2  0  0  0  0
  5  4  1  0  0  0  0
  6  5  1  0  0  0  0
  6  1  1  0  0  0  0
  7  6  2  0  0  0  0
  8  5  1  0  0  0  0
  9 10  1  0  0  0  0
 10 11  2  0  0  0  0
 12 11  1  0  0  0  0
 12 13  1  0  0  0  0
 14 12  2  0  0  0  0
 15  9  2  0  0  0  0
 15 14  1  0  0  0  0
 16 17  1  0  0  0  0
 17  1  1  0  0  0  0
 18 19  1  0  0  0  0
 19 20  1  0  0  0  0
 20 21  2  0  0  0  0
 20 25  1  0  0  0  0
 21 22  1  0  0  0  0
 22 23  2  0  0  0  0
 24 23  1  0  0  0  0
 25 24  2  0  0  0  0
 26 25  1  0  0  0  0
 26 29  1  0  0  0  0
 27 26  1  0  0  0  0
 28 26  1  0  0  0  0
M  END
>  <minimizedAffinity>
-7.35818672

$$$$
