
 OpenBabel09122222393D

 29 31  0  0  0  0  0  0  0  0999 V2000
    6.4770   -5.2540    2.0720 C   0  0  0  0  0  0  0  0  0  0  0  0
    6.6720   -4.1610    2.8310 C   0  0  0  0  0  0  0  0  0  0  0  0
    7.7800   -3.3440    2.7310 N   0  0  0  0  0  0  0  0  0  0  0  0
    8.6390   -3.6190    1.8090 C   0  0  0  0  0  0  0  0  0  0  0  0
    8.5110   -4.6500    0.9380 N   0  0  0  0  0  0  0  0  0  0  0  0
    7.4960   -5.5530    1.0440 C   0  0  0  0  0  0  0  0  0  0  0  0
    7.4460   -6.5390    0.3190 O   0  0  0  0  0  0  0  0  0  0  0  0
    9.1940   -4.8000    0.2140 H   0  0  0  0  0  0  0  0  0  0  0  0
    5.6340   -3.7100    3.7820 C   0  0  0  0  0  0  0  0  0  0  0  0
    4.3420   -3.3700    3.3600 C   0  0  0  0  0  3  0  0  0  0  0  0
    3.3920   -2.9250    4.2840 C   0  0  0  0  0  3  0  0  0  0  0  0
    3.7290   -2.8280    5.6330 C   0  0  0  0  0  0  0  0  0  0  0  0
    2.4450   -2.2230    6.8810 Br  0  0  0  0  0  0  0  0  0  0  0  0
    5.0040   -3.1770    6.0710 C   0  0  0  0  0  3  0  0  0  0  0  0
    5.9530   -3.6210    5.1460 C   0  0  0  0  0  3  0  0  0  0  0  0
    4.2060   -6.8580    2.1550 N   0  0  0  0  0  1  0  0  0  0  0  0
    5.2360   -6.1310    2.1170 C   0  0  0  0  0  2  0  0  0  0  0  0
   10.0380   -2.6250    1.5820 S   0  0  0  0  0  0  0  0  0  0  0  0
    9.8340   -2.0050   -0.1060 C   0  0  0  0  0  2  0  0  0  0  0  0
   11.0260   -2.1720   -1.0240 C   0  0  0  0  0  0  0  0  0  0  0  0
   11.6990   -3.4130   -1.0060 C   0  0  0  0  0  3  0  0  0  0  0  0
   12.8240   -3.6400   -1.7960 C   0  0  0  0  0  3  0  0  0  0  0  0
   13.2980   -2.6340   -2.6280 C   0  0  0  0  0  3  0  0  0  0  0  0
   12.6370   -1.4080   -2.6770 C   0  0  0  0  0  3  0  0  0  0  0  0
   11.4880   -1.1590   -1.8970 C   0  0  0  0  0  0  0  0  0  0  0  0
   10.8220    0.1990   -2.0280 C   0  0  0  0  0  0  0  0  0  0  0  0
    9.6000    0.1320   -2.6190 F   0  0  0  0  0  0  0  0  0  0  0  0
   10.6140    0.8030   -0.8230 F   0  0  0  0  0  0  0  0  0  0  0  0
   11.5530    1.0910   -2.7510 F   0  0  0  0  0  0  0  0  0  0  0  0
  1 17  1  0  0  0  0
  1  2  2  0  0  0  0
  2  9  1  0  0  0  0
  3  2  1  0  0  0  0
  4  3  2  0  0  0  0
  5  6  1  0  0  0  0
  5  4  1  0  0  0  0
  6  1  1  0  0  0  0
  7  6  2  0  0  0  0
  8  5  1  0  0  0  0
  9 15  1  0  0  0  0
 10  9  2  0  0  0  0
 10 11  1  0  0  0  0
 11 12  2  0  0  0  0
 12 14  1  0  0  0  0
 12 13  1  0  0  0  0
 15 14  2  0  0  0  0
 17 16  1  0  0  0  0
 18  4  1  0  0  0  0
 19 18  1  0  0  0  0
 20 21  1  0  0  0  0
 20 19  1  0  0  0  0
 22 21  2  0  0  0  0
 23 22  1  0  0  0  0
 24 23  2  0  0  0  0
 24 25  1  0  0  0  0
 25 20  2  0  0  0  0
 26 25  1  0  0  0  0
 26 28  1  0  0  0  0
 27 26  1  0  0  0  0
 29 26  1  0  0  0  0
M  END
>  <minimizedAffinity>
-7.81289053

$$$$
