REMARK  Name = 
REMARK  5 active torsions:
REMARK  status: ('A' for Active; 'I' for Inactive)
REMARK    1  A    between atoms: C_2  and  CA_4
REMARK    2  A    between atoms: CA_4  and  N_18
REMARK    3  A    between atoms: C_5  and  C_6
REMARK    4  A    between atoms: C_9  and  C_10
REMARK    5  A    between atoms: C_19  and  C_21
REMARK                            x       y       z     vdW  Elec       q    Type
REMARK                         _______ _______ _______ _____ _____    ______ ____
ROOT
ATOM      1  CA  UNL     1       3.339   1.301  -0.407  0.00  0.00    +0.060 C 
ATOM      2  C   UNL     1       2.857   2.208  -1.281  0.00  0.00    +0.071 C 
ENDROOT
BRANCH   2   3
ATOM      3  C   UNL     1       3.523   2.672  -2.449  0.00  0.00    +0.130 A 
ATOM      4  C   UNL     1       4.312   2.002  -3.376  0.00  0.00    +0.050 A 
ATOM      5  C   UNL     1       4.712   2.931  -4.367  0.00  0.00    +0.050 A 
ATOM      6  C   UNL     1       4.141   4.137  -4.025  0.00  0.00    +0.138 A 
ATOM      7  O   UNL     1       3.411   3.975  -2.883  0.00  0.00    -0.455 OA
BRANCH   6   8
ATOM      8  C   UNL     1       4.145   5.481  -4.597  0.00  0.00    +0.052 A 
ATOM      9  C   UNL     1       3.513   6.549  -3.936  0.00  0.00    +0.014 A 
ATOM     10  C   UNL     1       3.518   7.840  -4.476  0.00  0.00    +0.001 A 
ATOM     11  C   UNL     1       4.156   8.089  -5.688  0.00  0.00    +0.003 A 
ATOM     12  C   UNL     1       4.788   7.045  -6.359  0.00  0.00    +0.039 A 
ATOM     13  C   UNL     1       4.780   5.759  -5.815  0.00  0.00    +0.134 A 
ATOM     14  F   UNL     1       5.404   4.791  -6.505  0.00  0.00    -0.205 F 
ENDBRANCH   6   8
ENDBRANCH   2   3
BRANCH   1  15
ATOM     15  N   UNL     1       4.631   0.793  -0.478  0.00  0.00    -0.280 N 
ATOM     16  C   UNL     1       5.257  -0.196   0.246  0.00  0.00    +0.248 C 
ATOM     17  O   UNL     1       6.487  -0.292   0.198  0.00  0.00    -0.270 OA
ATOM     18  H   UNL     1       5.279   1.295  -1.068  0.00  0.00    +0.155 HD
BRANCH  16  19
ATOM     19  C   UNL     1       4.508  -1.229   0.994  0.00  0.00    +0.037 A 
ATOM     20  C   UNL     1       4.978  -1.611   2.257  0.00  0.00    +0.013 A 
ATOM     21  C   UNL     1       4.342  -2.636   2.959  0.00  0.00    +0.001 A 
ATOM     22  C   UNL     1       3.247  -3.291   2.395  0.00  0.00    +0.000 A 
ATOM     23  C   UNL     1       2.792  -2.928   1.127  0.00  0.00    +0.001 A 
ATOM     24  C   UNL     1       3.429  -1.908   0.419  0.00  0.00    +0.013 A 
ENDBRANCH  16  19
ENDBRANCH   1  15
BRANCH   1  26
ATOM     25  O   UNL     1       1.207   0.570   0.387  0.00  0.00    -0.543 OA
ATOM     26  C   UNL     1       2.334   1.016   0.754  0.00  0.00    +0.086 C 
ATOM     27  OXT UNL     1       2.762   1.299   1.909  0.00  0.00    -0.543 OA
ENDBRANCH   1  26
TORSDOF 5
