
 OpenBabel09132204463D

 27 29  0  0  0  0  0  0  0  0999 V2000
    6.7080   -5.2720    2.1460 C   0  0  0  0  0  0  0  0  0  0  0  0
    7.2530   -5.1230    0.9220 C   0  0  0  0  0  2  0  0  0  0  0  0
    8.3230   -4.2480    0.5890 C   0  0  0  0  0  0  0  0  0  0  0  0
    9.4820   -4.4620   -0.1470 C   0  0  0  0  0  3  0  0  0  0  0  0
   10.2030   -3.2440   -0.1970 C   0  0  0  0  0  3  0  0  0  0  0  0
    9.4540   -2.3180    0.4950 C   0  0  0  0  0  0  0  0  0  0  0  0
    8.3160   -2.9180    0.9500 O   0  0  0  0  0  0  0  0  0  0  0  0
    9.6080   -0.9030    0.8230 C   0  0  0  0  0  0  0  0  0  0  0  0
    9.3290   -0.4280    2.1170 C   0  0  0  0  0  3  0  0  0  0  0  0
    9.4790    0.9260    2.4390 C   0  0  0  0  0  3  0  0  0  0  0  0
    9.9120    1.8310    1.4750 C   0  0  0  0  0  3  0  0  0  0  0  0
   10.1940    1.3810    0.1870 C   0  0  0  0  0  3  0  0  0  0  0  0
   10.0420    0.0290   -0.1290 C   0  0  0  0  0  0  0  0  0  0  0  0
   10.3270   -0.3490   -1.3850 F   0  0  0  0  0  0  0  0  0  0  0  0
    7.0530   -4.4740    3.2310 N   0  0  0  0  0  4  0  0  0  0  0  0
    6.2750   -3.7780    4.1280 C   0  0  0  0  0  0  0  0  0  0  0  0
    6.7990   -2.9180    4.8410 O   0  0  0  0  0  0  0  0  0  0  0  0
    8.0330   -4.2510    3.3310 H   0  0  0  0  0  0  0  0  0  0  0  0
    4.8490   -4.0970    4.3580 C   0  0  0  0  0  0  0  0  0  0  0  0
    3.8780   -3.3120    3.7230 C   0  0  0  0  0  3  0  0  0  0  0  0
    2.5240   -3.5340    3.9770 C   0  0  0  0  0  3  0  0  0  0  0  0
    2.1380   -4.5290    4.8750 C   0  0  0  0  0  3  0  0  0  0  0  0
    3.1040   -5.2960    5.5270 C   0  0  0  0  0  3  0  0  0  0  0  0
    4.4590   -5.0730    5.2810 C   0  0  0  0  0  3  0  0  0  0  0  0
    5.7480   -7.3190    2.9200 O   0  0  0  0  0  1  0  0  0  0  0  0
    5.5600   -6.3310    2.1510 C   0  0  0  0  0  0  0  0  0  0  0  0
    4.6050   -6.0830    1.3610 O   0  0  0  0  0  0  0  0  0  0  0  0
  1 26  1  0  0  0  0
  1 15  2  0  0  0  0
  2  1  1  0  0  0  0
  3  2  1  0  0  0  0
  3  7  1  0  0  0  0
  4  3  2  0  0  0  0
  5  4  1  0  0  0  0
  5  6  2  0  0  0  0
  6  8  1  0  0  0  0
  6  7  1  0  0  0  0
  8  9  1  0  0  0  0
  9 10  2  0  0  0  0
 11 10  1  0  0  0  0
 12 11  2  0  0  0  0
 13 12  1  0  0  0  0
 13  8  2  0  0  0  0
 14 13  1  0  0  0  0
 15 18  1  0  0  0  0
 15 16  1  0  0  0  0
 16 19  1  0  0  0  0
 16 17  2  0  0  0  0
 19 24  1  0  0  0  0
 20 21  1  0  0  0  0
 20 19  2  0  0  0  0
 21 22  2  0  0  0  0
 22 23  1  0  0  0  0
 24 23  2  0  0  0  0
 26 25  1  0  0  0  0
 27 26  2  0  0  0  0
M  END
>  <minimizedAffinity>
-5.12851572

$$$$
