
 OpenBabel09132200313D

 27 29  0  0  0  0  0  0  0  0999 V2000
    3.6620   -6.1180    4.1580 C   0  0  0  0  0  0  0  0  0  0  0  0
    4.5630   -6.8880    3.5130 C   0  0  0  0  0  2  0  0  0  0  0  0
    5.2810   -6.5210    2.3410 C   0  0  0  0  0  0  0  0  0  0  0  0
    5.1120   -6.8960    1.0130 C   0  0  0  0  0  3  0  0  0  0  0  0
    6.0860   -6.2200    0.2380 C   0  0  0  0  0  3  0  0  0  0  0  0
    6.8090   -5.4400    1.1130 C   0  0  0  0  0  0  0  0  0  0  0  0
    6.3110   -5.6070    2.3730 O   0  0  0  0  0  0  0  0  0  0  0  0
    7.9330   -4.5150    0.9860 C   0  0  0  0  0  0  0  0  0  0  0  0
    8.3520   -3.7340    2.0780 C   0  0  0  0  0  3  0  0  0  0  0  0
    9.4310   -2.8510    1.9640 C   0  0  0  0  0  3  0  0  0  0  0  0
   10.1140   -2.7310    0.7570 C   0  0  0  0  0  3  0  0  0  0  0  0
    9.7140   -3.4960   -0.3370 C   0  0  0  0  0  3  0  0  0  0  0  0
    8.6370   -4.3760   -0.2170 C   0  0  0  0  0  0  0  0  0  0  0  0
    8.2950   -5.0870   -1.3030 F   0  0  0  0  0  0  0  0  0  0  0  0
    3.2250   -4.8930    3.6690 N   0  0  0  0  0  4  0  0  0  0  0  0
    3.3750   -3.6150    4.1590 C   0  0  0  0  0  0  0  0  0  0  0  0
    2.6700   -2.7090    3.7060 O   0  0  0  0  0  0  0  0  0  0  0  0
    2.5840   -4.9230    2.8880 H   0  0  0  0  0  0  0  0  0  0  0  0
    4.4300   -3.2560    5.1310 C   0  0  0  0  0  0  0  0  0  0  0  0
    4.1170   -2.3470    6.1500 C   0  0  0  0  0  3  0  0  0  0  0  0
    5.1070   -1.9250    7.0390 C   0  0  0  0  0  3  0  0  0  0  0  0
    6.4130   -2.3980    6.9020 C   0  0  0  0  0  3  0  0  0  0  0  0
    6.7310   -3.2850    5.8730 C   0  0  0  0  0  3  0  0  0  0  0  0
    5.7460   -3.7040    4.9790 C   0  0  0  0  0  3  0  0  0  0  0  0
    1.8630   -7.1790    5.3180 O   0  0  0  0  0  0  0  0  0  0  0  0
    3.0770   -6.8330    5.4170 C   0  0  0  0  0  0  0  0  0  0  0  0
    3.8810   -6.9450    6.3860 O   0  0  0  0  0  1  0  0  0  0  0  0
  1 26  1  0  0  0  0
  2  1  1  0  0  0  0
  3  7  1  0  0  0  0
  3  2  1  0  0  0  0
  4  3  2  0  0  0  0
  5  4  1  0  0  0  0
  5  6  2  0  0  0  0
  6  7  1  0  0  0  0
  8  6  1  0  0  0  0
  8  9  1  0  0  0  0
 10  9  2  0  0  0  0
 11 10  1  0  0  0  0
 12 13  1  0  0  0  0
 12 11  2  0  0  0  0
 13  8  2  0  0  0  0
 14 13  1  0  0  0  0
 15  1  2  0  0  0  0
 15 16  1  0  0  0  0
 16 19  1  0  0  0  0
 17 16  2  0  0  0  0
 18 15  1  0  0  0  0
 19 20  1  0  0  0  0
 20 21  2  0  0  0  0
 22 21  1  0  0  0  0
 23 22  2  0  0  0  0
 24 19  2  0  0  0  0
 24 23  1  0  0  0  0
 25 26  2  0  0  0  0
 26 27  1  0  0  0  0
M  END
>  <minimizedAffinity>
-7.34627867

$$$$

 OpenBabel09132200313D

 27 29  0  0  0  0  0  0  0  0999 V2000
    3.9160   -5.9690    4.8370 C   0  0  0  0  0  0  0  0  0  0  0  0
    3.8600   -6.5270    3.6110 C   0  0  0  0  0  2  0  0  0  0  0  0
    4.8800   -6.4640    2.6220 C   0  0  0  0  0  0  0  0  0  0  0  0
    5.1500   -7.2890    1.5370 C   0  0  0  0  0  3  0  0  0  0  0  0
    6.2730   -6.7620    0.8530 C   0  0  0  0  0  3  0  0  0  0  0  0
    6.6440   -5.6220    1.5310 C   0  0  0  0  0  0  0  0  0  0  0  0
    5.7940   -5.4340    2.5820 O   0  0  0  0  0  0  0  0  0  0  0  0
    7.6950   -4.6200    1.3700 C   0  0  0  0  0  0  0  0  0  0  0  0
    8.0270   -3.7470    2.4210 C   0  0  0  0  0  3  0  0  0  0  0  0
    9.0360   -2.7890    2.2750 C   0  0  0  0  0  3  0  0  0  0  0  0
    9.7350   -2.6860    1.0750 C   0  0  0  0  0  3  0  0  0  0  0  0
    9.4220   -3.5410    0.0220 C   0  0  0  0  0  3  0  0  0  0  0  0
    8.4140   -4.4960    0.1730 C   0  0  0  0  0  0  0  0  0  0  0  0
    8.1530   -5.2930   -0.8750 F   0  0  0  0  0  0  0  0  0  0  0  0
    4.9520   -5.1370    5.2450 N   0  0  0  0  0  4  0  0  0  0  0  0
    5.0390   -3.7650    5.3150 C   0  0  0  0  0  0  0  0  0  0  0  0
    6.1480   -3.2370    5.4450 O   0  0  0  0  0  0  0  0  0  0  0  0
    5.8450   -5.5800    5.4080 H   0  0  0  0  0  0  0  0  0  0  0  0
    3.8450   -2.8940    5.3580 C   0  0  0  0  0  0  0  0  0  0  0  0
    3.5290   -2.2530    6.5630 C   0  0  0  0  0  3  0  0  0  0  0  0
    2.3690   -1.4850    6.6630 C   0  0  0  0  0  3  0  0  0  0  0  0
    1.5140   -1.3680    5.5660 C   0  0  0  0  0  3  0  0  0  0  0  0
    1.8150   -2.0250    4.3720 C   0  0  0  0  0  3  0  0  0  0  0  0
    2.9710   -2.7990    4.2700 C   0  0  0  0  0  3  0  0  0  0  0  0
    1.5430   -5.8940    5.1090 O   0  0  0  0  0  0  0  0  0  0  0  0
    2.6220   -6.2490    5.6670 C   0  0  0  0  0  0  0  0  0  0  0  0
    2.8210   -6.7630    6.8040 O   0  0  0  0  0  1  0  0  0  0  0  0
  1 15  2  0  0  0  0
  1 26  1  0  0  0  0
  2  1  1  0  0  0  0
  3  2  1  0  0  0  0
  4  3  2  0  0  0  0
  5  6  2  0  0  0  0
  5  4  1  0  0  0  0
  6  7  1  0  0  0  0
  7  3  1  0  0  0  0
  8  6  1  0  0  0  0
  8  9  1  0  0  0  0
 10  9  2  0  0  0  0
 11 10  1  0  0  0  0
 12 13  1  0  0  0  0
 12 11  2  0  0  0  0
 13  8  2  0  0  0  0
 14 13  1  0  0  0  0
 15 16  1  0  0  0  0
 15 18  1  0  0  0  0
 16 19  1  0  0  0  0
 16 17  2  0  0  0  0
 19 20  1  0  0  0  0
 20 21  2  0  0  0  0
 22 21  1  0  0  0  0
 23 22  2  0  0  0  0
 24 23  1  0  0  0  0
 24 19  2  0  0  0  0
 25 26  2  0  0  0  0
 26 27  1  0  0  0  0
M  END
>  <minimizedAffinity>
-7.10306835

$$$$

 OpenBabel09132200313D

 27 29  0  0  0  0  0  0  0  0999 V2000
    7.8620   -4.7120    1.1200 C   0  0  0  0  0  0  0  0  0  0  0  0
    6.6480   -5.2840    0.9920 C   0  0  0  0  0  2  0  0  0  0  0  0
    5.6760   -5.4110    2.0230 C   0  0  0  0  0  0  0  0  0  0  0  0
    4.9760   -6.5180    2.4860 C   0  0  0  0  0  3  0  0  0  0  0  0
    4.1430   -6.0980    3.5510 C   0  0  0  0  0  3  0  0  0  0  0  0
    4.3720   -4.7500    3.7190 C   0  0  0  0  0  0  0  0  0  0  0  0
    5.3070   -4.3430    2.8120 O   0  0  0  0  0  0  0  0  0  0  0  0
    3.8580   -3.7190    4.6160 C   0  0  0  0  0  0  0  0  0  0  0  0
    2.5780   -3.1690    4.4260 C   0  0  0  0  0  3  0  0  0  0  0  0
    2.0770   -2.1840    5.2850 C   0  0  0  0  0  3  0  0  0  0  0  0
    2.8470   -1.7300    6.3530 C   0  0  0  0  0  3  0  0  0  0  0  0
    4.1170   -2.2620    6.5590 C   0  0  0  0  0  3  0  0  0  0  0  0
    4.6110   -3.2450    5.6980 C   0  0  0  0  0  0  0  0  0  0  0  0
    5.8420   -3.7210    5.9440 F   0  0  0  0  0  0  0  0  0  0  0  0
    8.3700   -4.2790    2.3400 N   0  0  0  0  0  4  0  0  0  0  0  0
    9.1700   -3.2050    2.6580 C   0  0  0  0  0  0  0  0  0  0  0  0
    9.7220   -3.1700    3.7620 O   0  0  0  0  0  0  0  0  0  0  0  0
    8.2490   -4.9030    3.1240 H   0  0  0  0  0  0  0  0  0  0  0  0
    9.3080   -2.0260    1.7750 C   0  0  0  0  0  0  0  0  0  0  0  0
   10.0710   -2.1520    0.6070 C   0  0  0  0  0  3  0  0  0  0  0  0
   10.2860   -1.0420   -0.2100 C   0  0  0  0  0  3  0  0  0  0  0  0
    9.7530    0.1980    0.1440 C   0  0  0  0  0  3  0  0  0  0  0  0
    9.0130    0.3300    1.3190 C   0  0  0  0  0  3  0  0  0  0  0  0
    8.8010   -0.7760    2.1430 C   0  0  0  0  0  3  0  0  0  0  0  0
    7.9670   -4.5610   -1.2620 O   0  0  0  0  0  0  0  0  0  0  0  0
    8.6640   -4.7350   -0.2190 C   0  0  0  0  0  0  0  0  0  0  0  0
    9.9020   -4.9590   -0.0940 O   0  0  0  0  0  1  0  0  0  0  0  0
  1 15  2  0  0  0  0
  2  1  1  0  0  0  0
  2  3  1  0  0  0  0
  3  4  2  0  0  0  0
  3  7  1  0  0  0  0
  4  5  1  0  0  0  0
  5  6  2  0  0  0  0
  6  8  1  0  0  0  0
  7  6  1  0  0  0  0
  8 13  1  0  0  0  0
  9  8  2  0  0  0  0
  9 10  1  0  0  0  0
 10 11  2  0  0  0  0
 11 12  1  0  0  0  0
 13 14  1  0  0  0  0
 13 12  2  0  0  0  0
 15 16  1  0  0  0  0
 15 18  1  0  0  0  0
 16 17  2  0  0  0  0
 19 24  1  0  0  0  0
 19 16  1  0  0  0  0
 20 19  2  0  0  0  0
 21 22  2  0  0  0  0
 21 20  1  0  0  0  0
 22 23  1  0  0  0  0
 23 24  2  0  0  0  0
 25 26  2  0  0  0  0
 26 27  1  0  0  0  0
 26  1  1  0  0  0  0
M  END
>  <minimizedAffinity>
-7.00766134

$$$$

 OpenBabel09132200313D

 27 29  0  0  0  0  0  0  0  0999 V2000
    9.6520   -0.7030    3.0050 C   0  0  0  0  0  0  0  0  0  0  0  0
    9.3000   -0.9430    1.7250 C   0  0  0  0  0  2  0  0  0  0  0  0
    9.3750   -2.2000    1.0650 C   0  0  0  0  0  0  0  0  0  0  0  0
   10.3960   -2.7820    0.3230 C   0  0  0  0  0  3  0  0  0  0  0  0
    9.9620   -4.0630   -0.0950 C   0  0  0  0  0  3  0  0  0  0  0  0
    8.6950   -4.2330    0.4190 C   0  0  0  0  0  0  0  0  0  0  0  0
    8.3520   -3.1210    1.1320 O   0  0  0  0  0  0  0  0  0  0  0  0
    7.6950   -5.2970    0.3710 C   0  0  0  0  0  0  0  0  0  0  0  0
    7.4810   -6.1360    1.4780 C   0  0  0  0  0  3  0  0  0  0  0  0
    6.5200   -7.1540    1.4410 C   0  0  0  0  0  3  0  0  0  0  0  0
    5.7550   -7.3510    0.2950 C   0  0  0  0  0  3  0  0  0  0  0  0
    5.9510   -6.5300   -0.8130 C   0  0  0  0  0  3  0  0  0  0  0  0
    6.9110   -5.5170   -0.7690 C   0  0  0  0  0  0  0  0  0  0  0  0
    7.0580   -4.7560   -1.8660 F   0  0  0  0  0  0  0  0  0  0  0  0
   10.2650   -1.6540    3.8130 N   0  0  0  0  0  4  0  0  0  0  0  0
    9.7940   -2.3630    4.8940 C   0  0  0  0  0  0  0  0  0  0  0  0
   10.5970   -2.9500    5.6260 O   0  0  0  0  0  0  0  0  0  0  0  0
   11.2590   -1.7790    3.6850 H   0  0  0  0  0  0  0  0  0  0  0  0
    8.3500   -2.5500    5.1550 C   0  0  0  0  0  0  0  0  0  0  0  0
    7.8180   -2.0520    6.3510 C   0  0  0  0  0  3  0  0  0  0  0  0
    6.4770   -2.2760    6.6670 C   0  0  0  0  0  3  0  0  0  0  0  0
    5.6710   -3.0100    5.7970 C   0  0  0  0  0  3  0  0  0  0  0  0
    6.2050   -3.5270    4.6160 C   0  0  0  0  0  3  0  0  0  0  0  0
    7.5470   -3.3110    4.3000 C   0  0  0  0  0  3  0  0  0  0  0  0
    8.8890    1.5060    2.5080 O   0  0  0  0  0  0  0  0  0  0  0  0
    9.4260    0.7900    3.4040 C   0  0  0  0  0  0  0  0  0  0  0  0
    9.8390    1.1010    4.5570 O   0  0  0  0  0  1  0  0  0  0  0  0
  1 26  1  0  0  0  0
  1 15  2  0  0  0  0
  2  1  1  0  0  0  0
  3  7  1  0  0  0  0
  3  2  1  0  0  0  0
  4  3  2  0  0  0  0
  5  4  1  0  0  0  0
  5  6  2  0  0  0  0
  6  7  1  0  0  0  0
  8  6  1  0  0  0  0
  8  9  1  0  0  0  0
 10  9  2  0  0  0  0
 11 10  1  0  0  0  0
 12 13  1  0  0  0  0
 12 11  2  0  0  0  0
 13  8  2  0  0  0  0
 14 13  1  0  0  0  0
 15 16  1  0  0  0  0
 16 19  1  0  0  0  0
 16 17  2  0  0  0  0
 18 15  1  0  0  0  0
 19 20  1  0  0  0  0
 20 21  2  0  0  0  0
 22 21  1  0  0  0  0
 23 22  2  0  0  0  0
 24 23  1  0  0  0  0
 24 19  2  0  0  0  0
 25 26  2  0  0  0  0
 26 27  1  0  0  0  0
M  END
>  <minimizedAffinity>
-6.71471071

$$$$

 OpenBabel09132200313D

 27 29  0  0  0  0  0  0  0  0999 V2000
    3.9730   -5.8580    4.8090 C   0  0  0  0  0  0  0  0  0  0  0  0
    3.9680   -6.4580    3.6010 C   0  0  0  0  0  2  0  0  0  0  0  0
    5.0310   -6.4330    2.6570 C   0  0  0  0  0  0  0  0  0  0  0  0
    5.4000   -7.3440    1.6750 C   0  0  0  0  0  3  0  0  0  0  0  0
    6.5250   -6.8230    0.9910 C   0  0  0  0  0  3  0  0  0  0  0  0
    6.7990   -5.6010    1.5650 C   0  0  0  0  0  0  0  0  0  0  0  0
    5.8890   -5.3600    2.5530 O   0  0  0  0  0  0  0  0  0  0  0  0
    7.8010   -4.5600    1.3490 C   0  0  0  0  0  0  0  0  0  0  0  0
    8.5480   -4.5130    0.1590 C   0  0  0  0  0  3  0  0  0  0  0  0
    9.5050   -3.5150   -0.0570 C   0  0  0  0  0  3  0  0  0  0  0  0
    9.7340   -2.5440    0.9140 C   0  0  0  0  0  3  0  0  0  0  0  0
    9.0050   -2.5730    2.1000 C   0  0  0  0  0  3  0  0  0  0  0  0
    8.0510   -3.5710    2.3090 C   0  0  0  0  0  0  0  0  0  0  0  0
    7.3780   -3.5510    3.4710 F   0  0  0  0  0  0  0  0  0  0  0  0
    4.9960   -5.0180    5.2340 N   0  0  0  0  0  4  0  0  0  0  0  0
    5.0250   -3.6570    5.4360 C   0  0  0  0  0  0  0  0  0  0  0  0
    6.1150   -3.0870    5.5500 O   0  0  0  0  0  0  0  0  0  0  0  0
    5.9170   -5.4270    5.2960 H   0  0  0  0  0  0  0  0  0  0  0  0
    3.7980   -2.8560    5.6400 C   0  0  0  0  0  0  0  0  0  0  0  0
    2.8650   -2.7880    4.5970 C   0  0  0  0  0  3  0  0  0  0  0  0
    1.7330   -1.9810    4.7240 C   0  0  0  0  0  3  0  0  0  0  0  0
    1.5390   -1.2310    5.8840 C   0  0  0  0  0  3  0  0  0  0  0  0
    2.4790   -1.2800    6.9130 C   0  0  0  0  0  3  0  0  0  0  0  0
    3.6150   -2.0800    6.7880 C   0  0  0  0  0  3  0  0  0  0  0  0
    2.6620   -5.7440    6.8040 O   0  0  0  0  0  1  0  0  0  0  0  0
    2.6430   -6.1040    5.5900 C   0  0  0  0  0  0  0  0  0  0  0  0
    1.7280   -6.6620    4.9190 O   0  0  0  0  0  0  0  0  0  0  0  0
  1 15  2  0  0  0  0
  1 26  1  0  0  0  0
  2  1  1  0  0  0  0
  3  2  1  0  0  0  0
  4  3  2  0  0  0  0
  5  6  2  0  0  0  0
  5  4  1  0  0  0  0
  6  7  1  0  0  0  0
  7  3  1  0  0  0  0
  8  6  1  0  0  0  0
  8 13  1  0  0  0  0
  9  8  2  0  0  0  0
 10  9  1  0  0  0  0
 10 11  2  0  0  0  0
 11 12  1  0  0  0  0
 12 13  2  0  0  0  0
 13 14  1  0  0  0  0
 15 18  1  0  0  0  0
 15 16  1  0  0  0  0
 16 17  2  0  0  0  0
 16 19  1  0  0  0  0
 19 24  1  0  0  0  0
 20 21  1  0  0  0  0
 20 19  2  0  0  0  0
 21 22  2  0  0  0  0
 22 23  1  0  0  0  0
 24 23  2  0  0  0  0
 26 25  1  0  0  0  0
 27 26  2  0  0  0  0
M  END
>  <minimizedAffinity>
-6.36739779

$$$$

 OpenBabel09132200313D

 27 29  0  0  0  0  0  0  0  0999 V2000
    5.4530   -5.5850    2.4170 C   0  0  0  0  0  0  0  0  0  0  0  0
    6.6150   -5.8570    1.7890 C   0  0  0  0  0  2  0  0  0  0  0  0
    7.5930   -4.9000    1.3990 C   0  0  0  0  0  0  0  0  0  0  0  0
    8.4420   -4.8590    0.3000 C   0  0  0  0  0  3  0  0  0  0  0  0
    9.2030   -3.6680    0.3760 C   0  0  0  0  0  3  0  0  0  0  0  0
    8.7840   -3.0080    1.5100 C   0  0  0  0  0  0  0  0  0  0  0  0
    7.8030   -3.7400    2.1130 O   0  0  0  0  0  0  0  0  0  0  0  0
    9.1430   -1.7540    2.1670 C   0  0  0  0  0  0  0  0  0  0  0  0
    9.0900   -0.5330    1.4720 C   0  0  0  0  0  3  0  0  0  0  0  0
    9.4270    0.6730    2.0980 C   0  0  0  0  0  3  0  0  0  0  0  0
    9.8240    0.6810    3.4320 C   0  0  0  0  0  3  0  0  0  0  0  0
    9.8840   -0.5180    4.1390 C   0  0  0  0  0  3  0  0  0  0  0  0
    9.5450   -1.7170    3.5090 C   0  0  0  0  0  0  0  0  0  0  0  0
    9.6220   -2.8420    4.2380 F   0  0  0  0  0  0  0  0  0  0  0  0
    5.0020   -4.2910    2.6490 N   0  0  0  0  0  4  0  0  0  0  0  0
    4.0680   -3.8020    3.5330 C   0  0  0  0  0  0  0  0  0  0  0  0
    3.6300   -2.6580    3.3760 O   0  0  0  0  0  0  0  0  0  0  0  0
    5.3050   -3.5860    1.9920 H   0  0  0  0  0  0  0  0  0  0  0  0
    3.6460   -4.5480    4.7380 C   0  0  0  0  0  0  0  0  0  0  0  0
    2.3720   -5.1290    4.7520 C   0  0  0  0  0  3  0  0  0  0  0  0
    1.9110   -5.7750    5.9000 C   0  0  0  0  0  3  0  0  0  0  0  0
    2.7130   -5.8280    7.0390 C   0  0  0  0  0  3  0  0  0  0  0  0
    3.9740   -5.2290    7.0360 C   0  0  0  0  0  3  0  0  0  0  0  0
    4.4360   -4.5770    5.8920 C   0  0  0  0  0  3  0  0  0  0  0  0
    3.8970   -7.2710    1.7490 O   0  0  0  0  0  0  0  0  0  0  0  0
    4.6280   -6.8790    2.7060 C   0  0  0  0  0  0  0  0  0  0  0  0
    4.7700   -7.3510    3.8700 O   0  0  0  0  0  1  0  0  0  0  0  0
  1 15  2  0  0  0  0
  1 26  1  0  0  0  0
  2  1  1  0  0  0  0
  3  2  1  0  0  0  0
  3  7  1  0  0  0  0
  4  5  1  0  0  0  0
  4  3  2  0  0  0  0
  5  6  2  0  0  0  0
  6  7  1  0  0  0  0
  6  8  1  0  0  0  0
  8 13  1  0  0  0  0
  9 10  1  0  0  0  0
  9  8  2  0  0  0  0
 10 11  2  0  0  0  0
 11 12  1  0  0  0  0
 13 12  2  0  0  0  0
 13 14  1  0  0  0  0
 15 16  1  0  0  0  0
 16 19  1  0  0  0  0
 17 16  2  0  0  0  0
 18 15  1  0  0  0  0
 19 20  2  0  0  0  0
 19 24  1  0  0  0  0
 20 21  1  0  0  0  0
 21 22  2  0  0  0  0
 23 22  1  0  0  0  0
 24 23  2  0  0  0  0
 25 26  2  0  0  0  0
 26 27  1  0  0  0  0
M  END
>  <minimizedAffinity>
-6.08072519

$$$$

 OpenBabel09132200313D

 27 29  0  0  0  0  0  0  0  0999 V2000
    5.8260   -4.5710    2.7210 C   0  0  0  0  0  0  0  0  0  0  0  0
    7.1500   -4.4760    2.4770 C   0  0  0  0  0  2  0  0  0  0  0  0
    7.9590   -3.3310    2.7180 C   0  0  0  0  0  0  0  0  0  0  0  0
    8.5640   -2.8690    3.8800 C   0  0  0  0  0  3  0  0  0  0  0  0
    9.2810   -1.6890    3.5650 C   0  0  0  0  0  3  0  0  0  0  0  0
    9.1060   -1.4750    2.2160 C   0  0  0  0  0  0  0  0  0  0  0  0
    8.3270   -2.4730    1.7040 O   0  0  0  0  0  0  0  0  0  0  0  0
    9.5570   -0.4640    1.2630 C   0  0  0  0  0  0  0  0  0  0  0  0
    9.5270    0.9030    1.5930 C   0  0  0  0  0  3  0  0  0  0  0  0
    9.9630    1.8770    0.6870 C   0  0  0  0  0  3  0  0  0  0  0  0
   10.4390    1.5030   -0.5660 C   0  0  0  0  0  3  0  0  0  0  0  0
   10.4780    0.1540   -0.9130 C   0  0  0  0  0  3  0  0  0  0  0  0
   10.0420   -0.8130   -0.0050 C   0  0  0  0  0  0  0  0  0  0  0  0
   10.1010   -2.0970   -0.3920 F   0  0  0  0  0  0  0  0  0  0  0  0
    5.0520   -3.4910    3.1280 N   0  0  0  0  0  4  0  0  0  0  0  0
    3.9530   -3.4240    3.9530 C   0  0  0  0  0  0  0  0  0  0  0  0
    3.2610   -2.4010    3.9560 O   0  0  0  0  0  0  0  0  0  0  0  0
    5.2260   -2.6120    2.6620 H   0  0  0  0  0  0  0  0  0  0  0  0
    3.6260   -4.4850    4.9300 C   0  0  0  0  0  0  0  0  0  0  0  0
    2.4630   -5.2410    4.7310 C   0  0  0  0  0  3  0  0  0  0  0  0
    2.0820   -6.1990    5.6710 C   0  0  0  0  0  3  0  0  0  0  0  0
    2.8520   -6.3930    6.8180 C   0  0  0  0  0  3  0  0  0  0  0  0
    3.9980   -5.6250    7.0300 C   0  0  0  0  0  3  0  0  0  0  0  0
    4.3790   -4.6620    6.0950 C   0  0  0  0  0  3  0  0  0  0  0  0
    5.6070   -6.9140    3.1320 O   0  0  0  0  0  1  0  0  0  0  0  0
    5.2630   -5.9790    2.3500 C   0  0  0  0  0  0  0  0  0  0  0  0
    4.5640   -6.0120    1.2980 O   0  0  0  0  0  0  0  0  0  0  0  0
  1 15  2  0  0  0  0
  2  3  1  0  0  0  0
  2  1  1  0  0  0  0
  3  4  2  0  0  0  0
  5  4  1  0  0  0  0
  6  5  2  0  0  0  0
  7  6  1  0  0  0  0
  7  3  1  0  0  0  0
  8  9  1  0  0  0  0
  8  6  1  0  0  0  0
 10  9  2  0  0  0  0
 11 10  1  0  0  0  0
 12 11  2  0  0  0  0
 12 13  1  0  0  0  0
 13  8  2  0  0  0  0
 14 13  1  0  0  0  0
 15 16  1  0  0  0  0
 16 17  2  0  0  0  0
 16 19  1  0  0  0  0
 18 15  1  0  0  0  0
 19 24  1  0  0  0  0
 20 19  2  0  0  0  0
 20 21  1  0  0  0  0
 21 22  2  0  0  0  0
 22 23  1  0  0  0  0
 24 23  2  0  0  0  0
 26  1  1  0  0  0  0
 26 25  1  0  0  0  0
 27 26  2  0  0  0  0
M  END
>  <minimizedAffinity>
-6.06556654

$$$$

 OpenBabel09132200313D

 27 29  0  0  0  0  0  0  0  0999 V2000
    5.9290   -3.5120    5.5230 C   0  0  0  0  0  0  0  0  0  0  0  0
    7.0850   -3.1430    6.1100 C   0  0  0  0  0  2  0  0  0  0  0  0
    8.2580   -2.7060    5.4330 C   0  0  0  0  0  0  0  0  0  0  0  0
    9.5170   -2.3700    5.9150 C   0  0  0  0  0  3  0  0  0  0  0  0
   10.3330   -2.0220    4.8120 C   0  0  0  0  0  3  0  0  0  0  0  0
    9.5520   -2.1720    3.6870 C   0  0  0  0  0  0  0  0  0  0  0  0
    8.3120   -2.6020    4.0610 O   0  0  0  0  0  0  0  0  0  0  0  0
    9.7590   -1.9850    2.2530 C   0  0  0  0  0  0  0  0  0  0  0  0
   10.3680   -2.9850    1.4740 C   0  0  0  0  0  3  0  0  0  0  0  0
   10.5640   -2.8140    0.0990 C   0  0  0  0  0  3  0  0  0  0  0  0
   10.1550   -1.6390   -0.5250 C   0  0  0  0  0  3  0  0  0  0  0  0
    9.5510   -0.6350    0.2280 C   0  0  0  0  0  3  0  0  0  0  0  0
    9.3570   -0.8120    1.6000 C   0  0  0  0  0  0  0  0  0  0  0  0
    8.7700    0.1880    2.2760 F   0  0  0  0  0  0  0  0  0  0  0  0
    5.7830   -3.6320    4.1450 N   0  0  0  0  0  4  0  0  0  0  0  0
    5.0590   -4.5230    3.3850 C   0  0  0  0  0  0  0  0  0  0  0  0
    5.2940   -4.6130    2.1760 O   0  0  0  0  0  0  0  0  0  0  0  0
    6.3920   -3.0610    3.5780 H   0  0  0  0  0  0  0  0  0  0  0  0
    3.9260   -5.2990    3.9330 C   0  0  0  0  0  0  0  0  0  0  0  0
    2.7610   -4.6120    4.2970 C   0  0  0  0  0  3  0  0  0  0  0  0
    1.7000   -5.3000    4.8880 C   0  0  0  0  0  3  0  0  0  0  0  0
    1.8070   -6.6700    5.1300 C   0  0  0  0  0  3  0  0  0  0  0  0
    2.9760   -7.3510    4.7900 C   0  0  0  0  0  3  0  0  0  0  0  0
    4.0410   -6.6660    4.2050 C   0  0  0  0  0  3  0  0  0  0  0  0
    3.9970   -3.0220    6.8420 O   0  0  0  0  0  0  0  0  0  0  0  0
    4.8460   -3.9220    6.5710 C   0  0  0  0  0  0  0  0  0  0  0  0
    4.9740   -5.0890    7.0390 O   0  0  0  0  0  1  0  0  0  0  0  0
  1  2  1  0  0  0  0
  1 26  1  0  0  0  0
  3  4  2  0  0  0  0
  3  2  1  0  0  0  0
  5  4  1  0  0  0  0
  6  7  1  0  0  0  0
  6  5  2  0  0  0  0
  7  3  1  0  0  0  0
  8  6  1  0  0  0  0
  9  8  2  0  0  0  0
 10  9  1  0  0  0  0
 11 10  2  0  0  0  0
 11 12  1  0  0  0  0
 12 13  2  0  0  0  0
 13  8  1  0  0  0  0
 13 14  1  0  0  0  0
 15  1  2  0  0  0  0
 16 19  1  0  0  0  0
 16 15  1  0  0  0  0
 17 16  2  0  0  0  0
 18 15  1  0  0  0  0
 19 24  2  0  0  0  0
 19 20  1  0  0  0  0
 20 21  2  0  0  0  0
 21 22  1  0  0  0  0
 23 22  2  0  0  0  0
 24 23  1  0  0  0  0
 26 25  2  0  0  0  0
 26 27  1  0  0  0  0
M  END
>  <minimizedAffinity>
-5.76518106

$$$$

 OpenBabel09132200313D

 27 29  0  0  0  0  0  0  0  0999 V2000
    3.0200   -3.1900    5.0820 C   0  0  0  0  0  0  0  0  0  0  0  0
    3.4880   -3.0650    3.8240 C   0  0  0  0  0  2  0  0  0  0  0  0
    4.4230   -3.9330    3.1950 C   0  0  0  0  0  0  0  0  0  0  0  0
    4.3620   -5.2940    2.9190 C   0  0  0  0  0  3  0  0  0  0  0  0
    5.5570   -5.6620    2.2530 C   0  0  0  0  0  3  0  0  0  0  0  0
    6.3040   -4.5120    2.1270 C   0  0  0  0  0  0  0  0  0  0  0  0
    5.6130   -3.4710    2.6760 O   0  0  0  0  0  0  0  0  0  0  0  0
    7.6080   -4.1850    1.5560 C   0  0  0  0  0  0  0  0  0  0  0  0
    8.4870   -3.3090    2.2180 C   0  0  0  0  0  3  0  0  0  0  0  0
    9.7400   -2.9960    1.6790 C   0  0  0  0  0  3  0  0  0  0  0  0
   10.1390   -3.5530    0.4670 C   0  0  0  0  0  3  0  0  0  0  0  0
    9.2830   -4.4220   -0.2050 C   0  0  0  0  0  3  0  0  0  0  0  0
    8.0350   -4.7310    0.3380 C   0  0  0  0  0  0  0  0  0  0  0  0
    7.2500   -5.5740   -0.3520 F   0  0  0  0  0  0  0  0  0  0  0  0
    3.5050   -4.1340    5.9810 N   0  0  0  0  0  4  0  0  0  0  0  0
    4.7750   -4.3580    6.4620 C   0  0  0  0  0  0  0  0  0  0  0  0
    5.0220   -5.4210    7.0390 O   0  0  0  0  0  0  0  0  0  0  0  0
    2.8650   -4.8670    6.2510 H   0  0  0  0  0  0  0  0  0  0  0  0
    5.8350   -3.3270    6.4200 C   0  0  0  0  0  0  0  0  0  0  0  0
    7.0720   -3.6650    5.8560 C   0  0  0  0  0  3  0  0  0  0  0  0
    8.1200   -2.7430    5.8680 C   0  0  0  0  0  3  0  0  0  0  0  0
    7.9400   -1.4910    6.4560 C   0  0  0  0  0  3  0  0  0  0  0  0
    6.7160   -1.1620    7.0390 C   0  0  0  0  0  3  0  0  0  0  0  0
    5.6670   -2.0830    7.0350 C   0  0  0  0  0  3  0  0  0  0  0  0
    1.0850   -1.8820    4.5780 O   0  0  0  0  0  0  0  0  0  0  0  0
    1.9950   -2.0670    5.4390 C   0  0  0  0  0  0  0  0  0  0  0  0
    2.2250   -1.4640    6.5260 O   0  0  0  0  0  1  0  0  0  0  0  0
  1 26  1  0  0  0  0
  1 15  2  0  0  0  0
  2  1  1  0  0  0  0
  3  2  1  0  0  0  0
  4  3  2  0  0  0  0
  5  4  1  0  0  0  0
  6  5  2  0  0  0  0
  6  7  1  0  0  0  0
  7  3  1  0  0  0  0
  8  6  1  0  0  0  0
  8  9  1  0  0  0  0
 10  9  2  0  0  0  0
 11 10  1  0  0  0  0
 12 13  1  0  0  0  0
 12 11  2  0  0  0  0
 13  8  2  0  0  0  0
 14 13  1  0  0  0  0
 15 18  1  0  0  0  0
 15 16  1  0  0  0  0
 16 17  2  0  0  0  0
 19 16  1  0  0  0  0
 19 24  1  0  0  0  0
 20 21  1  0  0  0  0
 20 19  2  0  0  0  0
 21 22  2  0  0  0  0
 22 23  1  0  0  0  0
 24 23  2  0  0  0  0
 25 26  2  0  0  0  0
 26 27  1  0  0  0  0
M  END
>  <minimizedAffinity>
-5.31409597

$$$$

 OpenBabel09132200313D

 27 29  0  0  0  0  0  0  0  0999 V2000
    6.7080   -5.2720    2.1460 C   0  0  0  0  0  0  0  0  0  0  0  0
    7.2530   -5.1230    0.9220 C   0  0  0  0  0  2  0  0  0  0  0  0
    8.3230   -4.2480    0.5890 C   0  0  0  0  0  0  0  0  0  0  0  0
    9.4820   -4.4620   -0.1470 C   0  0  0  0  0  3  0  0  0  0  0  0
   10.2030   -3.2440   -0.1970 C   0  0  0  0  0  3  0  0  0  0  0  0
    9.4540   -2.3180    0.4950 C   0  0  0  0  0  0  0  0  0  0  0  0
    8.3160   -2.9180    0.9500 O   0  0  0  0  0  0  0  0  0  0  0  0
    9.6080   -0.9030    0.8230 C   0  0  0  0  0  0  0  0  0  0  0  0
    9.3290   -0.4280    2.1170 C   0  0  0  0  0  3  0  0  0  0  0  0
    9.4790    0.9260    2.4390 C   0  0  0  0  0  3  0  0  0  0  0  0
    9.9120    1.8310    1.4750 C   0  0  0  0  0  3  0  0  0  0  0  0
   10.1940    1.3810    0.1870 C   0  0  0  0  0  3  0  0  0  0  0  0
   10.0420    0.0290   -0.1290 C   0  0  0  0  0  0  0  0  0  0  0  0
   10.3270   -0.3490   -1.3850 F   0  0  0  0  0  0  0  0  0  0  0  0
    7.0530   -4.4740    3.2310 N   0  0  0  0  0  4  0  0  0  0  0  0
    6.2750   -3.7780    4.1280 C   0  0  0  0  0  0  0  0  0  0  0  0
    6.7990   -2.9180    4.8410 O   0  0  0  0  0  0  0  0  0  0  0  0
    8.0330   -4.2510    3.3310 H   0  0  0  0  0  0  0  0  0  0  0  0
    4.8490   -4.0970    4.3580 C   0  0  0  0  0  0  0  0  0  0  0  0
    3.8780   -3.3120    3.7230 C   0  0  0  0  0  3  0  0  0  0  0  0
    2.5240   -3.5340    3.9770 C   0  0  0  0  0  3  0  0  0  0  0  0
    2.1380   -4.5290    4.8750 C   0  0  0  0  0  3  0  0  0  0  0  0
    3.1040   -5.2960    5.5270 C   0  0  0  0  0  3  0  0  0  0  0  0
    4.4590   -5.0730    5.2810 C   0  0  0  0  0  3  0  0  0  0  0  0
    5.7480   -7.3190    2.9200 O   0  0  0  0  0  1  0  0  0  0  0  0
    5.5600   -6.3310    2.1510 C   0  0  0  0  0  0  0  0  0  0  0  0
    4.6050   -6.0830    1.3610 O   0  0  0  0  0  0  0  0  0  0  0  0
  1 26  1  0  0  0  0
  1 15  2  0  0  0  0
  2  1  1  0  0  0  0
  3  2  1  0  0  0  0
  3  7  1  0  0  0  0
  4  3  2  0  0  0  0
  5  4  1  0  0  0  0
  5  6  2  0  0  0  0
  6  8  1  0  0  0  0
  6  7  1  0  0  0  0
  8  9  1  0  0  0  0
  9 10  2  0  0  0  0
 11 10  1  0  0  0  0
 12 11  2  0  0  0  0
 13 12  1  0  0  0  0
 13  8  2  0  0  0  0
 14 13  1  0  0  0  0
 15 18  1  0  0  0  0
 15 16  1  0  0  0  0
 16 19  1  0  0  0  0
 16 17  2  0  0  0  0
 19 24  1  0  0  0  0
 20 21  1  0  0  0  0
 20 19  2  0  0  0  0
 21 22  2  0  0  0  0
 22 23  1  0  0  0  0
 24 23  2  0  0  0  0
 26 25  1  0  0  0  0
 27 26  2  0  0  0  0
M  END
>  <minimizedAffinity>
-5.12851572

$$$$
