
 OpenBabel09132204463D

 27 29  0  0  0  0  0  0  0  0999 V2000
    5.8260   -4.5710    2.7210 C   0  0  0  0  0  0  0  0  0  0  0  0
    7.1500   -4.4760    2.4770 C   0  0  0  0  0  2  0  0  0  0  0  0
    7.9590   -3.3310    2.7180 C   0  0  0  0  0  0  0  0  0  0  0  0
    8.5640   -2.8690    3.8800 C   0  0  0  0  0  3  0  0  0  0  0  0
    9.2810   -1.6890    3.5650 C   0  0  0  0  0  3  0  0  0  0  0  0
    9.1060   -1.4750    2.2160 C   0  0  0  0  0  0  0  0  0  0  0  0
    8.3270   -2.4730    1.7040 O   0  0  0  0  0  0  0  0  0  0  0  0
    9.5570   -0.4640    1.2630 C   0  0  0  0  0  0  0  0  0  0  0  0
    9.5270    0.9030    1.5930 C   0  0  0  0  0  3  0  0  0  0  0  0
    9.9630    1.8770    0.6870 C   0  0  0  0  0  3  0  0  0  0  0  0
   10.4390    1.5030   -0.5660 C   0  0  0  0  0  3  0  0  0  0  0  0
   10.4780    0.1540   -0.9130 C   0  0  0  0  0  3  0  0  0  0  0  0
   10.0420   -0.8130   -0.0050 C   0  0  0  0  0  0  0  0  0  0  0  0
   10.1010   -2.0970   -0.3920 F   0  0  0  0  0  0  0  0  0  0  0  0
    5.0520   -3.4910    3.1280 N   0  0  0  0  0  4  0  0  0  0  0  0
    3.9530   -3.4240    3.9530 C   0  0  0  0  0  0  0  0  0  0  0  0
    3.2610   -2.4010    3.9560 O   0  0  0  0  0  0  0  0  0  0  0  0
    5.2260   -2.6120    2.6620 H   0  0  0  0  0  0  0  0  0  0  0  0
    3.6260   -4.4850    4.9300 C   0  0  0  0  0  0  0  0  0  0  0  0
    2.4630   -5.2410    4.7310 C   0  0  0  0  0  3  0  0  0  0  0  0
    2.0820   -6.1990    5.6710 C   0  0  0  0  0  3  0  0  0  0  0  0
    2.8520   -6.3930    6.8180 C   0  0  0  0  0  3  0  0  0  0  0  0
    3.9980   -5.6250    7.0300 C   0  0  0  0  0  3  0  0  0  0  0  0
    4.3790   -4.6620    6.0950 C   0  0  0  0  0  3  0  0  0  0  0  0
    5.6070   -6.9140    3.1320 O   0  0  0  0  0  1  0  0  0  0  0  0
    5.2630   -5.9790    2.3500 C   0  0  0  0  0  0  0  0  0  0  0  0
    4.5640   -6.0120    1.2980 O   0  0  0  0  0  0  0  0  0  0  0  0
  1 15  2  0  0  0  0
  2  3  1  0  0  0  0
  2  1  1  0  0  0  0
  3  4  2  0  0  0  0
  5  4  1  0  0  0  0
  6  5  2  0  0  0  0
  7  6  1  0  0  0  0
  7  3  1  0  0  0  0
  8  9  1  0  0  0  0
  8  6  1  0  0  0  0
 10  9  2  0  0  0  0
 11 10  1  0  0  0  0
 12 11  2  0  0  0  0
 12 13  1  0  0  0  0
 13  8  2  0  0  0  0
 14 13  1  0  0  0  0
 15 16  1  0  0  0  0
 16 17  2  0  0  0  0
 16 19  1  0  0  0  0
 18 15  1  0  0  0  0
 19 24  1  0  0  0  0
 20 19  2  0  0  0  0
 20 21  1  0  0  0  0
 21 22  2  0  0  0  0
 22 23  1  0  0  0  0
 24 23  2  0  0  0  0
 26  1  1  0  0  0  0
 26 25  1  0  0  0  0
 27 26  2  0  0  0  0
M  END
>  <minimizedAffinity>
-6.06556654

$$$$
