
 OpenBabel09132204463D

 27 29  0  0  0  0  0  0  0  0999 V2000
    7.8620   -4.7120    1.1200 C   0  0  0  0  0  0  0  0  0  0  0  0
    6.6480   -5.2840    0.9920 C   0  0  0  0  0  2  0  0  0  0  0  0
    5.6760   -5.4110    2.0230 C   0  0  0  0  0  0  0  0  0  0  0  0
    4.9760   -6.5180    2.4860 C   0  0  0  0  0  3  0  0  0  0  0  0
    4.1430   -6.0980    3.5510 C   0  0  0  0  0  3  0  0  0  0  0  0
    4.3720   -4.7500    3.7190 C   0  0  0  0  0  0  0  0  0  0  0  0
    5.3070   -4.3430    2.8120 O   0  0  0  0  0  0  0  0  0  0  0  0
    3.8580   -3.7190    4.6160 C   0  0  0  0  0  0  0  0  0  0  0  0
    2.5780   -3.1690    4.4260 C   0  0  0  0  0  3  0  0  0  0  0  0
    2.0770   -2.1840    5.2850 C   0  0  0  0  0  3  0  0  0  0  0  0
    2.8470   -1.7300    6.3530 C   0  0  0  0  0  3  0  0  0  0  0  0
    4.1170   -2.2620    6.5590 C   0  0  0  0  0  3  0  0  0  0  0  0
    4.6110   -3.2450    5.6980 C   0  0  0  0  0  0  0  0  0  0  0  0
    5.8420   -3.7210    5.9440 F   0  0  0  0  0  0  0  0  0  0  0  0
    8.3700   -4.2790    2.3400 N   0  0  0  0  0  4  0  0  0  0  0  0
    9.1700   -3.2050    2.6580 C   0  0  0  0  0  0  0  0  0  0  0  0
    9.7220   -3.1700    3.7620 O   0  0  0  0  0  0  0  0  0  0  0  0
    8.2490   -4.9030    3.1240 H   0  0  0  0  0  0  0  0  0  0  0  0
    9.3080   -2.0260    1.7750 C   0  0  0  0  0  0  0  0  0  0  0  0
   10.0710   -2.1520    0.6070 C   0  0  0  0  0  3  0  0  0  0  0  0
   10.2860   -1.0420   -0.2100 C   0  0  0  0  0  3  0  0  0  0  0  0
    9.7530    0.1980    0.1440 C   0  0  0  0  0  3  0  0  0  0  0  0
    9.0130    0.3300    1.3190 C   0  0  0  0  0  3  0  0  0  0  0  0
    8.8010   -0.7760    2.1430 C   0  0  0  0  0  3  0  0  0  0  0  0
    7.9670   -4.5610   -1.2620 O   0  0  0  0  0  0  0  0  0  0  0  0
    8.6640   -4.7350   -0.2190 C   0  0  0  0  0  0  0  0  0  0  0  0
    9.9020   -4.9590   -0.0940 O   0  0  0  0  0  1  0  0  0  0  0  0
  1 15  2  0  0  0  0
  2  1  1  0  0  0  0
  2  3  1  0  0  0  0
  3  4  2  0  0  0  0
  3  7  1  0  0  0  0
  4  5  1  0  0  0  0
  5  6  2  0  0  0  0
  6  8  1  0  0  0  0
  7  6  1  0  0  0  0
  8 13  1  0  0  0  0
  9  8  2  0  0  0  0
  9 10  1  0  0  0  0
 10 11  2  0  0  0  0
 11 12  1  0  0  0  0
 13 14  1  0  0  0  0
 13 12  2  0  0  0  0
 15 16  1  0  0  0  0
 15 18  1  0  0  0  0
 16 17  2  0  0  0  0
 19 24  1  0  0  0  0
 19 16  1  0  0  0  0
 20 19  2  0  0  0  0
 21 22  2  0  0  0  0
 21 20  1  0  0  0  0
 22 23  1  0  0  0  0
 23 24  2  0  0  0  0
 25 26  2  0  0  0  0
 26 27  1  0  0  0  0
 26  1  1  0  0  0  0
M  END
>  <minimizedAffinity>
-7.00766134

$$$$
