
 OpenBabel09132204463D

 27 29  0  0  0  0  0  0  0  0999 V2000
    5.9290   -3.5120    5.5230 C   0  0  0  0  0  0  0  0  0  0  0  0
    7.0850   -3.1430    6.1100 C   0  0  0  0  0  2  0  0  0  0  0  0
    8.2580   -2.7060    5.4330 C   0  0  0  0  0  0  0  0  0  0  0  0
    9.5170   -2.3700    5.9150 C   0  0  0  0  0  3  0  0  0  0  0  0
   10.3330   -2.0220    4.8120 C   0  0  0  0  0  3  0  0  0  0  0  0
    9.5520   -2.1720    3.6870 C   0  0  0  0  0  0  0  0  0  0  0  0
    8.3120   -2.6020    4.0610 O   0  0  0  0  0  0  0  0  0  0  0  0
    9.7590   -1.9850    2.2530 C   0  0  0  0  0  0  0  0  0  0  0  0
   10.3680   -2.9850    1.4740 C   0  0  0  0  0  3  0  0  0  0  0  0
   10.5640   -2.8140    0.0990 C   0  0  0  0  0  3  0  0  0  0  0  0
   10.1550   -1.6390   -0.5250 C   0  0  0  0  0  3  0  0  0  0  0  0
    9.5510   -0.6350    0.2280 C   0  0  0  0  0  3  0  0  0  0  0  0
    9.3570   -0.8120    1.6000 C   0  0  0  0  0  0  0  0  0  0  0  0
    8.7700    0.1880    2.2760 F   0  0  0  0  0  0  0  0  0  0  0  0
    5.7830   -3.6320    4.1450 N   0  0  0  0  0  4  0  0  0  0  0  0
    5.0590   -4.5230    3.3850 C   0  0  0  0  0  0  0  0  0  0  0  0
    5.2940   -4.6130    2.1760 O   0  0  0  0  0  0  0  0  0  0  0  0
    6.3920   -3.0610    3.5780 H   0  0  0  0  0  0  0  0  0  0  0  0
    3.9260   -5.2990    3.9330 C   0  0  0  0  0  0  0  0  0  0  0  0
    2.7610   -4.6120    4.2970 C   0  0  0  0  0  3  0  0  0  0  0  0
    1.7000   -5.3000    4.8880 C   0  0  0  0  0  3  0  0  0  0  0  0
    1.8070   -6.6700    5.1300 C   0  0  0  0  0  3  0  0  0  0  0  0
    2.9760   -7.3510    4.7900 C   0  0  0  0  0  3  0  0  0  0  0  0
    4.0410   -6.6660    4.2050 C   0  0  0  0  0  3  0  0  0  0  0  0
    3.9970   -3.0220    6.8420 O   0  0  0  0  0  0  0  0  0  0  0  0
    4.8460   -3.9220    6.5710 C   0  0  0  0  0  0  0  0  0  0  0  0
    4.9740   -5.0890    7.0390 O   0  0  0  0  0  1  0  0  0  0  0  0
  1  2  1  0  0  0  0
  1 26  1  0  0  0  0
  3  4  2  0  0  0  0
  3  2  1  0  0  0  0
  5  4  1  0  0  0  0
  6  7  1  0  0  0  0
  6  5  2  0  0  0  0
  7  3  1  0  0  0  0
  8  6  1  0  0  0  0
  9  8  2  0  0  0  0
 10  9  1  0  0  0  0
 11 10  2  0  0  0  0
 11 12  1  0  0  0  0
 12 13  2  0  0  0  0
 13  8  1  0  0  0  0
 13 14  1  0  0  0  0
 15  1  2  0  0  0  0
 16 19  1  0  0  0  0
 16 15  1  0  0  0  0
 17 16  2  0  0  0  0
 18 15  1  0  0  0  0
 19 24  2  0  0  0  0
 19 20  1  0  0  0  0
 20 21  2  0  0  0  0
 21 22  1  0  0  0  0
 23 22  2  0  0  0  0
 24 23  1  0  0  0  0
 26 25  2  0  0  0  0
 26 27  1  0  0  0  0
M  END
>  <minimizedAffinity>
-5.76518106

$$$$
