
 OpenBabel09132204463D

 27 29  0  0  0  0  0  0  0  0999 V2000
    3.0200   -3.1900    5.0820 C   0  0  0  0  0  0  0  0  0  0  0  0
    3.4880   -3.0650    3.8240 C   0  0  0  0  0  2  0  0  0  0  0  0
    4.4230   -3.9330    3.1950 C   0  0  0  0  0  0  0  0  0  0  0  0
    4.3620   -5.2940    2.9190 C   0  0  0  0  0  3  0  0  0  0  0  0
    5.5570   -5.6620    2.2530 C   0  0  0  0  0  3  0  0  0  0  0  0
    6.3040   -4.5120    2.1270 C   0  0  0  0  0  0  0  0  0  0  0  0
    5.6130   -3.4710    2.6760 O   0  0  0  0  0  0  0  0  0  0  0  0
    7.6080   -4.1850    1.5560 C   0  0  0  0  0  0  0  0  0  0  0  0
    8.4870   -3.3090    2.2180 C   0  0  0  0  0  3  0  0  0  0  0  0
    9.7400   -2.9960    1.6790 C   0  0  0  0  0  3  0  0  0  0  0  0
   10.1390   -3.5530    0.4670 C   0  0  0  0  0  3  0  0  0  0  0  0
    9.2830   -4.4220   -0.2050 C   0  0  0  0  0  3  0  0  0  0  0  0
    8.0350   -4.7310    0.3380 C   0  0  0  0  0  0  0  0  0  0  0  0
    7.2500   -5.5740   -0.3520 F   0  0  0  0  0  0  0  0  0  0  0  0
    3.5050   -4.1340    5.9810 N   0  0  0  0  0  4  0  0  0  0  0  0
    4.7750   -4.3580    6.4620 C   0  0  0  0  0  0  0  0  0  0  0  0
    5.0220   -5.4210    7.0390 O   0  0  0  0  0  0  0  0  0  0  0  0
    2.8650   -4.8670    6.2510 H   0  0  0  0  0  0  0  0  0  0  0  0
    5.8350   -3.3270    6.4200 C   0  0  0  0  0  0  0  0  0  0  0  0
    7.0720   -3.6650    5.8560 C   0  0  0  0  0  3  0  0  0  0  0  0
    8.1200   -2.7430    5.8680 C   0  0  0  0  0  3  0  0  0  0  0  0
    7.9400   -1.4910    6.4560 C   0  0  0  0  0  3  0  0  0  0  0  0
    6.7160   -1.1620    7.0390 C   0  0  0  0  0  3  0  0  0  0  0  0
    5.6670   -2.0830    7.0350 C   0  0  0  0  0  3  0  0  0  0  0  0
    1.0850   -1.8820    4.5780 O   0  0  0  0  0  0  0  0  0  0  0  0
    1.9950   -2.0670    5.4390 C   0  0  0  0  0  0  0  0  0  0  0  0
    2.2250   -1.4640    6.5260 O   0  0  0  0  0  1  0  0  0  0  0  0
  1 26  1  0  0  0  0
  1 15  2  0  0  0  0
  2  1  1  0  0  0  0
  3  2  1  0  0  0  0
  4  3  2  0  0  0  0
  5  4  1  0  0  0  0
  6  5  2  0  0  0  0
  6  7  1  0  0  0  0
  7  3  1  0  0  0  0
  8  6  1  0  0  0  0
  8  9  1  0  0  0  0
 10  9  2  0  0  0  0
 11 10  1  0  0  0  0
 12 13  1  0  0  0  0
 12 11  2  0  0  0  0
 13  8  2  0  0  0  0
 14 13  1  0  0  0  0
 15 18  1  0  0  0  0
 15 16  1  0  0  0  0
 16 17  2  0  0  0  0
 19 16  1  0  0  0  0
 19 24  1  0  0  0  0
 20 21  1  0  0  0  0
 20 19  2  0  0  0  0
 21 22  2  0  0  0  0
 22 23  1  0  0  0  0
 24 23  2  0  0  0  0
 25 26  2  0  0  0  0
 26 27  1  0  0  0  0
M  END
>  <minimizedAffinity>
-5.31409597

$$$$
