@<TRIPOS>MOLECULE
*****
 44 49 0 0 0
SMALL
GASTEIGER

@<TRIPOS>ATOM
      1 C           0.0000    0.0000    0.0000 C.3     1  UNL11       0.2525
      2 O           0.0000    0.0000    0.0000 O.3     1  UNL11      -0.4714
      3 C           0.0000    0.0000    0.0000 C.ar    1  UNL11       0.1387
      4 C           0.0000    0.0000    0.0000 C.ar    1  UNL11       0.0369
      5 C           0.0000    0.0000    0.0000 C.ar    1  UNL11       0.0045
      6 C           0.0000    0.0000    0.0000 C.ar    1  UNL11       0.0157
      7 C           0.0000    0.0000    0.0000 C.ar    1  UNL11       0.0043
      8 C           0.0000    0.0000    0.0000 C.ar    1  UNL11       0.0369
      9 C           0.0000    0.0000    0.0000 C.2     1  UNL11       0.0023
     10 C           0.0000    0.0000    0.0000 C.2     1  UNL11       0.0540
     11 C           0.0000    0.0000    0.0000 C.3     1  UNL11       0.1372
     12 N           0.0000    0.0000    0.0000 N.ar    1  UNL11      -0.3230
     13 C           0.0000    0.0000    0.0000 C.ar    1  UNL11       0.0561
     14 C           0.0000    0.0000    0.0000 C.ar    1  UNL11      -0.0053
     15 C           0.0000    0.0000    0.0000 C.3     1  UNL11       0.0238
     16 C           0.0000    0.0000    0.0000 C.3     1  UNL11       0.0044
     17 C           0.0000    0.0000    0.0000 C.3     1  UNL11       0.0003
     18 C           0.0000    0.0000    0.0000 C.3     1  UNL11       0.0000
     19 C           0.0000    0.0000    0.0000 C.3     1  UNL11       0.0003
     20 C           0.0000    0.0000    0.0000 C.3     1  UNL11       0.0044
     21 C           0.0000    0.0000    0.0000 C.ar    1  UNL11       0.0132
     22 C           0.0000    0.0000    0.0000 C.ar    1  UNL11       0.0013
     23 C           0.0000    0.0000    0.0000 C.ar    1  UNL11       0.0047
     24 C           0.0000    0.0000    0.0000 C.ar    1  UNL11       0.0581
     25 C           0.0000    0.0000    0.0000 C.ar    1  UNL11       0.0218
     26 C           0.0000    0.0000    0.0000 C.ar    1  UNL11       0.0600
     27 C           0.0000    0.0000    0.0000 C.2     1  UNL11       0.2867
     28 O           0.0000    0.0000    0.0000 O.2     1  UNL11      -0.2666
     29 N           0.0000    0.0000    0.0000 N.am    1  UNL11      -0.0440
     30 S           0.0000    0.0000    0.0000 S.O2    1  UNL11       0.1353
     31 O           0.0000    0.0000    0.0000 O.2     1  UNL11      -0.1362
     32 O           0.0000    0.0000    0.0000 O.2     1  UNL11      -0.1362
     33 N           0.0000    0.0000    0.0000 N.3     1  UNL11      -0.1425
     34 C           0.0000    0.0000    0.0000 C.3     1  UNL11       0.0810
     35 C           0.0000    0.0000    0.0000 C.3     1  UNL11       0.0192
     36 C           0.0000    0.0000    0.0000 C.3     1  UNL11       0.0192
     37 C           0.0000    0.0000    0.0000 C.3     1  UNL11       0.0972
     38 C           0.0000    0.0000    0.0000 C.3     1  UNL11       0.0210
     39 C           0.0000    0.0000    0.0000 C.3     1  UNL11       0.0230
     40 C           0.0000    0.0000    0.0000 C.3     1  UNL11       0.0938
     41 N           0.0000    0.0000    0.0000 N.am    1  UNL11      -0.2745
     42 C           0.0000    0.0000    0.0000 C.3     1  UNL11       0.1151
     43 C           0.0000    0.0000    0.0000 C.2     1  UNL11       0.2469
     44 O           0.0000    0.0000    0.0000 O.2     1  UNL11      -0.2702
@<TRIPOS>BOND
     1     1     2    1
     2     2     3    1
     3     3     4   ar
     4     4     5   ar
     5     5     6   ar
     6     6     7   ar
     7     7     8   ar
     8     3     8   ar
     9     7     9    1
    10     9    10    2
    11    10    11    1
    12    11    12    1
    13    12    13   ar
    14     6    13    1
    15    13    14   ar
    16    14    15    1
    17    15    16    1
    18    16    17    1
    19    17    18    1
    20    18    19    1
    21    19    20    1
    22    15    20    1
    23    14    21   ar
    24    21    22   ar
    25    22    23   ar
    26    23    24   ar
    27    24    25   ar
    28    25    26   ar
    29    21    26   ar
    30    12    26   ar
    31    24    27    1
    32    27    28    2
    33    27    29   am
    34    29    30    1
    35    30    31    2
    36    30    32    2
    37    30    33    1
    38    33    34    1
    39    34    35    1
    40    34    36    1
    41    33    37    1
    42    37    38    1
    43    38    39    1
    44    39    40    1
    45    40    41    1
    46    41    42    1
    47    41    43   am
    48    10    43    1
    49    43    44    2
