
 OpenBabel09082221413D

 45 50  0  0  0  0  0  0  0  0999 V2000
   10.2390    7.3130    3.6210 C   0  0  0  0  0  0  0  0  0  0  0  0
    9.0190    6.8980    3.1010 C   0  0  0  0  0  3  0  0  0  0  0  0
    8.5800    5.5860    3.3080 C   0  0  0  0  0  3  0  0  0  0  0  0
    9.3410    4.6620    4.0440 C   0  0  0  0  0  0  0  0  0  0  0  0
   10.6030    5.0730    4.5340 C   0  0  0  0  0  0  0  0  0  0  0  0
   11.0230    6.4000    4.3330 C   0  0  0  0  0  3  0  0  0  0  0  0
   11.5220    4.1970    5.2880 C   0  0  0  0  0  3  0  0  0  0  0  0
   11.6720    2.8890    5.0140 C   0  0  0  0  0  0  0  0  0  0  0  0
   11.0220    2.2080    3.8450 C   0  0  0  0  0  2  0  0  0  0  0  0
    9.5780    2.1630    4.0470 N   0  0  0  0  0  0  0  0  0  0  0  0
    8.8010    3.2950    4.2300 C   0  0  0  0  0  0  0  0  0  0  0  0
    7.5350    2.8500    4.6230 C   0  0  0  0  0  0  0  0  0  0  0  0
    7.5370    1.4120    4.5200 C   0  0  0  0  0  0  0  0  0  0  0  0
    6.5610    0.4040    4.7150 C   0  0  0  0  0  3  0  0  0  0  0  0
    6.8940   -0.9470    4.5530 C   0  0  0  0  0  3  0  0  0  0  0  0
    8.1940   -1.3110    4.2150 C   0  0  0  0  0  0  0  0  0  0  0  0
    9.1730   -0.3350    3.9920 C   0  0  0  0  0  3  0  0  0  0  0  0
    8.8240    1.0170    4.1580 C   0  0  0  0  0  0  0  0  0  0  0  0
    8.5210   -2.7410    4.0200 C   0  0  0  0  0  0  0  0  0  0  0  0
    7.7570   -3.4970    3.4410 O   0  0  0  0  0  0  0  0  0  0  0  0
    9.8170   -3.1600    4.3910 N   0  0  0  0  0  0  0  0  0  0  0  0
   10.1740   -3.4920    5.9960 S   0  0  0  0  0  0  0  0  0  0  0  0
    9.1160   -4.3410    6.4890 O   0  0  0  0  0  0  0  0  0  0  0  0
   11.5480   -3.9340    6.0090 O   0  0  0  0  0  0  0  0  0  0  0  0
   10.0820   -1.9930    6.7400 N   0  0  0  0  0  0  0  0  0  0  0  0
   11.2020   -1.0390    6.5630 C   0  0  0  0  0  2  0  0  0  0  0  0
   12.3830   -1.2870    7.5020 C   0  0  0  0  0  2  0  0  0  0  0  0
   12.6290   -0.1870    8.5450 C   0  0  0  0  0  2  0  0  0  0  0  0
   13.2410    1.1160    8.0040 C   0  0  0  0  0  2  0  0  0  0  0  0
   12.3300    1.9300    7.2000 N   0  0  0  0  0  0  0  0  0  0  0  0
   11.2710    2.6360    7.9170 C   0  0  0  0  0  1  0  0  0  0  0  0
   12.5590    2.0200    5.8310 C   0  0  0  0  0  0  0  0  0  0  0  0
   13.4060    1.3480    5.2460 O   0  0  0  0  0  0  0  0  0  0  0  0
   10.0020   -4.0510    3.9320 H   0  0  0  0  0  0  0  0  0  0  0  0
    6.3840    3.7190    5.0890 C   0  0  0  0  0  3  0  0  0  0  0  0
    5.1930    3.7000    4.1170 C   0  0  0  0  0  2  0  0  0  0  0  0
    4.0620    4.6080    4.5990 C   0  0  0  0  0  2  0  0  0  0  0  0
    3.6280    4.2600    6.0210 C   0  0  0  0  0  2  0  0  0  0  0  0
    4.8050    4.2880    6.9910 C   0  0  0  0  0  2  0  0  0  0  0  0
    5.9410    3.3790    6.5250 C   0  0  0  0  0  2  0  0  0  0  0  0
    9.0870   -1.8100    7.8340 C   0  0  0  0  0  3  0  0  0  0  0  0
    9.6220   -2.3230    9.1690 C   0  0  0  0  0  1  0  0  0  0  0  0
    8.5920   -0.3740    7.9700 C   0  0  0  0  0  1  0  0  0  0  0  0
   11.8800    8.8710    4.3520 C   0  0  0  0  0  1  0  0  0  0  0  0
   10.7840    8.5620    3.5010 O   0  0  0  0  0  0  0  0  0  0  0  0
  1  6  1  0  0  0  0
  2  3  1  0  0  0  0
  2  1  2  0  0  0  0
  3  4  2  0  0  0  0
  4 11  1  0  0  0  0
  4  5  1  0  0  0  0
  5  7  1  0  0  0  0
  6  5  2  0  0  0  0
  8  7  2  0  0  0  0
  8 32  1  0  0  0  0
  9 10  1  0  0  0  0
  9  8  1  0  0  0  0
 10 18  1  0  0  0  0
 10 11  1  0  0  0  0
 11 12  2  0  0  0  0
 12 35  1  0  0  0  0
 13 12  1  0  0  0  0
 13 14  1  0  0  0  0
 15 14  2  0  0  0  0
 16 15  1  0  0  0  0
 17 18  1  0  0  0  0
 17 16  2  0  0  0  0
 18 13  2  0  0  0  0
 19 16  1  0  0  0  0
 19 21  1  0  0  0  0
 20 19  2  0  0  0  0
 21 22  1  0  0  0  0
 22 24  2  0  0  0  0
 22 23  2  0  0  0  0
 22 25  1  0  0  0  0
 25 41  1  0  0  0  0
 26 25  1  0  0  0  0
 26 27  1  0  0  0  0
 27 28  1  0  0  0  0
 29 28  1  0  0  0  0
 30 31  1  0  0  0  0
 30 29  1  0  0  0  0
 32 30  1  0  0  0  0
 33 32  2  0  0  0  0
 34 21  1  0  0  0  0
 35 40  1  0  0  0  0
 36 37  1  0  0  0  0
 36 35  1  0  0  0  0
 37 38  1  0  0  0  0
 38 39  1  0  0  0  0
 40 39  1  0  0  0  0
 41 43  1  0  0  0  0
 41 42  1  0  0  0  0
 45  1  1  0  0  0  0
 45 44  1  0  0  0  0
M  END
>  <minimizedAffinity>
-5.64649773

$$$$

 OpenBabel09082221413D

 45 50  0  0  0  0  0  0  0  0999 V2000
    8.0610   -2.1500    4.0050 C   0  0  0  0  0  0  0  0  0  0  0  0
    8.9710   -1.5340    3.1530 C   0  0  0  0  0  3  0  0  0  0  0  0
    9.1990   -0.1570    3.2500 C   0  0  0  0  0  3  0  0  0  0  0  0
    8.5350    0.6340    4.2040 C   0  0  0  0  0  0  0  0  0  0  0  0
    7.5770    0.0130    5.0400 C   0  0  0  0  0  0  0  0  0  0  0  0
    7.3710   -1.3740    4.9410 C   0  0  0  0  0  3  0  0  0  0  0  0
    6.7800    0.7280    6.0550 C   0  0  0  0  0  3  0  0  0  0  0  0
    6.3150    1.9770    5.8700 C   0  0  0  0  0  0  0  0  0  0  0  0
    6.4460    2.7270    4.5780 C   0  0  0  0  0  2  0  0  0  0  0  0
    7.8490    3.0450    4.3380 N   0  0  0  0  0  0  0  0  0  0  0  0
    8.8420    2.0830    4.2510 C   0  0  0  0  0  0  0  0  0  0  0  0
   10.0620    2.7670    4.2580 C   0  0  0  0  0  0  0  0  0  0  0  0
    9.7620    4.1750    4.1950 C   0  0  0  0  0  0  0  0  0  0  0  0
   10.5460    5.3520    4.1130 C   0  0  0  0  0  3  0  0  0  0  0  0
    9.9350    6.6130    4.0910 C   0  0  0  0  0  3  0  0  0  0  0  0
    8.5490    6.7190    4.1680 C   0  0  0  0  0  0  0  0  0  0  0  0
    7.7470    5.5720    4.2250 C   0  0  0  0  0  3  0  0  0  0  0  0
    8.3750    4.3140    4.2460 C   0  0  0  0  0  0  0  0  0  0  0  0
    7.9190    8.0570    4.1150 C   0  0  0  0  0  0  0  0  0  0  0  0
    8.3200    8.9210    3.3520 O   0  0  0  0  0  0  0  0  0  0  0  0
    6.7390    8.2400    4.8680 N   0  0  0  0  0  0  0  0  0  0  0  0
    6.8240    8.5540    6.5140 S   0  0  0  0  0  0  0  0  0  0  0  0
    7.8030    9.5990    6.6870 O   0  0  0  0  0  0  0  0  0  0  0  0
    5.4590    8.7350    6.9490 O   0  0  0  0  0  0  0  0  0  0  0  0
    7.4110    7.1220    7.1590 N   0  0  0  0  0  0  0  0  0  0  0  0
    6.4870    5.9730    7.3030 C   0  0  0  0  0  2  0  0  0  0  0  0
    5.6180    6.0290    8.5590 C   0  0  0  0  0  2  0  0  0  0  0  0
    5.9030    4.9380    9.6000 C   0  0  0  0  0  2  0  0  0  0  0  0
    5.4110    3.5280    9.2370 C   0  0  0  0  0  2  0  0  0  0  0  0
    6.1740    2.8700    8.1760 N   0  0  0  0  0  0  0  0  0  0  0  0
    7.5120    2.3950    8.5250 C   0  0  0  0  0  1  0  0  0  0  0  0
    5.5680    2.6930    6.9370 C   0  0  0  0  0  0  0  0  0  0  0  0
    4.4740    3.1780    6.6510 O   0  0  0  0  0  0  0  0  0  0  0  0
    6.2630    9.0670    4.5070 H   0  0  0  0  0  0  0  0  0  0  0  0
   11.4410    2.1410    4.3350 C   0  0  0  0  0  3  0  0  0  0  0  0
   11.5460    1.0690    5.4310 C   0  0  0  0  0  2  0  0  0  0  0  0
   12.9530    0.4780    5.5030 C   0  0  0  0  0  2  0  0  0  0  0  0
   13.4090   -0.0600    4.1500 C   0  0  0  0  0  2  0  0  0  0  0  0
   13.3160    1.0050    3.0610 C   0  0  0  0  0  2  0  0  0  0  0  0
   11.9110    1.5990    2.9720 C   0  0  0  0  0  2  0  0  0  0  0  0
    8.7040    7.1630    7.9000 C   0  0  0  0  0  3  0  0  0  0  0  0
    8.5100    7.6320    9.3390 C   0  0  0  0  0  1  0  0  0  0  0  0
    9.4650    5.8420    7.8620 C   0  0  0  0  0  1  0  0  0  0  0  0
    6.3710   -3.8170    4.1300 C   0  0  0  0  0  1  0  0  0  0  0  0
    7.7480   -3.4810    4.0230 O   0  0  0  0  0  0  0  0  0  0  0  0
  1 45  1  0  0  0  0
  1  6  1  0  0  0  0
  2  3  1  0  0  0  0
  2  1  2  0  0  0  0
  3  4  2  0  0  0  0
  4 11  1  0  0  0  0
  4  5  1  0  0  0  0
  5  7  1  0  0  0  0
  6  5  2  0  0  0  0
  8  7  2  0  0  0  0
  8 32  1  0  0  0  0
  9  8  1  0  0  0  0
 10  9  1  0  0  0  0
 11 12  2  0  0  0  0
 11 10  1  0  0  0  0
 12 35  1  0  0  0  0
 13 18  1  0  0  0  0
 13 12  1  0  0  0  0
 14 13  2  0  0  0  0
 15 14  1  0  0  0  0
 15 16  2  0  0  0  0
 16 17  1  0  0  0  0
 17 18  2  0  0  0  0
 18 10  1  0  0  0  0
 19 16  1  0  0  0  0
 19 21  1  0  0  0  0
 20 19  2  0  0  0  0
 21 22  1  0  0  0  0
 22 23  2  0  0  0  0
 22 24  2  0  0  0  0
 22 25  1  0  0  0  0
 25 26  1  0  0  0  0
 25 41  1  0  0  0  0
 26 27  1  0  0  0  0
 27 28  1  0  0  0  0
 29 28  1  0  0  0  0
 30 31  1  0  0  0  0
 30 29  1  0  0  0  0
 32 30  1  0  0  0  0
 33 32  2  0  0  0  0
 34 21  1  0  0  0  0
 35 36  1  0  0  0  0
 36 37  1  0  0  0  0
 38 37  1  0  0  0  0
 39 38  1  0  0  0  0
 40 39  1  0  0  0  0
 40 35  1  0  0  0  0
 41 42  1  0  0  0  0
 43 41  1  0  0  0  0
 45 44  1  0  0  0  0
M  END
>  <minimizedAffinity>
-5.30288219

$$$$

 OpenBabel09082221413D

 45 50  0  0  0  0  0  0  0  0999 V2000
   11.5230    7.7710    6.0710 C   0  0  0  0  0  0  0  0  0  0  0  0
   10.2290    7.8520    6.5730 C   0  0  0  0  0  3  0  0  0  0  0  0
    9.4120    6.7170    6.5870 C   0  0  0  0  0  3  0  0  0  0  0  0
    9.8680    5.4750    6.1130 C   0  0  0  0  0  0  0  0  0  0  0  0
   11.1690    5.4050    5.5610 C   0  0  0  0  0  0  0  0  0  0  0  0
   11.9840    6.5510    5.5690 C   0  0  0  0  0  3  0  0  0  0  0  0
   11.7600    4.1780    4.9920 C   0  0  0  0  0  3  0  0  0  0  0  0
   11.0430    3.2800    4.2920 C   0  0  0  0  0  0  0  0  0  0  0  0
    9.6070    3.4840    3.9100 C   0  0  0  0  0  2  0  0  0  0  0  0
    8.7730    3.4520    5.1060 N   0  0  0  0  0  0  0  0  0  0  0  0
    8.9450    4.3170    6.1750 C   0  0  0  0  0  0  0  0  0  0  0  0
    8.1380    3.8360    7.2110 C   0  0  0  0  0  0  0  0  0  0  0  0
    7.3610    2.7470    6.6750 C   0  0  0  0  0  0  0  0  0  0  0  0
    6.3440    1.9080    7.1940 C   0  0  0  0  0  3  0  0  0  0  0  0
    5.7880    0.8940    6.4020 C   0  0  0  0  0  3  0  0  0  0  0  0
    6.2460    0.6910    5.1030 C   0  0  0  0  0  0  0  0  0  0  0  0
    7.2330    1.5200    4.5560 C   0  0  0  0  0  3  0  0  0  0  0  0
    7.7810    2.5340    5.3620 C   0  0  0  0  0  0  0  0  0  0  0  0
    5.6290   -0.3670    4.2730 C   0  0  0  0  0  0  0  0  0  0  0  0
    4.4240   -0.5630    4.2810 O   0  0  0  0  0  0  0  0  0  0  0  0
    6.4680   -1.0330    3.3540 N   0  0  0  0  0  0  0  0  0  0  0  0
    7.4640   -2.2820    3.8680 S   0  0  0  0  0  0  0  0  0  0  0  0
    6.6460   -3.1620    4.6660 O   0  0  0  0  0  0  0  0  0  0  0  0
    8.1340   -2.7620    2.6820 O   0  0  0  0  0  0  0  0  0  0  0  0
    8.5860   -1.5150    4.8490 N   0  0  0  0  0  0  0  0  0  0  0  0
    9.6790   -0.7430    4.2130 C   0  0  0  0  0  2  0  0  0  0  0  0
   10.8600   -1.6000    3.7560 C   0  0  0  0  0  2  0  0  0  0  0  0
   12.1730   -1.3590    4.5140 C   0  0  0  0  0  2  0  0  0  0  0  0
   12.9030   -0.0480    4.1780 C   0  0  0  0  0  2  0  0  0  0  0  0
   12.2570    1.1590    4.6920 N   0  0  0  0  0  0  0  0  0  0  0  0
   12.3450    1.3900    6.1320 C   0  0  0  0  0  1  0  0  0  0  0  0
   11.6540    2.0240    3.7850 C   0  0  0  0  0  0  0  0  0  0  0  0
   11.5240    1.7590    2.5910 O   0  0  0  0  0  0  0  0  0  0  0  0
    5.8750   -1.4900    2.6620 H   0  0  0  0  0  0  0  0  0  0  0  0
    8.1020    4.3550    8.6340 C   0  0  0  0  0  3  0  0  0  0  0  0
    6.7610    5.0120    8.9950 C   0  0  0  0  0  2  0  0  0  0  0  0
    6.7670    5.5500   10.4250 C   0  0  0  0  0  2  0  0  0  0  0  0
    7.1480    4.4690   11.4330 C   0  0  0  0  0  2  0  0  0  0  0  0
    8.4850    3.8220   11.0840 C   0  0  0  0  0  2  0  0  0  0  0  0
    8.4900    3.2720    9.6590 C   0  0  0  0  0  2  0  0  0  0  0  0
    8.6730   -1.9320    6.2760 C   0  0  0  0  0  3  0  0  0  0  0  0
    9.5120   -3.1960    6.4400 C   0  0  0  0  0  1  0  0  0  0  0  0
    9.1780   -0.8280    7.2010 C   0  0  0  0  0  1  0  0  0  0  0  0
   13.0450    9.1910    7.2200 C   0  0  0  0  0  1  0  0  0  0  0  0
   12.4270    8.7950    6.0030 O   0  0  0  0  0  0  0  0  0  0  0  0
  1  2  1  0  0  0  0
  2  3  2  0  0  0  0
  4 11  1  0  0  0  0
  4  3  1  0  0  0  0
  5  6  1  0  0  0  0
  5  4  2  0  0  0  0
  6  1  2  0  0  0  0
  7  5  1  0  0  0  0
  8  7  2  0  0  0  0
  9  8  1  0  0  0  0
  9 10  1  0  0  0  0
 10 18  1  0  0  0  0
 10 11  1  0  0  0  0
 11 12  2  0  0  0  0
 12 35  1  0  0  0  0
 13 14  1  0  0  0  0
 13 12  1  0  0  0  0
 15 14  2  0  0  0  0
 16 15  1  0  0  0  0
 17 16  2  0  0  0  0
 17 18  1  0  0  0  0
 18 13  2  0  0  0  0
 19 20  2  0  0  0  0
 19 16  1  0  0  0  0
 21 22  1  0  0  0  0
 21 19  1  0  0  0  0
 22 23  2  0  0  0  0
 22 25  1  0  0  0  0
 24 22  2  0  0  0  0
 25 41  1  0  0  0  0
 26 25  1  0  0  0  0
 27 26  1  0  0  0  0
 27 28  1  0  0  0  0
 29 28  1  0  0  0  0
 29 30  1  0  0  0  0
 30 31  1  0  0  0  0
 32  8  1  0  0  0  0
 32 30  1  0  0  0  0
 33 32  2  0  0  0  0
 34 21  1  0  0  0  0
 35 36  1  0  0  0  0
 35 40  1  0  0  0  0
 36 37  1  0  0  0  0
 37 38  1  0  0  0  0
 39 38  1  0  0  0  0
 40 39  1  0  0  0  0
 41 42  1  0  0  0  0
 41 43  1  0  0  0  0
 45  1  1  0  0  0  0
 45 44  1  0  0  0  0
M  END
>  <minimizedAffinity>
-5.00625372

$$$$

 OpenBabel09082221413D

 45 50  0  0  0  0  0  0  0  0999 V2000
   12.4320    0.2680    4.0960 C   0  0  0  0  0  0  0  0  0  0  0  0
   12.3740    1.3480    3.2210 C   0  0  0  0  0  3  0  0  0  0  0  0
   11.3130    2.2560    3.3010 C   0  0  0  0  0  3  0  0  0  0  0  0
   10.2930    2.1150    4.2580 C   0  0  0  0  0  0  0  0  0  0  0  0
   10.3300    0.9910    5.1170 C   0  0  0  0  0  0  0  0  0  0  0  0
   11.4120    0.0970    5.0350 C   0  0  0  0  0  3  0  0  0  0  0  0
    9.3060    0.6990    6.1390 C   0  0  0  0  0  3  0  0  0  0  0  0
    7.9960    0.9410    5.9490 C   0  0  0  0  0  0  0  0  0  0  0  0
    7.4220    1.4150    4.6470 C   0  0  0  0  0  2  0  0  0  0  0  0
    7.8740    2.7760    4.3790 N   0  0  0  0  0  0  0  0  0  0  0  0
    9.2100    3.1270    4.2850 C   0  0  0  0  0  0  0  0  0  0  0  0
    9.2550    4.5250    4.2640 C   0  0  0  0  0  0  0  0  0  0  0  0
    7.8940    4.9940    4.1910 C   0  0  0  0  0  0  0  0  0  0  0  0
    7.2920    6.2710    4.0840 C   0  0  0  0  0  3  0  0  0  0  0  0
    5.8960    6.3980    4.0600 C   0  0  0  0  0  3  0  0  0  0  0  0
    5.0890    5.2680    4.1600 C   0  0  0  0  0  0  0  0  0  0  0  0
    5.6580    3.9910    4.2430 C   0  0  0  0  0  3  0  0  0  0  0  0
    7.0590    3.8790    4.2650 C   0  0  0  0  0  0  0  0  0  0  0  0
    3.6190    5.4190    4.1050 C   0  0  0  0  0  0  0  0  0  0  0  0
    3.0850    6.1930    3.3260 O   0  0  0  0  0  0  0  0  0  0  0  0
    2.8520    4.5190    4.8750 N   0  0  0  0  0  0  0  0  0  0  0  0
    2.6280    4.7860    6.5170 S   0  0  0  0  0  0  0  0  0  0  0  0
    2.2380    6.1680    6.6620 O   0  0  0  0  0  0  0  0  0  0  0  0
    1.7680    3.7200    6.9740 O   0  0  0  0  0  0  0  0  0  0  0  0
    4.1570    4.5630    7.1660 N   0  0  0  0  0  0  0  0  0  0  0  0
    4.6640    3.1810    7.3370 C   0  0  0  0  0  2  0  0  0  0  0  0
    4.1670    2.4910    8.6080 C   0  0  0  0  0  2  0  0  0  0  0  0
    5.2490    2.1930    9.6550 C   0  0  0  0  0  2  0  0  0  0  0  0
    6.2030    1.0360    9.3140 C   0  0  0  0  0  2  0  0  0  0  0  0
    7.1600    1.3280    8.2480 N   0  0  0  0  0  0  0  0  0  0  0  0
    8.2570    2.2350    8.5780 C   0  0  0  0  0  1  0  0  0  0  0  0
    6.9970    0.6930    7.0210 C   0  0  0  0  0  0  0  0  0  0  0  0
    6.0170    0.0010    6.7490 O   0  0  0  0  0  0  0  0  0  0  0  0
    1.8980    4.5300    4.5150 H   0  0  0  0  0  0  0  0  0  0  0  0
   10.5030    5.3840    4.3240 C   0  0  0  0  0  3  0  0  0  0  0  0
   10.2530    6.8290    3.8640 C   0  0  0  0  0  2  0  0  0  0  0  0
   11.5340    7.6600    3.9090 C   0  0  0  0  0  2  0  0  0  0  0  0
   12.1870    7.6170    5.2870 C   0  0  0  0  0  2  0  0  0  0  0  0
   12.4460    6.1840    5.7420 C   0  0  0  0  0  2  0  0  0  0  0  0
   11.1710    5.3430    5.7110 C   0  0  0  0  0  2  0  0  0  0  0  0
    4.7900    5.7050    7.8840 C   0  0  0  0  0  3  0  0  0  0  0  0
    4.2960    5.8050    9.3240 C   0  0  0  0  0  1  0  0  0  0  0  0
    6.3140    5.6790    7.8390 C   0  0  0  0  0  1  0  0  0  0  0  0
   13.0430   -1.9650    4.6370 C   0  0  0  0  0  1  0  0  0  0  0  0
   13.4090   -0.6870    4.1330 O   0  0  0  0  0  0  0  0  0  0  0  0
  1 45  1  0  0  0  0
  1  6  1  0  0  0  0
  2  3  1  0  0  0  0
  2  1  2  0  0  0  0
  3  4  2  0  0  0  0
  4 11  1  0  0  0  0
  4  5  1  0  0  0  0
  5  7  1  0  0  0  0
  6  5  2  0  0  0  0
  8  7  2  0  0  0  0
  8 32  1  0  0  0  0
  9  8  1  0  0  0  0
 10  9  1  0  0  0  0
 11 10  1  0  0  0  0
 12 11  2  0  0  0  0
 12 35  1  0  0  0  0
 13 12  1  0  0  0  0
 13 18  1  0  0  0  0
 14 13  2  0  0  0  0
 15 14  1  0  0  0  0
 15 16  2  0  0  0  0
 16 17  1  0  0  0  0
 17 18  2  0  0  0  0
 18 10  1  0  0  0  0
 19 16  1  0  0  0  0
 19 21  1  0  0  0  0
 20 19  2  0  0  0  0
 21 22  1  0  0  0  0
 22 23  2  0  0  0  0
 22 24  2  0  0  0  0
 22 25  1  0  0  0  0
 25 26  1  0  0  0  0
 25 41  1  0  0  0  0
 26 27  1  0  0  0  0
 27 28  1  0  0  0  0
 29 28  1  0  0  0  0
 30 31  1  0  0  0  0
 30 29  1  0  0  0  0
 32 30  1  0  0  0  0
 33 32  2  0  0  0  0
 34 21  1  0  0  0  0
 35 40  1  0  0  0  0
 36 37  1  0  0  0  0
 36 35  1  0  0  0  0
 37 38  1  0  0  0  0
 38 39  1  0  0  0  0
 40 39  1  0  0  0  0
 41 42  1  0  0  0  0
 43 41  1  0  0  0  0
 45 44  1  0  0  0  0
M  END
>  <minimizedAffinity>
-4.96469164

$$$$

 OpenBabel09082221413D

 45 50  0  0  0  0  0  0  0  0999 V2000
    5.7770   -2.1760    0.8810 C   0  0  0  0  0  0  0  0  0  0  0  0
    4.8210   -1.8140    1.8230 C   0  0  0  0  0  3  0  0  0  0  0  0
    5.2130   -1.1970    3.0160 C   0  0  0  0  0  3  0  0  0  0  0  0
    6.5620   -0.9180    3.2920 C   0  0  0  0  0  0  0  0  0  0  0  0
    7.5370   -1.3290    2.3520 C   0  0  0  0  0  0  0  0  0  0  0  0
    7.1260   -1.9320    1.1510 C   0  0  0  0  0  3  0  0  0  0  0  0
    8.9900   -1.1360    2.5320 C   0  0  0  0  0  3  0  0  0  0  0  0
    9.5980   -1.2470    3.7270 C   0  0  0  0  0  0  0  0  0  0  0  0
    8.8970   -1.6960    4.9740 C   0  0  0  0  0  2  0  0  0  0  0  0
    7.9310   -0.6830    5.3840 N   0  0  0  0  0  0  0  0  0  0  0  0
    6.8940   -0.2500    4.5730 C   0  0  0  0  0  0  0  0  0  0  0  0
    6.3400    0.8720    5.1980 C   0  0  0  0  0  0  0  0  0  0  0  0
    6.9780    1.0020    6.4830 C   0  0  0  0  0  0  0  0  0  0  0  0
    6.8180    1.8800    7.5830 C   0  0  0  0  0  3  0  0  0  0  0  0
    7.6360    1.7570    8.7150 C   0  0  0  0  0  3  0  0  0  0  0  0
    8.6270    0.7800    8.7580 C   0  0  0  0  0  0  0  0  0  0  0  0
    8.7910   -0.1170    7.6960 C   0  0  0  0  0  3  0  0  0  0  0  0
    7.9630    0.0180    6.5670 C   0  0  0  0  0  0  0  0  0  0  0  0
    9.4620    0.6470    9.9720 C   0  0  0  0  0  0  0  0  0  0  0  0
    8.9830    0.7450   11.0910 O   0  0  0  0  0  0  0  0  0  0  0  0
   10.8020    0.2450    9.7880 N   0  0  0  0  0  0  0  0  0  0  0  0
   11.9690    1.3640    9.3380 S   0  0  0  0  0  0  0  0  0  0  0  0
   11.8080    2.5020   10.2100 O   0  0  0  0  0  0  0  0  0  0  0  0
   13.2140    0.6340    9.2900 O   0  0  0  0  0  0  0  0  0  0  0  0
   11.5290    1.7870    7.7770 N   0  0  0  0  0  0  0  0  0  0  0  0
   11.8320    0.8470    6.6720 C   0  0  0  0  0  2  0  0  0  0  0  0
   13.2670    0.9410    6.1530 C   0  0  0  0  0  2  0  0  0  0  0  0
   13.4090    1.4630    4.7160 C   0  0  0  0  0  2  0  0  0  0  0  0
   12.9970    0.4790    3.6080 C   0  0  0  0  0  2  0  0  0  0  0  0
   11.5570    0.2510    3.5000 N   0  0  0  0  0  0  0  0  0  0  0  0
   10.7580    1.3380    2.9370 C   0  0  0  0  0  1  0  0  0  0  0  0
   11.0530   -0.9870    3.8850 C   0  0  0  0  0  0  0  0  0  0  0  0
   11.7380   -1.8490    4.4330 O   0  0  0  0  0  0  0  0  0  0  0  0
   11.1530   -0.0970   10.6820 H   0  0  0  0  0  0  0  0  0  0  0  0
    5.2800    1.7880    4.6200 C   0  0  0  0  0  3  0  0  0  0  0  0
    3.9230    1.6490    5.3300 C   0  0  0  0  0  2  0  0  0  0  0  0
    2.8690    2.5630    4.7060 C   0  0  0  0  0  2  0  0  0  0  0  0
    3.3340    4.0160    4.6690 C   0  0  0  0  0  2  0  0  0  0  0  0
    4.6750    4.1590    3.9560 C   0  0  0  0  0  2  0  0  0  0  0  0
    5.7410    3.2570    4.5740 C   0  0  0  0  0  2  0  0  0  0  0  0
   11.2030    3.2140    7.5000 C   0  0  0  0  0  3  0  0  0  0  0  0
   12.4630    4.0410    7.2640 C   0  0  0  0  0  1  0  0  0  0  0  0
   10.2160    3.3990    6.3520 C   0  0  0  0  0  1  0  0  0  0  0  0
    4.3620   -3.5760   -0.4210 C   0  0  0  0  0  1  0  0  0  0  0  0
    5.5350   -2.7770   -0.3230 O   0  0  0  0  0  0  0  0  0  0  0  0
  1  6  2  0  0  0  0
  1  2  1  0  0  0  0
  2  3  2  0  0  0  0
  3  4  1  0  0  0  0
  4 11  1  0  0  0  0
  5  7  1  0  0  0  0
  5  4  2  0  0  0  0
  6  5  1  0  0  0  0
  7  8  2  0  0  0  0
  8 32  1  0  0  0  0
  8  9  1  0  0  0  0
  9 10  1  0  0  0  0
 10 18  1  0  0  0  0
 11 12  2  0  0  0  0
 11 10  1  0  0  0  0
 12 13  1  0  0  0  0
 13 18  2  0  0  0  0
 13 14  1  0  0  0  0
 14 15  2  0  0  0  0
 15 16  1  0  0  0  0
 16 19  1  0  0  0  0
 17 16  2  0  0  0  0
 18 17  1  0  0  0  0
 19 20  2  0  0  0  0
 21 19  1  0  0  0  0
 21 34  1  0  0  0  0
 22 21  1  0  0  0  0
 22 23  2  0  0  0  0
 24 22  2  0  0  0  0
 25 22  1  0  0  0  0
 26 25  1  0  0  0  0
 27 26  1  0  0  0  0
 28 27  1  0  0  0  0
 29 28  1  0  0  0  0
 30 29  1  0  0  0  0
 30 32  1  0  0  0  0
 31 30  1  0  0  0  0
 32 33  2  0  0  0  0
 35 12  1  0  0  0  0
 35 36  1  0  0  0  0
 37 36  1  0  0  0  0
 38 37  1  0  0  0  0
 39 40  1  0  0  0  0
 39 38  1  0  0  0  0
 40 35  1  0  0  0  0
 41 25  1  0  0  0  0
 42 41  1  0  0  0  0
 43 41  1  0  0  0  0
 44 45  1  0  0  0  0
 45  1  1  0  0  0  0
M  END
>  <minimizedAffinity>
-4.68436337

$$$$

 OpenBabel09082221413D

 45 50  0  0  0  0  0  0  0  0999 V2000
    7.5200   -1.2360    2.8570 C   0  0  0  0  0  0  0  0  0  0  0  0
    8.8820   -1.1980    2.5810 C   0  0  0  0  0  3  0  0  0  0  0  0
    9.6820   -0.2000    3.1460 C   0  0  0  0  0  3  0  0  0  0  0  0
    9.1470    0.7750    4.0050 C   0  0  0  0  0  0  0  0  0  0  0  0
    7.7530    0.7620    4.2480 C   0  0  0  0  0  0  0  0  0  0  0  0
    6.9650   -0.2580    3.6860 C   0  0  0  0  0  3  0  0  0  0  0  0
    7.0530    1.7480    5.0950 C   0  0  0  0  0  3  0  0  0  0  0  0
    7.3940    3.0480    5.1350 C   0  0  0  0  0  0  0  0  0  0  0  0
    8.4320    3.6600    4.2420 C   0  0  0  0  0  2  0  0  0  0  0  0
    9.7490    3.1410    4.5940 N   0  0  0  0  0  0  0  0  0  0  0  0
   10.0640    1.7920    4.5730 C   0  0  0  0  0  0  0  0  0  0  0  0
   11.3120    1.6640    5.1910 C   0  0  0  0  0  0  0  0  0  0  0  0
   11.8020    2.9960    5.4420 C   0  0  0  0  0  0  0  0  0  0  0  0
   13.0020    3.5250    5.9770 C   0  0  0  0  0  3  0  0  0  0  0  0
   13.1680    4.9100    6.1170 C   0  0  0  0  0  3  0  0  0  0  0  0
   12.1430    5.7770    5.7480 C   0  0  0  0  0  0  0  0  0  0  0  0
   10.9550    5.2830    5.1930 C   0  0  0  0  0  3  0  0  0  0  0  0
   10.8040    3.8920    5.0590 C   0  0  0  0  0  0  0  0  0  0  0  0
   12.3460    7.2370    5.8760 C   0  0  0  0  0  0  0  0  0  0  0  0
   13.4080    7.7620    5.5800 O   0  0  0  0  0  0  0  0  0  0  0  0
   11.2160    8.0150    6.2040 N   0  0  0  0  0  0  0  0  0  0  0  0
   10.7030    8.1370    7.7970 S   0  0  0  0  0  0  0  0  0  0  0  0
   11.8730    8.4340    8.5870 O   0  0  0  0  0  0  0  0  0  0  0  0
    9.5720    9.0350    7.7770 O   0  0  0  0  0  0  0  0  0  0  0  0
   10.1600    6.5930    8.1560 N   0  0  0  0  0  0  0  0  0  0  0  0
    8.8410    6.1620    7.6380 C   0  0  0  0  0  2  0  0  0  0  0  0
    7.6570    6.6330    8.4840 C   0  0  0  0  0  2  0  0  0  0  0  0
    6.8780    5.5180    9.1950 C   0  0  0  0  0  2  0  0  0  0  0  0
    5.9800    4.6550    8.2930 C   0  0  0  0  0  2  0  0  0  0  0  0
    6.7030    3.7390    7.4110 N   0  0  0  0  0  0  0  0  0  0  0  0
    7.3230    2.5730    8.0380 C   0  0  0  0  0  1  0  0  0  0  0  0
    6.7100    4.0030    6.0450 C   0  0  0  0  0  0  0  0  0  0  0  0
    6.2510    5.0360    5.5600 O   0  0  0  0  0  0  0  0  0  0  0  0
   11.4210    8.9840    5.9600 H   0  0  0  0  0  0  0  0  0  0  0  0
   12.0090    0.3650    5.5450 C   0  0  0  0  0  3  0  0  0  0  0  0
   11.0880   -0.6230    6.2770 C   0  0  0  0  0  2  0  0  0  0  0  0
   11.8260   -1.9090    6.6450 C   0  0  0  0  0  2  0  0  0  0  0  0
   12.4790   -2.5540    5.4260 C   0  0  0  0  0  2  0  0  0  0  0  0
   13.4030   -1.5790    4.7020 C   0  0  0  0  0  2  0  0  0  0  0  0
   12.6750   -0.2910    4.3210 C   0  0  0  0  0  2  0  0  0  0  0  0
   10.8230    5.8560    9.2680 C   0  0  0  0  0  3  0  0  0  0  0  0
   10.2710    6.2760   10.6270 C   0  0  0  0  0  1  0  0  0  0  0  0
   10.7640    4.3390    9.1110 C   0  0  0  0  0  1  0  0  0  0  0  0
    6.9520   -2.7940    1.1530 C   0  0  0  0  0  1  0  0  0  0  0  0
    6.6260   -2.1550    2.3800 O   0  0  0  0  0  0  0  0  0  0  0  0
  1  6  1  0  0  0  0
  2  1  2  0  0  0  0
  2  3  1  0  0  0  0
  3  4  2  0  0  0  0
  4  5  1  0  0  0  0
  4 11  1  0  0  0  0
  5  7  1  0  0  0  0
  6  5  2  0  0  0  0
  7  8  2  0  0  0  0
  8 32  1  0  0  0  0
  9 10  1  0  0  0  0
  9  8  1  0  0  0  0
 10 18  1  0  0  0  0
 11 10  1  0  0  0  0
 11 12  2  0  0  0  0
 12 13  1  0  0  0  0
 12 35  1  0  0  0  0
 13 14  1  0  0  0  0
 14 15  2  0  0  0  0
 16 19  1  0  0  0  0
 16 15  1  0  0  0  0
 17 16  2  0  0  0  0
 18 17  1  0  0  0  0
 18 13  2  0  0  0  0
 19 21  1  0  0  0  0
 20 19  2  0  0  0  0
 21 22  1  0  0  0  0
 22 25  1  0  0  0  0
 22 23  2  0  0  0  0
 24 22  2  0  0  0  0
 25 41  1  0  0  0  0
 26 25  1  0  0  0  0
 26 27  1  0  0  0  0
 27 28  1  0  0  0  0
 29 28  1  0  0  0  0
 30 31  1  0  0  0  0
 30 29  1  0  0  0  0
 32 30  1  0  0  0  0
 33 32  2  0  0  0  0
 34 21  1  0  0  0  0
 35 36  1  0  0  0  0
 36 37  1  0  0  0  0
 38 37  1  0  0  0  0
 39 38  1  0  0  0  0
 40 39  1  0  0  0  0
 40 35  1  0  0  0  0
 41 42  1  0  0  0  0
 43 41  1  0  0  0  0
 44 45  1  0  0  0  0
 45  1  1  0  0  0  0
M  END
>  <minimizedAffinity>
-4.67799711

$$$$

 OpenBabel09082221413D

 45 50  0  0  0  0  0  0  0  0999 V2000
    4.2150   -4.9550    4.3850 C   0  0  0  0  0  0  0  0  0  0  0  0
    5.4410   -5.5430    4.0950 C   0  0  0  0  0  3  0  0  0  0  0  0
    6.6120   -4.7790    4.1450 C   0  0  0  0  0  3  0  0  0  0  0  0
    6.5890   -3.4180    4.4940 C   0  0  0  0  0  0  0  0  0  0  0  0
    5.3350   -2.8110    4.7440 C   0  0  0  0  0  0  0  0  0  0  0  0
    4.1700   -3.5960    4.7060 C   0  0  0  0  0  3  0  0  0  0  0  0
    5.1610   -1.3850    5.0810 C   0  0  0  0  0  3  0  0  0  0  0  0
    5.9100   -0.4090    4.5350 C   0  0  0  0  0  0  0  0  0  0  0  0
    6.9110   -0.6460    3.4440 C   0  0  0  0  0  2  0  0  0  0  0  0
    8.0270   -1.4290    3.9650 N   0  0  0  0  0  0  0  0  0  0  0  0
    7.8740   -2.6810    4.5360 C   0  0  0  0  0  0  0  0  0  0  0  0
    9.1020   -3.0040    5.1230 C   0  0  0  0  0  0  0  0  0  0  0  0
   10.0370   -1.9720    4.7500 C   0  0  0  0  0  0  0  0  0  0  0  0
   11.4200   -1.7620    4.9730 C   0  0  0  0  0  3  0  0  0  0  0  0
   12.0510   -0.6100    4.4830 C   0  0  0  0  0  3  0  0  0  0  0  0
   11.3180    0.3470    3.7880 C   0  0  0  0  0  0  0  0  0  0  0  0
    9.9540    0.1530    3.5310 C   0  0  0  0  0  3  0  0  0  0  0  0
    9.3350   -1.0070    4.0290 C   0  0  0  0  0  0  0  0  0  0  0  0
   12.0060    1.5420    3.2540 C   0  0  0  0  0  0  0  0  0  0  0  0
   13.1090    1.4660    2.7360 O   0  0  0  0  0  0  0  0  0  0  0  0
   11.2710    2.7460    3.2240 N   0  0  0  0  0  0  0  0  0  0  0  0
   11.1220    3.6840    4.6080 S   0  0  0  0  0  0  0  0  0  0  0  0
   12.4470    3.8150    5.1630 O   0  0  0  0  0  0  0  0  0  0  0  0
   10.3630    4.8470    4.2140 O   0  0  0  0  0  0  0  0  0  0  0  0
   10.1790    2.7410    5.6240 N   0  0  0  0  0  0  0  0  0  0  0  0
    8.7210    2.6640    5.3740 C   0  0  0  0  0  2  0  0  0  0  0  0
    7.9290    3.8410    5.9470 C   0  0  0  0  0  2  0  0  0  0  0  0
    6.9700    3.4870    7.0920 C   0  0  0  0  0  2  0  0  0  0  0  0
    5.6930    2.7360    6.6820 C   0  0  0  0  0  2  0  0  0  0  0  0
    5.9050    1.3450    6.2830 N   0  0  0  0  0  0  0  0  0  0  0  0
    6.2120    0.3940    7.3490 C   0  0  0  0  0  1  0  0  0  0  0  0
    5.7510    1.0110    4.9410 C   0  0  0  0  0  0  0  0  0  0  0  0
    5.5750    1.8490    4.0580 O   0  0  0  0  0  0  0  0  0  0  0  0
   11.7330    3.3810    2.5730 H   0  0  0  0  0  0  0  0  0  0  0  0
    9.3880   -4.2050    6.0020 C   0  0  0  0  0  3  0  0  0  0  0  0
   10.6900   -4.9270    5.6180 C   0  0  0  0  0  2  0  0  0  0  0  0
   10.9340   -6.1490    6.5020 C   0  0  0  0  0  2  0  0  0  0  0  0
   10.9140   -5.7860    7.9840 C   0  0  0  0  0  2  0  0  0  0  0  0
    9.6180   -5.0780    8.3720 C   0  0  0  0  0  2  0  0  0  0  0  0
    9.3650   -3.8490    7.5000 C   0  0  0  0  0  2  0  0  0  0  0  0
   10.7540    2.3280    6.9350 C   0  0  0  0  0  3  0  0  0  0  0  0
   10.6250    3.4340    7.9780 C   0  0  0  0  0  1  0  0  0  0  0  0
   10.1760    1.0190    7.4650 C   0  0  0  0  0  1  0  0  0  0  0  0
    1.8470   -4.7550    4.4730 C   0  0  0  0  0  1  0  0  0  0  0  0
    3.0000   -5.5830    4.3800 O   0  0  0  0  0  0  0  0  0  0  0  0
  1  6  1  0  0  0  0
  2  3  1  0  0  0  0
  2  1  2  0  0  0  0
  3  4  2  0  0  0  0
  4 11  1  0  0  0  0
  4  5  1  0  0  0  0
  5  7  1  0  0  0  0
  6  5  2  0  0  0  0
  8 32  1  0  0  0  0
  8  7  2  0  0  0  0
  9 10  1  0  0  0  0
  9  8  1  0  0  0  0
 10 18  1  0  0  0  0
 10 11  1  0  0  0  0
 11 12  2  0  0  0  0
 12 35  1  0  0  0  0
 13 14  1  0  0  0  0
 13 12  1  0  0  0  0
 15 14  2  0  0  0  0
 16 15  1  0  0  0  0
 17 16  2  0  0  0  0
 17 18  1  0  0  0  0
 18 13  2  0  0  0  0
 19 16  1  0  0  0  0
 20 19  2  0  0  0  0
 21 19  1  0  0  0  0
 21 22  1  0  0  0  0
 22 23  2  0  0  0  0
 22 25  1  0  0  0  0
 24 22  2  0  0  0  0
 25 41  1  0  0  0  0
 26 25  1  0  0  0  0
 26 27  1  0  0  0  0
 27 28  1  0  0  0  0
 29 28  1  0  0  0  0
 30 29  1  0  0  0  0
 30 31  1  0  0  0  0
 32 30  1  0  0  0  0
 33 32  2  0  0  0  0
 34 21  1  0  0  0  0
 35 40  1  0  0  0  0
 36 35  1  0  0  0  0
 36 37  1  0  0  0  0
 37 38  1  0  0  0  0
 38 39  1  0  0  0  0
 40 39  1  0  0  0  0
 41 43  1  0  0  0  0
 41 42  1  0  0  0  0
 45  1  1  0  0  0  0
 45 44  1  0  0  0  0
M  END
>  <minimizedAffinity>
-4.58970881

$$$$

 OpenBabel09082221413D

 45 50  0  0  0  0  0  0  0  0999 V2000
    4.5460   -2.6790    4.7140 C   0  0  0  0  0  0  0  0  0  0  0  0
    5.6760   -2.7940    3.9130 C   0  0  0  0  0  3  0  0  0  0  0  0
    6.6410   -1.7810    3.9150 C   0  0  0  0  0  3  0  0  0  0  0  0
    6.5070   -0.6380    4.7210 C   0  0  0  0  0  0  0  0  0  0  0  0
    5.3340   -0.5010    5.5010 C   0  0  0  0  0  0  0  0  0  0  0  0
    4.3820   -1.5360    5.5010 C   0  0  0  0  0  3  0  0  0  0  0  0
    5.0450    0.6630    6.3610 C   0  0  0  0  0  3  0  0  0  0  0  0
    5.3780    1.9210    6.0210 C   0  0  0  0  0  0  0  0  0  0  0  0
    5.9610    2.2930    4.6900 C   0  0  0  0  0  2  0  0  0  0  0  0
    7.3050    1.7380    4.5730 N   0  0  0  0  0  0  0  0  0  0  0  0
    7.5800    0.3840    4.6760 C   0  0  0  0  0  0  0  0  0  0  0  0
    8.9710    0.2640    4.7530 C   0  0  0  0  0  0  0  0  0  0  0  0
    9.5250    1.5770    4.5370 C   0  0  0  0  0  0  0  0  0  0  0  0
   10.8410    2.0910    4.4380 C   0  0  0  0  0  3  0  0  0  0  0  0
   11.0540    3.4630    4.2420 C   0  0  0  0  0  3  0  0  0  0  0  0
    9.9710    4.3340    4.1620 C   0  0  0  0  0  0  0  0  0  0  0  0
    8.6580    3.8500    4.2330 C   0  0  0  0  0  3  0  0  0  0  0  0
    8.4600    2.4710    4.4280 C   0  0  0  0  0  0  0  0  0  0  0  0
   10.2140    5.7750    3.9280 C   0  0  0  0  0  0  0  0  0  0  0  0
   11.0630    6.1590    3.1400 O   0  0  0  0  0  0  0  0  0  0  0  0
    9.3180    6.6830    4.5320 N   0  0  0  0  0  0  0  0  0  0  0  0
    9.5020    7.1080    6.1450 S   0  0  0  0  0  0  0  0  0  0  0  0
   10.8930    7.4400    6.3300 O   0  0  0  0  0  0  0  0  0  0  0  0
    8.4650    8.0760    6.4160 O   0  0  0  0  0  0  0  0  0  0  0  0
    9.1480    5.6920    6.9700 N   0  0  0  0  0  0  0  0  0  0  0  0
    7.7310    5.2860    7.1130 C   0  0  0  0  0  2  0  0  0  0  0  0
    6.9980    5.9820    8.2610 C   0  0  0  0  0  2  0  0  0  0  0  0
    6.5740    5.0650    9.4170 C   0  0  0  0  0  2  0  0  0  0  0  0
    5.3830    4.1370    9.1260 C   0  0  0  0  0  2  0  0  0  0  0  0
    5.6790    3.0330    8.2130 N   0  0  0  0  0  0  0  0  0  0  0  0
    6.4970    1.9430    8.7410 C   0  0  0  0  0  1  0  0  0  0  0  0
    5.1280    3.0650    6.9370 C   0  0  0  0  0  0  0  0  0  0  0  0
    4.5140    4.0350    6.4950 O   0  0  0  0  0  0  0  0  0  0  0  0
    9.4090    7.5780    4.0530 H   0  0  0  0  0  0  0  0  0  0  0  0
    9.7470   -1.0080    5.0290 C   0  0  0  0  0  3  0  0  0  0  0  0
   10.5590   -1.4860    3.8150 C   0  0  0  0  0  2  0  0  0  0  0  0
   11.3050   -2.7850    4.1160 C   0  0  0  0  0  2  0  0  0  0  0  0
   12.1830   -2.6550    5.3580 C   0  0  0  0  0  2  0  0  0  0  0  0
   11.3790   -2.1920    6.5690 C   0  0  0  0  0  2  0  0  0  0  0  0
   10.6320   -0.8890    6.2840 C   0  0  0  0  0  2  0  0  0  0  0  0
   10.2060    5.1010    7.8370 C   0  0  0  0  0  3  0  0  0  0  0  0
   10.2600    5.7850    9.2000 C   0  0  0  0  0  1  0  0  0  0  0  0
   10.0820    3.5890    7.9990 C   0  0  0  0  0  1  0  0  0  0  0  0
    2.5500   -3.3570    5.8140 C   0  0  0  0  0  1  0  0  0  0  0  0
    3.5330   -3.5910    4.8140 O   0  0  0  0  0  0  0  0  0  0  0  0
  1 45  1  0  0  0  0
  1  6  1  0  0  0  0
  2  3  1  0  0  0  0
  2  1  2  0  0  0  0
  3  4  2  0  0  0  0
  4  5  1  0  0  0  0
  5  6  2  0  0  0  0
  5  7  1  0  0  0  0
  8  7  2  0  0  0  0
  8 32  1  0  0  0  0
  9  8  1  0  0  0  0
 10 11  1  0  0  0  0
 10  9  1  0  0  0  0
 11  4  1  0  0  0  0
 11 12  2  0  0  0  0
 12 35  1  0  0  0  0
 13 12  1  0  0  0  0
 14 13  1  0  0  0  0
 15 14  2  0  0  0  0
 16 17  2  0  0  0  0
 16 15  1  0  0  0  0
 17 18  1  0  0  0  0
 18 13  2  0  0  0  0
 18 10  1  0  0  0  0
 19 16  1  0  0  0  0
 19 21  1  0  0  0  0
 20 19  2  0  0  0  0
 21 22  1  0  0  0  0
 22 23  2  0  0  0  0
 22 24  2  0  0  0  0
 22 25  1  0  0  0  0
 25 26  1  0  0  0  0
 25 41  1  0  0  0  0
 26 27  1  0  0  0  0
 27 28  1  0  0  0  0
 29 28  1  0  0  0  0
 30 31  1  0  0  0  0
 30 29  1  0  0  0  0
 32 30  1  0  0  0  0
 33 32  2  0  0  0  0
 34 21  1  0  0  0  0
 35 40  1  0  0  0  0
 36 37  1  0  0  0  0
 36 35  1  0  0  0  0
 37 38  1  0  0  0  0
 38 39  1  0  0  0  0
 40 39  1  0  0  0  0
 41 43  1  0  0  0  0
 41 42  1  0  0  0  0
 45 44  1  0  0  0  0
M  END
>  <minimizedAffinity>
-4.55248547

$$$$

 OpenBabel09082221413D

 45 50  0  0  0  0  0  0  0  0999 V2000
   11.4720    0.8370    5.0290 C   0  0  0  0  0  0  0  0  0  0  0  0
   11.9440    1.7860    4.1290 C   0  0  0  0  0  3  0  0  0  0  0  0
   11.2150    2.9580    3.9010 C   0  0  0  0  0  3  0  0  0  0  0  0
   10.0070    3.2150    4.5710 C   0  0  0  0  0  0  0  0  0  0  0  0
    9.5060    2.2280    5.4520 C   0  0  0  0  0  0  0  0  0  0  0  0
   10.2590    1.0630    5.6830 C   0  0  0  0  0  3  0  0  0  0  0  0
    8.2330    2.3490    6.1900 C   0  0  0  0  0  3  0  0  0  0  0  0
    7.1370    2.9260    5.6640 C   0  0  0  0  0  0  0  0  0  0  0  0
    7.0490    3.3940    4.2420 C   0  0  0  0  0  2  0  0  0  0  0  0
    7.9370    4.5350    4.0470 N   0  0  0  0  0  0  0  0  0  0  0  0
    9.3000    4.4860    4.2840 C   0  0  0  0  0  0  0  0  0  0  0  0
    9.7640    5.8040    4.2220 C   0  0  0  0  0  0  0  0  0  0  0  0
    8.6610    6.6240    3.7870 C   0  0  0  0  0  0  0  0  0  0  0  0
    8.5100    7.9990    3.4820 C   0  0  0  0  0  3  0  0  0  0  0  0
    7.2610    8.5080    3.0990 C   0  0  0  0  0  3  0  0  0  0  0  0
    6.1540    7.6670    3.0320 C   0  0  0  0  0  0  0  0  0  0  0  0
    6.2800    6.2980    3.3050 C   0  0  0  0  0  3  0  0  0  0  0  0
    7.5380    5.8020    3.6880 C   0  0  0  0  0  0  0  0  0  0  0  0
    4.8510    8.2160    2.5980 C   0  0  0  0  0  0  0  0  0  0  0  0
    4.7690    9.0160    1.6810 O   0  0  0  0  0  0  0  0  0  0  0  0
    3.6930    7.6570    3.1820 N   0  0  0  0  0  0  0  0  0  0  0  0
    3.1840    8.1570    4.7000 S   0  0  0  0  0  0  0  0  0  0  0  0
    3.2020    9.5990    4.6900 O   0  0  0  0  0  0  0  0  0  0  0  0
    1.9630    7.4310    4.9630 O   0  0  0  0  0  0  0  0  0  0  0  0
    4.3820    7.5880    5.7260 N   0  0  0  0  0  0  0  0  0  0  0  0
    4.3990    6.1480    6.0720 C   0  0  0  0  0  2  0  0  0  0  0  0
    3.4370    5.7690    7.2000 C   0  0  0  0  0  2  0  0  0  0  0  0
    4.1060    5.2990    8.4990 C   0  0  0  0  0  2  0  0  0  0  0  0
    4.7230    3.8910    8.4560 C   0  0  0  0  0  2  0  0  0  0  0  0
    5.9440    3.7830    7.6580 N   0  0  0  0  0  0  0  0  0  0  0  0
    7.1540    4.3780    8.2220 C   0  0  0  0  0  1  0  0  0  0  0  0
    5.8890    3.0870    6.4550 C   0  0  0  0  0  0  0  0  0  0  0  0
    4.8390    2.6720    5.9680 O   0  0  0  0  0  0  0  0  0  0  0  0
    2.8970    7.8950    2.5900 H   0  0  0  0  0  0  0  0  0  0  0  0
   11.1610    6.2800    4.5650 C   0  0  0  0  0  3  0  0  0  0  0  0
   11.3620    7.7800    4.2950 C   0  0  0  0  0  2  0  0  0  0  0  0
   12.7870    8.2220    4.6230 C   0  0  0  0  0  2  0  0  0  0  0  0
   13.1760    7.8560    6.0530 C   0  0  0  0  0  2  0  0  0  0  0  0
   12.9890    6.3660    6.3220 C   0  0  0  0  0  2  0  0  0  0  0  0
   11.5650    5.9110    6.0050 C   0  0  0  0  0  2  0  0  0  0  0  0
    5.1420    8.5800    6.5370 C   0  0  0  0  0  3  0  0  0  0  0  0
    4.3670    8.9950    7.7850 C   0  0  0  0  0  1  0  0  0  0  0  0
    6.5450    8.1120    6.9080 C   0  0  0  0  0  1  0  0  0  0  0  0
   13.1160   -0.7920    4.4810 C   0  0  0  0  0  1  0  0  0  0  0  0
   12.0840   -0.3430    5.3500 O   0  0  0  0  0  0  0  0  0  0  0  0
  1 45  1  0  0  0  0
  1  6  1  0  0  0  0
  2  1  2  0  0  0  0
  3  2  1  0  0  0  0
  3  4  2  0  0  0  0
  4  5  1  0  0  0  0
  5  6  2  0  0  0  0
  5  7  1  0  0  0  0
  8  7  2  0  0  0  0
  8 32  1  0  0  0  0
  9  8  1  0  0  0  0
 10  9  1  0  0  0  0
 10 11  1  0  0  0  0
 11  4  1  0  0  0  0
 12 11  2  0  0  0  0
 12 35  1  0  0  0  0
 13 12  1  0  0  0  0
 14 13  2  0  0  0  0
 15 14  1  0  0  0  0
 16 15  2  0  0  0  0
 16 17  1  0  0  0  0
 17 18  2  0  0  0  0
 18 13  1  0  0  0  0
 18 10  1  0  0  0  0
 19 16  1  0  0  0  0
 19 21  1  0  0  0  0
 20 19  2  0  0  0  0
 21 22  1  0  0  0  0
 22 24  2  0  0  0  0
 22 25  1  0  0  0  0
 23 22  2  0  0  0  0
 25 26  1  0  0  0  0
 25 41  1  0  0  0  0
 26 27  1  0  0  0  0
 27 28  1  0  0  0  0
 29 28  1  0  0  0  0
 30 31  1  0  0  0  0
 30 29  1  0  0  0  0
 32 30  1  0  0  0  0
 33 32  2  0  0  0  0
 34 21  1  0  0  0  0
 35 40  1  0  0  0  0
 36 35  1  0  0  0  0
 36 37  1  0  0  0  0
 37 38  1  0  0  0  0
 38 39  1  0  0  0  0
 40 39  1  0  0  0  0
 41 43  1  0  0  0  0
 41 42  1  0  0  0  0
 44 45  1  0  0  0  0
M  END
>  <minimizedAffinity>
-4.50769186

$$$$

 OpenBabel09082221413D

 45 50  0  0  0  0  0  0  0  0999 V2000
    1.5010   -1.9740    5.4210 C   0  0  0  0  0  0  0  0  0  0  0  0
    1.7660   -1.6700    4.0900 C   0  0  0  0  0  3  0  0  0  0  0  0
    3.0840   -1.4570    3.6710 C   0  0  0  0  0  3  0  0  0  0  0  0
    4.1650   -1.5530    4.5630 C   0  0  0  0  0  0  0  0  0  0  0  0
    3.8890   -1.8180    5.9250 C   0  0  0  0  0  0  0  0  0  0  0  0
    2.5610   -2.0450    6.3280 C   0  0  0  0  0  3  0  0  0  0  0  0
    4.9230   -1.9050    6.9760 C   0  0  0  0  0  3  0  0  0  0  0  0
    6.0120   -1.1160    6.9940 C   0  0  0  0  0  0  0  0  0  0  0  0
    6.2350    0.0120    6.0310 C   0  0  0  0  0  2  0  0  0  0  0  0
    6.4520   -0.5240    4.6920 N   0  0  0  0  0  0  0  0  0  0  0  0
    5.5330   -1.3270    4.0370 C   0  0  0  0  0  0  0  0  0  0  0  0
    6.1800   -1.8320    2.9040 C   0  0  0  0  0  0  0  0  0  0  0  0
    7.4630   -1.1820    2.8220 C   0  0  0  0  0  0  0  0  0  0  0  0
    8.5330   -1.2170    1.8940 C   0  0  0  0  0  3  0  0  0  0  0  0
    9.6930   -0.4630    2.1180 C   0  0  0  0  0  3  0  0  0  0  0  0
    9.8090    0.3150    3.2660 C   0  0  0  0  0  0  0  0  0  0  0  0
    8.7580    0.3890    4.1880 C   0  0  0  0  0  3  0  0  0  0  0  0
    7.6010   -0.3730    3.9500 C   0  0  0  0  0  0  0  0  0  0  0  0
   11.0290    1.1270    3.4720 C   0  0  0  0  0  0  0  0  0  0  0  0
   11.5550    1.7340    2.5520 O   0  0  0  0  0  0  0  0  0  0  0  0
   11.4690    1.2990    4.8020 N   0  0  0  0  0  0  0  0  0  0  0  0
   12.3670    0.1010    5.5590 S   0  0  0  0  0  0  0  0  0  0  0  0
   13.4090   -0.2810    4.6380 O   0  0  0  0  0  0  0  0  0  0  0  0
   12.6860    0.6190    6.8690 O   0  0  0  0  0  0  0  0  0  0  0  0
   11.2780   -1.1630    5.7280 N   0  0  0  0  0  0  0  0  0  0  0  0
   10.2560   -1.0840    6.7980 C   0  0  0  0  0  2  0  0  0  0  0  0
   10.7640   -1.5120    8.1750 C   0  0  0  0  0  2  0  0  0  0  0  0
   10.1350   -2.7960    8.7330 C   0  0  0  0  0  2  0  0  0  0  0  0
    8.6870   -2.6650    9.2310 C   0  0  0  0  0  2  0  0  0  0  0  0
    7.6900   -2.5060    8.1720 N   0  0  0  0  0  0  0  0  0  0  0  0
    7.3870   -3.6890    7.3700 C   0  0  0  0  0  1  0  0  0  0  0  0
    7.0650   -1.2710    8.0310 C   0  0  0  0  0  0  0  0  0  0  0  0
    7.4030   -0.2730    8.6660 O   0  0  0  0  0  0  0  0  0  0  0  0
   12.1010    2.0990    4.8220 H   0  0  0  0  0  0  0  0  0  0  0  0
    5.6360   -2.8800    1.9540 C   0  0  0  0  0  3  0  0  0  0  0  0
    5.4340   -2.3420    0.5280 C   0  0  0  0  0  2  0  0  0  0  0  0
    4.8590   -3.4130   -0.3970 C   0  0  0  0  0  2  0  0  0  0  0  0
    5.7110   -4.6790   -0.3940 C   0  0  0  0  0  2  0  0  0  0  0  0
    5.9050   -5.2220    1.0190 C   0  0  0  0  0  2  0  0  0  0  0  0
    6.4880   -4.1630    1.9540 C   0  0  0  0  0  2  0  0  0  0  0  0
   11.5980   -2.4600    5.0680 C   0  0  0  0  0  3  0  0  0  0  0  0
   12.5890   -3.2780    5.8910 C   0  0  0  0  0  1  0  0  0  0  0  0
   10.3630   -3.2900    4.7320 C   0  0  0  0  0  1  0  0  0  0  0  0
    0.1950   -3.1830    6.9970 C   0  0  0  0  0  1  0  0  0  0  0  0
    0.2680   -2.2100    5.9630 O   0  0  0  0  0  0  0  0  0  0  0  0
  1 45  1  0  0  0  0
  1  6  1  0  0  0  0
  2  1  2  0  0  0  0
  3  2  1  0  0  0  0
  3  4  2  0  0  0  0
  4  5  1  0  0  0  0
  5  6  2  0  0  0  0
  5  7  1  0  0  0  0
  7  8  2  0  0  0  0
  8 32  1  0  0  0  0
  9  8  1  0  0  0  0
 10  9  1  0  0  0  0
 11  4  1  0  0  0  0
 11 10  1  0  0  0  0
 12 11  2  0  0  0  0
 13 12  1  0  0  0  0
 13 18  1  0  0  0  0
 14 15  1  0  0  0  0
 14 13  2  0  0  0  0
 15 16  2  0  0  0  0
 16 19  1  0  0  0  0
 16 17  1  0  0  0  0
 18 17  2  0  0  0  0
 18 10  1  0  0  0  0
 19 21  1  0  0  0  0
 20 19  2  0  0  0  0
 21 34  1  0  0  0  0
 21 22  1  0  0  0  0
 22 25  1  0  0  0  0
 22 24  2  0  0  0  0
 23 22  2  0  0  0  0
 25 26  1  0  0  0  0
 26 27  1  0  0  0  0
 27 28  1  0  0  0  0
 28 29  1  0  0  0  0
 30 29  1  0  0  0  0
 31 30  1  0  0  0  0
 32 30  1  0  0  0  0
 32 33  2  0  0  0  0
 35 12  1  0  0  0  0
 36 35  1  0  0  0  0
 37 38  1  0  0  0  0
 37 36  1  0  0  0  0
 38 39  1  0  0  0  0
 39 40  1  0  0  0  0
 40 35  1  0  0  0  0
 41 25  1  0  0  0  0
 41 42  1  0  0  0  0
 43 41  1  0  0  0  0
 45 44  1  0  0  0  0
M  END
>  <minimizedAffinity>
-4.4689312

$$$$
