
 OpenBabel09092211523D

 45 50  0  0  0  0  0  0  0  0999 V2000
    4.2150   -4.9550    4.3850 C   0  0  0  0  0  0  0  0  0  0  0  0
    5.4410   -5.5430    4.0950 C   0  0  0  0  0  3  0  0  0  0  0  0
    6.6120   -4.7790    4.1450 C   0  0  0  0  0  3  0  0  0  0  0  0
    6.5890   -3.4180    4.4940 C   0  0  0  0  0  0  0  0  0  0  0  0
    5.3350   -2.8110    4.7440 C   0  0  0  0  0  0  0  0  0  0  0  0
    4.1700   -3.5960    4.7060 C   0  0  0  0  0  3  0  0  0  0  0  0
    5.1610   -1.3850    5.0810 C   0  0  0  0  0  3  0  0  0  0  0  0
    5.9100   -0.4090    4.5350 C   0  0  0  0  0  0  0  0  0  0  0  0
    6.9110   -0.6460    3.4440 C   0  0  0  0  0  2  0  0  0  0  0  0
    8.0270   -1.4290    3.9650 N   0  0  0  0  0  0  0  0  0  0  0  0
    7.8740   -2.6810    4.5360 C   0  0  0  0  0  0  0  0  0  0  0  0
    9.1020   -3.0040    5.1230 C   0  0  0  0  0  0  0  0  0  0  0  0
   10.0370   -1.9720    4.7500 C   0  0  0  0  0  0  0  0  0  0  0  0
   11.4200   -1.7620    4.9730 C   0  0  0  0  0  3  0  0  0  0  0  0
   12.0510   -0.6100    4.4830 C   0  0  0  0  0  3  0  0  0  0  0  0
   11.3180    0.3470    3.7880 C   0  0  0  0  0  0  0  0  0  0  0  0
    9.9540    0.1530    3.5310 C   0  0  0  0  0  3  0  0  0  0  0  0
    9.3350   -1.0070    4.0290 C   0  0  0  0  0  0  0  0  0  0  0  0
   12.0060    1.5420    3.2540 C   0  0  0  0  0  0  0  0  0  0  0  0
   13.1090    1.4660    2.7360 O   0  0  0  0  0  0  0  0  0  0  0  0
   11.2710    2.7460    3.2240 N   0  0  0  0  0  0  0  0  0  0  0  0
   11.1220    3.6840    4.6080 S   0  0  0  0  0  0  0  0  0  0  0  0
   12.4470    3.8150    5.1630 O   0  0  0  0  0  0  0  0  0  0  0  0
   10.3630    4.8470    4.2140 O   0  0  0  0  0  0  0  0  0  0  0  0
   10.1790    2.7410    5.6240 N   0  0  0  0  0  0  0  0  0  0  0  0
    8.7210    2.6640    5.3740 C   0  0  0  0  0  2  0  0  0  0  0  0
    7.9290    3.8410    5.9470 C   0  0  0  0  0  2  0  0  0  0  0  0
    6.9700    3.4870    7.0920 C   0  0  0  0  0  2  0  0  0  0  0  0
    5.6930    2.7360    6.6820 C   0  0  0  0  0  2  0  0  0  0  0  0
    5.9050    1.3450    6.2830 N   0  0  0  0  0  0  0  0  0  0  0  0
    6.2120    0.3940    7.3490 C   0  0  0  0  0  1  0  0  0  0  0  0
    5.7510    1.0110    4.9410 C   0  0  0  0  0  0  0  0  0  0  0  0
    5.5750    1.8490    4.0580 O   0  0  0  0  0  0  0  0  0  0  0  0
   11.7330    3.3810    2.5730 H   0  0  0  0  0  0  0  0  0  0  0  0
    9.3880   -4.2050    6.0020 C   0  0  0  0  0  3  0  0  0  0  0  0
   10.6900   -4.9270    5.6180 C   0  0  0  0  0  2  0  0  0  0  0  0
   10.9340   -6.1490    6.5020 C   0  0  0  0  0  2  0  0  0  0  0  0
   10.9140   -5.7860    7.9840 C   0  0  0  0  0  2  0  0  0  0  0  0
    9.6180   -5.0780    8.3720 C   0  0  0  0  0  2  0  0  0  0  0  0
    9.3650   -3.8490    7.5000 C   0  0  0  0  0  2  0  0  0  0  0  0
   10.7540    2.3280    6.9350 C   0  0  0  0  0  3  0  0  0  0  0  0
   10.6250    3.4340    7.9780 C   0  0  0  0  0  1  0  0  0  0  0  0
   10.1760    1.0190    7.4650 C   0  0  0  0  0  1  0  0  0  0  0  0
    1.8470   -4.7550    4.4730 C   0  0  0  0  0  1  0  0  0  0  0  0
    3.0000   -5.5830    4.3800 O   0  0  0  0  0  0  0  0  0  0  0  0
  1  6  1  0  0  0  0
  2  3  1  0  0  0  0
  2  1  2  0  0  0  0
  3  4  2  0  0  0  0
  4 11  1  0  0  0  0
  4  5  1  0  0  0  0
  5  7  1  0  0  0  0
  6  5  2  0  0  0  0
  8 32  1  0  0  0  0
  8  7  2  0  0  0  0
  9 10  1  0  0  0  0
  9  8  1  0  0  0  0
 10 18  1  0  0  0  0
 10 11  1  0  0  0  0
 11 12  2  0  0  0  0
 12 35  1  0  0  0  0
 13 14  1  0  0  0  0
 13 12  1  0  0  0  0
 15 14  2  0  0  0  0
 16 15  1  0  0  0  0
 17 16  2  0  0  0  0
 17 18  1  0  0  0  0
 18 13  2  0  0  0  0
 19 16  1  0  0  0  0
 20 19  2  0  0  0  0
 21 19  1  0  0  0  0
 21 22  1  0  0  0  0
 22 23  2  0  0  0  0
 22 25  1  0  0  0  0
 24 22  2  0  0  0  0
 25 41  1  0  0  0  0
 26 25  1  0  0  0  0
 26 27  1  0  0  0  0
 27 28  1  0  0  0  0
 29 28  1  0  0  0  0
 30 29  1  0  0  0  0
 30 31  1  0  0  0  0
 32 30  1  0  0  0  0
 33 32  2  0  0  0  0
 34 21  1  0  0  0  0
 35 40  1  0  0  0  0
 36 35  1  0  0  0  0
 36 37  1  0  0  0  0
 37 38  1  0  0  0  0
 38 39  1  0  0  0  0
 40 39  1  0  0  0  0
 41 43  1  0  0  0  0
 41 42  1  0  0  0  0
 45  1  1  0  0  0  0
 45 44  1  0  0  0  0
M  END
>  <minimizedAffinity>
-4.58970881

$$$$
