
 OpenBabel09092211523D

 45 50  0  0  0  0  0  0  0  0999 V2000
    7.5200   -1.2360    2.8570 C   0  0  0  0  0  0  0  0  0  0  0  0
    8.8820   -1.1980    2.5810 C   0  0  0  0  0  3  0  0  0  0  0  0
    9.6820   -0.2000    3.1460 C   0  0  0  0  0  3  0  0  0  0  0  0
    9.1470    0.7750    4.0050 C   0  0  0  0  0  0  0  0  0  0  0  0
    7.7530    0.7620    4.2480 C   0  0  0  0  0  0  0  0  0  0  0  0
    6.9650   -0.2580    3.6860 C   0  0  0  0  0  3  0  0  0  0  0  0
    7.0530    1.7480    5.0950 C   0  0  0  0  0  3  0  0  0  0  0  0
    7.3940    3.0480    5.1350 C   0  0  0  0  0  0  0  0  0  0  0  0
    8.4320    3.6600    4.2420 C   0  0  0  0  0  2  0  0  0  0  0  0
    9.7490    3.1410    4.5940 N   0  0  0  0  0  0  0  0  0  0  0  0
   10.0640    1.7920    4.5730 C   0  0  0  0  0  0  0  0  0  0  0  0
   11.3120    1.6640    5.1910 C   0  0  0  0  0  0  0  0  0  0  0  0
   11.8020    2.9960    5.4420 C   0  0  0  0  0  0  0  0  0  0  0  0
   13.0020    3.5250    5.9770 C   0  0  0  0  0  3  0  0  0  0  0  0
   13.1680    4.9100    6.1170 C   0  0  0  0  0  3  0  0  0  0  0  0
   12.1430    5.7770    5.7480 C   0  0  0  0  0  0  0  0  0  0  0  0
   10.9550    5.2830    5.1930 C   0  0  0  0  0  3  0  0  0  0  0  0
   10.8040    3.8920    5.0590 C   0  0  0  0  0  0  0  0  0  0  0  0
   12.3460    7.2370    5.8760 C   0  0  0  0  0  0  0  0  0  0  0  0
   13.4080    7.7620    5.5800 O   0  0  0  0  0  0  0  0  0  0  0  0
   11.2160    8.0150    6.2040 N   0  0  0  0  0  0  0  0  0  0  0  0
   10.7030    8.1370    7.7970 S   0  0  0  0  0  0  0  0  0  0  0  0
   11.8730    8.4340    8.5870 O   0  0  0  0  0  0  0  0  0  0  0  0
    9.5720    9.0350    7.7770 O   0  0  0  0  0  0  0  0  0  0  0  0
   10.1600    6.5930    8.1560 N   0  0  0  0  0  0  0  0  0  0  0  0
    8.8410    6.1620    7.6380 C   0  0  0  0  0  2  0  0  0  0  0  0
    7.6570    6.6330    8.4840 C   0  0  0  0  0  2  0  0  0  0  0  0
    6.8780    5.5180    9.1950 C   0  0  0  0  0  2  0  0  0  0  0  0
    5.9800    4.6550    8.2930 C   0  0  0  0  0  2  0  0  0  0  0  0
    6.7030    3.7390    7.4110 N   0  0  0  0  0  0  0  0  0  0  0  0
    7.3230    2.5730    8.0380 C   0  0  0  0  0  1  0  0  0  0  0  0
    6.7100    4.0030    6.0450 C   0  0  0  0  0  0  0  0  0  0  0  0
    6.2510    5.0360    5.5600 O   0  0  0  0  0  0  0  0  0  0  0  0
   11.4210    8.9840    5.9600 H   0  0  0  0  0  0  0  0  0  0  0  0
   12.0090    0.3650    5.5450 C   0  0  0  0  0  3  0  0  0  0  0  0
   11.0880   -0.6230    6.2770 C   0  0  0  0  0  2  0  0  0  0  0  0
   11.8260   -1.9090    6.6450 C   0  0  0  0  0  2  0  0  0  0  0  0
   12.4790   -2.5540    5.4260 C   0  0  0  0  0  2  0  0  0  0  0  0
   13.4030   -1.5790    4.7020 C   0  0  0  0  0  2  0  0  0  0  0  0
   12.6750   -0.2910    4.3210 C   0  0  0  0  0  2  0  0  0  0  0  0
   10.8230    5.8560    9.2680 C   0  0  0  0  0  3  0  0  0  0  0  0
   10.2710    6.2760   10.6270 C   0  0  0  0  0  1  0  0  0  0  0  0
   10.7640    4.3390    9.1110 C   0  0  0  0  0  1  0  0  0  0  0  0
    6.9520   -2.7940    1.1530 C   0  0  0  0  0  1  0  0  0  0  0  0
    6.6260   -2.1550    2.3800 O   0  0  0  0  0  0  0  0  0  0  0  0
  1  6  1  0  0  0  0
  2  1  2  0  0  0  0
  2  3  1  0  0  0  0
  3  4  2  0  0  0  0
  4  5  1  0  0  0  0
  4 11  1  0  0  0  0
  5  7  1  0  0  0  0
  6  5  2  0  0  0  0
  7  8  2  0  0  0  0
  8 32  1  0  0  0  0
  9 10  1  0  0  0  0
  9  8  1  0  0  0  0
 10 18  1  0  0  0  0
 11 10  1  0  0  0  0
 11 12  2  0  0  0  0
 12 13  1  0  0  0  0
 12 35  1  0  0  0  0
 13 14  1  0  0  0  0
 14 15  2  0  0  0  0
 16 19  1  0  0  0  0
 16 15  1  0  0  0  0
 17 16  2  0  0  0  0
 18 17  1  0  0  0  0
 18 13  2  0  0  0  0
 19 21  1  0  0  0  0
 20 19  2  0  0  0  0
 21 22  1  0  0  0  0
 22 25  1  0  0  0  0
 22 23  2  0  0  0  0
 24 22  2  0  0  0  0
 25 41  1  0  0  0  0
 26 25  1  0  0  0  0
 26 27  1  0  0  0  0
 27 28  1  0  0  0  0
 29 28  1  0  0  0  0
 30 31  1  0  0  0  0
 30 29  1  0  0  0  0
 32 30  1  0  0  0  0
 33 32  2  0  0  0  0
 34 21  1  0  0  0  0
 35 36  1  0  0  0  0
 36 37  1  0  0  0  0
 38 37  1  0  0  0  0
 39 38  1  0  0  0  0
 40 39  1  0  0  0  0
 40 35  1  0  0  0  0
 41 42  1  0  0  0  0
 43 41  1  0  0  0  0
 44 45  1  0  0  0  0
 45  1  1  0  0  0  0
M  END
>  <minimizedAffinity>
-4.67799711

$$$$
