REMARK  Name = 
REMARK  3 active torsions:
REMARK  status: ('A' for Active; 'I' for Inactive)
REMARK    1  A    between atoms: C_2  and  C_4
REMARK    2  A    between atoms: C_4  and  N_5
REMARK    3  A    between atoms: C_67  and  C_68
REMARK                            x       y       z     vdW  Elec       q    Type
REMARK                         _______ _______ _______ _____ _____    ______ ____
ROOT
ATOM      1  N   UNL     1       6.734  -5.659  -2.493  0.00  0.00    +0.247 N 
ATOM      2  C   UNL     1       6.931  -6.494  -3.791  0.00  0.00    +0.146 C 
ATOM      3  C   UNL     1       8.413  -6.408  -4.002  0.00  0.00    +0.063 C 
ATOM      4  C   UNL     1       9.643  -7.464  -4.832  0.00  0.00    -0.022 C 
ATOM      5  C   UNL     1      11.238  -7.242  -3.767  0.00  0.00    -0.026 C 
ATOM      6  C   UNL     1      11.833  -7.075  -2.294  0.00  0.00    -0.008 A 
ATOM      7  C   UNL     1      10.711  -7.096  -1.360  0.00  0.00    -0.014 A 
ATOM      8  C   UNL     1      10.704  -8.609  -0.872  0.00  0.00    -0.004 A 
ATOM      9  C   UNL     1       9.458  -9.127  -1.255  0.00  0.00    -0.004 A 
ATOM     10  C   UNL     1       8.720  -8.017  -1.924  0.00  0.00    -0.017 A 
ATOM     11  C   UNL     1       9.472  -7.757  -3.057  0.00  0.00    -0.026 A 
ATOM     12  C   UNL     1      10.081  -9.081  -3.761  0.00  0.00    -0.005 A 
ATOM     13  C   UNL     1      11.172  -8.638  -4.984  0.00  0.00    -0.004 A 
ATOM     14  C   UNL     1      11.196  -6.704  -5.531  0.00  0.00    -0.023 A 
ATOM     15  C   UNL     1      11.549  -6.267  -7.211  0.00  0.00    -0.009 A 
ATOM     16  C   UNL     1      12.438  -7.726  -7.760  0.00  0.00    -0.023 A 
ATOM     17  C   UNL     1      12.217  -9.504  -6.833  0.00  0.00    -0.004 A 
ATOM     18  C   UNL     1      11.796 -10.837  -7.251  0.00  0.00    -0.005 A 
ATOM     19  C   UNL     1      12.501 -11.420  -8.270  0.00  0.00    -0.026 A 
ATOM     20  C   UNL     1      13.608 -12.086  -7.476  0.00  0.00    -0.009 A 
ATOM     21  C   UNL     1      14.625 -11.115  -7.520  0.00  0.00    -0.026 A 
ATOM     22  C   UNL     1      15.084 -10.590  -6.108  0.00  0.00    -0.005 A 
ATOM     23  C   UNL     1      14.914  -9.122  -5.803  0.00  0.00    -0.009 A 
ATOM     24  C   UNL     1      14.661  -8.901  -4.232  0.00  0.00    -0.005 A 
ATOM     25  C   UNL     1      13.794  -7.891  -3.605  0.00  0.00    -0.022 A 
ATOM     26  C   UNL     1      13.139  -7.866  -2.322  0.00  0.00    -0.005 A 
ATOM     27  C   UNL     1      13.132  -9.164  -1.786  0.00  0.00    -0.000 A 
ATOM     28  C   UNL     1      11.958  -9.548  -1.197  0.00  0.00    -0.000 A 
ATOM     29  C   UNL     1      11.903 -10.887  -1.670  0.00  0.00    -0.000 A 
ATOM     30  C   UNL     1      10.670 -11.355  -2.125  0.00  0.00    -0.000 A 
ATOM     31  C   UNL     1       9.628 -10.410  -2.064  0.00  0.00    -0.000 A 
ATOM     32  C   UNL     1       9.570 -10.271  -3.386  0.00  0.00    -0.000 A 
ATOM     33  C   UNL     1      10.097 -11.213  -4.182  0.00  0.00    -0.000 A 
ATOM     34  C   UNL     1      10.779 -10.855  -5.417  0.00  0.00    -0.000 A 
ATOM     35  C   UNL     1      11.559  -9.715  -5.643  0.00  0.00    -0.001 A 
ATOM     36  C   UNL     1      11.302 -11.693  -6.252  0.00  0.00    -0.000 A 
ATOM     37  C   UNL     1      12.028 -12.632  -5.528  0.00  0.00    -0.000 A 
ATOM     38  C   UNL     1      13.294 -12.571  -5.978  0.00  0.00    -0.001 A 
ATOM     39  C   UNL     1      13.917 -12.224  -4.758  0.00  0.00    -0.000 A 
ATOM     40  C   UNL     1      14.832 -11.188  -4.782  0.00  0.00    -0.000 A 
ATOM     41  C   UNL     1      14.711 -10.185  -3.658  0.00  0.00    -0.000 A 
ATOM     42  C   UNL     1      13.829 -10.239  -2.461  0.00  0.00    -0.000 A 
ATOM     43  C   UNL     1      13.037 -11.313  -2.416  0.00  0.00    -0.000 A 
ATOM     44  C   UNL     1      13.068 -12.264  -3.611  0.00  0.00    -0.000 A 
ATOM     45  C   UNL     1      11.878 -12.634  -4.093  0.00  0.00    -0.000 A 
ATOM     46  C   UNL     1      10.747 -12.041  -3.379  0.00  0.00    -0.000 A 
ATOM     47  C   UNL     1      12.906  -7.149  -4.442  0.00  0.00    +0.063 C 
ATOM     48  C   UNL     1      12.753  -7.739  -5.948  0.00  0.00    +0.059 C 
ATOM     49  C   UNL     1      14.158  -8.486  -6.709  0.00  0.00    -0.045 C 
ATOM     50  C   UNL     1      13.489  -9.090  -8.376  0.00  0.00    +0.055 C 
ATOM     51  C   UNL     1      11.322  -8.945  -8.540  0.00  0.00    -0.031 A 
ATOM     52  C   UNL     1      10.820  -8.197  -6.903  0.00  0.00    -0.028 A 
ATOM     53  C   UNL     1       9.510  -7.801  -6.422  0.00  0.00    -0.013 A 
ATOM     54  C   UNL     1       9.181  -6.481  -6.990  0.00  0.00    -0.027 A 
ATOM     55  C   UNL     1      10.179  -6.448  -8.142  0.00  0.00    -0.009 A 
ATOM     56  C   UNL     1      10.671  -7.905  -9.214  0.00  0.00    -0.027 A 
ATOM     57  C   UNL     1      12.095  -8.326  -9.549  0.00  0.00    +0.059 C 
ATOM     58  C   UNL     1      12.874 -10.224  -9.520  0.00  0.00    +0.040 C 
ATOM     59  C   UNL     1      14.273 -10.212  -8.870  0.00  0.00    +0.040 C 
ATOM     60  C   UNL     1       8.951  -5.640  -5.259  0.00  0.00    +0.049 C 
ATOM     61  C   UNL     1       9.993  -5.918  -4.080  0.00  0.00    +0.060 C 
ATOM     62  C   UNL     1       8.998  -6.566  -2.055  0.00  0.00    +0.086 C 
ATOM     63  C   UNL     1       7.997  -5.648  -1.425  0.00  0.00    +0.128 C 
ATOM     64  H   UNL     1       5.991  -6.139  -1.932  0.00  0.00    +0.204 HD
ENDROOT
BRANCH  63  65
ATOM     65  C   UNL     1       7.575  -6.025   0.006  0.00  0.00    +0.091 C 
ATOM     66  O   UNL     1       6.381  -6.447   0.063  0.00  0.00    -0.544 OA
ATOM     67  O   UNL     1       8.423  -5.806   0.908  0.00  0.00    -0.544 OA
ENDBRANCH  63  65
BRANCH   1  68
ATOM     68  C   UNL     1       6.158  -4.255  -2.717  0.00  0.00    +0.185 C 
BRANCH  68  70
ATOM     69  O   UNL     1       4.233  -5.186  -3.759  0.00  0.00    -0.544 OA
ATOM     70  C   UNL     1       4.879  -4.113  -3.590  0.00  0.00    +0.086 C 
ATOM     71  O   UNL     1       4.706  -2.967  -4.089  0.00  0.00    -0.544 OA
ENDBRANCH  68  70
ENDBRANCH   1  68
TORSDOF 3
