
 OpenBabel09132204463D

 71105  0  0  1  0  0  0  0  0999 V2000
   11.7390   -7.0210  -10.5430 N   0  0  0  0  0  4  0  0  0  0  0  0
   10.4320   -7.7580  -10.1310 C   0  0  0  0  0  2  0  0  0  0  0  0
   10.3040   -8.8000  -11.2020 C   0  0  1  0  0  0  0  0  0  0  0  0
    9.5140  -10.4380  -11.2940 C   0  0  1  0  0  0  0  0  0  0  0  0
   10.6710  -11.4440  -12.4680 C   0  0  2  0  0  0  0  0  0  0  0  0
   12.1780  -11.7390  -12.9080 C   0  0  1  0  0  3  0  0  0  0  0  0
   13.0480  -10.9030  -12.0860 C   0  0  2  0  0  3  0  0  0  0  0  0
   13.4940  -11.9050  -10.9360 C   0  0  1  0  0  3  0  0  0  0  0  0
   13.0300  -11.3410   -9.7380 C   0  0  1  0  0  3  0  0  0  0  0  0
   12.3520  -10.0630  -10.1010 C   0  0  2  0  0  3  0  0  0  0  0  0
   11.2690  -10.4700  -10.8620 C   0  0  1  0  0  0  0  0  0  0  0  0
   10.5640  -11.8270  -10.3320 C   0  0  2  0  0  3  0  0  0  0  0  0
    9.4150  -12.3620  -11.4610 C   0  0  0  0  0  2  0  0  0  0  0  0
    8.9220  -11.0900  -12.9380 C   0  0  1  0  0  3  0  0  0  0  0  0
    7.2760  -11.0950  -13.5930 C   0  0  1  0  0  3  0  0  0  0  0  0
    6.7370  -12.7460  -13.1420 C   0  0  2  0  0  0  0  0  0  0  0  0
    7.6030  -13.7590  -11.6280 C   0  0  2  0  0  3  0  0  0  0  0  0
    7.1270  -14.3540  -10.3830 C   0  0  1  0  0  3  0  0  0  0  0  0
    6.1330  -15.2910  -10.4840 C   0  0  2  0  0  3  0  0  0  0  0  0
    6.9680  -16.5400  -10.6900 C   0  0  0  0  0  0  0  0  0  0  0  0
    7.0050  -16.6390  -12.0920 C   0  0  0  0  0  0  0  0  0  0  0  0
    8.4540  -16.5930  -12.7090 C   0  0  0  0  0  0  0  0  0  0  0  0
    8.7890  -15.4720  -13.6620 C   0  0  2  0  0  3  0  0  0  0  0  0
   10.3490  -15.1010  -13.5670 C   0  0  0  0  0  0  0  0  0  0  0  0
   10.9540  -13.7670  -13.6950 C   0  0  0  0  0  0  0  0  0  0  0  0
   12.2000  -13.2370  -13.2020 C   0  0  0  0  0  0  0  0  0  0  0  0
   12.7000  -14.0940  -12.2070 C   0  0  0  0  0  0  0  0  0  0  0  0
   13.2130  -13.4710  -11.1020 C   0  0  0  0  0  0  0  0  0  0  0  0
   12.7020  -14.3420  -10.1020 C   0  0  0  0  0  0  0  0  0  0  0  0
   12.1680  -13.7560   -8.9550 C   0  0  0  0  0  0  0  0  0  0  0  0
   12.1970  -12.3490   -8.9500 C   0  0  2  0  0  3  0  0  0  0  0  0
   10.8780  -12.2420   -9.0890 C   0  0  2  0  0  3  0  0  0  0  0  0
   10.0870  -13.2830   -8.7910 C   0  0  1  0  0  3  0  0  0  0  0  0
    8.9020  -13.5740   -9.5840 C   0  0  1  0  0  3  0  0  0  0  0  0
    8.7490  -13.3880  -10.9620 C   0  0  2  0  0  3  0  0  0  0  0  0
    8.0740  -14.5430   -9.3630 C   0  0  2  0  0  3  0  0  0  0  0  0
    8.8110  -15.6960   -9.1150 C   0  0  1  0  0  3  0  0  0  0  0  0
    8.4330  -16.6000  -10.0360 C   0  0  0  0  0  0  0  0  0  0  0  0
    9.6940  -16.8000  -10.6410 C   0  0  0  0  0  0  0  0  0  0  0  0
    9.7480  -16.7800  -12.0220 C   0  0  0  0  0  0  0  0  0  0  0  0
   10.8900  -15.9900  -12.6190 C   0  0  2  0  0  3  0  0  0  0  0  0
   12.0350  -15.3480  -11.9190 C   0  0  0  0  0  0  0  0  0  0  0  0
   12.0080  -15.4840  -10.5910 C   0  0  0  0  0  0  0  0  0  0  0  0
   10.7910  -16.1740   -9.9770 C   0  0  0  0  0  0  0  0  0  0  0  0
   10.2350  -15.5540   -8.9320 C   0  0  0  0  0  0  0  0  0  0  0  0
   10.9020  -14.3030   -8.5700 C   0  0  0  0  0  0  0  0  0  0  0  0
   10.0900  -12.6300  -13.6950 C   0  0  1  0  0  3  0  0  0  0  0  0
    8.5630  -12.9470  -13.2420 C   0  0  1  0  0  0  0  0  0  0  0  0
    7.8600  -14.5060  -13.6760 C   0  0  2  0  0  3  0  0  0  0  0  0
    6.1430  -14.4550  -12.8750 C   0  0  1  0  0  0  0  0  0  0  0  0
    5.8650  -12.7590  -11.5360 C   0  0  1  0  0  0  0  0  0  0  0  0
    7.4920  -11.8480  -11.6600 C   0  0  1  0  0  3  0  0  0  0  0  0
    7.9110  -10.6020  -11.0460 C   0  0  2  0  0  3  0  0  0  0  0  0
    7.3620   -9.4830  -11.8320 C   0  0  2  0  0  3  0  0  0  0  0  0
    6.2670  -10.2250  -12.5920 C   0  0  2  0  0  3  0  0  0  0  0  0
    5.1850  -11.5930  -11.9060 C   0  0  1  0  0  3  0  0  0  0  0  0
    4.9170  -12.9360  -12.5700 C   0  0  0  0  0  2  0  0  0  0  0  0
    4.9370  -14.7890  -11.6890 C   0  0  1  0  0  3  0  0  0  0  0  0
    5.6630  -15.8010  -12.6000 C   0  0  2  0  0  3  0  0  0  0  0  0
    9.0990   -8.7090  -12.2010 C   0  0  2  0  0  3  0  0  0  0  0  0
   10.3260   -9.6400  -12.6290 C   0  0  2  0  0  0  0  0  0  0  0  0
   12.2750   -9.2950  -11.3670 C   0  0  2  0  0  0  0  0  0  0  0  0
   12.8740   -7.9230  -11.3380 C   0  0  2  0  0  3  0  0  0  0  0  0
   12.2450   -6.7820   -9.6570 H   0  0  0  0  0  0  0  0  0  0  0  0
   14.2690   -7.8330  -10.6950 C   0  0  0  0  0  0  0  0  0  0  0  0
   14.3310   -6.9420   -9.7960 O   0  0  0  0  0  1  0  0  0  0  0  0
   15.1510   -8.5860  -11.1810 O   0  0  0  0  0  0  0  0  0  0  0  0
   11.5210   -5.6550  -11.2060 C   0  0  0  0  0  2  0  0  0  0  0  0
   12.7110   -3.5950  -11.2490 O   0  0  0  0  0  0  0  0  0  0  0  0
   12.0830   -4.3910  -10.4940 C   0  0  0  0  0  0  0  0  0  0  0  0
   11.9160   -4.3730   -9.2440 O   0  0  0  0  0  1  0  0  0  0  0  0
  1  2  1  0  0  0  0
  1 64  1  0  0  0  0
  3  2  1  1  0  0  0
  4  3  1  0  0  0  0
  4 53  1  0  0  0  0
  4 11  1  0  0  0  0
  6  5  1  0  0  0  0
  6  7  1  0  0  0  0
  7 62  1  0  0  0  0
  7  8  1  0  0  0  0
  8  9  1  0  0  0  0
  9 31  1  0  0  0  0
 10  9  1  0  0  0  0
 11 12  1  0  0  0  0
 11 10  1  0  0  0  0
 12 32  1  0  0  0  0
 13 35  1  0  0  0  0
 13 12  1  0  0  0  0
 14  5  1  0  0  0  0
 15 16  1  0  0  0  0
 15 14  1  0  0  0  0
 15 55  1  0  0  0  0
 16 50  1  0  0  0  0
 16 51  1  0  0  0  0
 17 35  1  0  0  0  0
 17 18  1  0  0  0  0
 18 36  1  0  0  0  0
 19 18  1  0  0  0  0
 20 19  1  0  0  0  0
 20 38  1  0  0  0  0
 21 20  2  0  0  0  0
 22 21  1  0  0  0  0
 22 40  2  0  0  0  0
 23 24  1  0  0  0  0
 23 22  1  0  0  0  0
 24 41  1  0  0  0  0
 25 24  2  0  0  0  0
 25 26  1  0  0  0  0
 26  6  1  0  0  0  0
 26 27  2  0  0  0  0
 27 42  1  0  0  0  0
 27 28  1  0  0  0  0
 28  8  1  0  0  0  0
 28 29  2  0  0  0  0
 29 30  1  0  0  0  0
 30 31  1  0  0  0  0
 30 46  2  0  0  0  0
 32 31  1  0  0  0  0
 32 33  1  0  0  0  0
 33 46  1  0  0  0  0
 34 36  1  0  0  0  0
 34 33  1  0  0  0  0
 35 34  1  0  0  0  0
 36 37  1  0  0  0  0
 37 45  1  0  0  0  0
 38 37  1  0  0  0  0
 39 38  2  0  0  0  0
 39 44  1  0  0  0  0
 40 39  1  0  0  0  0
 41 40  1  0  0  0  0
 41 42  1  0  0  0  0
 42 43  2  0  0  0  0
 43 29  1  0  0  0  0
 43 44  1  0  0  0  0
 44 45  2  0  0  0  0
 45 46  1  0  0  0  0
 47 25  1  0  0  0  0
 47 48  1  0  0  0  0
 47  5  1  0  0  0  0
 48 16  1  0  0  0  0
 48 14  1  0  0  0  0
 49 23  1  0  0  0  0
 49 48  1  0  0  0  0
 49 50  1  0  0  0  0
 50 59  1  0  0  0  0
 50 58  1  0  0  0  0
 52 17  1  0  0  0  0
 52 51  1  0  0  0  0
 52 53  1  0  0  0  0
 54 53  1  0  0  0  0
 55 56  1  0  0  0  0
 55 54  1  0  0  0  0
 56 51  1  0  0  0  0
 57 56  1  0  0  0  0
 57 51  1  0  0  0  0
 58 19  1  0  0  0  0
 59 21  1  0  0  0  0
 59 58  1  0  0  0  0
 60 54  1  0  0  0  0
 60  3  1  0  0  0  0
 61  5  1  0  0  0  0
 61 60  1  0  0  0  0
 61  4  1  0  0  0  0
 61  3  1  0  0  0  0
 62 63  1  0  0  0  0
 62 11  1  0  0  0  0
 62 10  1  0  0  0  0
 63 65  1  0  0  0  0
 63  1  1  0  0  0  0
 65 66  1  0  0  0  0
 67 65  2  0  0  0  0
 68  1  1  0  0  0  0
 68 70  1  0  0  0  0
 69 70  2  0  0  0  0
 70 71  1  0  0  0  0
M  END
>  <minimizedAffinity>
-8.29876041

$$$$
