REMARK  Name = 
REMARK  8 active torsions:
REMARK  status: ('A' for Active; 'I' for Inactive)
REMARK    1  A    between atoms: C_1  and  N_2
REMARK    2  A    between atoms: N_2  and  S_3
REMARK    3  A    between atoms: S_3  and  N_6
REMARK    4  A    between atoms: N_6  and  C_7
REMARK    5  A    between atoms: C_17  and  C_18
REMARK    6  A    between atoms: C_19  and  O_20
REMARK    7  A    between atoms: N_27  and  N_28
REMARK    8  A    between atoms: N_28  and  C_29
REMARK                            x       y       z     vdW  Elec       q    Type
REMARK                         _______ _______ _______ _____ _____    ______ ____
ROOT
ATOM      1  C   UNL     1      -2.125   2.354   1.390  0.00  0.00    +0.051 A 
ATOM      2  C   UNL     1      -1.721   2.623   0.084  0.00  0.00    +0.029 A 
ATOM      3  C   UNL     1      -0.811   3.656  -0.168  0.00  0.00    +0.055 A 
ATOM      4  C   UNL     1      -0.317   4.448   0.875  0.00  0.00    +0.155 A 
ATOM      5  C   UNL     1      -0.797   4.205   2.149  0.00  0.00    +0.177 A 
ATOM      6  C   UNL     1      -1.684   3.161   2.432  0.00  0.00    +0.059 A 
ATOM      7  S   UNL     1      -0.244   5.247   3.428  0.00  0.00    +0.136 S 
ATOM      8  O   UNL     1      -1.382   6.060   3.794  0.00  0.00    -0.130 OA
ATOM      9  O   UNL     1       0.392   4.387   4.401  0.00  0.00    -0.130 OA
ATOM     10  N   UNL     1       0.867   6.173   2.760  0.00  0.00    -0.093 N 
ATOM     11  C   UNL     1       1.200   6.150   1.497  0.00  0.00    +0.308 C 
ATOM     12  N   UNL     1       0.632   5.372   0.591  0.00  0.00    -0.238 N 
ATOM     13  H   UNL     1       1.354   6.818   3.370  0.00  0.00    +0.326 HD
ATOM     14  H   UNL     1       0.970   5.454  -0.380  0.00  0.00    +0.311 HD
ENDROOT
BRANCH  11  15
ATOM     15  C   UNL     1       2.349   7.048   1.063  0.00  0.00    +0.171 A 
ATOM     16  C   UNL     1       3.001   7.885   1.891  0.00  0.00    +0.146 A 
ATOM     17  C   UNL     1       4.134   8.713   1.430  0.00  0.00    +0.043 A 
ATOM     18  C   UNL     1       4.687   9.751   2.201  0.00  0.00    +0.013 A 
ATOM     19  C   UNL     1       5.803  10.460   1.751  0.00  0.00    +0.001 A 
ATOM     20  C   UNL     1       6.375  10.153   0.523  0.00  0.00    +0.002 A 
ATOM     21  C   UNL     1       5.815   9.155  -0.272  0.00  0.00    +0.028 A 
ATOM     22  C   UNL     1       4.686   8.443   0.164  0.00  0.00    +0.075 A 
ATOM     23  N   UNL     1       4.048   7.486  -0.671  0.00  0.00    -0.229 N 
ATOM     24  C   UNL     1       2.822   6.921  -0.349  0.00  0.00    +0.287 A 
ATOM     25  O   UNL     1       2.135   6.256  -1.132  0.00  0.00    -0.265 OA
BRANCH  16  26
ATOM     26  O   UNL     1       2.656   7.934   3.237  0.00  0.00    -0.505 OA
ATOM     27  H   UNL     1       3.394   8.333   3.742  0.00  0.00    +0.292 HD
ENDBRANCH  16  26
BRANCH  23  28
ATOM     28  N   UNL     1       4.633   7.175  -1.928  0.00  0.00    -0.278 N 
ATOM     29  H   UNL     1       3.943   7.390  -2.653  0.00  0.00    +0.167 HD
BRANCH  28  30
ATOM     30  C   UNL     1       5.094   5.782  -1.980  0.00  0.00    +0.088 C 
ATOM     31  C   UNL     1       5.989   5.598  -3.228  0.00  0.00    +0.024 C 
ATOM     32  C   UNL     1       6.915   4.753  -2.323  0.00  0.00    +0.004 C 
ATOM     33  C   UNL     1       6.375   5.584  -1.137  0.00  0.00    +0.024 C 
ENDBRANCH  28  30
ENDBRANCH  23  28
ENDBRANCH  11  15
BRANCH   1  34
ATOM     34  N   UNL     1      -2.971   1.250   1.707  0.00  0.00    -0.207 N 
ATOM     35  H   UNL     1      -3.850   1.254   1.183  0.00  0.00    +0.175 HD
BRANCH  34  36
ATOM     36  S   UNL     1      -2.305  -0.293   1.503  0.00  0.00    +0.109 S 
ATOM     37  O   UNL     1      -1.782  -0.397   0.164  0.00  0.00    -0.138 OA
ATOM     38  O   UNL     1      -3.250  -1.238   2.039  0.00  0.00    -0.138 OA
BRANCH  36  40
ATOM     39  C   UNL     1       0.009  -1.231   2.382  0.00  0.00    +0.129 C 
ATOM     40  N   UNL     1      -1.026  -0.199   2.591  0.00  0.00    -0.180 NA
ATOM     41  H   UNL     1      -1.425  -0.276   3.529  0.00  0.00    +0.149 HD
ENDBRANCH  36  40
ENDBRANCH  34  36
ENDBRANCH   1  34
TORSDOF 7
