
 OpenBabel09122222393D

 41 45  0  0  1  0  0  0  0  0999 V2000
   10.6380    3.7220    4.1730 C   0  0  0  0  0  0  0  0  0  0  0  0
   11.0390    4.9660    4.6550 C   0  0  0  0  0  3  0  0  0  0  0  0
   11.0420    6.0770    3.8040 C   0  0  0  0  0  3  0  0  0  0  0  0
   10.6730    5.9530    2.4590 C   0  0  0  0  0  0  0  0  0  0  0  0
   10.3550    4.6900    1.9940 C   0  0  0  0  0  0  0  0  0  0  0  0
   10.3160    3.5690    2.8300 C   0  0  0  0  0  3  0  0  0  0  0  0
    9.9800    4.5280    0.3030 S   0  0  0  0  0  0  0  0  0  0  0  0
   11.0950    3.8180   -0.2820 O   0  0  0  0  0  0  0  0  0  0  0  0
    8.6420    3.9830    0.2390 O   0  0  0  0  0  0  0  0  0  0  0  0
    9.9540    6.0170   -0.2630 N   0  0  0  0  0  0  0  0  0  0  0  0
   10.2300    7.0870    0.4340 C   0  0  0  0  0  0  0  0  0  0  0  0
   10.6020    7.0750    1.7030 N   0  0  0  0  0  0  0  0  0  0  0  0
    9.6920    6.1340   -1.2340 H   0  0  0  0  0  0  0  0  0  0  0  0
   10.8090    7.9840    2.1430 H   0  0  0  0  0  0  0  0  0  0  0  0
   10.0620    8.4310   -0.2590 C   0  0  0  0  0  0  0  0  0  0  0  0
   10.2670    9.6170    0.3450 C   0  0  2  0  0  3  0  0  0  0  0  0
   10.1250   10.8960   -0.3800 C   0  0  0  0  0  0  0  0  0  0  0  0
   10.1120   12.1450    0.2670 C   0  0  0  0  0  3  0  0  0  0  0  0
   10.0450   13.3300   -0.4690 C   0  0  0  0  0  3  0  0  0  0  0  0
    9.9780   13.2880   -1.8550 C   0  0  0  0  0  3  0  0  0  0  0  0
    9.9490   12.0580   -2.5100 C   0  0  0  0  0  3  0  0  0  0  0  0
   10.0030   10.8590   -1.7820 C   0  0  0  0  0  0  0  0  0  0  0  0
    9.8830    9.5970   -2.4250 N   0  0  0  0  0  0  0  0  0  0  0  0
    9.7300    8.4150   -1.7160 C   0  0  0  0  0  0  0  0  0  0  0  0
    9.4110    7.3340   -2.2240 O   0  0  0  0  0  0  0  0  0  0  0  0
   10.6920    9.6550    1.6680 O   0  0  0  0  0  0  0  0  0  0  0  0
   11.0830   10.5330    1.8530 H   0  0  0  0  0  0  0  0  0  0  0  0
    9.8120    9.5560   -3.8440 N   0  0  0  0  0  0  0  0  0  0  0  0
   10.2810   10.3920   -4.2030 H   0  0  0  0  0  0  0  0  0  0  0  0
    8.4260    9.4390   -4.3120 C   0  0  0  0  0  3  0  0  0  0  0  0
    8.1780   10.5010   -5.4100 C   0  0  0  0  0  2  0  0  0  0  0  0
    7.4050    9.3980   -6.1700 C   0  0  0  0  0  2  0  0  0  0  0  0
    8.2990    8.3780   -5.4300 C   0  0  0  0  0  2  0  0  0  0  0  0
   10.5230    2.5830    5.0250 N   0  0  0  0  0  0  0  0  0  0  0  0
   11.4270    2.2220    5.3380 H   0  0  0  0  0  0  0  0  0  0  0  0
    9.5830    2.7780    6.4200 S   0  0  0  0  0  0  0  0  0  0  0  0
    8.4270    3.5740    6.0910 O   0  0  0  0  0  0  0  0  0  0  0  0
   10.4800    3.1250    7.4920 O   0  0  0  0  0  0  0  0  0  0  0  0
    8.8030    0.8670    8.0780 C   0  0  0  0  0  1  0  0  0  0  0  0
    9.1050    1.1850    6.6680 N   0  0  0  0  0  0  0  0  0  0  0  0
    9.8600    0.5890    6.3200 H   0  0  0  0  0  0  0  0  0  0  0  0
  1  2  1  0  0  0  0
  1 34  1  0  0  0  0
  3  2  2  0  0  0  0
  4  3  1  0  0  0  0
  5  4  2  0  0  0  0
  5  6  1  0  0  0  0
  6  1  2  0  0  0  0
  7  5  1  0  0  0  0
  8  7  2  0  0  0  0
  9  7  2  0  0  0  0
 10  7  1  0  0  0  0
 10 11  1  0  0  0  0
 11 12  1  0  0  0  0
 12 14  1  0  0  0  0
 12  4  1  0  0  0  0
 13 10  1  0  0  0  0
 15 16  1  0  0  0  0
 15 11  2  0  0  0  0
 16 26  1  6  0  0  0
 17 18  1  0  0  0  0
 17 16  1  0  0  0  0
 19 18  2  0  0  0  0
 20 19  1  0  0  0  0
 21 20  2  0  0  0  0
 21 22  1  0  0  0  0
 22 17  2  0  0  0  0
 23 22  1  0  0  0  0
 23 24  1  0  0  0  0
 24 15  1  0  0  0  0
 25 24  2  0  0  0  0
 26 27  1  0  0  0  0
 28 23  1  0  0  0  0
 29 28  1  0  0  0  0
 30 28  1  0  0  0  0
 31 30  1  0  0  0  0
 32 33  1  0  0  0  0
 32 31  1  0  0  0  0
 33 30  1  0  0  0  0
 34 35  1  0  0  0  0
 34 36  1  0  0  0  0
 36 40  1  0  0  0  0
 36 38  2  0  0  0  0
 37 36  2  0  0  0  0
 40 39  1  0  0  0  0
 41 40  1  0  0  0  0
M  END
>  <minimizedAffinity>
-6.32612991

$$$$
