
 OpenBabel09122222393D

 41 45  0  0  1  0  0  0  0  0999 V2000
   10.6350    3.8100    2.3260 C   0  0  0  0  0  0  0  0  0  0  0  0
   10.3770    3.3830    1.0260 C   0  0  0  0  0  3  0  0  0  0  0  0
   10.0240    4.3130    0.0410 C   0  0  0  0  0  3  0  0  0  0  0  0
    9.8980    5.6720    0.3490 C   0  0  0  0  0  0  0  0  0  0  0  0
   10.0850    6.0520    1.6660 C   0  0  0  0  0  0  0  0  0  0  0  0
   10.4660    5.1480    2.6630 C   0  0  0  0  0  3  0  0  0  0  0  0
    9.8440    7.7300    2.0600 S   0  0  0  0  0  0  0  0  0  0  0  0
    8.6260    7.7810    2.8370 O   0  0  0  0  0  0  0  0  0  0  0  0
   11.0940    8.1960    2.6160 O   0  0  0  0  0  0  0  0  0  0  0  0
    9.6030    8.4550    0.6620 N   0  0  0  0  0  0  0  0  0  0  0  0
    9.5450    7.8510   -0.4950 C   0  0  2  0  0  3  0  0  0  0  0  0
    9.6470    6.5430   -0.6580 N   0  0  0  0  0  0  0  0  0  0  0  0
    9.4980    9.4620    0.6800 H   0  0  0  0  0  0  0  0  0  0  0  0
    9.5700    6.1790   -1.6200 H   0  0  0  0  0  0  0  0  0  0  0  0
    9.3980    8.7250   -1.7310 C   0  0  0  0  0  0  0  0  0  0  0  0
    8.7240    8.3550   -2.8360 C   0  0  0  0  0  0  0  0  0  0  0  0
    8.5790    9.2540   -3.9990 C   0  0  0  0  0  0  0  0  0  0  0  0
    8.0810    8.8230   -5.2420 C   0  0  0  0  0  3  0  0  0  0  0  0
    7.8970    9.7260   -6.2910 C   0  0  0  0  0  3  0  0  0  0  0  0
    8.2190   11.0670   -6.1210 C   0  0  0  0  0  3  0  0  0  0  0  0
    8.7520   11.5030   -4.9100 C   0  0  0  0  0  3  0  0  0  0  0  0
    8.9520   10.6030   -3.8510 C   0  0  0  0  0  0  0  0  0  0  0  0
    9.5780   11.0110   -2.6420 N   0  0  0  0  0  0  0  0  0  0  0  0
    9.9710   10.1040   -1.6670 C   0  0  0  0  0  0  0  0  0  0  0  0
   10.7000   10.3840   -0.7100 O   0  0  0  0  0  0  0  0  0  0  0  0
    8.0810    7.1230   -2.8730 O   0  0  0  0  0  0  0  0  0  0  0  0
    7.4060    7.1360   -3.5820 H   0  0  0  0  0  0  0  0  0  0  0  0
    9.9090   12.3820   -2.4710 N   0  0  0  0  0  0  0  0  0  0  0  0
   10.8980   12.4330   -2.2110 H   0  0  0  0  0  0  0  0  0  0  0  0
    9.0320   13.0310   -1.4880 C   0  0  0  0  0  3  0  0  0  0  0  0
    8.8170   14.5050   -1.9060 C   0  0  0  0  0  2  0  0  0  0  0  0
    7.3370   14.3030   -1.5100 C   0  0  0  0  0  2  0  0  0  0  0  0
    7.5410   12.8050   -1.8320 C   0  0  0  0  0  2  0  0  0  0  0  0
   11.0950    2.9160    3.3380 N   0  0  0  0  0  0  0  0  0  0  0  0
   11.6550    3.3780    4.0590 H   0  0  0  0  0  0  0  0  0  0  0  0
    9.9070    2.0300    4.1570 S   0  0  0  0  0  0  0  0  0  0  0  0
    9.1580    1.2620    3.1950 O   0  0  0  0  0  0  0  0  0  0  0  0
    9.2760    2.9270    5.0900 O   0  0  0  0  0  0  0  0  0  0  0  0
   10.3760   -0.3890    5.1250 C   0  0  0  0  0  1  0  0  0  0  0  0
   10.8870    0.9940    5.0500 N   0  0  0  0  0  0  0  0  0  0  0  0
   10.9720    1.3970    5.9860 H   0  0  0  0  0  0  0  0  0  0  0  0
  1  6  1  0  0  0  0
  1 34  1  0  0  0  0
  2  1  2  0  0  0  0
  3  4  2  0  0  0  0
  3  2  1  0  0  0  0
  4  5  1  0  0  0  0
  5  7  1  0  0  0  0
  5  6  2  0  0  0  0
  7  9  2  0  0  0  0
  7  8  2  0  0  0  0
 10 13  1  0  0  0  0
 10  7  1  0  0  0  0
 11 15  1  6  0  0  0
 11 10  1  0  0  0  0
 12 11  1  0  0  0  0
 12  4  1  0  0  0  0
 14 12  1  0  0  0  0
 15 24  1  0  0  0  0
 16 15  2  0  0  0  0
 17 22  1  0  0  0  0
 17 16  1  0  0  0  0
 18 17  2  0  0  0  0
 19 20  2  0  0  0  0
 19 18  1  0  0  0  0
 20 21  1  0  0  0  0
 21 22  2  0  0  0  0
 22 23  1  0  0  0  0
 23 28  1  0  0  0  0
 23 24  1  0  0  0  0
 24 25  2  0  0  0  0
 26 16  1  0  0  0  0
 27 26  1  0  0  0  0
 28 29  1  0  0  0  0
 28 30  1  0  0  0  0
 31 32  1  0  0  0  0
 31 30  1  0  0  0  0
 33 32  1  0  0  0  0
 33 30  1  0  0  0  0
 34 35  1  0  0  0  0
 34 36  1  0  0  0  0
 36 40  1  0  0  0  0
 36 38  2  0  0  0  0
 37 36  2  0  0  0  0
 40 39  1  0  0  0  0
 40 41  1  0  0  0  0
M  END
>  <minimizedAffinity>
-5.97501755

$$$$
