REMARK  Name = 
REMARK  8 active torsions:
REMARK  status: ('A' for Active; 'I' for Inactive)
REMARK    1  A    between atoms: C_1  and  C_2
REMARK    2  A    between atoms: C_2  and  C_3
REMARK    3  A    between atoms: C_2  and  C_4
REMARK    4  A    between atoms: C_4  and  C_5
REMARK    5  A    between atoms: C_5  and  N_6
REMARK    6  A    between atoms: C_9  and  C_10
REMARK    7  A    between atoms: C_17  and  O_18
REMARK    8  A    between atoms: C_23  and  O_24
REMARK                            x       y       z     vdW  Elec       q    Type
REMARK                         _______ _______ _______ _____ _____    ______ ____
ROOT
ATOM      1  N   UNL     1      -2.606   2.787   0.595  0.00  0.00    -0.292 N 
ATOM      2  C   UNL     1      -1.400   2.309   1.056  0.00  0.00    +0.271 A 
ATOM      3  O   UNL     1      -1.227   1.147   1.436  0.00  0.00    -0.267 OA
ATOM      4  C   UNL     1      -0.226   3.239   1.124  0.00  0.00    +0.170 A 
ATOM      5  C   UNL     1      -0.393   4.517   0.735  0.00  0.00    +0.148 A 
ATOM      6  C   UNL     1      -1.674   4.992   0.188  0.00  0.00    +0.060 A 
ATOM      7  C   UNL     1      -1.858   6.277  -0.345  0.00  0.00    +0.016 A 
ATOM      8  C   UNL     1      -3.104   6.666  -0.829  0.00  0.00    +0.021 A 
ATOM      9  C   UNL     1      -4.135   5.751  -0.777  0.00  0.00    +0.113 A 
ATOM     10  N   UNL     1      -3.989   4.500  -0.300  0.00  0.00    -0.237 NA
ATOM     11  C   UNL     1      -2.770   4.124   0.157  0.00  0.00    +0.147 A 
ENDROOT
BRANCH   4  12
ATOM     12  C   UNL     1       1.077   2.672   1.647  0.00  0.00    +0.308 C 
ATOM     13  N   UNL     1       1.150   1.420   2.026  0.00  0.00    -0.131 N 
ATOM     14  S   UNL     1       2.444   0.669   2.604  0.00  0.00    +0.141 S 
ATOM     15  O   UNL     1       2.225   0.344   4.000  0.00  0.00    -0.129 OA
ATOM     16  O   UNL     1       2.844  -0.375   1.681  0.00  0.00    -0.129 OA
ATOM     17  C   UNL     1       3.761   1.837   2.595  0.00  0.00    +0.178 A 
ATOM     18  C   UNL     1       5.030   1.439   3.032  0.00  0.00    +0.080 A 
ATOM     19  C   UNL     1       6.054   2.374   3.017  0.00  0.00    +0.119 A 
ATOM     20  C   UNL     1       5.822   3.674   2.580  0.00  0.00    +0.049 A 
ATOM     21  C   UNL     1       4.547   4.050   2.147  0.00  0.00    +0.054 A 
ATOM     22  C   UNL     1       3.498   3.127   2.150  0.00  0.00    +0.148 A 
ATOM     23  N   UNL     1       2.227   3.489   1.720  0.00  0.00    -0.200 N 
ATOM     24  H   UNL     1       0.309   0.855   1.954  0.00  0.00    +0.339 HD
ATOM     25  H   UNL     1       2.089   4.447   1.392  0.00  0.00    +0.298 HD
BRANCH  19  26
ATOM     26  O   UNL     1       7.314   2.062   3.426  0.00  0.00    -0.507 OA
ATOM     27  H   UNL     1       7.350   1.130   3.702  0.00  0.00    +0.292 HD
ENDBRANCH  19  26
ENDBRANCH   4  12
BRANCH   5  28
ATOM     28  O   UNL     1       0.638   5.438   0.865  0.00  0.00    -0.505 OA
ATOM     29  H   UNL     1       0.256   6.325   0.999  0.00  0.00    +0.292 HD
ENDBRANCH   5  28
BRANCH   1  30
ATOM     30  C   UNL     1      -3.765   1.889   0.522  0.00  0.00    +0.127 C 
BRANCH  30  31
ATOM     31  C   UNL     1      -4.044   1.352  -0.892  0.00  0.00    +0.025 C 
BRANCH  31  33
ATOM     32  C   UNL     1      -2.928  -0.933  -0.720  0.00  0.00    +0.007 C 
ATOM     33  C   UNL     1      -2.968   0.406  -1.460  0.00  0.00    -0.016 C 
ATOM     34  C   UNL     1      -3.233   0.155  -2.948  0.00  0.00    +0.007 C 
ENDBRANCH  31  33
ENDBRANCH  30  31
ENDBRANCH   1  30
TORSDOF 6
