
 OpenBabel09122222393D

 34 37  0  0  1  0  0  0  0  0999 V2000
   10.6800    4.7080    1.7920 N   0  0  0  0  0  0  0  0  0  0  0  0
   10.4640    3.3560    1.9430 C   0  0  0  0  0  0  0  0  0  0  0  0
   10.3140    2.5790    0.9960 O   0  0  0  0  0  0  0  0  0  0  0  0
   10.3870    2.7820    3.3260 C   0  0  0  0  0  0  0  0  0  0  0  0
   10.5270    3.6120    4.3770 C   0  0  1  0  0  3  0  0  0  0  0  0
   10.8180    5.0420    4.1930 C   0  0  0  0  0  0  0  0  0  0  0  0
   11.0950    5.9180    5.2540 C   0  0  0  0  0  3  0  0  0  0  0  0
   11.3430    7.2650    5.0070 C   0  0  0  0  0  3  0  0  0  0  0  0
   11.3190    7.7010    3.6990 C   0  0  0  0  0  3  0  0  0  0  0  0
   11.0860    6.8850    2.6530 N   0  0  0  0  0  0  0  0  0  0  0  0
   10.8580    5.5720    2.8990 C   0  0  0  0  0  0  0  0  0  0  0  0
   10.1380    1.2930    3.4440 C   0  0  0  0  0  0  0  0  0  0  0  0
   10.1970    0.7020    4.6120 N   0  0  0  0  0  0  0  0  0  0  0  0
    9.9650   -0.8570    4.9080 S   0  0  0  0  0  0  0  0  0  0  0  0
   11.2160   -1.4550    5.3310 O   0  0  0  0  0  0  0  0  0  0  0  0
    8.7820   -1.0170    5.7310 O   0  0  0  0  0  0  0  0  0  0  0  0
    9.5760   -1.6190    3.3690 C   0  0  0  0  0  0  0  0  0  0  0  0
    9.3000   -2.9910    3.3370 C   0  0  0  0  0  3  0  0  0  0  0  0
    8.9960   -3.5720    2.1150 C   0  0  0  0  0  0  0  0  0  0  0  0
    8.9690   -2.8080    0.9530 C   0  0  0  0  0  3  0  0  0  0  0  0
    9.2470   -1.4390    1.0080 C   0  0  0  0  0  3  0  0  0  0  0  0
    9.5550   -0.8280    2.2270 C   0  0  0  0  0  0  0  0  0  0  0  0
    9.8310    0.5320    2.2940 N   0  0  0  0  0  0  0  0  0  0  0  0
   10.4110    1.2770    5.4210 H   0  0  0  0  0  0  0  0  0  0  0  0
    9.7900    1.0710    1.4270 H   0  0  0  0  0  0  0  0  0  0  0  0
    8.7170   -4.8990    2.0030 O   0  0  0  0  0  0  0  0  0  0  0  0
    8.7630   -5.3210    2.8790 H   0  0  0  0  0  0  0  0  0  0  0  0
   10.3720    3.1430    5.6750 O   0  0  0  0  0  0  0  0  0  0  0  0
   10.0410    3.8680    6.2360 H   0  0  0  0  0  0  0  0  0  0  0  0
   10.7590    5.2860    0.4440 C   0  0  0  0  0  2  0  0  0  0  0  0
    9.5250    6.1160    0.0540 C   0  0  0  0  0  2  0  0  0  0  0  0
    9.9260    7.7480   -1.8630 C   0  0  0  0  0  1  0  0  0  0  0  0
    9.8140    7.5760   -0.3460 C   0  0  0  0  0  3  0  0  0  0  0  0
    8.7050    8.4880    0.1870 C   0  0  0  0  0  1  0  0  0  0  0  0
  1  2  1  0  0  0  0
  1 11  1  0  0  0  0
  2  4  1  0  0  0  0
  3  2  2  0  0  0  0
  4 12  2  0  0  0  0
  4  5  1  0  0  0  0
  5 28  1  6  0  0  0
  6  5  1  0  0  0  0
  6  7  1  0  0  0  0
  8  7  2  0  0  0  0
  9  8  1  0  0  0  0
 10 11  1  0  0  0  0
 10  9  2  0  0  0  0
 11  6  2  0  0  0  0
 12 13  1  0  0  0  0
 13 14  1  0  0  0  0
 13 24  1  0  0  0  0
 14 15  2  0  0  0  0
 14 16  2  0  0  0  0
 17 14  1  0  0  0  0
 18 17  1  0  0  0  0
 19 18  2  0  0  0  0
 20 21  2  0  0  0  0
 20 19  1  0  0  0  0
 21 22  1  0  0  0  0
 22 23  1  0  0  0  0
 22 17  2  0  0  0  0
 23 12  1  0  0  0  0
 25 23  1  0  0  0  0
 26 19  1  0  0  0  0
 26 27  1  0  0  0  0
 28 29  1  0  0  0  0
 30  1  1  0  0  0  0
 31 30  1  0  0  0  0
 32 33  1  0  0  0  0
 33 31  1  0  0  0  0
 33 34  1  0  0  0  0
M  END
>  <minimizedAffinity>
-5.42996454

$$$$
