REMARK  Name = 
REMARK  6 active torsions:
REMARK  status: ('A' for Active; 'I' for Inactive)
REMARK    1  A    between atoms: C_2  and  C_3
REMARK    2  A    between atoms: C_4  and  C_5
REMARK    3  A    between atoms: C_13  and  S_14
REMARK    4  A    between atoms: S_14  and  C_15
REMARK    5  A    between atoms: C_15  and  C_16
REMARK    6  A    between atoms: C_21  and  C_22
REMARK                            x       y       z     vdW  Elec       q    Type
REMARK                         _______ _______ _______ _____ _____    ______ ____
ROOT
ATOM      1  C   UNL     1       3.714   0.068   0.031  0.00  0.00    +0.142 A 
ATOM      2  C   UNL     1       4.482   1.126   0.350  0.00  0.00    +0.096 A 
ATOM      3  N   UNL     1       5.860   1.123   0.285  0.00  0.00    -0.222 NA
ATOM      4  C   UNL     1       6.430   0.061  -0.171  0.00  0.00    +0.170 A 
ATOM      5  N   UNL     1       5.758  -1.038  -0.593  0.00  0.00    -0.301 N 
ATOM      6  C   UNL     1       4.405  -1.141  -0.462  0.00  0.00    +0.270 A 
ATOM      7  O   UNL     1       3.817  -2.177  -0.749  0.00  0.00    -0.266 OA
ATOM      8  H   UNL     1       6.251  -1.829  -0.974  0.00  0.00    +0.171 HD
ENDROOT
BRANCH   2   9
ATOM      9  C   UNL     1       3.866   2.420   0.715  0.00  0.00    +0.002 A 
ATOM     10  C   UNL     1       3.156   2.589   1.911  0.00  0.00    +0.011 A 
ATOM     11  C   UNL     1       2.567   3.821   2.213  0.00  0.00    +0.016 A 
ATOM     12  C   UNL     1       2.694   4.888   1.324  0.00  0.00    +0.018 A 
ATOM     13 BR   UNL     1       1.893   6.551   1.732  0.00  0.00    -0.050 Br
ATOM     14  C   UNL     1       3.409   4.739   0.139  0.00  0.00    +0.016 A 
ATOM     15  C   UNL     1       3.997   3.508  -0.163  0.00  0.00    +0.011 A 
ENDBRANCH   2   9
BRANCH   1  17
ATOM     16  N   UNL     1       0.933   0.068   0.031  0.00  0.00    -0.191 NA
ATOM     17  C   UNL     1       2.194   0.068   0.031  0.00  0.00    +0.107 C 
ENDBRANCH   1  17
BRANCH   4  18
ATOM     18  S   UNL     1       8.153  -0.017  -0.328  0.00  0.00    -0.083 S 
BRANCH  18  19
ATOM     19  C   UNL     1       8.589  -1.484   0.637  0.00  0.00    +0.113 C 
BRANCH  19  20
ATOM     20  C   UNL     1       7.802  -1.701   1.912  0.00  0.00    -0.026 A 
ATOM     21  C   UNL     1       6.907  -2.792   1.954  0.00  0.00    +0.005 A 
ATOM     22  C   UNL     1       6.122  -3.043   3.077  0.00  0.00    +0.000 A 
ATOM     23  C   UNL     1       6.218  -2.214   4.185  0.00  0.00    +0.001 A 
ATOM     24  C   UNL     1       7.109  -1.142   4.174  0.00  0.00    +0.012 A 
ATOM     25  C   UNL     1       7.924  -0.875   3.054  0.00  0.00    +0.059 A 
BRANCH  25  26
ATOM     26  C   UNL     1       8.880   0.301   3.136  0.00  0.00    +0.418 C 
ATOM     27  F   UNL     1       8.368   1.436   2.593  0.00  0.00    -0.166 F 
ATOM     28  F   UNL     1       9.209   0.625   4.421  0.00  0.00    -0.166 F 
ATOM     29  F   UNL     1      10.069   0.076   2.513  0.00  0.00    -0.166 F 
ENDBRANCH  25  26
ENDBRANCH  19  20
ENDBRANCH  18  19
ENDBRANCH   4  18
TORSDOF 6
