
 OpenBabel09122222393D

 29 31  0  0  0  0  0  0  0  0999 V2000
   10.2220    2.4100    2.5160 C   0  0  0  0  0  0  0  0  0  0  0  0
   10.9810    3.1740    1.7100 C   0  0  0  0  0  0  0  0  0  0  0  0
   11.2800    2.8520    0.4020 N   0  0  0  0  0  0  0  0  0  0  0  0
   10.7410    1.7870   -0.0840 C   0  0  0  0  0  0  0  0  0  0  0  0
    9.9000    0.9800    0.6080 N   0  0  0  0  0  0  0  0  0  0  0  0
    9.6430    1.1830    1.9310 C   0  0  0  0  0  0  0  0  0  0  0  0
    8.9660    0.3900    2.5750 O   0  0  0  0  0  0  0  0  0  0  0  0
    9.4780    0.1780    0.1690 H   0  0  0  0  0  0  0  0  0  0  0  0
   11.4810    4.4880    2.1710 C   0  0  0  0  0  0  0  0  0  0  0  0
   12.7030    4.6190    2.8440 C   0  0  0  0  0  3  0  0  0  0  0  0
   13.1330    5.8740    3.2850 C   0  0  0  0  0  3  0  0  0  0  0  0
   12.3470    7.0010    3.0470 C   0  0  0  0  0  0  0  0  0  0  0  0
   12.9280    8.6960    3.6490 Br  0  0  0  0  0  0  0  0  0  0  0  0
   11.1370    6.8880    2.3670 C   0  0  0  0  0  3  0  0  0  0  0  0
   10.7070    5.6340    1.9260 C   0  0  0  0  0  3  0  0  0  0  0  0
    9.4950    3.0790    5.1160 N   0  0  0  0  0  1  0  0  0  0  0  0
    9.8250    2.7750    3.9370 C   0  0  0  0  0  2  0  0  0  0  0  0
   11.0250    1.3280   -1.7290 S   0  0  0  0  0  0  0  0  0  0  0  0
   10.4740   -0.3950   -1.7770 C   0  0  0  0  0  2  0  0  0  0  0  0
   11.5620   -1.4390   -1.9090 C   0  0  0  0  0  0  0  0  0  0  0  0
   12.6430   -1.1560   -2.7720 C   0  0  0  0  0  3  0  0  0  0  0  0
   13.6690   -2.0760   -2.9740 C   0  0  0  0  0  3  0  0  0  0  0  0
   13.6420   -3.2960   -2.3140 C   0  0  0  0  0  3  0  0  0  0  0  0
   12.5950   -3.5900   -1.4420 C   0  0  0  0  0  3  0  0  0  0  0  0
   11.5510   -2.6700   -1.2110 C   0  0  0  0  0  0  0  0  0  0  0  0
   10.4610   -3.0640   -0.2310 C   0  0  0  0  0  0  0  0  0  0  0  0
    9.2360   -3.1530   -0.8110 F   0  0  0  0  0  0  0  0  0  0  0  0
   10.6840   -4.2820    0.3440 F   0  0  0  0  0  0  0  0  0  0  0  0
   10.3330   -2.1990    0.8130 F   0  0  0  0  0  0  0  0  0  0  0  0
  1 17  1  0  0  0  0
  2  9  1  0  0  0  0
  2  1  2  0  0  0  0
  3  2  1  0  0  0  0
  4  3  2  0  0  0  0
  4  5  1  0  0  0  0
  5  6  1  0  0  0  0
  6  1  1  0  0  0  0
  6  7  2  0  0  0  0
  8  5  1  0  0  0  0
  9 10  1  0  0  0  0
 10 11  2  0  0  0  0
 12 11  1  0  0  0  0
 12 13  1  0  0  0  0
 14 12  2  0  0  0  0
 15  9  2  0  0  0  0
 15 14  1  0  0  0  0
 17 16  1  0  0  0  0
 18  4  1  0  0  0  0
 19 18  1  0  0  0  0
 20 19  1  0  0  0  0
 20 25  1  0  0  0  0
 21 20  2  0  0  0  0
 22 21  1  0  0  0  0
 22 23  2  0  0  0  0
 23 24  1  0  0  0  0
 24 25  2  0  0  0  0
 25 26  1  0  0  0  0
 26 28  1  0  0  0  0
 26 29  1  0  0  0  0
 27 26  1  0  0  0  0
M  END
>  <minimizedAffinity>
-7.23119354

$$$$
