
 OpenBabel09122222393D

 29 31  0  0  0  0  0  0  0  0999 V2000
    6.4720   -5.2570    2.0850 C   0  0  0  0  0  0  0  0  0  0  0  0
    6.6710   -4.1640    2.8430 C   0  0  0  0  0  0  0  0  0  0  0  0
    7.7760   -3.3440    2.7340 N   0  0  0  0  0  0  0  0  0  0  0  0
    8.6260   -3.6160    1.8050 C   0  0  0  0  0  0  0  0  0  0  0  0
    8.4940   -4.6450    0.9330 N   0  0  0  0  0  0  0  0  0  0  0  0
    7.4820   -5.5520    1.0480 C   0  0  0  0  0  0  0  0  0  0  0  0
    7.4280   -6.5370    0.3220 O   0  0  0  0  0  0  0  0  0  0  0  0
    9.1710   -4.7920    0.2030 H   0  0  0  0  0  0  0  0  0  0  0  0
    5.6410   -3.7170    3.8050 C   0  0  0  0  0  0  0  0  0  0  0  0
    4.3430   -3.3820    3.3950 C   0  0  0  0  0  3  0  0  0  0  0  0
    3.4010   -2.9410    4.3300 C   0  0  0  0  0  3  0  0  0  0  0  0
    3.7520   -2.8420    5.6760 C   0  0  0  0  0  0  0  0  0  0  0  0
    2.4770   -2.2410    6.9370 Br  0  0  0  0  0  0  0  0  0  0  0  0
    5.0320   -3.1860    6.1000 C   0  0  0  0  0  3  0  0  0  0  0  0
    5.9740   -3.6260    5.1660 C   0  0  0  0  0  3  0  0  0  0  0  0
    4.2060   -6.8670    2.1860 N   0  0  0  0  0  1  0  0  0  0  0  0
    5.2330   -6.1370    2.1400 C   0  0  0  0  0  2  0  0  0  0  0  0
   10.0210   -2.6170    1.5670 S   0  0  0  0  0  0  0  0  0  0  0  0
    9.8210   -2.0270   -0.1320 C   0  0  0  0  0  2  0  0  0  0  0  0
   11.0220   -2.1890   -1.0390 C   0  0  0  0  0  0  0  0  0  0  0  0
   11.6840   -3.4360   -1.0370 C   0  0  0  0  0  3  0  0  0  0  0  0
   12.8160   -3.6580   -1.8180 C   0  0  0  0  0  3  0  0  0  0  0  0
   13.3080   -2.6410   -2.6230 C   0  0  0  0  0  3  0  0  0  0  0  0
   12.6600   -1.4070   -2.6560 C   0  0  0  0  0  3  0  0  0  0  0  0
   11.5050   -1.1630   -1.8840 C   0  0  0  0  0  0  0  0  0  0  0  0
   10.8520    0.2030   -1.9970 C   0  0  0  0  0  0  0  0  0  0  0  0
    9.6090    0.1500   -2.5410 F   0  0  0  0  0  0  0  0  0  0  0  0
   10.6970    0.8150   -0.7860 F   0  0  0  0  0  0  0  0  0  0  0  0
   11.5670    1.0840   -2.7490 F   0  0  0  0  0  0  0  0  0  0  0  0
  1 17  1  0  0  0  0
  1  2  2  0  0  0  0
  2  9  1  0  0  0  0
  3  2  1  0  0  0  0
  4  3  2  0  0  0  0
  5  6  1  0  0  0  0
  5  4  1  0  0  0  0
  6  1  1  0  0  0  0
  7  6  2  0  0  0  0
  8  5  1  0  0  0  0
  9 15  1  0  0  0  0
 10  9  2  0  0  0  0
 10 11  1  0  0  0  0
 11 12  2  0  0  0  0
 12 14  1  0  0  0  0
 12 13  1  0  0  0  0
 15 14  2  0  0  0  0
 17 16  1  0  0  0  0
 18  4  1  0  0  0  0
 19 18  1  0  0  0  0
 20 21  1  0  0  0  0
 20 19  1  0  0  0  0
 22 21  2  0  0  0  0
 23 22  1  0  0  0  0
 24 23  2  0  0  0  0
 24 25  1  0  0  0  0
 25 20  2  0  0  0  0
 26 25  1  0  0  0  0
 26 28  1  0  0  0  0
 27 26  1  0  0  0  0
 29 26  1  0  0  0  0
M  END
>  <minimizedAffinity>
-7.83659506

$$$$
