
 OpenBabel09122222393D

 29 31  0  0  0  0  0  0  0  0999 V2000
    6.4000   -5.2620    2.1910 C   0  0  0  0  0  0  0  0  0  0  0  0
    6.6380   -4.1670    2.9360 C   0  0  0  0  0  0  0  0  0  0  0  0
    7.7560   -3.3710    2.7970 N   0  0  0  0  0  0  0  0  0  0  0  0
    8.5800   -3.6660    1.8520 C   0  0  0  0  0  0  0  0  0  0  0  0
    8.4080   -4.6990    0.9910 N   0  0  0  0  0  0  0  0  0  0  0  0
    7.3810   -5.5840    1.1350 C   0  0  0  0  0  0  0  0  0  0  0  0
    7.2910   -6.5730    0.4180 O   0  0  0  0  0  0  0  0  0  0  0  0
    9.0660   -4.8650    0.2470 H   0  0  0  0  0  0  0  0  0  0  0  0
    5.6380   -3.6920    3.9170 C   0  0  0  0  0  0  0  0  0  0  0  0
    5.9310   -3.5970    5.2840 C   0  0  0  0  0  3  0  0  0  0  0  0
    4.9530   -3.1650    6.1860 C   0  0  0  0  0  3  0  0  0  0  0  0
    3.6840   -2.8210    5.7220 C   0  0  0  0  0  0  0  0  0  0  0  0
    2.3630   -2.2420    6.9440 Br  0  0  0  0  0  0  0  0  0  0  0  0
    3.3830   -2.8960    4.3650 C   0  0  0  0  0  3  0  0  0  0  0  0
    4.3600   -3.3280    3.4640 C   0  0  0  0  0  3  0  0  0  0  0  0
    4.1050   -6.8240    2.3540 N   0  0  0  0  0  1  0  0  0  0  0  0
    5.1450   -6.1160    2.2800 C   0  0  0  0  0  2  0  0  0  0  0  0
    9.9890   -2.6970    1.5760 S   0  0  0  0  0  0  0  0  0  0  0  0
    9.5280   -1.6970    0.1400 C   0  0  0  0  0  2  0  0  0  0  0  0
    9.8250   -0.2160    0.2360 C   0  0  0  0  0  0  0  0  0  0  0  0
    9.4210    0.4610    1.4080 C   0  0  0  0  0  3  0  0  0  0  0  0
    9.6280    1.8290    1.5620 C   0  0  0  0  0  3  0  0  0  0  0  0
   10.2500    2.5510    0.5540 C   0  0  0  0  0  3  0  0  0  0  0  0
   10.6750    1.9010   -0.6040 C   0  0  0  0  0  3  0  0  0  0  0  0
   10.4880    0.5140   -0.7780 C   0  0  0  0  0  0  0  0  0  0  0  0
   11.0000   -0.1160   -2.0610 C   0  0  0  0  0  0  0  0  0  0  0  0
   11.8430    0.6990   -2.7480 F   0  0  0  0  0  0  0  0  0  0  0  0
   11.7010   -1.2670   -1.8410 F   0  0  0  0  0  0  0  0  0  0  0  0
   10.0090   -0.4650   -2.9250 F   0  0  0  0  0  0  0  0  0  0  0  0
  1 17  1  0  0  0  0
  1  2  2  0  0  0  0
  2  9  1  0  0  0  0
  3  2  1  0  0  0  0
  4  3  2  0  0  0  0
  5  6  1  0  0  0  0
  5  4  1  0  0  0  0
  6  1  1  0  0  0  0
  7  6  2  0  0  0  0
  8  5  1  0  0  0  0
  9 10  1  0  0  0  0
 10 11  2  0  0  0  0
 12 11  1  0  0  0  0
 12 13  1  0  0  0  0
 14 12  2  0  0  0  0
 15  9  2  0  0  0  0
 15 14  1  0  0  0  0
 17 16  1  0  0  0  0
 18  4  1  0  0  0  0
 19 20  1  0  0  0  0
 19 18  1  0  0  0  0
 20 21  1  0  0  0  0
 21 22  2  0  0  0  0
 23 22  1  0  0  0  0
 24 23  2  0  0  0  0
 25 24  1  0  0  0  0
 25 20  2  0  0  0  0
 26 28  1  0  0  0  0
 26 25  1  0  0  0  0
 27 26  1  0  0  0  0
 29 26  1  0  0  0  0
M  END
>  <minimizedAffinity>
-7.26291943

$$$$
