REMARK  Name = 
REMARK  8 active torsions:
REMARK  status: ('A' for Active; 'I' for Inactive)
REMARK    1  A    between atoms: C_2  and  C_16
REMARK    2  A    between atoms: N_3  and  CA_4
REMARK    3  A    between atoms: CA_4  and  CB_5
REMARK    4  A    between atoms: CA_4  and  C_13
REMARK    5  A    between atoms: CB_5  and  CG_6
REMARK    6  A    between atoms: CZ_9  and  OH_10
REMARK    7  A    between atoms: C_23  and  C_24
REMARK    8  A    between atoms: N_29  and  C_30
REMARK                            x       y       z     vdW  Elec       q    Type
REMARK                         _______ _______ _______ _____ _____    ______ ____
ROOT
ATOM      1  C   UNK A   0       3.397   1.195   0.030  0.00  0.00    +0.039 A 
ATOM      2  C   UNK A   0       2.995   0.793   1.307  0.00  0.00    +0.015 A 
ATOM      3  C   UNK A   0       3.548   1.373   2.453  0.00  0.00    +0.029 A 
ATOM      4  C   UNK A   0       4.496   2.391   2.268  0.00  0.00    +0.069 A 
ATOM      5  C   UNK A   0       4.893   2.806   1.000  0.00  0.00    +0.090 A 
ATOM      6  C   UNK A   0       4.334   2.219  -0.144  0.00  0.00    +0.043 A 
ATOM      7  N   UNK A   0       5.839   3.790   1.086  0.00  0.00    -0.227 NA
ATOM      8  C   UNK A   0       6.096   3.949   2.370  0.00  0.00    +0.145 A 
ATOM      9  N   UNK A   0       5.209   3.206   3.132  0.00  0.00    -0.320 N 
ENDROOT
BRANCH   9  10
ATOM     10  C   UNK A   0       4.996   3.319   4.571  0.00  0.00    +0.089 C 
ATOM     11  C   UNK A   0       3.543   3.645   4.965  0.00  0.00    +0.025 C 
ATOM     12  C   UNK A   0       3.407   3.815   6.478  0.00  0.00    +0.002 C 
ATOM     13  C   UNK A   0       3.937   2.596   7.228  0.00  0.00    +0.000 C 
ATOM     14  C   UNK A   0       5.380   2.280   6.845  0.00  0.00    +0.002 C 
ATOM     15  C   UNK A   0       5.542   2.106   5.336  0.00  0.00    +0.025 C 
ENDBRANCH   9  10
BRANCH   8  16
ATOM     16  C   UNK A   0       7.223   4.827   2.810  0.00  0.00    +0.055 A 
ATOM     17  C   UNK A   0       7.863   4.993   4.063  0.00  0.00    +0.052 A 
ATOM     18  C   UNK A   0       8.858   5.925   3.868  0.00  0.00    +0.195 A 
ATOM     19  O   UNK A   0       8.884   6.332   2.575  0.00  0.00    -0.470 OA
ATOM     20  C   UNK A   0       7.901   5.648   1.934  0.00  0.00    +0.206 A 
ENDBRANCH   8  16
BRANCH   1  22
ATOM     21  O   UNK A   0       1.518   0.626  -1.212  0.00  0.00    -0.270 OA
ATOM     22  C   UNK A   0       2.743   0.566  -1.135  0.00  0.00    +0.245 C 
ATOM     23  N   TYR A   1       3.501  -0.083  -2.063  0.00  0.00    -0.303 N 
ATOM     24  H   TYR A   1       3.014  -0.434  -2.887  0.00  0.00    +0.150 HD
BRANCH  23  25
ATOM     25  CA  TYR A   1       4.951  -0.400  -2.107  0.00  0.00    +0.123 C 
BRANCH  25  26
ATOM     26  C   TYR A   1       5.434  -0.861  -3.521  0.00  0.00    +0.062 C 
ATOM     27  O   TYR A   1       6.672  -1.098  -3.629  0.00  0.00    -0.548 OA
ATOM     28  OXT TYR A   1       4.523  -0.926  -4.401  0.00  0.00    -0.548 OA
ENDBRANCH  25  26
BRANCH  25  29
ATOM     29  CB  TYR A   1       5.379  -1.437  -1.053  0.00  0.00    +0.063 C 
BRANCH  29  30
ATOM     30  CG  TYR A   1       4.649  -2.765  -1.098  0.00  0.00    -0.045 A 
ATOM     31  CD1 TYR A   1       5.031  -3.751  -2.018  0.00  0.00    +0.007 A 
ATOM     32  CE1 TYR A   1       4.357  -4.973  -2.075  0.00  0.00    +0.045 A 
ATOM     33  CZ  TYR A   1       3.302  -5.213  -1.202  0.00  0.00    +0.117 A 
ATOM     34  CE2 TYR A   1       2.912  -4.253  -0.277  0.00  0.00    +0.045 A 
ATOM     35  CD2 TYR A   1       3.582  -3.029  -0.228  0.00  0.00    +0.007 A 
BRANCH  33  36
ATOM     36  OH  TYR A   1       2.614  -6.392  -1.234  0.00  0.00    -0.507 OA
ATOM     37  HH  TYR A   1       2.914  -6.877  -2.021  0.00  0.00    +0.292 HD
ENDBRANCH  33  36
ENDBRANCH  29  30
ENDBRANCH  25  29
ENDBRANCH  23  25
ENDBRANCH   1  22
TORSDOF 8
