
 OpenBabel09122222393D

 37 41  0  0  1  0  0  0  0  0999 V2000
    5.9910   -6.0900    0.6480 C   0  0  0  0  0  0  0  0  0  0  0  0
    6.1940   -5.5180    1.9070 C   0  0  0  0  0  3  0  0  0  0  0  0
    7.2470   -4.6250    2.1320 C   0  0  0  0  0  3  0  0  0  0  0  0
    8.0680   -4.3070    1.0390 C   0  0  0  0  0  0  0  0  0  0  0  0
    7.8660   -4.8630   -0.2210 C   0  0  0  0  0  0  0  0  0  0  0  0
    6.8080   -5.7580   -0.4380 C   0  0  0  0  0  3  0  0  0  0  0  0
    8.8070   -4.4140   -1.1060 N   0  0  0  0  0  0  0  0  0  0  0  0
    9.6330   -3.6520   -0.4160 C   0  0  0  0  0  0  0  0  0  0  0  0
    9.1490   -3.4570    0.8670 N   0  0  0  0  0  0  0  0  0  0  0  0
    9.6260   -2.4760    1.8350 C   0  0  0  0  0  3  0  0  0  0  0  0
    8.8790   -1.1300    1.7830 C   0  0  0  0  0  2  0  0  0  0  0  0
    9.4740   -0.1300    2.7750 C   0  0  0  0  0  2  0  0  0  0  0  0
    9.5150   -0.7020    4.1890 C   0  0  0  0  0  2  0  0  0  0  0  0
   10.2640   -2.0300    4.2420 C   0  0  0  0  0  2  0  0  0  0  0  0
    9.6880   -3.0470    3.2580 C   0  0  0  0  0  2  0  0  0  0  0  0
   10.8910   -3.1420   -1.0450 C   0  0  0  0  0  0  0  0  0  0  0  0
   12.0760   -3.7970   -1.4610 C   0  0  0  0  0  3  0  0  0  0  0  0
   12.8880   -2.8220   -1.9960 C   0  0  0  0  0  3  0  0  0  0  0  0
   12.2750   -1.6130   -1.9520 O   0  0  0  0  0  0  0  0  0  0  0  0
   11.0560   -1.8180   -1.3900 C   0  0  0  0  0  3  0  0  0  0  0  0
    4.3350   -7.0820   -0.6450 O   0  0  0  0  0  0  0  0  0  0  0  0
    4.8370   -6.9950    0.4730 C   0  0  0  0  0  0  0  0  0  0  0  0
    4.3460   -7.6740    1.5470 N   0  0  0  0  0  0  0  0  0  0  0  0
    3.6000   -8.3440    1.3630 H   0  0  0  0  0  0  0  0  0  0  0  0
    4.6920   -7.6230    2.9910 C   0  0  2  0  0  3  0  0  0  0  0  0
    5.5800   -8.8240    3.4510 C   0  0  0  0  0  0  0  0  0  0  0  0
    5.0180   -9.6630    4.2130 O   0  0  0  0  0  1  0  0  0  0  0  0
    6.7710   -8.8050    3.0160 O   0  0  0  0  0  0  0  0  0  0  0  0
    3.4600   -7.5120    3.9070 C   0  0  0  0  0  2  0  0  0  0  0  0
    3.2300   -6.1550    4.5440 C   0  0  0  0  0  0  0  0  0  0  0  0
    2.8750   -6.0600    5.8960 C   0  0  0  0  0  3  0  0  0  0  0  0
    2.6500   -4.8150    6.4890 C   0  0  0  0  0  3  0  0  0  0  0  0
    2.7890   -3.6610    5.7280 C   0  0  0  0  0  0  0  0  0  0  0  0
    3.1480   -3.7310    4.3880 C   0  0  0  0  0  3  0  0  0  0  0  0
    3.3640   -4.9770    3.7960 C   0  0  0  0  0  3  0  0  0  0  0  0
    2.5680   -2.4270    6.2700 O   0  0  0  0  0  0  0  0  0  0  0  0
    2.1890   -2.5670    7.1540 H   0  0  0  0  0  0  0  0  0  0  0  0
  1  2  1  0  0  0  0
  2  3  2  0  0  0  0
  4  3  1  0  0  0  0
  5  4  2  0  0  0  0
  6  5  1  0  0  0  0
  6  1  2  0  0  0  0
  7  8  2  0  0  0  0
  7  5  1  0  0  0  0
  8  9  1  0  0  0  0
  9  4  1  0  0  0  0
  9 10  1  0  0  0  0
 10 15  1  0  0  0  0
 11 10  1  0  0  0  0
 11 12  1  0  0  0  0
 12 13  1  0  0  0  0
 13 14  1  0  0  0  0
 15 14  1  0  0  0  0
 16  8  1  0  0  0  0
 17 16  1  0  0  0  0
 18 19  1  0  0  0  0
 18 17  2  0  0  0  0
 19 20  1  0  0  0  0
 20 16  2  0  0  0  0
 21 22  2  0  0  0  0
 22  1  1  0  0  0  0
 22 23  1  0  0  0  0
 23 25  1  0  0  0  0
 24 23  1  0  0  0  0
 25 26  1  0  0  0  0
 25 29  1  1  0  0  0
 26 27  1  0  0  0  0
 28 26  2  0  0  0  0
 29 30  1  0  0  0  0
 30 31  1  0  0  0  0
 31 32  2  0  0  0  0
 33 36  1  0  0  0  0
 33 32  1  0  0  0  0
 34 33  2  0  0  0  0
 35 34  1  0  0  0  0
 35 30  2  0  0  0  0
 36 37  1  0  0  0  0
M  END
>  <minimizedAffinity>
-8.05729485

$$$$
