
 OpenBabel09122222393D

 37 41  0  0  1  0  0  0  0  0999 V2000
    6.4500   -3.0650    7.0210 C   0  0  0  0  0  0  0  0  0  0  0  0
    7.6260   -3.1000    6.2660 C   0  0  0  0  0  3  0  0  0  0  0  0
    8.5180   -2.0230    6.2690 C   0  0  0  0  0  3  0  0  0  0  0  0
    8.1990   -0.9250    7.0820 C   0  0  0  0  0  0  0  0  0  0  0  0
    7.0370   -0.8860    7.8470 C   0  0  0  0  0  0  0  0  0  0  0  0
    6.1470   -1.9700    7.8370 C   0  0  0  0  0  3  0  0  0  0  0  0
    6.9450    0.2950    8.5300 N   0  0  0  0  0  0  0  0  0  0  0  0
    7.9790    1.0230    8.1570 C   0  0  0  0  0  0  0  0  0  0  0  0
    8.8370    0.2700    7.3720 N   0  0  0  0  0  0  0  0  0  0  0  0
   10.2000    0.6260    6.9910 C   0  0  0  0  0  3  0  0  0  0  0  0
   10.2820    1.6660    5.8580 C   0  0  0  0  0  2  0  0  0  0  0  0
   11.7340    1.9400    5.4640 C   0  0  0  0  0  2  0  0  0  0  0  0
   12.5720    2.3510    6.6710 C   0  0  0  0  0  2  0  0  0  0  0  0
   12.4990    1.3150    7.7900 C   0  0  0  0  0  2  0  0  0  0  0  0
   11.0570    1.0230    8.2000 C   0  0  0  0  0  2  0  0  0  0  0  0
    8.0860    2.4530    8.5800 C   0  0  0  0  0  0  0  0  0  0  0  0
    8.0410    3.6650    7.8470 C   0  0  0  0  0  3  0  0  0  0  0  0
    8.1670    4.6790    8.7700 C   0  0  0  0  0  3  0  0  0  0  0  0
    8.2710    4.1730   10.0240 O   0  0  0  0  0  0  0  0  0  0  0  0
    8.2020    2.8220    9.9030 C   0  0  0  0  0  3  0  0  0  0  0  0
    5.7290   -5.1020    7.8730 O   0  0  0  0  0  0  0  0  0  0  0  0
    5.5730   -4.2530    6.9990 C   0  0  0  0  0  0  0  0  0  0  0  0
    4.6510   -4.3910    6.0050 N   0  0  0  0  0  0  0  0  0  0  0  0
    4.0180   -5.1870    6.0750 H   0  0  0  0  0  0  0  0  0  0  0  0
    4.3820   -3.5830    4.7890 C   0  0  2  0  0  3  0  0  0  0  0  0
    3.1750   -2.6030    4.9590 C   0  0  0  0  0  0  0  0  0  0  0  0
    3.1890   -1.8900    6.0040 O   0  0  0  0  0  1  0  0  0  0  0  0
    2.3120   -2.6540    4.0310 O   0  0  0  0  0  0  0  0  0  0  0  0
    4.1780   -4.4360    3.5240 C   0  0  0  0  0  2  0  0  0  0  0  0
    5.4210   -4.7010    2.6980 C   0  0  0  0  0  0  0  0  0  0  0  0
    5.4380   -5.7410    1.7580 C   0  0  0  0  0  3  0  0  0  0  0  0
    6.5820   -6.0000    1.0000 C   0  0  0  0  0  3  0  0  0  0  0  0
    7.7120   -5.2090    1.1770 C   0  0  0  0  0  0  0  0  0  0  0  0
    7.7150   -4.1690    2.0970 C   0  0  0  0  0  3  0  0  0  0  0  0
    6.5730   -3.9180    2.8600 C   0  0  0  0  0  3  0  0  0  0  0  0
    8.8520   -5.4380    0.4610 O   0  0  0  0  0  0  0  0  0  0  0  0
    8.7280   -6.2760   -0.0150 H   0  0  0  0  0  0  0  0  0  0  0  0
  1  6  1  0  0  0  0
  2  3  1  0  0  0  0
  2  1  2  0  0  0  0
  3  4  2  0  0  0  0
  4  9  1  0  0  0  0
  4  5  1  0  0  0  0
  5  7  1  0  0  0  0
  6  5  2  0  0  0  0
  8  7  2  0  0  0  0
  8 16  1  0  0  0  0
  9  8  1  0  0  0  0
 10  9  1  0  0  0  0
 10 15  1  0  0  0  0
 11 10  1  0  0  0  0
 12 11  1  0  0  0  0
 12 13  1  0  0  0  0
 13 14  1  0  0  0  0
 14 15  1  0  0  0  0
 16 20  2  0  0  0  0
 17 16  1  0  0  0  0
 17 18  2  0  0  0  0
 18 19  1  0  0  0  0
 20 19  1  0  0  0  0
 22  1  1  0  0  0  0
 22 21  2  0  0  0  0
 23 24  1  0  0  0  0
 23 22  1  0  0  0  0
 25 29  1  6  0  0  0
 25 26  1  0  0  0  0
 25 23  1  0  0  0  0
 26 27  1  0  0  0  0
 28 26  2  0  0  0  0
 30 35  1  0  0  0  0
 30 29  1  0  0  0  0
 31 30  2  0  0  0  0
 32 33  2  0  0  0  0
 32 31  1  0  0  0  0
 33 34  1  0  0  0  0
 34 35  2  0  0  0  0
 36 33  1  0  0  0  0
 37 36  1  0  0  0  0
M  END
>  <minimizedAffinity>
-6.97561026

$$$$
