
 OpenBabel09122222393D

 37 41  0  0  1  0  0  0  0  0999 V2000
    9.0770   -1.6670    6.1030 C   0  0  0  0  0  0  0  0  0  0  0  0
    8.5180   -0.9130    7.1380 C   0  0  0  0  0  3  0  0  0  0  0  0
    7.1930   -1.1110    7.5400 C   0  0  0  0  0  3  0  0  0  0  0  0
    6.4620   -2.1130    6.8840 C   0  0  0  0  0  0  0  0  0  0  0  0
    7.0150   -2.8770    5.8600 C   0  0  0  0  0  0  0  0  0  0  0  0
    8.3440   -2.6720    5.4630 C   0  0  0  0  0  3  0  0  0  0  0  0
    6.0980   -3.7660    5.3690 N   0  0  0  0  0  0  0  0  0  0  0  0
    4.9690   -3.5280    6.0080 C   0  0  0  0  0  0  0  0  0  0  0  0
    5.1790   -2.6150    7.0280 N   0  0  0  0  0  0  0  0  0  0  0  0
    4.2550   -2.2990    8.1130 C   0  0  0  0  0  3  0  0  0  0  0  0
    4.8300   -2.5540    9.5190 C   0  0  0  0  0  2  0  0  0  0  0  0
    3.7890   -2.2670   10.6010 C   0  0  0  0  0  2  0  0  0  0  0  0
    3.2190   -0.8570   10.4690 C   0  0  0  0  0  2  0  0  0  0  0  0
    2.6400   -0.6090    9.0790 C   0  0  0  0  0  2  0  0  0  0  0  0
    3.6630   -0.8900    7.9800 C   0  0  0  0  0  2  0  0  0  0  0  0
    3.7060   -4.2050    5.5830 C   0  0  0  0  0  0  0  0  0  0  0  0
    3.1900   -5.4990    5.8420 C   0  0  0  0  0  3  0  0  0  0  0  0
    1.9670   -5.5610    5.2110 C   0  0  0  0  0  3  0  0  0  0  0  0
    1.6880   -4.3860    4.5950 O   0  0  0  0  0  0  0  0  0  0  0  0
    2.7390   -3.5610    4.8400 C   0  0  0  0  0  3  0  0  0  0  0  0
   11.3030   -2.3240    5.9960 O   0  0  0  0  0  0  0  0  0  0  0  0
   10.4930   -1.4310    5.7570 C   0  0  0  0  0  0  0  0  0  0  0  0
   10.8640   -0.2350    5.2200 N   0  0  0  0  0  0  0  0  0  0  0  0
   11.8370   -0.1470    4.9270 H   0  0  0  0  0  0  0  0  0  0  0  0
   10.1040    1.0170    4.9770 C   0  0  2  0  0  3  0  0  0  0  0  0
   10.0440    1.4130    3.4650 C   0  0  0  0  0  0  0  0  0  0  0  0
   10.7290    2.4230    3.1340 O   0  0  0  0  0  1  0  0  0  0  0  0
    9.2970    0.6780    2.7510 O   0  0  0  0  0  0  0  0  0  0  0  0
   10.6170    2.2100    5.8020 C   0  0  0  0  0  2  0  0  0  0  0  0
    9.7300    2.6510    6.9500 C   0  0  0  0  0  0  0  0  0  0  0  0
    8.6440    3.5060    6.7160 C   0  0  0  0  0  3  0  0  0  0  0  0
    7.8280    3.9270    7.7690 C   0  0  0  0  0  3  0  0  0  0  0  0
    8.0940    3.4830    9.0590 C   0  0  0  0  0  0  0  0  0  0  0  0
    9.1600    2.6290    9.3120 C   0  0  0  0  0  3  0  0  0  0  0  0
    9.9790    2.2170    8.2590 C   0  0  0  0  0  3  0  0  0  0  0  0
    7.3240    3.8800   10.1150 O   0  0  0  0  0  0  0  0  0  0  0  0
    6.7300    4.5770    9.7890 H   0  0  0  0  0  0  0  0  0  0  0  0
  1  2  1  0  0  0  0
  2  3  2  0  0  0  0
  4  9  1  0  0  0  0
  4  3  1  0  0  0  0
  5  4  2  0  0  0  0
  6  5  1  0  0  0  0
  6  1  2  0  0  0  0
  7  5  1  0  0  0  0
  7  8  2  0  0  0  0
  8  9  1  0  0  0  0
  9 10  1  0  0  0  0
 10 11  1  0  0  0  0
 11 12  1  0  0  0  0
 13 12  1  0  0  0  0
 14 13  1  0  0  0  0
 15 10  1  0  0  0  0
 15 14  1  0  0  0  0
 16 17  1  0  0  0  0
 16  8  1  0  0  0  0
 18 17  2  0  0  0  0
 19 20  1  0  0  0  0
 19 18  1  0  0  0  0
 20 16  2  0  0  0  0
 22 21  2  0  0  0  0
 22  1  1  0  0  0  0
 23 22  1  0  0  0  0
 24 23  1  0  0  0  0
 25 23  1  0  0  0  0
 25 29  1  1  0  0  0
 26 25  1  0  0  0  0
 27 26  1  0  0  0  0
 28 26  2  0  0  0  0
 29 30  1  0  0  0  0
 30 35  1  0  0  0  0
 31 30  2  0  0  0  0
 31 32  1  0  0  0  0
 32 33  2  0  0  0  0
 33 34  1  0  0  0  0
 33 36  1  0  0  0  0
 35 34  2  0  0  0  0
 37 36  1  0  0  0  0
M  END
>  <minimizedAffinity>
-6.87050104

$$$$
