
 OpenBabel09122222393D

 37 41  0  0  1  0  0  0  0  0999 V2000
    2.8540   -3.2280    5.5110 C   0  0  0  0  0  0  0  0  0  0  0  0
    2.5640   -4.4770    6.0670 C   0  0  0  0  0  3  0  0  0  0  0  0
    2.9180   -5.6590    5.4090 C   0  0  0  0  0  3  0  0  0  0  0  0
    3.6000   -5.5390    4.1890 C   0  0  0  0  0  0  0  0  0  0  0  0
    3.9040   -4.2990    3.6340 C   0  0  0  0  0  0  0  0  0  0  0  0
    3.5450   -3.1190    4.3000 C   0  0  0  0  0  3  0  0  0  0  0  0
    4.5480   -4.4490    2.4360 N   0  0  0  0  0  0  0  0  0  0  0  0
    4.5890   -5.7450    2.1940 C   0  0  0  0  0  0  0  0  0  0  0  0
    4.1360   -6.4530    3.2950 N   0  0  0  0  0  0  0  0  0  0  0  0
    4.2730   -7.8880    3.5210 C   0  0  0  0  0  3  0  0  0  0  0  0
    3.1110   -8.7250    2.9550 C   0  0  0  0  0  2  0  0  0  0  0  0
    3.2870  -10.2070    3.2850 C   0  0  0  0  0  2  0  0  0  0  0  0
    4.6410  -10.7280    2.8130 C   0  0  0  0  0  2  0  0  0  0  0  0
    5.7930   -9.9050    3.3830 C   0  0  0  0  0  2  0  0  0  0  0  0
    5.6400   -8.4180    3.0660 C   0  0  0  0  0  2  0  0  0  0  0  0
    5.0680   -6.2500    0.8710 C   0  0  0  0  0  0  0  0  0  0  0  0
    6.3200   -6.1520    0.2150 C   0  0  0  0  0  3  0  0  0  0  0  0
    6.1860   -6.8310   -0.9760 C   0  0  0  0  0  3  0  0  0  0  0  0
    4.9400   -7.3540   -1.0890 O   0  0  0  0  0  0  0  0  0  0  0  0
    4.2720   -7.0130    0.0440 C   0  0  0  0  0  3  0  0  0  0  0  0
    1.5890   -1.3070    5.8360 O   0  0  0  0  0  0  0  0  0  0  0  0
    2.4840   -2.0220    6.2790 C   0  0  0  0  0  0  0  0  0  0  0  0
    3.1580   -1.7220    7.4250 N   0  0  0  0  0  0  0  0  0  0  0  0
    2.8180   -0.9240    7.9600 H   0  0  0  0  0  0  0  0  0  0  0  0
    4.3430   -2.3460    8.0660 C   0  0  2  0  0  3  0  0  0  0  0  0
    4.0280   -2.9570    9.4700 C   0  0  0  0  0  0  0  0  0  0  0  0
    4.8800   -2.7250   10.3760 O   0  0  0  0  0  1  0  0  0  0  0  0
    2.9560   -3.6320    9.5300 O   0  0  0  0  0  0  0  0  0  0  0  0
    5.5470   -1.3930    8.1780 C   0  0  0  0  0  2  0  0  0  0  0  0
    6.7190   -1.7000    7.2670 C   0  0  0  0  0  0  0  0  0  0  0  0
    6.6420   -2.7530    6.3450 C   0  0  0  0  0  3  0  0  0  0  0  0
    7.7210   -3.0500    5.5100 C   0  0  0  0  0  3  0  0  0  0  0  0
    8.8790   -2.2860    5.5910 C   0  0  0  0  0  0  0  0  0  0  0  0
    8.9750   -1.2330    6.4910 C   0  0  0  0  0  3  0  0  0  0  0  0
    7.8980   -0.9430    7.3310 C   0  0  0  0  0  3  0  0  0  0  0  0
    9.9580   -2.5520    4.7970 O   0  0  0  0  0  0  0  0  0  0  0  0
    9.7790   -3.3940    4.3440 H   0  0  0  0  0  0  0  0  0  0  0  0
  1  2  1  0  0  0  0
  1 22  1  0  0  0  0
  3  2  2  0  0  0  0
  4  3  1  0  0  0  0
  5  4  2  0  0  0  0
  5  6  1  0  0  0  0
  6  1  2  0  0  0  0
  7  5  1  0  0  0  0
  8  7  2  0  0  0  0
  8  9  1  0  0  0  0
  9 10  1  0  0  0  0
  9  4  1  0  0  0  0
 11 12  1  0  0  0  0
 11 10  1  0  0  0  0
 13 12  1  0  0  0  0
 13 14  1  0  0  0  0
 15 14  1  0  0  0  0
 15 10  1  0  0  0  0
 16  8  1  0  0  0  0
 17 16  1  0  0  0  0
 18 17  2  0  0  0  0
 19 18  1  0  0  0  0
 19 20  1  0  0  0  0
 20 16  2  0  0  0  0
 21 22  2  0  0  0  0
 22 23  1  0  0  0  0
 23 24  1  0  0  0  0
 23 25  1  0  0  0  0
 25 29  1  1  0  0  0
 25 26  1  0  0  0  0
 26 28  2  0  0  0  0
 26 27  1  0  0  0  0
 30 35  1  0  0  0  0
 30 29  1  0  0  0  0
 31 30  2  0  0  0  0
 32 33  2  0  0  0  0
 32 31  1  0  0  0  0
 33 34  1  0  0  0  0
 34 35  2  0  0  0  0
 36 33  1  0  0  0  0
 37 36  1  0  0  0  0
M  END
>  <minimizedAffinity>
-7.6705184

$$$$
