REMARK  Name = 
REMARK  8 active torsions:
REMARK  status: ('A' for Active; 'I' for Inactive)
REMARK    1  A    between atoms: C_2  and  C_4
REMARK    2  A    between atoms: C_7  and  C_8
REMARK    3  A    between atoms: C_14  and  C_15
REMARK    4  A    between atoms: C_15  and  O_16
REMARK    5  A    between atoms: O_16  and  C_17
REMARK    6  A    between atoms: C_20  and  C_21
REMARK    7  A    between atoms: C_25  and  C_26
REMARK    8  A    between atoms: N_32  and  C_33
REMARK                            x       y       z     vdW  Elec       q    Type
REMARK                         _______ _______ _______ _____ _____    ______ ____
ROOT
ATOM      1  C   UNL     1       8.125  -1.919   3.603  0.00  0.00    +0.121 A 
ATOM      2  C   UNL     1       9.431  -2.392   3.456  0.00  0.00    +0.046 A 
ATOM      3  C   UNL     1      10.350  -1.711   2.652  0.00  0.00    +0.015 A 
ATOM      4  C   UNL     1       9.967  -0.552   1.974  0.00  0.00    +0.018 A 
ATOM      5  C   UNL     1       8.675  -0.048   2.166  0.00  0.00    +0.015 A 
ATOM      6  C   UNL     1       7.755  -0.731   2.971  0.00  0.00    +0.046 A 
ENDROOT
BRANCH   4   7
ATOM      7  C   UNL     1      10.904   0.153   1.106  0.00  0.00    +0.142 A 
ATOM      8  N   UNL     1      11.581   1.218   1.491  0.00  0.00    -0.228 NA
ATOM      9  C   UNL     1      12.364   1.586   0.427  0.00  0.00    +0.090 A 
ATOM     10  C   UNL     1      13.287   2.639   0.315  0.00  0.00    +0.039 A 
ATOM     11  C   UNL     1      14.002   2.823  -0.887  0.00  0.00    -0.001 A 
ATOM     12  C   UNL     1      13.764   1.942  -1.954  0.00  0.00    +0.012 A 
ATOM     13  C   UNL     1      12.846   0.888  -1.864  0.00  0.00    +0.028 A 
ATOM     14  C   UNL     1      12.157   0.736  -0.653  0.00  0.00    +0.069 A 
ATOM     15  N   UNL     1      11.204  -0.168  -0.208  0.00  0.00    -0.320 N 
BRANCH  15  16
ATOM     16  C   UNL     1      10.693  -1.263  -1.031  0.00  0.00    +0.089 C 
ATOM     17  C   UNL     1      11.420  -2.587  -0.751  0.00  0.00    +0.025 C 
ATOM     18  C   UNL     1      10.984  -3.679  -1.728  0.00  0.00    +0.002 C 
ATOM     19  C   UNL     1       9.467  -3.851  -1.749  0.00  0.00    +0.000 C 
ATOM     20  C   UNL     1       8.750  -2.532  -2.030  0.00  0.00    +0.002 C 
ATOM     21  C   UNL     1       9.167  -1.449  -1.033  0.00  0.00    +0.025 C 
ENDBRANCH  15  16
BRANCH  11  22
ATOM     22  C   UNL     1      15.013   3.946  -1.026  0.00  0.00    +0.072 C 
ATOM     23  O   UNL     1      15.188   4.705  -0.021  0.00  0.00    -0.545 OA
ATOM     24  O   UNL     1      15.620   4.043  -2.141  0.00  0.00    -0.545 OA
ENDBRANCH  11  22
ENDBRANCH   4   7
BRANCH   1  25
ATOM     25  O   UNL     1       7.327  -2.690   4.404  0.00  0.00    -0.487 OA
BRANCH  25  26
ATOM     26  C   UNL     1       5.919  -2.415   4.417  0.00  0.00    +0.265 C 
BRANCH  26  33
ATOM     27  C   UNL     1       4.353  -0.608   5.323  0.00  0.00    -0.011 A 
ATOM     28  C   UNL     1       4.027   0.322   6.329  0.00  0.00    +0.010 A 
ATOM     29  C   UNL     1       4.823   0.468   7.466  0.00  0.00    +0.020 A 
ATOM     30  C   UNL     1       5.958  -0.320   7.613  0.00  0.00    +0.041 A 
ATOM     31 CL   UNL     1       6.928  -0.164   9.026  0.00  0.00    -0.084 Cl
ATOM     32  C   UNL     1       6.308  -1.241   6.628  0.00  0.00    +0.027 A 
ATOM     33  C   UNL     1       5.526  -1.387   5.464  0.00  0.00    -0.001 A 
BRANCH  27  37
ATOM     34  C   UNL     1       1.692  -0.994   1.960  0.00  0.00    -0.003 A 
ATOM     35  C   UNL     1       2.600   0.073   2.042  0.00  0.00    +0.010 A 
ATOM     36  C   UNL     1       3.467   0.200   3.133  0.00  0.00    +0.009 A 
ATOM     37  C   UNL     1       3.451  -0.741   4.171  0.00  0.00    -0.017 A 
ATOM     38  C   UNL     1       2.545  -1.809   4.094  0.00  0.00    +0.009 A 
ATOM     39  C   UNL     1       1.680  -1.933   3.003  0.00  0.00    +0.010 A 
BRANCH  34  41
ATOM     40  O   UNL     1      -0.038  -2.132   0.782  0.00  0.00    -0.545 OA
ATOM     41  C   UNL     1       0.744  -1.128   0.783  0.00  0.00    +0.072 C 
ATOM     42  O   UNL     1       0.798  -0.227  -0.112  0.00  0.00    -0.545 OA
ENDBRANCH  34  41
ENDBRANCH  27  37
ENDBRANCH  26  33
ENDBRANCH  25  26
ENDBRANCH   1  25
TORSDOF 8
