
 OpenBabel09122222393D

 42 47  0  0  0  0  0  0  0  0999 V2000
    3.4500   -1.0620    7.4970 C   0  0  0  0  0  0  0  0  0  0  0  0
    4.7250   -1.5800    7.2590 C   0  0  0  0  0  3  0  0  0  0  0  0
    4.9310   -2.5400    6.2630 C   0  0  0  0  0  3  0  0  0  0  0  0
    3.8560   -3.0020    5.5000 C   0  0  0  0  0  0  0  0  0  0  0  0
    2.5890   -2.4420    5.7020 C   0  0  0  0  0  3  0  0  0  0  0  0
    2.3840   -1.4810    6.7000 C   0  0  0  0  0  3  0  0  0  0  0  0
    4.0470   -4.0260    4.4790 C   0  0  0  0  0  0  0  0  0  0  0  0
    4.5410   -3.7670    3.2830 N   0  0  0  0  0  0  0  0  0  0  0  0
    4.5900   -4.9640    2.6160 C   0  0  0  0  0  0  0  0  0  0  0  0
    5.0520   -5.2500    1.3200 C   0  0  0  0  0  3  0  0  0  0  0  0
    5.0220   -6.5760    0.8390 C   0  0  0  0  0  0  0  0  0  0  0  0
    4.5200   -7.5850    1.6760 C   0  0  0  0  0  3  0  0  0  0  0  0
    4.0520   -7.3210    2.9700 C   0  0  0  0  0  3  0  0  0  0  0  0
    4.1000   -5.9920    3.4130 C   0  0  0  0  0  0  0  0  0  0  0  0
    3.7380   -5.3710    4.5990 N   0  0  0  0  0  0  0  0  0  0  0  0
    3.1780   -6.0910    5.7410 C   0  0  0  0  0  3  0  0  0  0  0  0
    3.8700   -5.7160    7.0600 C   0  0  0  0  0  2  0  0  0  0  0  0
    3.3820   -6.5910    8.2140 C   0  0  0  0  0  2  0  0  0  0  0  0
    1.8600   -6.5710    8.3390 C   0  0  0  0  0  2  0  0  0  0  0  0
    1.1770   -6.9470    7.0260 C   0  0  0  0  0  2  0  0  0  0  0  0
    1.6470   -6.0500    5.8780 C   0  0  0  0  0  2  0  0  0  0  0  0
    5.5280   -6.9100   -0.5520 C   0  0  0  0  0  0  0  0  0  0  0  0
    5.1480   -8.0100   -1.0650 O   0  0  0  0  0  1  0  0  0  0  0  0
    6.2930   -6.0580   -1.1090 O   0  0  0  0  0  0  0  0  0  0  0  0
    3.3890   -0.1440    8.5100 O   0  0  0  0  0  0  0  0  0  0  0  0
    2.7190   -0.5210    9.7210 C   0  0  0  0  0  2  0  0  0  0  0  0
    4.7720   -1.2480   11.0610 C   0  0  0  0  0  0  0  0  0  0  0  0
    5.4420   -2.2280   11.8180 C   0  0  0  0  0  3  0  0  0  0  0  0
    4.8580   -3.4700   12.0740 C   0  0  0  0  0  3  0  0  0  0  0  0
    3.5900   -3.7460   11.5770 C   0  0  0  0  0  0  0  0  0  0  0  0
    2.8540   -5.2650   11.9130 Cl  0  0  0  0  0  0  0  0  0  0  0  0
    2.9100   -2.7970   10.8170 C   0  0  0  0  0  3  0  0  0  0  0  0
    3.4930   -1.5450   10.5330 C   0  0  0  0  0  0  0  0  0  0  0  0
    6.6780    2.5660   10.4590 C   0  0  0  0  0  0  0  0  0  0  0  0
    5.5980    2.4320   11.3450 C   0  0  0  0  0  3  0  0  0  0  0  0
    4.9770    1.1930   11.5440 C   0  0  0  0  0  3  0  0  0  0  0  0
    5.4240    0.0530   10.8630 C   0  0  0  0  0  0  0  0  0  0  0  0
    6.5030    0.1820    9.9760 C   0  0  0  0  0  3  0  0  0  0  0  0
    7.1210    1.4210    9.7790 C   0  0  0  0  0  3  0  0  0  0  0  0
    7.2020    4.4420    9.0870 O   0  0  0  0  0  0  0  0  0  0  0  0
    7.3450    3.9100   10.2340 C   0  0  0  0  0  0  0  0  0  0  0  0
    7.9940    4.4060   11.2080 O   0  0  0  0  0  1  0  0  0  0  0  0
  1 25  1  0  0  0  0
  2  1  1  0  0  0  0
  3  2  2  0  0  0  0
  4  5  2  0  0  0  0
  4  3  1  0  0  0  0
  5  6  1  0  0  0  0
  6  1  2  0  0  0  0
  7 15  1  0  0  0  0
  7  4  1  0  0  0  0
  8  7  2  0  0  0  0
  9  8  1  0  0  0  0
  9 14  1  0  0  0  0
 10  9  2  0  0  0  0
 11 10  1  0  0  0  0
 11 12  2  0  0  0  0
 12 13  1  0  0  0  0
 13 14  2  0  0  0  0
 14 15  1  0  0  0  0
 15 16  1  0  0  0  0
 16 21  1  0  0  0  0
 16 17  1  0  0  0  0
 17 18  1  0  0  0  0
 18 19  1  0  0  0  0
 20 19  1  0  0  0  0
 21 20  1  0  0  0  0
 22 11  1  0  0  0  0
 23 22  1  0  0  0  0
 24 22  2  0  0  0  0
 25 26  1  0  0  0  0
 26 33  1  0  0  0  0
 27 28  1  0  0  0  0
 28 29  2  0  0  0  0
 30 31  1  0  0  0  0
 30 29  1  0  0  0  0
 32 30  2  0  0  0  0
 33 32  1  0  0  0  0
 33 27  2  0  0  0  0
 34 35  1  0  0  0  0
 35 36  2  0  0  0  0
 37 27  1  0  0  0  0
 37 36  1  0  0  0  0
 38 37  2  0  0  0  0
 39 38  1  0  0  0  0
 39 34  2  0  0  0  0
 40 41  2  0  0  0  0
 41 34  1  0  0  0  0
 41 42  1  0  0  0  0
M  END
>  <minimizedAffinity>
-8.36503983

$$$$
