
 OpenBabel09122219493D

 42 47  0  0  0  0  0  0  0  0999 V2000
    3.1340   -1.2210    7.4960 C   0  0  0  0  0  0  0  0  0  0  0  0
    4.4010   -1.7950    7.3710 C   0  0  0  0  0  3  0  0  0  0  0  0
    4.6680   -2.7210    6.3590 C   0  0  0  0  0  3  0  0  0  0  0  0
    3.6630   -3.0940    5.4640 C   0  0  0  0  0  0  0  0  0  0  0  0
    2.4090   -2.4770    5.5550 C   0  0  0  0  0  3  0  0  0  0  0  0
    2.1420   -1.5500    6.5700 C   0  0  0  0  0  3  0  0  0  0  0  0
    3.9160   -4.0830    4.4220 C   0  0  0  0  0  0  0  0  0  0  0  0
    4.4720   -3.7820    3.2640 N   0  0  0  0  0  0  0  0  0  0  0  0
    4.5650   -4.9570    2.5620 C   0  0  0  0  0  0  0  0  0  0  0  0
    5.0980   -5.1980    1.2850 C   0  0  0  0  0  3  0  0  0  0  0  0
    5.1030   -6.5070    0.7600 C   0  0  0  0  0  0  0  0  0  0  0  0
    4.5630   -7.5460    1.5350 C   0  0  0  0  0  3  0  0  0  0  0  0
    4.0240   -7.3260    2.8090 C   0  0  0  0  0  3  0  0  0  0  0  0
    4.0390   -6.0120    3.2970 C   0  0  0  0  0  0  0  0  0  0  0  0
    3.6100   -5.4330    4.4820 N   0  0  0  0  0  0  0  0  0  0  0  0
    2.9930   -6.1930    5.5680 C   0  0  0  0  0  3  0  0  0  0  0  0
    3.6700   -5.9250    6.9200 C   0  0  0  0  0  2  0  0  0  0  0  0
    3.1180   -6.8440    8.0110 C   0  0  0  0  0  2  0  0  0  0  0  0
    1.5960   -6.7640    8.1050 C   0  0  0  0  0  2  0  0  0  0  0  0
    0.9290   -7.0330    6.7580 C   0  0  0  0  0  2  0  0  0  0  0  0
    1.4630   -6.0930    5.6750 C   0  0  0  0  0  2  0  0  0  0  0  0
    5.6850   -6.7930   -0.6120 C   0  0  0  0  0  0  0  0  0  0  0  0
    6.3890   -5.8820   -1.1510 O   0  0  0  0  0  0  0  0  0  0  0  0
    5.4310   -7.9310   -1.1230 O   0  0  0  0  0  1  0  0  0  0  0  0
    3.0060   -0.3440    8.5390 O   0  0  0  0  0  0  0  0  0  0  0  0
    2.6820   -0.8770    9.8310 C   0  0  0  0  0  2  0  0  0  0  0  0
    4.2030   -1.4480   11.8060 C   0  0  0  0  0  0  0  0  0  0  0  0
    5.1450   -1.0400   12.7700 C   0  0  0  0  0  3  0  0  0  0  0  0
    5.5950    0.2800   12.8290 C   0  0  0  0  0  3  0  0  0  0  0  0
    5.1100    1.2100   11.9190 C   0  0  0  0  0  0  0  0  0  0  0  0
    5.6820    2.8330   11.9690 Cl  0  0  0  0  0  0  0  0  0  0  0  0
    4.1700    0.8340   10.9610 C   0  0  0  0  0  3  0  0  0  0  0  0
    3.6900   -0.4900   10.9000 C   0  0  0  0  0  0  0  0  0  0  0  0
    3.0440   -5.5940   11.7160 C   0  0  0  0  0  0  0  0  0  0  0  0
    2.3200   -4.6600   12.4720 C   0  0  0  0  0  3  0  0  0  0  0  0
    2.6940   -3.3110   12.5020 C   0  0  0  0  0  3  0  0  0  0  0  0
    3.8010   -2.8610   11.7710 C   0  0  0  0  0  0  0  0  0  0  0  0
    4.5280   -3.7910   11.0140 C   0  0  0  0  0  3  0  0  0  0  0  0
    4.1530   -5.1370   10.9870 C   0  0  0  0  0  3  0  0  0  0  0  0
    3.5890   -7.9130   11.7140 O   0  0  0  0  0  1  0  0  0  0  0  0
    2.6470   -7.0580   11.6900 C   0  0  0  0  0  0  0  0  0  0  0  0
    1.4040   -7.3230   11.6510 O   0  0  0  0  0  0  0  0  0  0  0  0
  1 25  1  0  0  0  0
  2  1  1  0  0  0  0
  3  2  2  0  0  0  0
  4  5  2  0  0  0  0
  4  3  1  0  0  0  0
  5  6  1  0  0  0  0
  6  1  2  0  0  0  0
  7 15  1  0  0  0  0
  7  4  1  0  0  0  0
  8  7  2  0  0  0  0
  9  8  1  0  0  0  0
  9 14  1  0  0  0  0
 10  9  2  0  0  0  0
 11 10  1  0  0  0  0
 11 12  2  0  0  0  0
 12 13  1  0  0  0  0
 13 14  2  0  0  0  0
 14 15  1  0  0  0  0
 15 16  1  0  0  0  0
 16 21  1  0  0  0  0
 16 17  1  0  0  0  0
 17 18  1  0  0  0  0
 18 19  1  0  0  0  0
 20 19  1  0  0  0  0
 21 20  1  0  0  0  0
 22 11  1  0  0  0  0
 23 22  2  0  0  0  0
 24 22  1  0  0  0  0
 25 26  1  0  0  0  0
 26 33  1  0  0  0  0
 27 28  1  0  0  0  0
 28 29  2  0  0  0  0
 30 31  1  0  0  0  0
 30 29  1  0  0  0  0
 32 30  2  0  0  0  0
 33 32  1  0  0  0  0
 33 27  2  0  0  0  0
 34 35  1  0  0  0  0
 35 36  2  0  0  0  0
 37 27  1  0  0  0  0
 37 36  1  0  0  0  0
 38 37  2  0  0  0  0
 39 38  1  0  0  0  0
 39 34  2  0  0  0  0
 41 40  1  0  0  0  0
 41 34  1  0  0  0  0
 42 41  2  0  0  0  0
M  END
>  <minimizedAffinity>
-8.72752953

$$$$

 OpenBabel09122219493D

 42 47  0  0  0  0  0  0  0  0999 V2000
   10.6150   -0.5700    5.3820 C   0  0  0  0  0  0  0  0  0  0  0  0
   10.0190   -0.0370    4.2370 C   0  0  0  0  0  3  0  0  0  0  0  0
    9.4150   -0.8720    3.2920 C   0  0  0  0  0  3  0  0  0  0  0  0
    9.4110   -2.2560    3.4780 C   0  0  0  0  0  0  0  0  0  0  0  0
    9.9590   -2.7850    4.6530 C   0  0  0  0  0  3  0  0  0  0  0  0
   10.5640   -1.9480    5.5980 C   0  0  0  0  0  3  0  0  0  0  0  0
    8.8130   -3.1440    2.4870 C   0  0  0  0  0  0  0  0  0  0  0  0
    7.7670   -3.9070    2.7420 N   0  0  0  0  0  0  0  0  0  0  0  0
    7.4820   -4.5760    1.5790 C   0  0  0  0  0  0  0  0  0  0  0  0
    6.4560   -5.4940    1.3010 C   0  0  0  0  0  3  0  0  0  0  0  0
    6.3430   -6.0540    0.0120 C   0  0  0  0  0  0  0  0  0  0  0  0
    7.2740   -5.6780   -0.9700 C   0  0  0  0  0  3  0  0  0  0  0  0
    8.3060   -4.7670   -0.7130 C   0  0  0  0  0  3  0  0  0  0  0  0
    8.3840   -4.2300    0.5800 C   0  0  0  0  0  0  0  0  0  0  0  0
    9.2430   -3.3240    1.1830 N   0  0  0  0  0  0  0  0  0  0  0  0
   10.3550   -2.6850    0.4800 C   0  0  0  0  0  3  0  0  0  0  0  0
   11.4060   -3.7020    0.0120 C   0  0  0  0  0  2  0  0  0  0  0  0
   12.6330   -3.0040   -0.5770 C   0  0  0  0  0  2  0  0  0  0  0  0
   12.2520   -2.0230   -1.6830 C   0  0  0  0  0  2  0  0  0  0  0  0
   11.2080   -1.0130   -1.2110 C   0  0  0  0  0  2  0  0  0  0  0  0
    9.9700   -1.7140   -0.6480 C   0  0  0  0  0  2  0  0  0  0  0  0
    5.2350   -7.0380   -0.3140 C   0  0  0  0  0  0  0  0  0  0  0  0
    4.1330   -6.9080    0.3080 O   0  0  0  0  0  1  0  0  0  0  0  0
    5.4880   -7.9230   -1.1950 O   0  0  0  0  0  0  0  0  0  0  0  0
   11.1830    0.3570    6.2130 O   0  0  0  0  0  0  0  0  0  0  0  0
   11.2530    1.7160    5.7580 C   0  0  0  0  0  2  0  0  0  0  0  0
   13.1120    3.2870    4.9740 C   0  0  0  0  0  0  0  0  0  0  0  0
   14.4050    3.8190    5.1480 C   0  0  0  0  0  3  0  0  0  0  0  0
   15.2130    3.4240    6.2150 C   0  0  0  0  0  3  0  0  0  0  0  0
   14.7360    2.4900    7.1260 C   0  0  0  0  0  0  0  0  0  0  0  0
   15.7180    2.0190    8.4590 Cl  0  0  0  0  0  0  0  0  0  0  0  0
   13.4650    1.9410    6.9720 C   0  0  0  0  0  3  0  0  0  0  0  0
   12.6430    2.3140    5.8890 C   0  0  0  0  0  0  0  0  0  0  0  0
   10.7100    4.7000    1.6920 C   0  0  0  0  0  0  0  0  0  0  0  0
   10.6630    5.3320    2.9440 C   0  0  0  0  0  3  0  0  0  0  0  0
   11.4440    4.8750    4.0120 C   0  0  0  0  0  3  0  0  0  0  0  0
   12.2970    3.7750    3.8540 C   0  0  0  0  0  0  0  0  0  0  0  0
   12.3470    3.1400    2.6050 C   0  0  0  0  0  3  0  0  0  0  0  0
   11.5660    3.5970    1.5400 C   0  0  0  0  0  3  0  0  0  0  0  0
    9.1150    4.3260   -0.0370 O   0  0  0  0  0  0  0  0  0  0  0  0
    9.8570    5.1860    0.5360 C   0  0  0  0  0  0  0  0  0  0  0  0
    9.9430    6.4160    0.2280 O   0  0  0  0  0  1  0  0  0  0  0  0
  1  6  1  0  0  0  0
  1 25  1  0  0  0  0
  2  1  2  0  0  0  0
  3  4  2  0  0  0  0
  3  2  1  0  0  0  0
  4  5  1  0  0  0  0
  5  6  2  0  0  0  0
  7  8  2  0  0  0  0
  7  4  1  0  0  0  0
  9  8  1  0  0  0  0
 10  9  1  0  0  0  0
 11 10  2  0  0  0  0
 12 13  2  0  0  0  0
 12 11  1  0  0  0  0
 13 14  1  0  0  0  0
 14 15  1  0  0  0  0
 14  9  2  0  0  0  0
 15  7  1  0  0  0  0
 16 15  1  0  0  0  0
 17 16  1  0  0  0  0
 18 17  1  0  0  0  0
 19 20  1  0  0  0  0
 19 18  1  0  0  0  0
 20 21  1  0  0  0  0
 21 16  1  0  0  0  0
 22 11  1  0  0  0  0
 22 23  1  0  0  0  0
 24 22  2  0  0  0  0
 26 33  1  0  0  0  0
 26 25  1  0  0  0  0
 27 28  2  0  0  0  0
 27 33  1  0  0  0  0
 28 29  1  0  0  0  0
 29 30  2  0  0  0  0
 30 31  1  0  0  0  0
 32 30  1  0  0  0  0
 33 32  2  0  0  0  0
 34 35  1  0  0  0  0
 35 36  2  0  0  0  0
 37 36  1  0  0  0  0
 37 27  1  0  0  0  0
 38 37  2  0  0  0  0
 39 34  2  0  0  0  0
 39 38  1  0  0  0  0
 40 41  2  0  0  0  0
 41 34  1  0  0  0  0
 42 41  1  0  0  0  0
M  END
>  <minimizedAffinity>
-8.51813698

$$$$

 OpenBabel09122219493D

 42 47  0  0  0  0  0  0  0  0999 V2000
   10.6030   -0.7530    5.4580 C   0  0  0  0  0  0  0  0  0  0  0  0
   10.0130   -0.1850    4.3270 C   0  0  0  0  0  3  0  0  0  0  0  0
    9.4090   -0.9910    3.3570 C   0  0  0  0  0  3  0  0  0  0  0  0
    9.4010   -2.3790    3.5020 C   0  0  0  0  0  0  0  0  0  0  0  0
    9.9430   -2.9440    4.6630 C   0  0  0  0  0  3  0  0  0  0  0  0
   10.5480   -2.1360    5.6340 C   0  0  0  0  0  3  0  0  0  0  0  0
    8.8030   -3.2360    2.4840 C   0  0  0  0  0  0  0  0  0  0  0  0
    7.7600   -4.0110    2.7160 N   0  0  0  0  0  0  0  0  0  0  0  0
    7.4750   -4.6420    1.5320 C   0  0  0  0  0  0  0  0  0  0  0  0
    6.4520   -5.5550    1.2270 C   0  0  0  0  0  3  0  0  0  0  0  0
    6.3380   -6.0720   -0.0800 C   0  0  0  0  0  0  0  0  0  0  0  0
    7.2650   -5.6610   -1.0510 C   0  0  0  0  0  3  0  0  0  0  0  0
    8.2950   -4.7550   -0.7660 C   0  0  0  0  0  3  0  0  0  0  0  0
    8.3740   -4.2610    0.5430 C   0  0  0  0  0  0  0  0  0  0  0  0
    9.2310   -3.3720    1.1730 N   0  0  0  0  0  0  0  0  0  0  0  0
   10.3390   -2.7070    0.4900 C   0  0  0  0  0  3  0  0  0  0  0  0
   11.4060   -3.7020    0.0100 C   0  0  0  0  0  2  0  0  0  0  0  0
   12.6270   -2.9790   -0.5580 C   0  0  0  0  0  2  0  0  0  0  0  0
   12.2410   -1.9820   -1.6480 C   0  0  0  0  0  2  0  0  0  0  0  0
   11.1820   -0.9930   -1.1650 C   0  0  0  0  0  2  0  0  0  0  0  0
    9.9500   -1.7200   -0.6230 C   0  0  0  0  0  2  0  0  0  0  0  0
    5.2320   -7.0490   -0.4360 C   0  0  0  0  0  0  0  0  0  0  0  0
    4.0810   -6.8370    0.0600 O   0  0  0  0  0  1  0  0  0  0  0  0
    5.5380   -8.0100   -1.2130 O   0  0  0  0  0  0  0  0  0  0  0  0
   11.1710    0.1480    6.3170 O   0  0  0  0  0  0  0  0  0  0  0  0
   11.1690   -0.1630    7.7180 C   0  0  0  0  0  2  0  0  0  0  0  0
    9.1240    0.6770    9.0030 C   0  0  0  0  0  0  0  0  0  0  0  0
    8.5080    1.6710    9.7870 C   0  0  0  0  0  3  0  0  0  0  0  0
    9.1890    2.8340   10.1480 C   0  0  0  0  0  3  0  0  0  0  0  0
   10.5010    3.0170    9.7300 C   0  0  0  0  0  0  0  0  0  0  0  0
   11.3550    4.4370   10.1950 Cl  0  0  0  0  0  0  0  0  0  0  0  0
   11.1300    2.0530    8.9450 C   0  0  0  0  0  3  0  0  0  0  0  0
   10.4500    0.8820    8.5550 C   0  0  0  0  0  0  0  0  0  0  0  0
    6.9150   -2.9020    8.0760 C   0  0  0  0  0  0  0  0  0  0  0  0
    7.6260   -2.7850    9.2810 C   0  0  0  0  0  3  0  0  0  0  0  0
    8.3430   -1.6220    9.5850 C   0  0  0  0  0  3  0  0  0  0  0  0
    8.3650   -0.5430    8.6920 C   0  0  0  0  0  0  0  0  0  0  0  0
    7.6570   -0.6550    7.4870 C   0  0  0  0  0  3  0  0  0  0  0  0
    6.9420   -1.8170    7.1850 C   0  0  0  0  0  3  0  0  0  0  0  0
    6.4880   -5.2300    8.3460 O   0  0  0  0  0  1  0  0  0  0  0  0
    6.1450   -4.1650    7.7390 C   0  0  0  0  0  0  0  0  0  0  0  0
    5.2140   -4.0660    6.8800 O   0  0  0  0  0  0  0  0  0  0  0  0
  1  6  1  0  0  0  0
  1 25  1  0  0  0  0
  2  1  2  0  0  0  0
  3  4  2  0  0  0  0
  3  2  1  0  0  0  0
  4  5  1  0  0  0  0
  5  6  2  0  0  0  0
  7  8  2  0  0  0  0
  7  4  1  0  0  0  0
  9  8  1  0  0  0  0
 10  9  1  0  0  0  0
 11 10  2  0  0  0  0
 12 13  2  0  0  0  0
 12 11  1  0  0  0  0
 13 14  1  0  0  0  0
 14 15  1  0  0  0  0
 14  9  2  0  0  0  0
 15  7  1  0  0  0  0
 16 15  1  0  0  0  0
 17 16  1  0  0  0  0
 18 17  1  0  0  0  0
 19 20  1  0  0  0  0
 19 18  1  0  0  0  0
 20 21  1  0  0  0  0
 21 16  1  0  0  0  0
 22 11  1  0  0  0  0
 22 23  1  0  0  0  0
 24 22  2  0  0  0  0
 25 26  1  0  0  0  0
 26 33  1  0  0  0  0
 27 28  1  0  0  0  0
 28 29  2  0  0  0  0
 30 29  1  0  0  0  0
 30 31  1  0  0  0  0
 32 30  2  0  0  0  0
 33 32  1  0  0  0  0
 33 27  2  0  0  0  0
 34 35  1  0  0  0  0
 35 36  2  0  0  0  0
 37 27  1  0  0  0  0
 37 36  1  0  0  0  0
 38 37  2  0  0  0  0
 39 38  1  0  0  0  0
 39 34  2  0  0  0  0
 41 34  1  0  0  0  0
 41 40  1  0  0  0  0
 42 41  2  0  0  0  0
M  END
>  <minimizedAffinity>
-8.37477112

$$$$

 OpenBabel09122219493D

 42 47  0  0  0  0  0  0  0  0999 V2000
    3.4500   -1.0620    7.4970 C   0  0  0  0  0  0  0  0  0  0  0  0
    4.7250   -1.5800    7.2590 C   0  0  0  0  0  3  0  0  0  0  0  0
    4.9310   -2.5400    6.2630 C   0  0  0  0  0  3  0  0  0  0  0  0
    3.8560   -3.0020    5.5000 C   0  0  0  0  0  0  0  0  0  0  0  0
    2.5890   -2.4420    5.7020 C   0  0  0  0  0  3  0  0  0  0  0  0
    2.3840   -1.4810    6.7000 C   0  0  0  0  0  3  0  0  0  0  0  0
    4.0470   -4.0260    4.4790 C   0  0  0  0  0  0  0  0  0  0  0  0
    4.5410   -3.7670    3.2830 N   0  0  0  0  0  0  0  0  0  0  0  0
    4.5900   -4.9640    2.6160 C   0  0  0  0  0  0  0  0  0  0  0  0
    5.0520   -5.2500    1.3200 C   0  0  0  0  0  3  0  0  0  0  0  0
    5.0220   -6.5760    0.8390 C   0  0  0  0  0  0  0  0  0  0  0  0
    4.5200   -7.5850    1.6760 C   0  0  0  0  0  3  0  0  0  0  0  0
    4.0520   -7.3210    2.9700 C   0  0  0  0  0  3  0  0  0  0  0  0
    4.1000   -5.9920    3.4130 C   0  0  0  0  0  0  0  0  0  0  0  0
    3.7380   -5.3710    4.5990 N   0  0  0  0  0  0  0  0  0  0  0  0
    3.1780   -6.0910    5.7410 C   0  0  0  0  0  3  0  0  0  0  0  0
    3.8700   -5.7160    7.0600 C   0  0  0  0  0  2  0  0  0  0  0  0
    3.3820   -6.5910    8.2140 C   0  0  0  0  0  2  0  0  0  0  0  0
    1.8600   -6.5710    8.3390 C   0  0  0  0  0  2  0  0  0  0  0  0
    1.1770   -6.9470    7.0260 C   0  0  0  0  0  2  0  0  0  0  0  0
    1.6470   -6.0500    5.8780 C   0  0  0  0  0  2  0  0  0  0  0  0
    5.5280   -6.9100   -0.5520 C   0  0  0  0  0  0  0  0  0  0  0  0
    5.1480   -8.0100   -1.0650 O   0  0  0  0  0  1  0  0  0  0  0  0
    6.2930   -6.0580   -1.1090 O   0  0  0  0  0  0  0  0  0  0  0  0
    3.3890   -0.1440    8.5100 O   0  0  0  0  0  0  0  0  0  0  0  0
    2.7190   -0.5210    9.7210 C   0  0  0  0  0  2  0  0  0  0  0  0
    4.7720   -1.2480   11.0610 C   0  0  0  0  0  0  0  0  0  0  0  0
    5.4420   -2.2280   11.8180 C   0  0  0  0  0  3  0  0  0  0  0  0
    4.8580   -3.4700   12.0740 C   0  0  0  0  0  3  0  0  0  0  0  0
    3.5900   -3.7460   11.5770 C   0  0  0  0  0  0  0  0  0  0  0  0
    2.8540   -5.2650   11.9130 Cl  0  0  0  0  0  0  0  0  0  0  0  0
    2.9100   -2.7970   10.8170 C   0  0  0  0  0  3  0  0  0  0  0  0
    3.4930   -1.5450   10.5330 C   0  0  0  0  0  0  0  0  0  0  0  0
    6.6780    2.5660   10.4590 C   0  0  0  0  0  0  0  0  0  0  0  0
    5.5980    2.4320   11.3450 C   0  0  0  0  0  3  0  0  0  0  0  0
    4.9770    1.1930   11.5440 C   0  0  0  0  0  3  0  0  0  0  0  0
    5.4240    0.0530   10.8630 C   0  0  0  0  0  0  0  0  0  0  0  0
    6.5030    0.1820    9.9760 C   0  0  0  0  0  3  0  0  0  0  0  0
    7.1210    1.4210    9.7790 C   0  0  0  0  0  3  0  0  0  0  0  0
    7.2020    4.4420    9.0870 O   0  0  0  0  0  0  0  0  0  0  0  0
    7.3450    3.9100   10.2340 C   0  0  0  0  0  0  0  0  0  0  0  0
    7.9940    4.4060   11.2080 O   0  0  0  0  0  1  0  0  0  0  0  0
  1 25  1  0  0  0  0
  2  1  1  0  0  0  0
  3  2  2  0  0  0  0
  4  5  2  0  0  0  0
  4  3  1  0  0  0  0
  5  6  1  0  0  0  0
  6  1  2  0  0  0  0
  7 15  1  0  0  0  0
  7  4  1  0  0  0  0
  8  7  2  0  0  0  0
  9  8  1  0  0  0  0
  9 14  1  0  0  0  0
 10  9  2  0  0  0  0
 11 10  1  0  0  0  0
 11 12  2  0  0  0  0
 12 13  1  0  0  0  0
 13 14  2  0  0  0  0
 14 15  1  0  0  0  0
 15 16  1  0  0  0  0
 16 21  1  0  0  0  0
 16 17  1  0  0  0  0
 17 18  1  0  0  0  0
 18 19  1  0  0  0  0
 20 19  1  0  0  0  0
 21 20  1  0  0  0  0
 22 11  1  0  0  0  0
 23 22  1  0  0  0  0
 24 22  2  0  0  0  0
 25 26  1  0  0  0  0
 26 33  1  0  0  0  0
 27 28  1  0  0  0  0
 28 29  2  0  0  0  0
 30 31  1  0  0  0  0
 30 29  1  0  0  0  0
 32 30  2  0  0  0  0
 33 32  1  0  0  0  0
 33 27  2  0  0  0  0
 34 35  1  0  0  0  0
 35 36  2  0  0  0  0
 37 27  1  0  0  0  0
 37 36  1  0  0  0  0
 38 37  2  0  0  0  0
 39 38  1  0  0  0  0
 39 34  2  0  0  0  0
 40 41  2  0  0  0  0
 41 34  1  0  0  0  0
 41 42  1  0  0  0  0
M  END
>  <minimizedAffinity>
-8.36503983

$$$$

 OpenBabel09122219493D

 42 47  0  0  0  0  0  0  0  0999 V2000
   10.5720   -0.4160    5.3570 C   0  0  0  0  0  0  0  0  0  0  0  0
   10.6250   -1.7960    5.5640 C   0  0  0  0  0  3  0  0  0  0  0  0
   10.0780   -2.6790    4.6280 C   0  0  0  0  0  3  0  0  0  0  0  0
    9.4580   -2.1880    3.4780 C   0  0  0  0  0  0  0  0  0  0  0  0
    9.4540   -0.8080    3.2440 C   0  0  0  0  0  3  0  0  0  0  0  0
   10.0020    0.0760    4.1820 C   0  0  0  0  0  3  0  0  0  0  0  0
    8.8540   -3.0950    2.5070 C   0  0  0  0  0  0  0  0  0  0  0  0
    7.8170   -3.8620    2.7860 N   0  0  0  0  0  0  0  0  0  0  0  0
    7.5220   -4.5490    1.6360 C   0  0  0  0  0  0  0  0  0  0  0  0
    6.5000   -5.4790    1.3850 C   0  0  0  0  0  3  0  0  0  0  0  0
    6.3740   -6.0580    0.1050 C   0  0  0  0  0  0  0  0  0  0  0  0
    7.2900   -5.6890   -0.8940 C   0  0  0  0  0  3  0  0  0  0  0  0
    8.3180   -4.7660   -0.6630 C   0  0  0  0  0  3  0  0  0  0  0  0
    8.4090   -4.2110    0.6200 C   0  0  0  0  0  0  0  0  0  0  0  0
    9.2680   -3.2900    1.1990 N   0  0  0  0  0  0  0  0  0  0  0  0
   10.3660   -2.6530    0.4740 C   0  0  0  0  0  3  0  0  0  0  0  0
   11.4150   -3.6700   -0.0010 C   0  0  0  0  0  2  0  0  0  0  0  0
   12.6280   -2.9720   -0.6160 C   0  0  0  0  0  2  0  0  0  0  0  0
   12.2260   -2.0030   -1.7250 C   0  0  0  0  0  2  0  0  0  0  0  0
   11.1850   -0.9930   -1.2460 C   0  0  0  0  0  2  0  0  0  0  0  0
    9.9600   -1.6950   -0.6580 C   0  0  0  0  0  2  0  0  0  0  0  0
    5.2700   -7.0550   -0.1930 C   0  0  0  0  0  0  0  0  0  0  0  0
    5.4120   -7.8000   -1.2140 O   0  0  0  0  0  0  0  0  0  0  0  0
    4.2810   -7.0790    0.6090 O   0  0  0  0  0  1  0  0  0  0  0  0
   11.1300    0.3320    6.3580 O   0  0  0  0  0  0  0  0  0  0  0  0
   11.8890    1.4920    5.9890 C   0  0  0  0  0  2  0  0  0  0  0  0
   12.9160    3.2410    7.5470 C   0  0  0  0  0  0  0  0  0  0  0  0
   12.7490    4.2950    8.4660 C   0  0  0  0  0  3  0  0  0  0  0  0
   11.4790    4.7530    8.8200 C   0  0  0  0  0  3  0  0  0  0  0  0
   10.3560    4.1620    8.2530 C   0  0  0  0  0  0  0  0  0  0  0  0
    8.7880    4.7410    8.6650 Cl  0  0  0  0  0  0  0  0  0  0  0  0
   10.4930    3.1120    7.3480 C   0  0  0  0  0  3  0  0  0  0  0  0
   11.7680    2.6240    6.9950 C   0  0  0  0  0  0  0  0  0  0  0  0
   16.9090    2.0270    6.4860 C   0  0  0  0  0  0  0  0  0  0  0  0
   16.2020    2.9470    5.6970 C   0  0  0  0  0  3  0  0  0  0  0  0
   14.9050    3.3450    6.0400 C   0  0  0  0  0  3  0  0  0  0  0  0
   14.2810    2.8340    7.1860 C   0  0  0  0  0  0  0  0  0  0  0  0
   14.9830    1.9130    7.9780 C   0  0  0  0  0  3  0  0  0  0  0  0
   16.2790    1.5180    7.6320 C   0  0  0  0  0  3  0  0  0  0  0  0
   19.2390    1.8400    6.9440 O   0  0  0  0  0  1  0  0  0  0  0  0
   18.3110    1.5870    6.1100 C   0  0  0  0  0  0  0  0  0  0  0  0
   18.4550    0.9950    4.9950 O   0  0  0  0  0  0  0  0  0  0  0  0
  1  2  1  0  0  0  0
  1 25  1  0  0  0  0
  3  2  2  0  0  0  0
  4  3  1  0  0  0  0
  5  4  2  0  0  0  0
  5  6  1  0  0  0  0
  6  1  2  0  0  0  0
  7  8  2  0  0  0  0
  7  4  1  0  0  0  0
  9  8  1  0  0  0  0
 10  9  1  0  0  0  0
 11 10  2  0  0  0  0
 12 13  2  0  0  0  0
 12 11  1  0  0  0  0
 13 14  1  0  0  0  0
 14 15  1  0  0  0  0
 14  9  2  0  0  0  0
 15  7  1  0  0  0  0
 16 15  1  0  0  0  0
 17 16  1  0  0  0  0
 18 17  1  0  0  0  0
 19 20  1  0  0  0  0
 19 18  1  0  0  0  0
 20 21  1  0  0  0  0
 21 16  1  0  0  0  0
 22 11  1  0  0  0  0
 22 24  1  0  0  0  0
 23 22  2  0  0  0  0
 26 25  1  0  0  0  0
 26 33  1  0  0  0  0
 27 28  1  0  0  0  0
 28 29  2  0  0  0  0
 30 31  1  0  0  0  0
 30 29  1  0  0  0  0
 32 30  2  0  0  0  0
 33 32  1  0  0  0  0
 33 27  2  0  0  0  0
 34 39  1  0  0  0  0
 35 36  1  0  0  0  0
 35 34  2  0  0  0  0
 36 37  2  0  0  0  0
 37 27  1  0  0  0  0
 37 38  1  0  0  0  0
 39 38  2  0  0  0  0
 41 34  1  0  0  0  0
 41 40  1  0  0  0  0
 42 41  2  0  0  0  0
M  END
>  <minimizedAffinity>
-8.29311848

$$$$

 OpenBabel09122219493D

 42 47  0  0  0  0  0  0  0  0999 V2000
   10.5440   -0.5060    5.3400 C   0  0  0  0  0  0  0  0  0  0  0  0
   10.5450   -1.8860    5.5560 C   0  0  0  0  0  3  0  0  0  0  0  0
    9.9970   -2.7560    4.6090 C   0  0  0  0  0  3  0  0  0  0  0  0
    9.4290   -2.2520    3.4370 C   0  0  0  0  0  0  0  0  0  0  0  0
    9.4790   -0.8740    3.1960 C   0  0  0  0  0  3  0  0  0  0  0  0
   10.0270   -0.0030    4.1450 C   0  0  0  0  0  3  0  0  0  0  0  0
    8.8250   -3.1440    2.4530 C   0  0  0  0  0  0  0  0  0  0  0  0
    7.7930   -3.9210    2.7230 N   0  0  0  0  0  0  0  0  0  0  0  0
    7.4970   -4.5900    1.5630 C   0  0  0  0  0  0  0  0  0  0  0  0
    6.4770   -5.5200    1.3000 C   0  0  0  0  0  3  0  0  0  0  0  0
    6.3490   -6.0770    0.0100 C   0  0  0  0  0  0  0  0  0  0  0  0
    7.2580   -5.6860   -0.9860 C   0  0  0  0  0  3  0  0  0  0  0  0
    8.2830   -4.7630   -0.7440 C   0  0  0  0  0  3  0  0  0  0  0  0
    8.3770   -4.2300    0.5490 C   0  0  0  0  0  0  0  0  0  0  0  0
    9.2350   -3.3150    1.1410 N   0  0  0  0  0  0  0  0  0  0  0  0
   10.3260   -2.6590    0.4220 C   0  0  0  0  0  3  0  0  0  0  0  0
   11.3780   -3.6630   -0.0750 C   0  0  0  0  0  2  0  0  0  0  0  0
   12.5850   -2.9490   -0.6830 C   0  0  0  0  0  2  0  0  0  0  0  0
   12.1730   -1.9620   -1.7730 C   0  0  0  0  0  2  0  0  0  0  0  0
   11.1300   -0.9660   -1.2730 C   0  0  0  0  0  2  0  0  0  0  0  0
    9.9100   -1.6840   -0.6910 C   0  0  0  0  0  2  0  0  0  0  0  0
    5.2480   -7.0740   -0.3000 C   0  0  0  0  0  0  0  0  0  0  0  0
    5.4990   -7.9770   -1.1590 O   0  0  0  0  0  0  0  0  0  0  0  0
    4.1500   -6.9380    0.3300 O   0  0  0  0  0  1  0  0  0  0  0  0
   11.0960    0.2290    6.3540 O   0  0  0  0  0  0  0  0  0  0  0  0
   10.3460    1.3400    6.8660 C   0  0  0  0  0  2  0  0  0  0  0  0
   12.0400    3.2540    6.9490 C   0  0  0  0  0  0  0  0  0  0  0  0
   12.8070    4.1630    7.7030 C   0  0  0  0  0  3  0  0  0  0  0  0
   12.7390    4.1880    9.0970 C   0  0  0  0  0  3  0  0  0  0  0  0
   11.8970    3.3010    9.7570 C   0  0  0  0  0  0  0  0  0  0  0  0
   11.7880    3.3460   11.4740 Cl  0  0  0  0  0  0  0  0  0  0  0  0
   11.1340    2.3850    9.0350 C   0  0  0  0  0  3  0  0  0  0  0  0
   11.2060    2.3340    7.6280 C   0  0  0  0  0  0  0  0  0  0  0  0
   12.2990    3.3890    2.6530 C   0  0  0  0  0  0  0  0  0  0  0  0
   11.1010    3.7040    3.3140 C   0  0  0  0  0  3  0  0  0  0  0  0
   11.0140    3.6620    4.7100 C   0  0  0  0  0  3  0  0  0  0  0  0
   12.1270    3.3080    5.4840 C   0  0  0  0  0  0  0  0  0  0  0  0
   13.3270    2.9920    4.8290 C   0  0  0  0  0  3  0  0  0  0  0  0
   13.4100    3.0340    3.4340 C   0  0  0  0  0  3  0  0  0  0  0  0
   13.5560    3.3540    0.6300 O   0  0  0  0  0  1  0  0  0  0  0  0
   12.3920    3.4240    1.1400 C   0  0  0  0  0  0  0  0  0  0  0  0
   11.3020    3.5160    0.4920 O   0  0  0  0  0  0  0  0  0  0  0  0
  1  2  1  0  0  0  0
  1 25  1  0  0  0  0
  3  2  2  0  0  0  0
  4  3  1  0  0  0  0
  5  4  2  0  0  0  0
  5  6  1  0  0  0  0
  6  1  2  0  0  0  0
  7  8  2  0  0  0  0
  7  4  1  0  0  0  0
  9  8  1  0  0  0  0
 10  9  1  0  0  0  0
 11 10  2  0  0  0  0
 12 13  2  0  0  0  0
 12 11  1  0  0  0  0
 13 14  1  0  0  0  0
 14 15  1  0  0  0  0
 14  9  2  0  0  0  0
 15  7  1  0  0  0  0
 16 15  1  0  0  0  0
 17 16  1  0  0  0  0
 18 17  1  0  0  0  0
 19 20  1  0  0  0  0
 19 18  1  0  0  0  0
 20 21  1  0  0  0  0
 21 16  1  0  0  0  0
 22 11  1  0  0  0  0
 22 24  1  0  0  0  0
 23 22  2  0  0  0  0
 25 26  1  0  0  0  0
 26 33  1  0  0  0  0
 27 33  2  0  0  0  0
 27 28  1  0  0  0  0
 28 29  2  0  0  0  0
 29 30  1  0  0  0  0
 30 31  1  0  0  0  0
 32 30  2  0  0  0  0
 33 32  1  0  0  0  0
 34 35  2  0  0  0  0
 34 39  1  0  0  0  0
 35 36  1  0  0  0  0
 36 37  2  0  0  0  0
 37 27  1  0  0  0  0
 38 37  1  0  0  0  0
 39 38  2  0  0  0  0
 40 41  1  0  0  0  0
 41 34  1  0  0  0  0
 42 41  2  0  0  0  0
M  END
>  <minimizedAffinity>
-8.17606831

$$$$

 OpenBabel09122219493D

 42 47  0  0  0  0  0  0  0  0999 V2000
    3.4910   -1.0150    7.7740 C   0  0  0  0  0  0  0  0  0  0  0  0
    4.7810   -1.4520    7.4620 C   0  0  0  0  0  3  0  0  0  0  0  0
    4.9890   -2.3980    6.4540 C   0  0  0  0  0  3  0  0  0  0  0  0
    3.9050   -2.9270    5.7520 C   0  0  0  0  0  0  0  0  0  0  0  0
    2.6180   -2.4470    6.0260 C   0  0  0  0  0  3  0  0  0  0  0  0
    2.4100   -1.5010    7.0370 C   0  0  0  0  0  3  0  0  0  0  0  0
    4.1020   -3.9380    4.7190 C   0  0  0  0  0  0  0  0  0  0  0  0
    4.5650   -3.6580    3.5160 N   0  0  0  0  0  0  0  0  0  0  0  0
    4.6320   -4.8480    2.8380 C   0  0  0  0  0  0  0  0  0  0  0  0
    5.0750   -5.1120    1.5310 C   0  0  0  0  0  3  0  0  0  0  0  0
    5.0700   -6.4340    1.0400 C   0  0  0  0  0  0  0  0  0  0  0  0
    4.6110   -7.4620    1.8790 C   0  0  0  0  0  3  0  0  0  0  0  0
    4.1620   -7.2200    3.1840 C   0  0  0  0  0  3  0  0  0  0  0  0
    4.1850   -5.8940    3.6360 C   0  0  0  0  0  0  0  0  0  0  0  0
    3.8310   -5.2920    4.8340 N   0  0  0  0  0  0  0  0  0  0  0  0
    3.3120   -6.0350    5.9820 C   0  0  0  0  0  3  0  0  0  0  0  0
    4.0370   -5.6690    7.2860 C   0  0  0  0  0  2  0  0  0  0  0  0
    3.5930   -6.5660    8.4410 C   0  0  0  0  0  2  0  0  0  0  0  0
    2.0750   -6.5670    8.6090 C   0  0  0  0  0  2  0  0  0  0  0  0
    1.3600   -6.9340    7.3100 C   0  0  0  0  0  2  0  0  0  0  0  0
    1.7860   -6.0160    6.1630 C   0  0  0  0  0  2  0  0  0  0  0  0
    5.5560   -6.7440   -0.3630 C   0  0  0  0  0  0  0  0  0  0  0  0
    5.1470   -7.8220   -0.9010 O   0  0  0  0  0  1  0  0  0  0  0  0
    6.3360   -5.8970   -0.9060 O   0  0  0  0  0  0  0  0  0  0  0  0
    3.4300   -0.1010    8.7910 O   0  0  0  0  0  0  0  0  0  0  0  0
    4.3370   -0.2570    9.8920 C   0  0  0  0  0  2  0  0  0  0  0  0
    4.7740   -2.4280   11.1700 C   0  0  0  0  0  0  0  0  0  0  0  0
    4.3380   -3.4070   12.0830 C   0  0  0  0  0  3  0  0  0  0  0  0
    3.0890   -3.3170   12.7000 C   0  0  0  0  0  3  0  0  0  0  0  0
    2.2600   -2.2410   12.4120 C   0  0  0  0  0  0  0  0  0  0  0  0
    0.7300   -2.1100   13.1910 Cl  0  0  0  0  0  0  0  0  0  0  0  0
    2.6630   -1.2630   11.5060 C   0  0  0  0  0  3  0  0  0  0  0  0
    3.9130   -1.3490   10.8590 C   0  0  0  0  0  0  0  0  0  0  0  0
    8.6990   -2.8120    9.4410 C   0  0  0  0  0  0  0  0  0  0  0  0
    8.3770   -1.7210   10.2630 C   0  0  0  0  0  3  0  0  0  0  0  0
    7.1030   -1.5950   10.8280 C   0  0  0  0  0  3  0  0  0  0  0  0
    6.1160   -2.5600   10.5870 C   0  0  0  0  0  0  0  0  0  0  0  0
    6.4330   -3.6510    9.7650 C   0  0  0  0  0  3  0  0  0  0  0  0
    7.7060   -3.7750    9.2020 C   0  0  0  0  0  3  0  0  0  0  0  0
   10.2920   -2.2960    7.7460 O   0  0  0  0  0  0  0  0  0  0  0  0
   10.0760   -2.9460    8.8190 C   0  0  0  0  0  0  0  0  0  0  0  0
   10.9140   -3.6920    9.4170 O   0  0  0  0  0  1  0  0  0  0  0  0
  1 25  1  0  0  0  0
  2  1  1  0  0  0  0
  3  2  2  0  0  0  0
  4  5  2  0  0  0  0
  4  3  1  0  0  0  0
  5  6  1  0  0  0  0
  6  1  2  0  0  0  0
  7 15  1  0  0  0  0
  7  4  1  0  0  0  0
  8  7  2  0  0  0  0
  9  8  1  0  0  0  0
  9 14  1  0  0  0  0
 10  9  2  0  0  0  0
 11 10  1  0  0  0  0
 11 12  2  0  0  0  0
 12 13  1  0  0  0  0
 13 14  2  0  0  0  0
 14 15  1  0  0  0  0
 15 16  1  0  0  0  0
 16 21  1  0  0  0  0
 16 17  1  0  0  0  0
 17 18  1  0  0  0  0
 18 19  1  0  0  0  0
 20 19  1  0  0  0  0
 21 20  1  0  0  0  0
 22 11  1  0  0  0  0
 23 22  1  0  0  0  0
 24 22  2  0  0  0  0
 25 26  1  0  0  0  0
 26 33  1  0  0  0  0
 27 28  1  0  0  0  0
 28 29  2  0  0  0  0
 30 29  1  0  0  0  0
 30 31  1  0  0  0  0
 32 30  2  0  0  0  0
 33 27  2  0  0  0  0
 33 32  1  0  0  0  0
 34 35  1  0  0  0  0
 35 36  2  0  0  0  0
 37 36  1  0  0  0  0
 37 27  1  0  0  0  0
 38 37  2  0  0  0  0
 39 34  2  0  0  0  0
 39 38  1  0  0  0  0
 40 41  2  0  0  0  0
 41 42  1  0  0  0  0
 41 34  1  0  0  0  0
M  END
>  <minimizedAffinity>
-8.16553879

$$$$

 OpenBabel09122219493D

 42 47  0  0  0  0  0  0  0  0999 V2000
    5.5950    1.0760   11.8770 C   0  0  0  0  0  0  0  0  0  0  0  0
    4.5020    1.2590   11.0270 C   0  0  0  0  0  3  0  0  0  0  0  0
    4.1780    0.3000   10.0630 C   0  0  0  0  0  3  0  0  0  0  0  0
    4.9560   -0.8520    9.9300 C   0  0  0  0  0  0  0  0  0  0  0  0
    6.0180   -1.0620   10.8180 C   0  0  0  0  0  3  0  0  0  0  0  0
    6.3410   -0.1000   11.7830 C   0  0  0  0  0  3  0  0  0  0  0  0
    4.6510   -1.8480    8.9090 C   0  0  0  0  0  0  0  0  0  0  0  0
    5.1600   -1.8110    7.6920 N   0  0  0  0  0  0  0  0  0  0  0  0
    4.6680   -2.9070    7.0310 C   0  0  0  0  0  0  0  0  0  0  0  0
    4.9120   -3.3480    5.7200 C   0  0  0  0  0  3  0  0  0  0  0  0
    4.3000   -4.5290    5.2490 C   0  0  0  0  0  0  0  0  0  0  0  0
    3.4500   -5.2370    6.1130 C   0  0  0  0  0  3  0  0  0  0  0  0
    3.1910   -4.8140    7.4230 C   0  0  0  0  0  3  0  0  0  0  0  0
    3.8190   -3.6370    7.8550 C   0  0  0  0  0  0  0  0  0  0  0  0
    3.8040   -2.9350    9.0510 N   0  0  0  0  0  0  0  0  0  0  0  0
    3.0370   -3.3610   10.2200 C   0  0  0  0  0  3  0  0  0  0  0  0
    1.5220   -3.2960    9.9740 C   0  0  0  0  0  2  0  0  0  0  0  0
    0.7370   -3.5910   11.2530 C   0  0  0  0  0  2  0  0  0  0  0  0
    1.1590   -4.9150   11.8860 C   0  0  0  0  0  2  0  0  0  0  0  0
    2.6650   -4.9730   12.1300 C   0  0  0  0  0  2  0  0  0  0  0  0
    3.4480   -4.7050   10.8430 C   0  0  0  0  0  2  0  0  0  0  0  0
    4.5590   -5.0300    3.8410 C   0  0  0  0  0  0  0  0  0  0  0  0
    5.2260   -6.1060    3.7140 O   0  0  0  0  0  1  0  0  0  0  0  0
    4.0820   -4.3390    2.8840 O   0  0  0  0  0  0  0  0  0  0  0  0
    5.8070    2.0990   12.7610 O   0  0  0  0  0  0  0  0  0  0  0  0
    7.1610    2.5000   13.0140 C   0  0  0  0  0  2  0  0  0  0  0  0
    8.0840    3.8320   11.0360 C   0  0  0  0  0  0  0  0  0  0  0  0
    8.3930    5.0740   10.4480 C   0  0  0  0  0  3  0  0  0  0  0  0
    8.1370    6.2740   11.1130 C   0  0  0  0  0  3  0  0  0  0  0  0
    7.5640    6.2470   12.3780 C   0  0  0  0  0  0  0  0  0  0  0  0
    7.2210    7.7240   13.1910 Cl  0  0  0  0  0  0  0  0  0  0  0  0
    7.2570    5.0320   12.9860 C   0  0  0  0  0  3  0  0  0  0  0  0
    7.5270    3.8100   12.3370 C   0  0  0  0  0  0  0  0  0  0  0  0
    8.8420    0.2550    8.7620 C   0  0  0  0  0  0  0  0  0  0  0  0
    9.6070    0.5640    9.8970 C   0  0  0  0  0  3  0  0  0  0  0  0
    9.3620    1.7250   10.6390 C   0  0  0  0  0  3  0  0  0  0  0  0
    8.3400    2.6080   10.2660 C   0  0  0  0  0  0  0  0  0  0  0  0
    7.5730    2.3040    9.1310 C   0  0  0  0  0  3  0  0  0  0  0  0
    7.8200    1.1440    8.3920 C   0  0  0  0  0  3  0  0  0  0  0  0
   10.0680   -1.7430    8.3390 O   0  0  0  0  0  1  0  0  0  0  0  0
    9.1130   -0.9980    7.9500 C   0  0  0  0  0  0  0  0  0  0  0  0
    8.3640   -1.2120    6.9450 O   0  0  0  0  0  0  0  0  0  0  0  0
  1 25  1  0  0  0  0
  2  1  2  0  0  0  0
  3  2  1  0  0  0  0
  4  3  2  0  0  0  0
  4  5  1  0  0  0  0
  5  6  2  0  0  0  0
  6  1  1  0  0  0  0
  7 15  1  0  0  0  0
  7  4  1  0  0  0  0
  8  7  2  0  0  0  0
  9  8  1  0  0  0  0
  9 14  1  0  0  0  0
 10  9  2  0  0  0  0
 11 10  1  0  0  0  0
 11 12  2  0  0  0  0
 12 13  1  0  0  0  0
 13 14  2  0  0  0  0
 14 15  1  0  0  0  0
 15 16  1  0  0  0  0
 16 21  1  0  0  0  0
 17 16  1  0  0  0  0
 17 18  1  0  0  0  0
 18 19  1  0  0  0  0
 19 20  1  0  0  0  0
 21 20  1  0  0  0  0
 22 11  1  0  0  0  0
 23 22  1  0  0  0  0
 24 22  2  0  0  0  0
 25 26  1  0  0  0  0
 27 33  1  0  0  0  0
 28 27  2  0  0  0  0
 28 29  1  0  0  0  0
 29 30  2  0  0  0  0
 30 32  1  0  0  0  0
 30 31  1  0  0  0  0
 33 32  2  0  0  0  0
 33 26  1  0  0  0  0
 34 35  1  0  0  0  0
 35 36  2  0  0  0  0
 37 36  1  0  0  0  0
 37 27  1  0  0  0  0
 38 37  2  0  0  0  0
 39 34  2  0  0  0  0
 39 38  1  0  0  0  0
 41 40  1  0  0  0  0
 41 34  1  0  0  0  0
 42 41  2  0  0  0  0
M  END
>  <minimizedAffinity>
-8.14933109

$$$$

 OpenBabel09122219493D

 42 47  0  0  0  0  0  0  0  0999 V2000
    9.3040   -2.4210    4.7450 C   0  0  0  0  0  0  0  0  0  0  0  0
    9.9530   -1.2610    5.1740 C   0  0  0  0  0  3  0  0  0  0  0  0
    9.4560   -0.5220    6.2520 C   0  0  0  0  0  3  0  0  0  0  0  0
    8.2930   -0.9320    6.9080 C   0  0  0  0  0  0  0  0  0  0  0  0
    7.6750   -2.1240    6.5130 C   0  0  0  0  0  3  0  0  0  0  0  0
    8.1730   -2.8630    5.4330 C   0  0  0  0  0  3  0  0  0  0  0  0
    7.7430   -0.1560    8.0140 C   0  0  0  0  0  0  0  0  0  0  0  0
    8.3720    0.8690    8.5580 N   0  0  0  0  0  0  0  0  0  0  0  0
    7.5480    1.3520    9.5410 C   0  0  0  0  0  0  0  0  0  0  0  0
    7.7300    2.4440   10.4060 C   0  0  0  0  0  3  0  0  0  0  0  0
    6.7280    2.7730   11.3440 C   0  0  0  0  0  0  0  0  0  0  0  0
    5.5660    1.9870   11.3920 C   0  0  0  0  0  3  0  0  0  0  0  0
    5.3660    0.8930   10.5400 C   0  0  0  0  0  3  0  0  0  0  0  0
    6.3830    0.5990    9.6210 C   0  0  0  0  0  0  0  0  0  0  0  0
    6.5310   -0.3760    8.6460 N   0  0  0  0  0  0  0  0  0  0  0  0
    5.5170   -1.3940    8.3710 C   0  0  0  0  0  3  0  0  0  0  0  0
    5.1510   -2.2020    9.6260 C   0  0  0  0  0  2  0  0  0  0  0  0
    4.2120   -3.3600    9.2880 C   0  0  0  0  0  2  0  0  0  0  0  0
    2.9750   -2.8860    8.5290 C   0  0  0  0  0  2  0  0  0  0  0  0
    3.3450   -2.0850    7.2820 C   0  0  0  0  0  2  0  0  0  0  0  0
    4.2610   -0.9100    7.6280 C   0  0  0  0  0  2  0  0  0  0  0  0
    6.8980    3.9560   12.2800 C   0  0  0  0  0  0  0  0  0  0  0  0
    6.0250    4.1110   13.1920 O   0  0  0  0  0  1  0  0  0  0  0  0
    7.9090    4.7050   12.0870 O   0  0  0  0  0  0  0  0  0  0  0  0
    9.8880   -3.0350    3.6710 O   0  0  0  0  0  0  0  0  0  0  0  0
    9.6360   -2.4940    2.3660 C   0  0  0  0  0  2  0  0  0  0  0  0
    9.3560   -3.6440    0.0990 C   0  0  0  0  0  0  0  0  0  0  0  0
    8.6840   -4.5780   -0.7120 C   0  0  0  0  0  3  0  0  0  0  0  0
    7.6380   -5.3540   -0.2110 C   0  0  0  0  0  3  0  0  0  0  0  0
    7.2520   -5.2060    1.1160 C   0  0  0  0  0  0  0  0  0  0  0  0
    5.9810   -6.1800    1.7480 Cl  0  0  0  0  0  0  0  0  0  0  0  0
    7.8940   -4.2830    1.9380 C   0  0  0  0  0  3  0  0  0  0  0  0
    8.9390   -3.4770    1.4410 C   0  0  0  0  0  0  0  0  0  0  0  0
   12.6350   -1.4140   -1.5790 C   0  0  0  0  0  0  0  0  0  0  0  0
   12.8330   -2.6990   -1.0500 C   0  0  0  0  0  3  0  0  0  0  0  0
   11.7690   -3.4270   -0.5060 C   0  0  0  0  0  3  0  0  0  0  0  0
   10.4750   -2.8880   -0.4790 C   0  0  0  0  0  0  0  0  0  0  0  0
   10.2730   -1.6040   -1.0050 C   0  0  0  0  0  3  0  0  0  0  0  0
   11.3380   -0.8800   -1.5480 C   0  0  0  0  0  3  0  0  0  0  0  0
   13.6470    0.6440   -2.2240 O   0  0  0  0  0  1  0  0  0  0  0  0
   13.7890   -0.6190   -2.1600 C   0  0  0  0  0  0  0  0  0  0  0  0
   14.8130   -1.2720   -2.5370 O   0  0  0  0  0  0  0  0  0  0  0  0
  1  2  2  0  0  0  0
  1  6  1  0  0  0  0
  2  3  1  0  0  0  0
  3  4  2  0  0  0  0
  4  7  1  0  0  0  0
  5  4  1  0  0  0  0
  6  5  2  0  0  0  0
  7  8  2  0  0  0  0
  7 15  1  0  0  0  0
  8  9  1  0  0  0  0
  9 14  2  0  0  0  0
  9 10  1  0  0  0  0
 10 11  2  0  0  0  0
 11 12  1  0  0  0  0
 11 22  1  0  0  0  0
 13 12  2  0  0  0  0
 14 13  1  0  0  0  0
 15 14  1  0  0  0  0
 16 15  1  0  0  0  0
 16 17  1  0  0  0  0
 18 17  1  0  0  0  0
 19 18  1  0  0  0  0
 20 21  1  0  0  0  0
 20 19  1  0  0  0  0
 21 16  1  0  0  0  0
 22 23  1  0  0  0  0
 24 22  2  0  0  0  0
 25  1  1  0  0  0  0
 26 25  1  0  0  0  0
 27 33  1  0  0  0  0
 28 29  1  0  0  0  0
 28 27  2  0  0  0  0
 29 30  2  0  0  0  0
 30 31  1  0  0  0  0
 30 32  1  0  0  0  0
 33 32  2  0  0  0  0
 33 26  1  0  0  0  0
 34 39  2  0  0  0  0
 34 35  1  0  0  0  0
 35 36  2  0  0  0  0
 36 37  1  0  0  0  0
 37 27  1  0  0  0  0
 38 37  2  0  0  0  0
 39 38  1  0  0  0  0
 40 41  1  0  0  0  0
 41 34  1  0  0  0  0
 42 41  2  0  0  0  0
M  END
>  <minimizedAffinity>
-8.07045746

$$$$

 OpenBabel09122219493D

 42 47  0  0  0  0  0  0  0  0999 V2000
   10.6040   -0.3640    5.3890 C   0  0  0  0  0  0  0  0  0  0  0  0
   10.6890   -1.7440    5.5850 C   0  0  0  0  0  3  0  0  0  0  0  0
   10.1400   -2.6310    4.6550 C   0  0  0  0  0  3  0  0  0  0  0  0
    9.4870   -2.1450    3.5210 C   0  0  0  0  0  0  0  0  0  0  0  0
    9.4510   -0.7640    3.2960 C   0  0  0  0  0  3  0  0  0  0  0  0
   10.0010    0.1240    4.2290 C   0  0  0  0  0  3  0  0  0  0  0  0
    8.8800   -3.0570    2.5560 C   0  0  0  0  0  0  0  0  0  0  0  0
    7.8330   -3.8090    2.8360 N   0  0  0  0  0  0  0  0  0  0  0  0
    7.5400   -4.5080    1.6930 C   0  0  0  0  0  0  0  0  0  0  0  0
    6.5100   -5.4300    1.4440 C   0  0  0  0  0  3  0  0  0  0  0  0
    6.3890   -6.0230    0.1700 C   0  0  0  0  0  0  0  0  0  0  0  0
    7.3160   -5.6770   -0.8250 C   0  0  0  0  0  3  0  0  0  0  0  0
    8.3520   -4.7620   -0.5970 C   0  0  0  0  0  3  0  0  0  0  0  0
    8.4390   -4.1920    0.6800 C   0  0  0  0  0  0  0  0  0  0  0  0
    9.3040   -3.2730    1.2550 N   0  0  0  0  0  0  0  0  0  0  0  0
   10.4140   -2.6570    0.5300 C   0  0  0  0  0  3  0  0  0  0  0  0
   11.4520   -3.6920    0.0700 C   0  0  0  0  0  2  0  0  0  0  0  0
   12.6780   -3.0170   -0.5430 C   0  0  0  0  0  2  0  0  0  0  0  0
   12.2960   -2.0510   -1.6620 C   0  0  0  0  0  2  0  0  0  0  0  0
   11.2660   -1.0230   -1.1980 C   0  0  0  0  0  2  0  0  0  0  0  0
   10.0280   -1.7030   -0.6110 C   0  0  0  0  0  2  0  0  0  0  0  0
    5.2760   -7.0120   -0.1240 C   0  0  0  0  0  0  0  0  0  0  0  0
    4.3560   -7.1350    0.7450 O   0  0  0  0  0  1  0  0  0  0  0  0
    5.3400   -7.6440   -1.2270 O   0  0  0  0  0  0  0  0  0  0  0  0
   11.1680    0.3890    6.3840 O   0  0  0  0  0  0  0  0  0  0  0  0
   10.7840    0.1110    7.7380 C   0  0  0  0  0  2  0  0  0  0  0  0
   11.9320   -0.9850    9.7420 C   0  0  0  0  0  0  0  0  0  0  0  0
   13.0670   -1.1230   10.5650 C   0  0  0  0  0  3  0  0  0  0  0  0
   14.2310   -0.3930   10.3210 C   0  0  0  0  0  3  0  0  0  0  0  0
   14.2760    0.4850    9.2450 C   0  0  0  0  0  0  0  0  0  0  0  0
   15.7190    1.3670    8.9230 Cl  0  0  0  0  0  0  0  0  0  0  0  0
   13.1640    0.6470    8.4210 C   0  0  0  0  0  3  0  0  0  0  0  0
   11.9740   -0.0680    8.6660 C   0  0  0  0  0  0  0  0  0  0  0  0
    8.4890   -3.4250   10.5940 C   0  0  0  0  0  0  0  0  0  0  0  0
    8.6370   -2.1590   11.1800 C   0  0  0  0  0  3  0  0  0  0  0  0
    9.7550   -1.3630   10.9040 C   0  0  0  0  0  3  0  0  0  0  0  0
   10.7530   -1.8130   10.0290 C   0  0  0  0  0  0  0  0  0  0  0  0
   10.6090   -3.0780    9.4420 C   0  0  0  0  0  3  0  0  0  0  0  0
    9.4920   -3.8710    9.7200 C   0  0  0  0  0  3  0  0  0  0  0  0
    7.5010   -5.3920   11.5050 O   0  0  0  0  0  1  0  0  0  0  0  0
    7.2830   -4.2940   10.9000 C   0  0  0  0  0  0  0  0  0  0  0  0
    6.1460   -3.8600   10.5330 O   0  0  0  0  0  0  0  0  0  0  0  0
  1  2  1  0  0  0  0
  1 25  1  0  0  0  0
  3  2  2  0  0  0  0
  4  3  1  0  0  0  0
  5  4  2  0  0  0  0
  5  6  1  0  0  0  0
  6  1  2  0  0  0  0
  7  8  2  0  0  0  0
  7  4  1  0  0  0  0
  9  8  1  0  0  0  0
 10  9  1  0  0  0  0
 11 10  2  0  0  0  0
 12 13  2  0  0  0  0
 12 11  1  0  0  0  0
 13 14  1  0  0  0  0
 14 15  1  0  0  0  0
 14  9  2  0  0  0  0
 15  7  1  0  0  0  0
 16 15  1  0  0  0  0
 17 16  1  0  0  0  0
 18 17  1  0  0  0  0
 19 20  1  0  0  0  0
 19 18  1  0  0  0  0
 20 21  1  0  0  0  0
 21 16  1  0  0  0  0
 22 11  1  0  0  0  0
 22 23  1  0  0  0  0
 24 22  2  0  0  0  0
 25 26  1  0  0  0  0
 26 33  1  0  0  0  0
 27 37  1  0  0  0  0
 27 28  1  0  0  0  0
 29 28  2  0  0  0  0
 30 29  1  0  0  0  0
 31 30  1  0  0  0  0
 32 33  1  0  0  0  0
 32 30  2  0  0  0  0
 33 27  2  0  0  0  0
 34 41  1  0  0  0  0
 34 35  1  0  0  0  0
 36 35  2  0  0  0  0
 37 36  1  0  0  0  0
 38 39  1  0  0  0  0
 38 37  2  0  0  0  0
 39 34  2  0  0  0  0
 41 40  1  0  0  0  0
 42 41  2  0  0  0  0
M  END
>  <minimizedAffinity>
-8.06359482

$$$$
