
 OpenBabel09122222393D

 42 47  0  0  0  0  0  0  0  0999 V2000
    5.5950    1.0760   11.8770 C   0  0  0  0  0  0  0  0  0  0  0  0
    4.5020    1.2590   11.0270 C   0  0  0  0  0  3  0  0  0  0  0  0
    4.1780    0.3000   10.0630 C   0  0  0  0  0  3  0  0  0  0  0  0
    4.9560   -0.8520    9.9300 C   0  0  0  0  0  0  0  0  0  0  0  0
    6.0180   -1.0620   10.8180 C   0  0  0  0  0  3  0  0  0  0  0  0
    6.3410   -0.1000   11.7830 C   0  0  0  0  0  3  0  0  0  0  0  0
    4.6510   -1.8480    8.9090 C   0  0  0  0  0  0  0  0  0  0  0  0
    5.1600   -1.8110    7.6920 N   0  0  0  0  0  0  0  0  0  0  0  0
    4.6680   -2.9070    7.0310 C   0  0  0  0  0  0  0  0  0  0  0  0
    4.9120   -3.3480    5.7200 C   0  0  0  0  0  3  0  0  0  0  0  0
    4.3000   -4.5290    5.2490 C   0  0  0  0  0  0  0  0  0  0  0  0
    3.4500   -5.2370    6.1130 C   0  0  0  0  0  3  0  0  0  0  0  0
    3.1910   -4.8140    7.4230 C   0  0  0  0  0  3  0  0  0  0  0  0
    3.8190   -3.6370    7.8550 C   0  0  0  0  0  0  0  0  0  0  0  0
    3.8040   -2.9350    9.0510 N   0  0  0  0  0  0  0  0  0  0  0  0
    3.0370   -3.3610   10.2200 C   0  0  0  0  0  3  0  0  0  0  0  0
    1.5220   -3.2960    9.9740 C   0  0  0  0  0  2  0  0  0  0  0  0
    0.7370   -3.5910   11.2530 C   0  0  0  0  0  2  0  0  0  0  0  0
    1.1590   -4.9150   11.8860 C   0  0  0  0  0  2  0  0  0  0  0  0
    2.6650   -4.9730   12.1300 C   0  0  0  0  0  2  0  0  0  0  0  0
    3.4480   -4.7050   10.8430 C   0  0  0  0  0  2  0  0  0  0  0  0
    4.5590   -5.0300    3.8410 C   0  0  0  0  0  0  0  0  0  0  0  0
    5.2260   -6.1060    3.7140 O   0  0  0  0  0  1  0  0  0  0  0  0
    4.0820   -4.3390    2.8840 O   0  0  0  0  0  0  0  0  0  0  0  0
    5.8070    2.0990   12.7610 O   0  0  0  0  0  0  0  0  0  0  0  0
    7.1610    2.5000   13.0140 C   0  0  0  0  0  2  0  0  0  0  0  0
    8.0840    3.8320   11.0360 C   0  0  0  0  0  0  0  0  0  0  0  0
    8.3930    5.0740   10.4480 C   0  0  0  0  0  3  0  0  0  0  0  0
    8.1370    6.2740   11.1130 C   0  0  0  0  0  3  0  0  0  0  0  0
    7.5640    6.2470   12.3780 C   0  0  0  0  0  0  0  0  0  0  0  0
    7.2210    7.7240   13.1910 Cl  0  0  0  0  0  0  0  0  0  0  0  0
    7.2570    5.0320   12.9860 C   0  0  0  0  0  3  0  0  0  0  0  0
    7.5270    3.8100   12.3370 C   0  0  0  0  0  0  0  0  0  0  0  0
    8.8420    0.2550    8.7620 C   0  0  0  0  0  0  0  0  0  0  0  0
    9.6070    0.5640    9.8970 C   0  0  0  0  0  3  0  0  0  0  0  0
    9.3620    1.7250   10.6390 C   0  0  0  0  0  3  0  0  0  0  0  0
    8.3400    2.6080   10.2660 C   0  0  0  0  0  0  0  0  0  0  0  0
    7.5730    2.3040    9.1310 C   0  0  0  0  0  3  0  0  0  0  0  0
    7.8200    1.1440    8.3920 C   0  0  0  0  0  3  0  0  0  0  0  0
   10.0680   -1.7430    8.3390 O   0  0  0  0  0  1  0  0  0  0  0  0
    9.1130   -0.9980    7.9500 C   0  0  0  0  0  0  0  0  0  0  0  0
    8.3640   -1.2120    6.9450 O   0  0  0  0  0  0  0  0  0  0  0  0
  1 25  1  0  0  0  0
  2  1  2  0  0  0  0
  3  2  1  0  0  0  0
  4  3  2  0  0  0  0
  4  5  1  0  0  0  0
  5  6  2  0  0  0  0
  6  1  1  0  0  0  0
  7 15  1  0  0  0  0
  7  4  1  0  0  0  0
  8  7  2  0  0  0  0
  9  8  1  0  0  0  0
  9 14  1  0  0  0  0
 10  9  2  0  0  0  0
 11 10  1  0  0  0  0
 11 12  2  0  0  0  0
 12 13  1  0  0  0  0
 13 14  2  0  0  0  0
 14 15  1  0  0  0  0
 15 16  1  0  0  0  0
 16 21  1  0  0  0  0
 17 16  1  0  0  0  0
 17 18  1  0  0  0  0
 18 19  1  0  0  0  0
 19 20  1  0  0  0  0
 21 20  1  0  0  0  0
 22 11  1  0  0  0  0
 23 22  1  0  0  0  0
 24 22  2  0  0  0  0
 25 26  1  0  0  0  0
 27 33  1  0  0  0  0
 28 27  2  0  0  0  0
 28 29  1  0  0  0  0
 29 30  2  0  0  0  0
 30 32  1  0  0  0  0
 30 31  1  0  0  0  0
 33 32  2  0  0  0  0
 33 26  1  0  0  0  0
 34 35  1  0  0  0  0
 35 36  2  0  0  0  0
 37 36  1  0  0  0  0
 37 27  1  0  0  0  0
 38 37  2  0  0  0  0
 39 34  2  0  0  0  0
 39 38  1  0  0  0  0
 41 40  1  0  0  0  0
 41 34  1  0  0  0  0
 42 41  2  0  0  0  0
M  END
>  <minimizedAffinity>
-8.14933109

$$$$
