
 OpenBabel09122222393D

 42 47  0  0  0  0  0  0  0  0999 V2000
    3.1340   -1.2210    7.4960 C   0  0  0  0  0  0  0  0  0  0  0  0
    4.4010   -1.7950    7.3710 C   0  0  0  0  0  3  0  0  0  0  0  0
    4.6680   -2.7210    6.3590 C   0  0  0  0  0  3  0  0  0  0  0  0
    3.6630   -3.0940    5.4640 C   0  0  0  0  0  0  0  0  0  0  0  0
    2.4090   -2.4770    5.5550 C   0  0  0  0  0  3  0  0  0  0  0  0
    2.1420   -1.5500    6.5700 C   0  0  0  0  0  3  0  0  0  0  0  0
    3.9160   -4.0830    4.4220 C   0  0  0  0  0  0  0  0  0  0  0  0
    4.4720   -3.7820    3.2640 N   0  0  0  0  0  0  0  0  0  0  0  0
    4.5650   -4.9570    2.5620 C   0  0  0  0  0  0  0  0  0  0  0  0
    5.0980   -5.1980    1.2850 C   0  0  0  0  0  3  0  0  0  0  0  0
    5.1030   -6.5070    0.7600 C   0  0  0  0  0  0  0  0  0  0  0  0
    4.5630   -7.5460    1.5350 C   0  0  0  0  0  3  0  0  0  0  0  0
    4.0240   -7.3260    2.8090 C   0  0  0  0  0  3  0  0  0  0  0  0
    4.0390   -6.0120    3.2970 C   0  0  0  0  0  0  0  0  0  0  0  0
    3.6100   -5.4330    4.4820 N   0  0  0  0  0  0  0  0  0  0  0  0
    2.9930   -6.1930    5.5680 C   0  0  0  0  0  3  0  0  0  0  0  0
    3.6700   -5.9250    6.9200 C   0  0  0  0  0  2  0  0  0  0  0  0
    3.1180   -6.8440    8.0110 C   0  0  0  0  0  2  0  0  0  0  0  0
    1.5960   -6.7640    8.1050 C   0  0  0  0  0  2  0  0  0  0  0  0
    0.9290   -7.0330    6.7580 C   0  0  0  0  0  2  0  0  0  0  0  0
    1.4630   -6.0930    5.6750 C   0  0  0  0  0  2  0  0  0  0  0  0
    5.6850   -6.7930   -0.6120 C   0  0  0  0  0  0  0  0  0  0  0  0
    6.3890   -5.8820   -1.1510 O   0  0  0  0  0  0  0  0  0  0  0  0
    5.4310   -7.9310   -1.1230 O   0  0  0  0  0  1  0  0  0  0  0  0
    3.0060   -0.3440    8.5390 O   0  0  0  0  0  0  0  0  0  0  0  0
    2.6820   -0.8770    9.8310 C   0  0  0  0  0  2  0  0  0  0  0  0
    4.2030   -1.4480   11.8060 C   0  0  0  0  0  0  0  0  0  0  0  0
    5.1450   -1.0400   12.7700 C   0  0  0  0  0  3  0  0  0  0  0  0
    5.5950    0.2800   12.8290 C   0  0  0  0  0  3  0  0  0  0  0  0
    5.1100    1.2100   11.9190 C   0  0  0  0  0  0  0  0  0  0  0  0
    5.6820    2.8330   11.9690 Cl  0  0  0  0  0  0  0  0  0  0  0  0
    4.1700    0.8340   10.9610 C   0  0  0  0  0  3  0  0  0  0  0  0
    3.6900   -0.4900   10.9000 C   0  0  0  0  0  0  0  0  0  0  0  0
    3.0440   -5.5940   11.7160 C   0  0  0  0  0  0  0  0  0  0  0  0
    2.3200   -4.6600   12.4720 C   0  0  0  0  0  3  0  0  0  0  0  0
    2.6940   -3.3110   12.5020 C   0  0  0  0  0  3  0  0  0  0  0  0
    3.8010   -2.8610   11.7710 C   0  0  0  0  0  0  0  0  0  0  0  0
    4.5280   -3.7910   11.0140 C   0  0  0  0  0  3  0  0  0  0  0  0
    4.1530   -5.1370   10.9870 C   0  0  0  0  0  3  0  0  0  0  0  0
    3.5890   -7.9130   11.7140 O   0  0  0  0  0  1  0  0  0  0  0  0
    2.6470   -7.0580   11.6900 C   0  0  0  0  0  0  0  0  0  0  0  0
    1.4040   -7.3230   11.6510 O   0  0  0  0  0  0  0  0  0  0  0  0
  1 25  1  0  0  0  0
  2  1  1  0  0  0  0
  3  2  2  0  0  0  0
  4  5  2  0  0  0  0
  4  3  1  0  0  0  0
  5  6  1  0  0  0  0
  6  1  2  0  0  0  0
  7 15  1  0  0  0  0
  7  4  1  0  0  0  0
  8  7  2  0  0  0  0
  9  8  1  0  0  0  0
  9 14  1  0  0  0  0
 10  9  2  0  0  0  0
 11 10  1  0  0  0  0
 11 12  2  0  0  0  0
 12 13  1  0  0  0  0
 13 14  2  0  0  0  0
 14 15  1  0  0  0  0
 15 16  1  0  0  0  0
 16 21  1  0  0  0  0
 16 17  1  0  0  0  0
 17 18  1  0  0  0  0
 18 19  1  0  0  0  0
 20 19  1  0  0  0  0
 21 20  1  0  0  0  0
 22 11  1  0  0  0  0
 23 22  2  0  0  0  0
 24 22  1  0  0  0  0
 25 26  1  0  0  0  0
 26 33  1  0  0  0  0
 27 28  1  0  0  0  0
 28 29  2  0  0  0  0
 30 31  1  0  0  0  0
 30 29  1  0  0  0  0
 32 30  2  0  0  0  0
 33 32  1  0  0  0  0
 33 27  2  0  0  0  0
 34 35  1  0  0  0  0
 35 36  2  0  0  0  0
 37 27  1  0  0  0  0
 37 36  1  0  0  0  0
 38 37  2  0  0  0  0
 39 38  1  0  0  0  0
 39 34  2  0  0  0  0
 41 40  1  0  0  0  0
 41 34  1  0  0  0  0
 42 41  2  0  0  0  0
M  END
>  <minimizedAffinity>
-8.72752953

$$$$
