REMARK  Name = 
REMARK  7 active torsions:
REMARK  status: ('A' for Active; 'I' for Inactive)
REMARK    1  A    between atoms: C_2  and  CA_4
REMARK    2  A    between atoms: CA_4  and  N_22
REMARK    3  A    between atoms: C_5  and  C_6
REMARK    4  A    between atoms: C_9  and  C_10
REMARK    5  A    between atoms: C_14  and  O_15
REMARK    6  A    between atoms: O_15  and  C_16
REMARK    7  A    between atoms: C_23  and  C_25
REMARK                            x       y       z     vdW  Elec       q    Type
REMARK                         _______ _______ _______ _____ _____    ______ ____
ROOT
ATOM      1  C   UNL     1       2.939  -3.451   1.563  0.00  0.00    +0.130 A 
ATOM      2  C   UNL     1       3.622  -3.108   2.724  0.00  0.00    +0.050 A 
ATOM      3  C   UNL     1       3.823  -4.287   3.481  0.00  0.00    +0.050 A 
ATOM      4  C   UNL     1       3.245  -5.311   2.765  0.00  0.00    +0.136 A 
ATOM      5  O   UNL     1       2.700  -4.807   1.622  0.00  0.00    -0.455 OA
ENDROOT
BRANCH   4   6
ATOM      6  C   UNL     1       3.090  -6.749   2.972  0.00  0.00    +0.021 A 
ATOM      7  C   UNL     1       2.703  -7.589   1.918  0.00  0.00    +0.012 A 
ATOM      8  C   UNL     1       2.564  -8.963   2.113  0.00  0.00    +0.004 A 
ATOM      9  C   UNL     1       2.807  -9.511   3.370  0.00  0.00    +0.046 A 
ATOM     10  C   UNL     1       3.188  -8.697   4.440  0.00  0.00    +0.131 A 
ATOM     11  C   UNL     1       3.331  -7.321   4.235  0.00  0.00    +0.057 A 
BRANCH  10  12
ATOM     12  O   UNL     1       3.386  -9.370   5.612  0.00  0.00    -0.406 OA
BRANCH  12  13
ATOM     13  C   UNL     1       3.727  -8.615   6.761  0.00  0.00    +0.575 C 
ATOM     14  F   UNL     1       4.904  -7.976   6.595  0.00  0.00    -0.133 F 
ATOM     15  F   UNL     1       2.763  -7.719   7.064  0.00  0.00    -0.133 F 
ATOM     16  F   UNL     1       3.855  -9.459   7.810  0.00  0.00    -0.133 F 
ENDBRANCH  12  13
ENDBRANCH  10  12
ENDBRANCH   4   6
BRANCH   1  18
ATOM     17  CA  UNL     1       3.112  -1.593  -0.049  0.00  0.00    +0.060 C 
ATOM     18  C   UNL     1       2.467  -2.649   0.487  0.00  0.00    +0.071 C 
BRANCH  17  19
ATOM     19  N   UNL     1       4.407  -1.236   0.307  0.00  0.00    -0.280 N 
ATOM     20  C   UNL     1       5.177  -0.150  -0.046  0.00  0.00    +0.248 C 
ATOM     21  O   UNL     1       6.393  -0.177   0.167  0.00  0.00    -0.270 OA
ATOM     22  H   UNL     1       4.943  -1.931   0.808  0.00  0.00    +0.155 HD
BRANCH  20  23
ATOM     23  C   UNL     1       4.588   1.104  -0.564  0.00  0.00    +0.037 A 
ATOM     24  C   UNL     1       5.235   1.761  -1.617  0.00  0.00    +0.013 A 
ATOM     25  C   UNL     1       4.751   2.985  -2.081  0.00  0.00    +0.001 A 
ATOM     26  C   UNL     1       3.631   3.562  -1.482  0.00  0.00    +0.000 A 
ATOM     27  C   UNL     1       2.998   2.921  -0.416  0.00  0.00    +0.001 A 
ATOM     28  C   UNL     1       3.483   1.699   0.054  0.00  0.00    +0.013 A 
ENDBRANCH  20  23
ENDBRANCH  17  19
BRANCH  17  30
ATOM     29  O   UNL     1       1.151  -0.496  -0.860  0.00  0.00    -0.543 OA
ATOM     30  C   UNL     1       2.291  -0.928  -1.199  0.00  0.00    +0.086 C 
ATOM     31  OXT UNL     1       2.858  -0.936  -2.329  0.00  0.00    -0.543 OA
ENDBRANCH  17  30
ENDBRANCH   1  18
TORSDOF 7
