
 OpenBabel09132204463D

 31 33  0  0  0  0  0  0  0  0999 V2000
    1.9130   -8.1840    4.9750 C   0  0  0  0  0  0  0  0  0  0  0  0
    1.7320   -7.2040    5.9440 C   0  0  0  0  0  3  0  0  0  0  0  0
    2.6160   -6.1350    5.6600 C   0  0  0  0  0  3  0  0  0  0  0  0
    3.3180   -6.5020    4.5330 C   0  0  0  0  0  0  0  0  0  0  0  0
    2.9080   -7.7380    4.1320 O   0  0  0  0  0  0  0  0  0  0  0  0
    4.3670   -5.8800    3.7290 C   0  0  0  0  0  0  0  0  0  0  0  0
    4.8810   -4.6200    4.0690 C   0  0  0  0  0  3  0  0  0  0  0  0
    5.8890   -4.0300    3.3070 C   0  0  0  0  0  3  0  0  0  0  0  0
    6.3900   -4.6940    2.1900 C   0  0  0  0  0  3  0  0  0  0  0  0
    5.8930   -5.9480    1.8250 C   0  0  0  0  0  0  0  0  0  0  0  0
    4.8860   -6.5350    2.5970 C   0  0  0  0  0  3  0  0  0  0  0  0
    6.4730   -6.4760    0.7070 O   0  0  0  0  0  0  0  0  0  0  0  0
    5.8900   -6.1750   -0.5490 C   0  0  0  0  0  0  0  0  0  0  0  0
    4.7190   -5.5220   -0.4000 F   0  0  0  0  0  0  0  0  0  0  0  0
    6.7250   -5.4420   -1.3160 F   0  0  0  0  0  0  0  0  0  0  0  0
    5.6410   -7.3360   -1.1970 F   0  0  0  0  0  0  0  0  0  0  0  0
    1.0940  -10.0880    3.6390 C   0  0  0  0  0  0  0  0  0  0  0  0
    1.3040   -9.4590    4.8130 C   0  0  0  0  0  2  0  0  0  0  0  0
    1.5810   -9.6120    2.4280 N   0  0  0  0  0  4  0  0  0  0  0  0
    2.7700   -9.8490    1.7730 C   0  0  0  0  0  0  0  0  0  0  0  0
    3.1070   -9.1060    0.8450 O   0  0  0  0  0  0  0  0  0  0  0  0
    1.0520   -8.8710    1.9900 H   0  0  0  0  0  0  0  0  0  0  0  0
    3.6080  -11.0340    2.0570 C   0  0  0  0  0  0  0  0  0  0  0  0
    3.4010  -12.1950    1.3030 C   0  0  0  0  0  3  0  0  0  0  0  0
    4.1210  -13.3550    1.5930 C   0  0  0  0  0  3  0  0  0  0  0  0
    5.0340  -13.3610    2.6470 C   0  0  0  0  0  3  0  0  0  0  0  0
    5.2250  -12.2120    3.4160 C   0  0  0  0  0  3  0  0  0  0  0  0
    4.5030  -11.0520    3.1320 C   0  0  0  0  0  3  0  0  0  0  0  0
    1.1460  -12.4320    4.0960 O   0  0  0  0  0  1  0  0  0  0  0  0
    0.3780  -11.4620    3.8310 C   0  0  0  0  0  0  0  0  0  0  0  0
   -0.8750  -11.4350    3.6640 O   0  0  0  0  0  0  0  0  0  0  0  0
  1  2  2  0  0  0  0
  3  2  1  0  0  0  0
  4  3  2  0  0  0  0
  5  4  1  0  0  0  0
  5  1  1  0  0  0  0
  6  7  1  0  0  0  0
  6  4  1  0  0  0  0
  8  7  2  0  0  0  0
  9  8  1  0  0  0  0
 10  9  2  0  0  0  0
 10 11  1  0  0  0  0
 11  6  2  0  0  0  0
 12 10  1  0  0  0  0
 13 14  1  0  0  0  0
 13 12  1  0  0  0  0
 15 13  1  0  0  0  0
 16 13  1  0  0  0  0
 17 30  1  0  0  0  0
 17 18  1  0  0  0  0
 18  1  1  0  0  0  0
 19 17  2  0  0  0  0
 20 23  1  0  0  0  0
 20 19  1  0  0  0  0
 21 20  2  0  0  0  0
 22 19  1  0  0  0  0
 23 28  1  0  0  0  0
 24 25  1  0  0  0  0
 24 23  2  0  0  0  0
 25 26  2  0  0  0  0
 26 27  1  0  0  0  0
 28 27  2  0  0  0  0
 30 29  1  0  0  0  0
 31 30  2  0  0  0  0
M  END
>  <minimizedAffinity>
-7.06661177

$$$$
