
 OpenBabel09132204463D

 31 33  0  0  0  0  0  0  0  0999 V2000
    2.8400   -3.2620    6.3270 C   0  0  0  0  0  0  0  0  0  0  0  0
    2.5010   -2.4180    5.2760 C   0  0  0  0  0  3  0  0  0  0  0  0
    2.8660   -3.0540    4.0650 C   0  0  0  0  0  3  0  0  0  0  0  0
    3.4290   -4.2600    4.4150 C   0  0  0  0  0  0  0  0  0  0  0  0
    3.4290   -4.3780    5.7730 O   0  0  0  0  0  0  0  0  0  0  0  0
    4.0100   -5.3760    3.6720 C   0  0  0  0  0  0  0  0  0  0  0  0
    3.6970   -6.7020    4.0060 C   0  0  0  0  0  3  0  0  0  0  0  0
    4.2440   -7.7670    3.2910 C   0  0  0  0  0  3  0  0  0  0  0  0
    5.1160   -7.5160    2.2340 C   0  0  0  0  0  3  0  0  0  0  0  0
    5.4500   -6.2050    1.8830 C   0  0  0  0  0  0  0  0  0  0  0  0
    4.8930   -5.1420    2.6010 C   0  0  0  0  0  3  0  0  0  0  0  0
    6.3180   -6.1110    0.8330 O   0  0  0  0  0  0  0  0  0  0  0  0
    5.7770   -6.0850   -0.4750 C   0  0  0  0  0  0  0  0  0  0  0  0
    6.5360   -5.3380   -1.3040 F   0  0  0  0  0  0  0  0  0  0  0  0
    5.6470   -7.3310   -0.9790 F   0  0  0  0  0  0  0  0  0  0  0  0
    4.5450   -5.5280   -0.4220 F   0  0  0  0  0  0  0  0  0  0  0  0
    3.6540   -3.4200    8.6490 C   0  0  0  0  0  0  0  0  0  0  0  0
    2.7180   -3.0960    7.7340 C   0  0  0  0  0  2  0  0  0  0  0  0
    4.9330   -3.8430    8.3080 N   0  0  0  0  0  4  0  0  0  0  0  0
    5.6520   -4.9540    8.6890 C   0  0  0  0  0  0  0  0  0  0  0  0
    6.8680   -4.9870    8.4810 O   0  0  0  0  0  0  0  0  0  0  0  0
    5.5010   -3.1850    7.7930 H   0  0  0  0  0  0  0  0  0  0  0  0
    5.0050   -6.1680    9.2330 C   0  0  0  0  0  0  0  0  0  0  0  0
    4.3140   -7.0090    8.3530 C   0  0  0  0  0  3  0  0  0  0  0  0
    3.6280   -8.1220    8.8410 C   0  0  0  0  0  3  0  0  0  0  0  0
    3.6170   -8.3860   10.2110 C   0  0  0  0  0  3  0  0  0  0  0  0
    4.2850   -7.5360   11.0940 C   0  0  0  0  0  3  0  0  0  0  0  0
    4.9670   -6.4190   10.6090 C   0  0  0  0  0  3  0  0  0  0  0  0
    1.9220   -3.1800   10.2770 O   0  0  0  0  0  0  0  0  0  0  0  0
    3.1740   -3.1270   10.1060 C   0  0  0  0  0  0  0  0  0  0  0  0
    4.0980   -2.8410   10.9210 O   0  0  0  0  0  1  0  0  0  0  0  0
  1 18  1  0  0  0  0
  2  1  2  0  0  0  0
  3  4  2  0  0  0  0
  3  2  1  0  0  0  0
  4  5  1  0  0  0  0
  5  1  1  0  0  0  0
  6  7  1  0  0  0  0
  6  4  1  0  0  0  0
  8  7  2  0  0  0  0
  9  8  1  0  0  0  0
 10  9  2  0  0  0  0
 10 11  1  0  0  0  0
 11  6  2  0  0  0  0
 12 10  1  0  0  0  0
 13 16  1  0  0  0  0
 13 12  1  0  0  0  0
 14 13  1  0  0  0  0
 15 13  1  0  0  0  0
 17 30  1  0  0  0  0
 18 17  1  0  0  0  0
 19 17  2  0  0  0  0
 19 20  1  0  0  0  0
 20 23  1  0  0  0  0
 21 20  2  0  0  0  0
 22 19  1  0  0  0  0
 23 28  1  0  0  0  0
 24 25  1  0  0  0  0
 24 23  2  0  0  0  0
 25 26  2  0  0  0  0
 26 27  1  0  0  0  0
 28 27  2  0  0  0  0
 30 29  2  0  0  0  0
 30 31  1  0  0  0  0
M  END
>  <minimizedAffinity>
-6.96229744

$$$$
