
 OpenBabel09132204463D

 31 33  0  0  0  0  0  0  0  0999 V2000
    3.4490   -2.2560    6.0210 C   0  0  0  0  0  0  0  0  0  0  0  0
    2.1900   -2.2400    5.4320 C   0  0  0  0  0  3  0  0  0  0  0  0
    2.1340   -3.2910    4.4850 C   0  0  0  0  0  3  0  0  0  0  0  0
    3.3650   -3.9070    4.5160 C   0  0  0  0  0  0  0  0  0  0  0  0
    4.1600   -3.2750    5.4260 O   0  0  0  0  0  0  0  0  0  0  0  0
    3.9700   -5.0290    3.8030 C   0  0  0  0  0  0  0  0  0  0  0  0
    3.7160   -6.3510    4.1960 C   0  0  0  0  0  3  0  0  0  0  0  0
    4.2860   -7.4230    3.5090 C   0  0  0  0  0  3  0  0  0  0  0  0
    5.1230   -7.1820    2.4230 C   0  0  0  0  0  3  0  0  0  0  0  0
    5.3990   -5.8750    2.0130 C   0  0  0  0  0  0  0  0  0  0  0  0
    4.8190   -4.8050    2.7030 C   0  0  0  0  0  3  0  0  0  0  0  0
    6.2390   -5.7910    0.9400 O   0  0  0  0  0  0  0  0  0  0  0  0
    5.6860   -5.9720   -0.3510 C   0  0  0  0  0  0  0  0  0  0  0  0
    5.6590   -7.2770   -0.6940 F   0  0  0  0  0  0  0  0  0  0  0  0
    4.4400   -5.4570   -0.4280 F   0  0  0  0  0  0  0  0  0  0  0  0
    6.4610   -5.3210   -1.2490 F   0  0  0  0  0  0  0  0  0  0  0  0
    4.7430   -1.8110    8.0720 C   0  0  0  0  0  0  0  0  0  0  0  0
    4.0290   -1.4050    7.0020 C   0  0  0  0  0  2  0  0  0  0  0  0
    5.1180   -3.1340    8.2750 N   0  0  0  0  0  4  0  0  0  0  0  0
    6.2120   -3.8440    7.8320 C   0  0  0  0  0  0  0  0  0  0  0  0
    6.2010   -5.0760    7.9040 O   0  0  0  0  0  0  0  0  0  0  0  0
    4.4320   -3.7330    8.7130 H   0  0  0  0  0  0  0  0  0  0  0  0
    7.4560   -3.1830    7.3820 C   0  0  0  0  0  0  0  0  0  0  0  0
    7.6310   -2.9510    6.0120 C   0  0  0  0  0  3  0  0  0  0  0  0
    8.8240   -2.3990    5.5430 C   0  0  0  0  0  3  0  0  0  0  0  0
    9.8490   -2.0950    6.4390 C   0  0  0  0  0  3  0  0  0  0  0  0
    9.6860   -2.3470    7.8020 C   0  0  0  0  0  3  0  0  0  0  0  0
    8.4960   -2.9040    8.2740 C   0  0  0  0  0  3  0  0  0  0  0  0
    4.3860   -0.2560    9.8500 O   0  0  0  0  0  1  0  0  0  0  0  0
    5.2080   -0.6100    8.9550 C   0  0  0  0  0  0  0  0  0  0  0  0
    6.3320   -0.1240    8.6410 O   0  0  0  0  0  0  0  0  0  0  0  0
  1 18  1  0  0  0  0
  2  1  2  0  0  0  0
  3  4  2  0  0  0  0
  3  2  1  0  0  0  0
  4  5  1  0  0  0  0
  5  1  1  0  0  0  0
  6  7  1  0  0  0  0
  6  4  1  0  0  0  0
  8  7  2  0  0  0  0
  9  8  1  0  0  0  0
 10  9  2  0  0  0  0
 10 11  1  0  0  0  0
 11  6  2  0  0  0  0
 12 10  1  0  0  0  0
 13 12  1  0  0  0  0
 14 13  1  0  0  0  0
 15 13  1  0  0  0  0
 16 13  1  0  0  0  0
 17 19  2  3  0  0  0
 17 30  1  0  0  0  0
 18 17  1  0  0  0  0
 19 22  1  0  0  0  0
 20 21  2  0  0  0  0
 20 19  1  0  0  0  0
 23 20  1  0  0  0  0
 23 28  1  0  0  0  0
 24 23  2  0  0  0  0
 25 24  1  0  0  0  0
 25 26  2  0  0  0  0
 26 27  1  0  0  0  0
 27 28  2  0  0  0  0
 30 29  1  0  0  0  0
 31 30  2  0  0  0  0
M  END
>  <minimizedAffinity>
-7.19811726

$$$$
