
 OpenBabel09132204463D

 31 33  0  0  0  0  0  0  0  0999 V2000
    4.3400   -7.2080    3.1750 C   0  0  0  0  0  0  0  0  0  0  0  0
    3.9040   -7.9640    2.0930 C   0  0  0  0  0  3  0  0  0  0  0  0
    4.6760   -7.6010    0.9630 C   0  0  0  0  0  3  0  0  0  0  0  0
    5.5500   -6.6260    1.3870 C   0  0  0  0  0  0  0  0  0  0  0  0
    5.3370   -6.3780    2.7110 O   0  0  0  0  0  0  0  0  0  0  0  0
    6.5940   -5.8320    0.7430 C   0  0  0  0  0  0  0  0  0  0  0  0
    6.7040   -5.7870   -0.6540 C   0  0  0  0  0  3  0  0  0  0  0  0
    7.6940   -5.0220   -1.2690 C   0  0  0  0  0  3  0  0  0  0  0  0
    8.5910   -4.2960   -0.4890 C   0  0  0  0  0  3  0  0  0  0  0  0
    8.5090   -4.3260    0.9050 C   0  0  0  0  0  0  0  0  0  0  0  0
    7.5090   -5.0910    1.5150 C   0  0  0  0  0  3  0  0  0  0  0  0
    9.4550   -3.5720    1.5380 O   0  0  0  0  0  0  0  0  0  0  0  0
    9.0250   -2.4150    2.2340 C   0  0  0  0  0  0  0  0  0  0  0  0
    8.4090   -1.5470    1.4060 F   0  0  0  0  0  0  0  0  0  0  0  0
    8.1990   -2.7340    3.2540 F   0  0  0  0  0  0  0  0  0  0  0  0
   10.1100   -1.7970    2.7550 F   0  0  0  0  0  0  0  0  0  0  0  0
    3.2940   -6.1050    5.1170 C   0  0  0  0  0  0  0  0  0  0  0  0
    3.8870   -7.1600    4.5230 C   0  0  0  0  0  2  0  0  0  0  0  0
    2.9260   -4.9560    4.4270 N   0  0  0  0  0  4  0  0  0  0  0  0
    3.1910   -3.6270    4.6720 C   0  0  0  0  0  0  0  0  0  0  0  0
    2.5340   -2.7620    4.0860 O   0  0  0  0  0  0  0  0  0  0  0  0
    2.2460   -5.0740    3.6880 H   0  0  0  0  0  0  0  0  0  0  0  0
    4.3190   -3.1890    5.5240 C   0  0  0  0  0  0  0  0  0  0  0  0
    4.0950   -2.1680    6.4550 C   0  0  0  0  0  3  0  0  0  0  0  0
    5.1520   -1.6770    7.2220 C   0  0  0  0  0  3  0  0  0  0  0  0
    6.4370   -2.1920    7.0470 C   0  0  0  0  0  3  0  0  0  0  0  0
    6.6670   -3.1930    6.1020 C   0  0  0  0  0  3  0  0  0  0  0  0
    5.6130   -3.6830    5.3300 C   0  0  0  0  0  3  0  0  0  0  0  0
    1.7140   -6.4120    6.8820 O   0  0  0  0  0  0  0  0  0  0  0  0
    2.9510   -6.3920    6.6130 C   0  0  0  0  0  0  0  0  0  0  0  0
    3.9530   -6.5360    7.3690 O   0  0  0  0  0  1  0  0  0  0  0  0
  1 18  1  0  0  0  0
  2  1  2  0  0  0  0
  3  4  2  0  0  0  0
  3  2  1  0  0  0  0
  4  5  1  0  0  0  0
  5  1  1  0  0  0  0
  6  4  1  0  0  0  0
  6 11  1  0  0  0  0
  7  6  2  0  0  0  0
  8  7  1  0  0  0  0
  8  9  2  0  0  0  0
  9 10  1  0  0  0  0
 10 11  2  0  0  0  0
 10 12  1  0  0  0  0
 12 13  1  0  0  0  0
 13 16  1  0  0  0  0
 13 15  1  0  0  0  0
 14 13  1  0  0  0  0
 17 30  1  0  0  0  0
 18 17  1  0  0  0  0
 19 20  1  0  0  0  0
 19 17  2  0  0  0  0
 20 23  1  0  0  0  0
 21 20  2  0  0  0  0
 22 19  1  0  0  0  0
 23 24  1  0  0  0  0
 24 25  2  0  0  0  0
 26 25  1  0  0  0  0
 27 26  2  0  0  0  0
 28 23  2  0  0  0  0
 28 27  1  0  0  0  0
 30 29  2  0  0  0  0
 30 31  1  0  0  0  0
M  END
>  <minimizedAffinity>
-7.18092632

$$$$
