
 OpenBabel09132204463D

 36 39  0  0  0  0  0  0  0  0999 V2000
    3.8270   -2.8640    7.3200 C   0  0  0  0  0  0  0  0  0  0  0  0
    4.3340   -4.1590    7.3580 C   0  0  0  0  0  0  0  0  0  0  0  0
    4.5720   -4.5470    5.9940 C   0  0  0  0  0  0  0  0  0  0  0  0
    5.0100   -5.7380    5.3790 C   0  0  0  0  0  3  0  0  0  0  0  0
    5.0560   -5.8320    3.9840 C   0  0  0  0  0  3  0  0  0  0  0  0
    4.6680   -4.7640    3.1700 C   0  0  0  0  0  0  0  0  0  0  0  0
    4.2500   -3.5650    3.7740 C   0  0  0  0  0  3  0  0  0  0  0  0
    4.2250   -3.4670    5.1770 C   0  0  0  0  0  0  0  0  0  0  0  0
    3.9250   -2.4130    6.0100 N   0  0  0  0  0  0  0  0  0  0  0  0
    3.5130   -0.7260   10.4010 C   0  0  0  0  0  0  0  0  0  0  0  0
    4.0380   -1.5200    9.3670 C   0  0  0  0  0  3  0  0  0  0  0  0
    3.2100   -2.0830    8.3870 C   0  0  0  0  0  0  0  0  0  0  0  0
    1.8350   -1.8640    8.4380 C   0  0  0  0  0  3  0  0  0  0  0  0
    1.2960   -1.0820    9.4610 C   0  0  0  0  0  3  0  0  0  0  0  0
    2.1270   -0.5140   10.4320 C   0  0  0  0  0  0  0  0  0  0  0  0
    1.3900    0.4810   11.6360 Cl  0  0  0  0  0  0  0  0  0  0  0  0
    4.4710   -0.1370   11.3990 C   0  0  0  0  0  2  0  0  0  0  0  0
    5.8240    0.1970    9.3050 C   0  0  0  0  0  1  0  0  0  0  0  0
    5.6560    0.5580   10.7540 N   0  0  0  0  0  4  0  0  0  0  0  0
    5.6030    2.0440   10.9550 C   0  0  0  0  0  1  0  0  0  0  0  0
    6.4980    0.2250   11.2420 H   0  0  0  0  0  0  0  0  0  0  0  0
    4.4990   -5.0200    8.5920 C   0  0  0  0  0  3  0  0  0  0  0  0
    5.8130   -4.7370    9.3400 C   0  0  0  0  0  2  0  0  0  0  0  0
    5.9680   -5.6390   10.5630 C   0  0  0  0  0  2  0  0  0  0  0  0
    4.7600   -5.5410   11.4910 C   0  0  0  0  0  2  0  0  0  0  0  0
    3.4580   -5.8370   10.7530 C   0  0  0  0  0  2  0  0  0  0  0  0
    3.2850   -4.9360    9.5310 C   0  0  0  0  0  2  0  0  0  0  0  0
    4.6990   -4.8940    1.6580 C   0  0  0  0  0  0  0  0  0  0  0  0
    5.8430   -4.9630    1.1090 O   0  0  0  0  0  1  0  0  0  0  0  0
    3.5780   -4.9190    1.0580 O   0  0  0  0  0  0  0  0  0  0  0  0
    3.6620   -1.0280    5.6130 C   0  0  0  0  0  2  0  0  0  0  0  0
    2.2240   -0.5750    5.4790 C   0  0  0  0  0  0  0  0  0  0  0  0
    1.7980    0.2370    6.3100 O   0  0  0  0  0  0  0  0  0  0  0  0
    1.4660   -0.9690    4.3880 N   0  0  0  0  0  0  0  0  0  0  0  0
    1.9500   -1.7590    3.2670 C   0  0  0  0  0  1  0  0  0  0  0  0
    0.0320   -0.7190    4.4130 C   0  0  0  0  0  1  0  0  0  0  0  0
  1  2  2  0  0  0  0
  1 12  1  0  0  0  0
  2 22  1  0  0  0  0
  3  2  1  0  0  0  0
  4  3  1  0  0  0  0
  5  4  2  0  0  0  0
  6  7  2  0  0  0  0
  6  5  1  0  0  0  0
  7  8  1  0  0  0  0
  8  3  2  0  0  0  0
  8  9  1  0  0  0  0
  9  1  1  0  0  0  0
 10 15  1  0  0  0  0
 10 17  1  0  0  0  0
 11 10  2  0  0  0  0
 12 13  2  0  0  0  0
 12 11  1  0  0  0  0
 13 14  1  0  0  0  0
 14 15  2  0  0  0  0
 15 16  1  0  0  0  0
 18 19  1  0  0  0  0
 19 20  1  0  0  0  0
 19 21  1  0  0  0  0
 19 17  1  0  0  0  0
 22 23  1  0  0  0  0
 22 27  1  0  0  0  0
 23 24  1  0  0  0  0
 24 25  1  0  0  0  0
 26 25  1  0  0  0  0
 27 26  1  0  0  0  0
 28  6  1  0  0  0  0
 29 28  1  0  0  0  0
 30 28  2  0  0  0  0
 31  9  1  0  0  0  0
 32 31  1  0  0  0  0
 32 33  2  0  0  0  0
 34 36  1  0  0  0  0
 34 32  1  0  0  0  0
 35 34  1  0  0  0  0
M  END
>  <minimizedAffinity>
8.19761181

$$$$
