REMARK  Name = 
REMARK  3 active torsions:
REMARK  status: ('A' for Active; 'I' for Inactive)
REMARK    1  A    between atoms: C_2  and  C_4
REMARK    2  A    between atoms: C_8  and  C_9
REMARK    3  A    between atoms: C_14  and  C_15
REMARK                            x       y       z     vdW  Elec       q    Type
REMARK                         _______ _______ _______ _____ _____    ______ ____
ROOT
ATOM      1  C   UNL     1       3.108  -0.688   1.130  0.00  0.00    -0.001 A 
ATOM      2  C   UNL     1       2.802  -1.989   1.551  0.00  0.00    +0.010 A 
ATOM      3  C   UNL     1       3.476  -2.593   2.625  0.00  0.00    +0.011 A 
ATOM      4  C   UNL     1       4.490  -1.887   3.309  0.00  0.00    +0.004 A 
ATOM      5  C   UNL     1       5.359  -2.180   4.431  0.00  0.00    -0.011 A 
ATOM      6  C   UNL     1       6.198  -1.076   4.572  0.00  0.00    +0.054 A 
ATOM      7  N   UNL     1       5.786  -0.127   3.668  0.00  0.00    -0.354 N 
ATOM      8  C   UNL     1       4.780  -0.601   2.871  0.00  0.00    +0.048 A 
ATOM      9  C   UNL     1       4.118   0.020   1.804  0.00  0.00    +0.036 A 
ATOM     10  H   UNL     1       6.203   0.782   3.547  0.00  0.00    +0.166 HD
ENDROOT
BRANCH   5  11
ATOM     11  C   UNL     1       5.316  -3.441   5.250  0.00  0.00    +0.022 C 
ATOM     12  C   UNL     1       3.958  -3.737   5.904  0.00  0.00    +0.008 C 
ATOM     13  C   UNL     1       3.978  -5.245   6.096  0.00  0.00    +0.001 C 
ATOM     14  C   UNL     1       4.616  -5.749   4.812  0.00  0.00    +0.001 C 
ATOM     15  C   UNL     1       5.688  -4.715   4.471  0.00  0.00    +0.008 C 
ENDBRANCH   5  11
BRANCH   6  16
ATOM     16  C   UNL     1       7.357  -0.829   5.481  0.00  0.00    +0.036 A 
ATOM     17  C   UNL     1       8.011   0.417   5.689  0.00  0.00    +0.051 A 
ATOM     18  C   UNL     1       9.029   0.181   6.583  0.00  0.00    +0.195 A 
ATOM     19  O   UNL     1       9.060  -1.131   6.927  0.00  0.00    -0.470 OA
ATOM     20  C   UNL     1       8.048  -1.738   6.248  0.00  0.00    +0.204 A 
ENDBRANCH   6  16
BRANCH   1  22
ATOM     21  O   UNL     1       1.466  -0.745  -0.599  0.00  0.00    -0.545 OA
ATOM     22  C   UNL     1       2.368  -0.050  -0.032  0.00  0.00    +0.072 C 
ATOM     23  O   UNL     1       2.704   1.134  -0.353  0.00  0.00    -0.545 OA
ENDBRANCH   1  22
TORSDOF 3
