
 OpenBabel09122222393D

 23 26  0  0  0  0  0  0  0  0999 V2000
   10.3540    2.9930    2.5310 C   0  0  0  0  0  0  0  0  0  0  0  0
   10.8880    2.9990    1.2360 C   0  0  0  0  0  3  0  0  0  0  0  0
   10.7860    1.8810    0.3920 C   0  0  0  0  0  3  0  0  0  0  0  0
   10.1330    0.7130    0.8430 C   0  0  0  0  0  0  0  0  0  0  0  0
    9.8390   -0.5810    0.2620 C   0  0  0  0  0  0  0  0  0  0  0  0
    9.2210   -1.3260    1.2640 C   0  0  0  0  0  0  0  0  0  0  0  0
    9.0460   -0.4970    2.3460 N   0  0  0  0  0  0  0  0  0  0  0  0
    9.6160    0.7280    2.1320 C   0  0  0  0  0  0  0  0  0  0  0  0
    9.7050    1.8330    2.9880 C   0  0  0  0  0  3  0  0  0  0  0  0
    8.6150   -0.7600    3.2180 H   0  0  0  0  0  0  0  0  0  0  0  0
   10.1570   -0.9850   -1.1520 C   0  0  0  0  0  3  0  0  0  0  0  0
   10.1990    0.1750   -2.1580 C   0  0  0  0  0  2  0  0  0  0  0  0
   11.1070   -0.3460   -3.2610 C   0  0  0  0  0  2  0  0  0  0  0  0
   12.2060   -1.0640   -2.4950 C   0  0  0  0  0  2  0  0  0  0  0  0
   11.4970   -1.7240   -1.3130 C   0  0  0  0  0  2  0  0  0  0  0  0
    8.7770   -2.7520    1.3010 C   0  0  0  0  0  0  0  0  0  0  0  0
    8.9390   -3.7090    0.2610 C   0  0  0  0  0  3  0  0  0  0  0  0
    8.3690   -4.8770    0.7120 C   0  0  0  0  0  3  0  0  0  0  0  0
    7.8500   -4.7010    1.9520 O   0  0  0  0  0  0  0  0  0  0  0  0
    8.0940   -3.4070    2.2990 C   0  0  0  0  0  3  0  0  0  0  0  0
    9.8830    4.1630    4.5550 O   0  0  0  0  0  1  0  0  0  0  0  0
   10.4720    4.2110    3.4290 C   0  0  0  0  0  0  0  0  0  0  0  0
   11.1530    5.1920    2.9890 O   0  0  0  0  0  0  0  0  0  0  0  0
  1  9  1  0  0  0  0
  1 22  1  0  0  0  0
  2  1  2  0  0  0  0
  3  4  2  0  0  0  0
  3  2  1  0  0  0  0
  4  8  1  0  0  0  0
  5  4  1  0  0  0  0
  5  6  2  0  0  0  0
  6 16  1  0  0  0  0
  6  7  1  0  0  0  0
  7 10  1  0  0  0  0
  8  7  1  0  0  0  0
  8  9  2  0  0  0  0
 11  5  1  0  0  0  0
 12 11  1  0  0  0  0
 13 14  1  0  0  0  0
 13 12  1  0  0  0  0
 14 15  1  0  0  0  0
 15 11  1  0  0  0  0
 16 20  2  0  0  0  0
 17 18  2  0  0  0  0
 17 16  1  0  0  0  0
 18 19  1  0  0  0  0
 19 20  1  0  0  0  0
 22 21  1  0  0  0  0
 23 22  2  0  0  0  0
M  END
>  <minimizedAffinity>
-6.31167746

$$$$
