
 OpenBabel09122222393D

 23 26  0  0  0  0  0  0  0  0999 V2000
    5.2280   -6.4630    0.9140 C   0  0  0  0  0  0  0  0  0  0  0  0
    5.1840   -7.4750    1.8820 C   0  0  0  0  0  3  0  0  0  0  0  0
    4.7150   -7.2300    3.1830 C   0  0  0  0  0  3  0  0  0  0  0  0
    4.2740   -5.9380    3.5420 C   0  0  0  0  0  0  0  0  0  0  0  0
    3.7340   -5.3420    4.7480 C   0  0  0  0  0  0  0  0  0  0  0  0
    3.5620   -3.9870    4.4690 C   0  0  0  0  0  0  0  0  0  0  0  0
    3.8680   -3.7970    3.1430 N   0  0  0  0  0  0  0  0  0  0  0  0
    4.3320   -4.9490    2.5690 C   0  0  0  0  0  0  0  0  0  0  0  0
    4.7940   -5.1730    1.2650 C   0  0  0  0  0  3  0  0  0  0  0  0
    3.8270   -2.9160    2.6570 H   0  0  0  0  0  0  0  0  0  0  0  0
    3.4330   -6.0870    6.0190 C   0  0  0  0  0  3  0  0  0  0  0  0
    4.2410   -5.6270    7.2420 C   0  0  0  0  0  2  0  0  0  0  0  0
    3.3650   -6.0280    8.4180 C   0  0  0  0  0  2  0  0  0  0  0  0
    1.9640   -5.6830    7.9390 C   0  0  0  0  0  2  0  0  0  0  0  0
    1.9570   -6.0310    6.4520 C   0  0  0  0  0  2  0  0  0  0  0  0
    3.1360   -2.8490    5.3370 C   0  0  0  0  0  0  0  0  0  0  0  0
    3.8950   -2.2620    6.3870 C   0  0  0  0  0  3  0  0  0  0  0  0
    3.1140   -1.2680    6.9280 C   0  0  0  0  0  3  0  0  0  0  0  0
    1.9150   -1.2130    6.2950 O   0  0  0  0  0  0  0  0  0  0  0  0
    1.9330   -2.1800    5.3370 C   0  0  0  0  0  3  0  0  0  0  0  0
    5.4300   -7.8690   -1.0020 O   0  0  0  0  0  1  0  0  0  0  0  0
    5.7360   -6.7470   -0.4880 C   0  0  0  0  0  0  0  0  0  0  0  0
    6.4300   -5.8390   -1.0480 O   0  0  0  0  0  0  0  0  0  0  0  0
  1  9  2  0  0  0  0
  1  2  1  0  0  0  0
  2  3  2  0  0  0  0
  3  4  1  0  0  0  0
  4  5  1  0  0  0  0
  5 11  1  0  0  0  0
  6  5  2  0  0  0  0
  6 16  1  0  0  0  0
  7  6  1  0  0  0  0
  8  7  1  0  0  0  0
  8  4  2  0  0  0  0
  9  8  1  0  0  0  0
 10  7  1  0  0  0  0
 11 15  1  0  0  0  0
 11 12  1  0  0  0  0
 12 13  1  0  0  0  0
 14 13  1  0  0  0  0
 15 14  1  0  0  0  0
 16 20  2  0  0  0  0
 16 17  1  0  0  0  0
 17 18  2  0  0  0  0
 19 18  1  0  0  0  0
 20 19  1  0  0  0  0
 21 22  1  0  0  0  0
 22  1  1  0  0  0  0
 23 22  2  0  0  0  0
M  END
>  <minimizedAffinity>
-6.80285358

$$$$
