
 OpenBabel09122222393D

 23 26  0  0  0  0  0  0  0  0999 V2000
    6.2800   -6.0630    0.3670 C   0  0  0  0  0  0  0  0  0  0  0  0
    6.4600   -5.4860    1.6320 C   0  0  0  0  0  3  0  0  0  0  0  0
    7.4800   -4.5520    1.8760 C   0  0  0  0  0  3  0  0  0  0  0  0
    8.3560   -4.1740    0.8350 C   0  0  0  0  0  0  0  0  0  0  0  0
    9.4770   -3.2620    0.7240 C   0  0  0  0  0  0  0  0  0  0  0  0
    9.9650   -3.4010   -0.5740 C   0  0  0  0  0  0  0  0  0  0  0  0
    9.1220   -4.2560   -1.2420 N   0  0  0  0  0  0  0  0  0  0  0  0
    8.1630   -4.7630   -0.4080 C   0  0  0  0  0  0  0  0  0  0  0  0
    7.1500   -5.6940   -0.6730 C   0  0  0  0  0  3  0  0  0  0  0  0
    9.2200   -4.5380   -2.2040 H   0  0  0  0  0  0  0  0  0  0  0  0
    9.9700   -2.3620    1.8240 C   0  0  0  0  0  3  0  0  0  0  0  0
    9.0710   -1.1510    2.1150 C   0  0  0  0  0  2  0  0  0  0  0  0
    9.3950   -0.8080    3.5600 C   0  0  0  0  0  2  0  0  0  0  0  0
    9.5040   -2.1710    4.2230 C   0  0  0  0  0  2  0  0  0  0  0  0
   10.1670   -3.0670    3.1780 C   0  0  0  0  0  2  0  0  0  0  0  0
   11.1560   -2.8030   -1.2480 C   0  0  0  0  0  0  0  0  0  0  0  0
   11.3300   -1.4320   -1.5850 C   0  0  0  0  0  3  0  0  0  0  0  0
   12.5530   -1.3340   -2.2070 C   0  0  0  0  0  3  0  0  0  0  0  0
   13.1380   -2.5550   -2.2930 O   0  0  0  0  0  0  0  0  0  0  0  0
   12.2800   -3.4420   -1.7170 C   0  0  0  0  0  3  0  0  0  0  0  0
    5.2160   -7.7290   -0.9670 O   0  0  0  0  0  0  0  0  0  0  0  0
    5.1710   -7.0690    0.1200 C   0  0  0  0  0  0  0  0  0  0  0  0
    4.2780   -7.1800    1.0190 O   0  0  0  0  0  1  0  0  0  0  0  0
  1  2  1  0  0  0  0
  2  3  2  0  0  0  0
  4  3  1  0  0  0  0
  5  4  1  0  0  0  0
  5 11  1  0  0  0  0
  6  5  2  0  0  0  0
  7  6  1  0  0  0  0
  7  8  1  0  0  0  0
  8  4  2  0  0  0  0
  9  8  1  0  0  0  0
  9  1  2  0  0  0  0
 10  7  1  0  0  0  0
 11 12  1  0  0  0  0
 11 15  1  0  0  0  0
 12 13  1  0  0  0  0
 13 14  1  0  0  0  0
 15 14  1  0  0  0  0
 16  6  1  0  0  0  0
 17 16  1  0  0  0  0
 18 17  2  0  0  0  0
 19 18  1  0  0  0  0
 19 20  1  0  0  0  0
 20 16  2  0  0  0  0
 21 22  2  0  0  0  0
 22  1  1  0  0  0  0
 22 23  1  0  0  0  0
M  END
>  <minimizedAffinity>
-7.67061424

$$$$
