REMARK  Name = 
REMARK  12 active torsions:
REMARK  status: ('A' for Active; 'I' for Inactive)
REMARK    1  A    between atoms: C_1  and  N_2
REMARK    2  A    between atoms: N_2  and  C_3
REMARK    3  A    between atoms: N_2  and  C_4
REMARK    4  A    between atoms: C_4  and  C_5
REMARK    5  A    between atoms: C_5  and  C_6
REMARK    6  A    between atoms: C_6  and  N_7
REMARK    7  A    between atoms: C_8  and  C_10
REMARK    8  A    between atoms: C_10  and  O_11
REMARK    9  A    between atoms: O_11  and  C_12
REMARK   10  A    between atoms: C_15  and  C_16
REMARK   11  A    between atoms: C_20  and  C_21
REMARK   12  A    between atoms: N_27  and  C_28
REMARK                            x       y       z     vdW  Elec       q    Type
REMARK                         _______ _______ _______ _____ _____    ______ ____
ROOT
ATOM      1  C   UNL     1      -3.908  -3.212   2.868  0.00  0.00    +0.121 A 
ATOM      2  C   UNL     1      -4.401  -3.148   1.561  0.00  0.00    +0.046 A 
ATOM      3  C   UNL     1      -5.485  -2.328   1.253  0.00  0.00    +0.015 A 
ATOM      4  C   UNL     1      -6.120  -1.605   2.265  0.00  0.00    +0.018 A 
ATOM      5  C   UNL     1      -5.688  -1.749   3.588  0.00  0.00    +0.015 A 
ATOM      6  C   UNL     1      -4.597  -2.566   3.893  0.00  0.00    +0.046 A 
ENDROOT
BRANCH   4   7
ATOM      7  C   UNL     1      -7.053  -0.541   1.927  0.00  0.00    +0.142 A 
ATOM      8  N   UNL     1      -6.624   0.691   1.729  0.00  0.00    -0.228 NA
ATOM      9  C   UNL     1      -7.739   1.441   1.478  0.00  0.00    +0.090 A 
ATOM     10  C   UNL     1      -7.835   2.814   1.222  0.00  0.00    +0.039 A 
ATOM     11  C   UNL     1      -9.095   3.396   0.993  0.00  0.00    -0.001 A 
ATOM     12  C   UNL     1     -10.235   2.577   1.024  0.00  0.00    +0.012 A 
ATOM     13  C   UNL     1     -10.159   1.199   1.277  0.00  0.00    +0.028 A 
ATOM     14  C   UNL     1      -8.887   0.655   1.503  0.00  0.00    +0.069 A 
ATOM     15  N   UNL     1      -8.426  -0.622   1.782  0.00  0.00    -0.320 N 
BRANCH  15  16
ATOM     16  C   UNL     1      -9.288  -1.796   1.897  0.00  0.00    +0.089 C 
ATOM     17  C   UNL     1      -9.026  -2.856   0.816  0.00  0.00    +0.025 C 
ATOM     18  C   UNL     1     -10.025  -4.008   0.915  0.00  0.00    +0.002 C 
ATOM     19  C   UNL     1     -10.041  -4.620   2.313  0.00  0.00    +0.000 C 
ATOM     20  C   UNL     1     -10.304  -3.567   3.388  0.00  0.00    +0.002 C 
ATOM     21  C   UNL     1      -9.305  -2.413   3.304  0.00  0.00    +0.025 C 
ENDBRANCH  15  16
BRANCH  11  22
ATOM     22  C   UNL     1      -9.200   4.882   0.718  0.00  0.00    +0.072 C 
ATOM     23  O   UNL     1      -8.111   5.540   0.696  0.00  0.00    -0.545 OA
ATOM     24  O   UNL     1     -10.364   5.354   0.530  0.00  0.00    -0.545 OA
ENDBRANCH  11  22
ENDBRANCH   4   7
BRANCH   1  25
ATOM     25  O   UNL     1      -2.706  -3.853   2.984  0.00  0.00    -0.483 OA
BRANCH  25  26
ATOM     26  C   UNL     1      -1.993  -3.712   4.199  0.00  0.00    +0.324 C 
BRANCH  26  28
ATOM     27  N   UNL     1      -0.932  -1.427   3.901  0.00  0.00    -0.312 N 
ATOM     28  C   UNL     1      -1.608  -2.308   4.695  0.00  0.00    +0.251 C 
ATOM     29  O   UNL     1      -1.867  -1.939   5.843  0.00  0.00    -0.272 OA
ATOM     30  H   UNL     1      -0.713  -0.583   4.419  0.00  0.00    +0.149 HD
BRANCH  27  31
ATOM     31  C   UNL     1      -0.407  -1.602   2.565  0.00  0.00    +0.109 C 
BRANCH  31  32
ATOM     32  C   UNL     1      -1.320  -1.087   1.451  0.00  0.00    +0.069 C 
BRANCH  32  33
ATOM     33  C   UNL     1      -1.960   0.287   1.657  0.00  0.00    +0.132 C 
BRANCH  33  35
ATOM     34  C   UNL     1      -0.202   1.613   0.408  0.00  0.00    +0.190 C 
ATOM     35  N   UNL     1      -0.945   1.415   1.701  0.00  0.00    +0.231 N 
ATOM     36  C   UNL     1      -1.621   2.705   2.119  0.00  0.00    +0.190 C 
ATOM     37  H   UNL     1      -0.260   1.206   2.434  0.00  0.00    +0.203 HD
ENDBRANCH  33  35
ENDBRANCH  32  33
ENDBRANCH  31  32
ENDBRANCH  27  31
ENDBRANCH  26  28
ENDBRANCH  25  26
ENDBRANCH   1  25
TORSDOF 10
