
 OpenBabel09122222393D

 37 40  0  0  0  0  0  0  0  0999 V2000
   -0.1500   -8.0030    4.1100 C   0  0  0  0  0  0  0  0  0  0  0  0
   -0.1280   -6.6270    4.3570 C   0  0  0  0  0  3  0  0  0  0  0  0
   -1.2010   -6.0050    4.9930 C   0  0  0  0  0  3  0  0  0  0  0  0
   -2.3310   -6.7490    5.3390 C   0  0  0  0  0  0  0  0  0  0  0  0
   -2.3920   -8.1050    5.0000 C   0  0  0  0  0  3  0  0  0  0  0  0
   -1.3130   -8.7270    4.3690 C   0  0  0  0  0  3  0  0  0  0  0  0
   -3.3230   -6.1900    6.2450 C   0  0  0  0  0  0  0  0  0  0  0  0
   -4.4080   -5.6050    5.7740 N   0  0  0  0  0  0  0  0  0  0  0  0
   -5.0980   -5.1590    6.8670 C   0  0  0  0  0  0  0  0  0  0  0  0
   -6.3070   -4.4540    6.9150 C   0  0  0  0  0  3  0  0  0  0  0  0
   -6.8480   -4.0800    8.1580 C   0  0  0  0  0  0  0  0  0  0  0  0
   -6.1570   -4.4270    9.3300 C   0  0  0  0  0  3  0  0  0  0  0  0
   -4.9460   -5.1340    9.3020 C   0  0  0  0  0  3  0  0  0  0  0  0
   -4.4360   -5.4880    8.0460 C   0  0  0  0  0  0  0  0  0  0  0  0
   -3.3000   -6.1630    7.6270 N   0  0  0  0  0  0  0  0  0  0  0  0
   -2.2950   -6.7140    8.5340 C   0  0  0  0  0  3  0  0  0  0  0  0
   -2.4530   -8.2230    8.7790 C   0  0  0  0  0  2  0  0  0  0  0  0
   -1.4500   -8.7250    9.8160 C   0  0  0  0  0  2  0  0  0  0  0  0
   -0.0170   -8.3620    9.4340 C   0  0  0  0  0  2  0  0  0  0  0  0
    0.1410   -6.8620    9.1930 C   0  0  0  0  0  2  0  0  0  0  0  0
   -0.8530   -6.3500    8.1500 C   0  0  0  0  0  2  0  0  0  0  0  0
   -8.1550   -3.3160    8.2120 C   0  0  0  0  0  0  0  0  0  0  0  0
   -8.1280   -2.1700    8.7650 O   0  0  0  0  0  1  0  0  0  0  0  0
   -9.1740   -3.8770    7.7010 O   0  0  0  0  0  0  0  0  0  0  0  0
    1.0500   -8.5210    3.7100 O   0  0  0  0  0  0  0  0  0  0  0  0
    2.2220   -8.0530    4.3520 C   0  0  0  0  0  2  0  0  0  0  0  0
    3.7150   -6.0840    3.7750 N   0  0  0  0  0  0  0  0  0  0  0  0
    3.3190   -7.3660    3.5210 C   0  0  0  0  0  0  0  0  0  0  0  0
    3.8580   -7.9380    2.5700 O   0  0  0  0  0  0  0  0  0  0  0  0
    4.3980   -5.7840    3.0880 H   0  0  0  0  0  0  0  0  0  0  0  0
    3.2080   -5.1350    4.7410 C   0  0  0  0  0  2  0  0  0  0  0  0
    3.7570   -5.3140    6.1570 C   0  0  0  0  0  2  0  0  0  0  0  0
    2.9060   -6.1280    7.1340 C   0  0  0  0  0  2  0  0  0  0  0  0
    3.3020   -6.0770    9.6340 C   0  0  0  0  0  1  0  0  0  0  0  0
    3.7020   -6.6660    8.3090 N   0  0  0  0  0  4  0  0  0  0  0  0
    3.5990   -8.1770    8.3560 C   0  0  0  0  0  1  0  0  0  0  0  0
    4.6930   -6.4570    8.1530 H   0  0  0  0  0  0  0  0  0  0  0  0
  1  2  2  0  0  0  0
  1  6  1  0  0  0  0
  2  3  1  0  0  0  0
  3  4  2  0  0  0  0
  4  7  1  0  0  0  0
  5  4  1  0  0  0  0
  6  5  2  0  0  0  0
  7 15  1  0  0  0  0
  8  7  2  0  0  0  0
  8  9  1  0  0  0  0
  9 10  2  0  0  0  0
  9 14  1  0  0  0  0
 10 11  1  0  0  0  0
 11 22  1  0  0  0  0
 11 12  2  0  0  0  0
 13 12  1  0  0  0  0
 14 13  2  0  0  0  0
 15 14  1  0  0  0  0
 15 16  1  0  0  0  0
 16 17  1  0  0  0  0
 17 18  1  0  0  0  0
 19 18  1  0  0  0  0
 20 19  1  0  0  0  0
 21 16  1  0  0  0  0
 21 20  1  0  0  0  0
 22 23  1  0  0  0  0
 24 22  2  0  0  0  0
 25  1  1  0  0  0  0
 25 26  1  0  0  0  0
 27 31  1  0  0  0  0
 28 27  1  0  0  0  0
 28 26  1  0  0  0  0
 29 28  2  0  0  0  0
 30 27  1  0  0  0  0
 31 32  1  0  0  0  0
 32 33  1  0  0  0  0
 33 35  1  0  0  0  0
 35 36  1  0  0  0  0
 35 34  1  0  0  0  0
 37 35  1  0  0  0  0
M  END
>  <minimizedAffinity>
17.0947704

$$$$
