
 OpenBabel09122222393D

 37 40  0  0  0  0  0  0  0  0999 V2000
   -1.0350   -7.3930    5.2230 C   0  0  0  0  0  0  0  0  0  0  0  0
    0.3550   -7.4000    5.3710 C   0  0  0  0  0  3  0  0  0  0  0  0
    1.0630   -6.2030    5.4600 C   0  0  0  0  0  3  0  0  0  0  0  0
    0.3880   -4.9860    5.3470 C   0  0  0  0  0  0  0  0  0  0  0  0
   -0.9880   -4.9830    5.0980 C   0  0  0  0  0  3  0  0  0  0  0  0
   -1.6970   -6.1840    5.0170 C   0  0  0  0  0  3  0  0  0  0  0  0
    1.0530   -3.7450    5.7180 C   0  0  0  0  0  0  0  0  0  0  0  0
    0.7470   -2.6130    5.1150 N   0  0  0  0  0  0  0  0  0  0  0  0
    1.5680   -1.6640    5.6570 C   0  0  0  0  0  0  0  0  0  0  0  0
    1.6590   -0.3010    5.3510 C   0  0  0  0  0  3  0  0  0  0  0  0
    2.5880    0.5080    6.0300 C   0  0  0  0  0  0  0  0  0  0  0  0
    3.4050   -0.0770    7.0110 C   0  0  0  0  0  3  0  0  0  0  0  0
    3.3280   -1.4410    7.3330 C   0  0  0  0  0  3  0  0  0  0  0  0
    2.3930   -2.2160    6.6330 C   0  0  0  0  0  0  0  0  0  0  0  0
    2.0390   -3.5550    6.6680 N   0  0  0  0  0  0  0  0  0  0  0  0
    2.6440   -4.5380    7.5650 C   0  0  0  0  0  3  0  0  0  0  0  0
    1.7510   -4.9100    8.7580 C   0  0  0  0  0  2  0  0  0  0  0  0
    2.4730   -5.8530    9.7190 C   0  0  0  0  0  2  0  0  0  0  0  0
    3.0000   -7.0920    9.0020 C   0  0  0  0  0  2  0  0  0  0  0  0
    3.8910   -6.7230    7.8170 C   0  0  0  0  0  2  0  0  0  0  0  0
    3.1760   -5.7860    6.8430 C   0  0  0  0  0  2  0  0  0  0  0  0
    2.6880    1.9820    5.6980 C   0  0  0  0  0  0  0  0  0  0  0  0
    3.8540    2.4430    5.4800 O   0  0  0  0  0  0  0  0  0  0  0  0
    1.6030    2.6410    5.6610 O   0  0  0  0  0  1  0  0  0  0  0  0
   -1.6240   -8.6150    5.3950 O   0  0  0  0  0  0  0  0  0  0  0  0
   -2.6490   -8.7270    6.3650 C   0  0  0  0  0  2  0  0  0  0  0  0
   -3.2640   -8.1150    8.7490 N   0  0  0  0  0  0  0  0  0  0  0  0
   -2.3150   -8.5090    7.8510 C   0  0  0  0  0  0  0  0  0  0  0  0
   -1.1670   -8.6510    8.2780 O   0  0  0  0  0  0  0  0  0  0  0  0
   -2.8450   -7.9630    9.6600 H   0  0  0  0  0  0  0  0  0  0  0  0
   -4.6530   -7.7740    8.5360 C   0  0  0  0  0  2  0  0  0  0  0  0
   -4.9210   -6.9620    7.2680 C   0  0  0  0  0  2  0  0  0  0  0  0
   -4.5430   -5.4800    7.2990 C   0  0  0  0  0  2  0  0  0  0  0  0
   -5.1720   -3.1710    8.1230 C   0  0  0  0  0  1  0  0  0  0  0  0
   -5.5500   -4.6250    8.0460 N   0  0  0  0  0  4  0  0  0  0  0  0
   -6.9230   -4.7760    7.4210 C   0  0  0  0  0  1  0  0  0  0  0  0
   -5.6350   -4.9840    9.0020 H   0  0  0  0  0  0  0  0  0  0  0  0
  1  2  1  0  0  0  0
  1 25  1  0  0  0  0
  2  3  2  0  0  0  0
  4  3  1  0  0  0  0
  4  7  1  0  0  0  0
  5  4  2  0  0  0  0
  6  5  1  0  0  0  0
  6  1  2  0  0  0  0
  7 15  1  0  0  0  0
  8  9  1  0  0  0  0
  8  7  2  0  0  0  0
  9 14  1  0  0  0  0
 10  9  2  0  0  0  0
 10 11  1  0  0  0  0
 11 12  2  0  0  0  0
 12 13  1  0  0  0  0
 14 15  1  0  0  0  0
 14 13  2  0  0  0  0
 15 16  1  0  0  0  0
 16 17  1  0  0  0  0
 17 18  1  0  0  0  0
 19 18  1  0  0  0  0
 20 19  1  0  0  0  0
 21 16  1  0  0  0  0
 21 20  1  0  0  0  0
 22 11  1  0  0  0  0
 23 22  2  0  0  0  0
 24 22  1  0  0  0  0
 25 26  1  0  0  0  0
 26 28  1  0  0  0  0
 27 30  1  0  0  0  0
 28 29  2  0  0  0  0
 28 27  1  0  0  0  0
 31 27  1  0  0  0  0
 32 33  1  0  0  0  0
 32 31  1  0  0  0  0
 33 35  1  0  0  0  0
 35 34  1  0  0  0  0
 35 37  1  0  0  0  0
 36 35  1  0  0  0  0
M  END
>  <minimizedAffinity>
18.1794186

$$$$
