
 OpenBabel09122222393D

 37 40  0  0  0  0  0  0  0  0999 V2000
    3.1300   -7.4010    6.4560 C   0  0  0  0  0  0  0  0  0  0  0  0
    3.9020   -6.2440    6.6000 C   0  0  0  0  0  3  0  0  0  0  0  0
    3.4350   -5.0180    6.1310 C   0  0  0  0  0  3  0  0  0  0  0  0
    2.2110   -4.9490    5.4620 C   0  0  0  0  0  0  0  0  0  0  0  0
    1.4880   -6.1240    5.2300 C   0  0  0  0  0  3  0  0  0  0  0  0
    1.9550   -7.3510    5.7080 C   0  0  0  0  0  3  0  0  0  0  0  0
    1.5810   -3.6600    5.2220 C   0  0  0  0  0  0  0  0  0  0  0  0
    0.6730   -3.5220    4.2750 N   0  0  0  0  0  0  0  0  0  0  0  0
    0.3210   -2.2010    4.2820 C   0  0  0  0  0  0  0  0  0  0  0  0
   -0.5930   -1.5310    3.4590 C   0  0  0  0  0  3  0  0  0  0  0  0
   -0.8060   -0.1510    3.6300 C   0  0  0  0  0  0  0  0  0  0  0  0
   -0.0920    0.5250    4.6330 C   0  0  0  0  0  3  0  0  0  0  0  0
    0.8250   -0.1300    5.4680 C   0  0  0  0  0  3  0  0  0  0  0  0
    1.0130   -1.5040    5.2670 C   0  0  0  0  0  0  0  0  0  0  0  0
    1.8130   -2.4610    5.8710 N   0  0  0  0  0  0  0  0  0  0  0  0
    2.7200   -2.1860    6.9830 C   0  0  0  0  0  3  0  0  0  0  0  0
    2.6780   -0.7260    7.4600 C   0  0  0  0  0  2  0  0  0  0  0  0
    3.7210   -0.4680    8.5460 C   0  0  0  0  0  2  0  0  0  0  0  0
    3.5770   -1.4460    9.7090 C   0  0  0  0  0  2  0  0  0  0  0  0
    3.6220   -2.8970    9.2350 C   0  0  0  0  0  2  0  0  0  0  0  0
    2.5760   -3.1700    8.1540 C   0  0  0  0  0  2  0  0  0  0  0  0
   -1.7920    0.5750    2.7390 C   0  0  0  0  0  0  0  0  0  0  0  0
   -1.3730    1.6250    2.1550 O   0  0  0  0  0  0  0  0  0  0  0  0
   -2.9580    0.0800    2.6440 O   0  0  0  0  0  1  0  0  0  0  0  0
    3.5860   -8.4740    7.1690 O   0  0  0  0  0  0  0  0  0  0  0  0
    3.0740   -8.6700    8.4740 C   0  0  0  0  0  2  0  0  0  0  0  0
    1.2040   -7.6040    9.8170 N   0  0  0  0  0  0  0  0  0  0  0  0
    2.4270   -7.4910    9.2210 C   0  0  0  0  0  0  0  0  0  0  0  0
    2.9770   -6.3890    9.2800 O   0  0  0  0  0  0  0  0  0  0  0  0
    0.9170   -6.7100   10.2020 H   0  0  0  0  0  0  0  0  0  0  0  0
    0.2820   -8.7180    9.8320 C   0  0  0  0  0  2  0  0  0  0  0  0
   -1.1840   -8.3320    9.6320 C   0  0  0  0  0  2  0  0  0  0  0  0
   -1.8210   -8.6920    8.2880 C   0  0  0  0  0  2  0  0  0  0  0  0
   -1.3050   -8.1850    5.8620 C   0  0  0  0  0  1  0  0  0  0  0  0
   -1.6090   -7.6280    7.2260 N   0  0  0  0  0  4  0  0  0  0  0  0
   -2.8140   -6.7120    7.1610 C   0  0  0  0  0  1  0  0  0  0  0  0
   -0.8210   -7.0380    7.5120 H   0  0  0  0  0  0  0  0  0  0  0  0
  1  2  1  0  0  0  0
  1 25  1  0  0  0  0
  3  2  2  0  0  0  0
  4  3  1  0  0  0  0
  5  4  2  0  0  0  0
  5  6  1  0  0  0  0
  6  1  2  0  0  0  0
  7  4  1  0  0  0  0
  7 15  1  0  0  0  0
  8  9  1  0  0  0  0
  8  7  2  0  0  0  0
  9 14  1  0  0  0  0
 10 11  1  0  0  0  0
 10  9  2  0  0  0  0
 11 12  2  0  0  0  0
 12 13  1  0  0  0  0
 14 13  2  0  0  0  0
 14 15  1  0  0  0  0
 15 16  1  0  0  0  0
 16 17  1  0  0  0  0
 16 21  1  0  0  0  0
 17 18  1  0  0  0  0
 18 19  1  0  0  0  0
 20 19  1  0  0  0  0
 21 20  1  0  0  0  0
 22 11  1  0  0  0  0
 23 22  2  0  0  0  0
 24 22  1  0  0  0  0
 25 26  1  0  0  0  0
 26 28  1  0  0  0  0
 27 31  1  0  0  0  0
 27 30  1  0  0  0  0
 28 29  2  0  0  0  0
 28 27  1  0  0  0  0
 32 31  1  0  0  0  0
 33 32  1  0  0  0  0
 34 35  1  0  0  0  0
 35 37  1  0  0  0  0
 35 33  1  0  0  0  0
 36 35  1  0  0  0  0
M  END
>  <minimizedAffinity>
19.3111629

$$$$
