
 OpenBabel09122218103D

 37 40  0  0  0  0  0  0  0  0999 V2000
   -0.1500   -8.0030    4.1100 C   0  0  0  0  0  0  0  0  0  0  0  0
   -0.1280   -6.6270    4.3570 C   0  0  0  0  0  3  0  0  0  0  0  0
   -1.2010   -6.0050    4.9930 C   0  0  0  0  0  3  0  0  0  0  0  0
   -2.3310   -6.7490    5.3390 C   0  0  0  0  0  0  0  0  0  0  0  0
   -2.3920   -8.1050    5.0000 C   0  0  0  0  0  3  0  0  0  0  0  0
   -1.3130   -8.7270    4.3690 C   0  0  0  0  0  3  0  0  0  0  0  0
   -3.3230   -6.1900    6.2450 C   0  0  0  0  0  0  0  0  0  0  0  0
   -4.4080   -5.6050    5.7740 N   0  0  0  0  0  0  0  0  0  0  0  0
   -5.0980   -5.1590    6.8670 C   0  0  0  0  0  0  0  0  0  0  0  0
   -6.3070   -4.4540    6.9150 C   0  0  0  0  0  3  0  0  0  0  0  0
   -6.8480   -4.0800    8.1580 C   0  0  0  0  0  0  0  0  0  0  0  0
   -6.1570   -4.4270    9.3300 C   0  0  0  0  0  3  0  0  0  0  0  0
   -4.9460   -5.1340    9.3020 C   0  0  0  0  0  3  0  0  0  0  0  0
   -4.4360   -5.4880    8.0460 C   0  0  0  0  0  0  0  0  0  0  0  0
   -3.3000   -6.1630    7.6270 N   0  0  0  0  0  0  0  0  0  0  0  0
   -2.2950   -6.7140    8.5340 C   0  0  0  0  0  3  0  0  0  0  0  0
   -2.4530   -8.2230    8.7790 C   0  0  0  0  0  2  0  0  0  0  0  0
   -1.4500   -8.7250    9.8160 C   0  0  0  0  0  2  0  0  0  0  0  0
   -0.0170   -8.3620    9.4340 C   0  0  0  0  0  2  0  0  0  0  0  0
    0.1410   -6.8620    9.1930 C   0  0  0  0  0  2  0  0  0  0  0  0
   -0.8530   -6.3500    8.1500 C   0  0  0  0  0  2  0  0  0  0  0  0
   -8.1550   -3.3160    8.2120 C   0  0  0  0  0  0  0  0  0  0  0  0
   -8.1280   -2.1700    8.7650 O   0  0  0  0  0  1  0  0  0  0  0  0
   -9.1740   -3.8770    7.7010 O   0  0  0  0  0  0  0  0  0  0  0  0
    1.0500   -8.5210    3.7100 O   0  0  0  0  0  0  0  0  0  0  0  0
    2.2220   -8.0530    4.3520 C   0  0  0  0  0  2  0  0  0  0  0  0
    3.7150   -6.0840    3.7750 N   0  0  0  0  0  0  0  0  0  0  0  0
    3.3190   -7.3660    3.5210 C   0  0  0  0  0  0  0  0  0  0  0  0
    3.8580   -7.9380    2.5700 O   0  0  0  0  0  0  0  0  0  0  0  0
    4.3980   -5.7840    3.0880 H   0  0  0  0  0  0  0  0  0  0  0  0
    3.2080   -5.1350    4.7410 C   0  0  0  0  0  2  0  0  0  0  0  0
    3.7570   -5.3140    6.1570 C   0  0  0  0  0  2  0  0  0  0  0  0
    2.9060   -6.1280    7.1340 C   0  0  0  0  0  2  0  0  0  0  0  0
    3.3020   -6.0770    9.6340 C   0  0  0  0  0  1  0  0  0  0  0  0
    3.7020   -6.6660    8.3090 N   0  0  0  0  0  4  0  0  0  0  0  0
    3.5990   -8.1770    8.3560 C   0  0  0  0  0  1  0  0  0  0  0  0
    4.6930   -6.4570    8.1530 H   0  0  0  0  0  0  0  0  0  0  0  0
  1  2  2  0  0  0  0
  1  6  1  0  0  0  0
  2  3  1  0  0  0  0
  3  4  2  0  0  0  0
  4  7  1  0  0  0  0
  5  4  1  0  0  0  0
  6  5  2  0  0  0  0
  7 15  1  0  0  0  0
  8  7  2  0  0  0  0
  8  9  1  0  0  0  0
  9 10  2  0  0  0  0
  9 14  1  0  0  0  0
 10 11  1  0  0  0  0
 11 22  1  0  0  0  0
 11 12  2  0  0  0  0
 13 12  1  0  0  0  0
 14 13  2  0  0  0  0
 15 14  1  0  0  0  0
 15 16  1  0  0  0  0
 16 17  1  0  0  0  0
 17 18  1  0  0  0  0
 19 18  1  0  0  0  0
 20 19  1  0  0  0  0
 21 16  1  0  0  0  0
 21 20  1  0  0  0  0
 22 23  1  0  0  0  0
 24 22  2  0  0  0  0
 25  1  1  0  0  0  0
 25 26  1  0  0  0  0
 27 31  1  0  0  0  0
 28 27  1  0  0  0  0
 28 26  1  0  0  0  0
 29 28  2  0  0  0  0
 30 27  1  0  0  0  0
 31 32  1  0  0  0  0
 32 33  1  0  0  0  0
 33 35  1  0  0  0  0
 35 36  1  0  0  0  0
 35 34  1  0  0  0  0
 37 35  1  0  0  0  0
M  END
>  <minimizedAffinity>
17.0947704

$$$$

 OpenBabel09122218103D

 37 40  0  0  0  0  0  0  0  0999 V2000
   -1.0350   -7.3930    5.2230 C   0  0  0  0  0  0  0  0  0  0  0  0
    0.3550   -7.4000    5.3710 C   0  0  0  0  0  3  0  0  0  0  0  0
    1.0630   -6.2030    5.4600 C   0  0  0  0  0  3  0  0  0  0  0  0
    0.3880   -4.9860    5.3470 C   0  0  0  0  0  0  0  0  0  0  0  0
   -0.9880   -4.9830    5.0980 C   0  0  0  0  0  3  0  0  0  0  0  0
   -1.6970   -6.1840    5.0170 C   0  0  0  0  0  3  0  0  0  0  0  0
    1.0530   -3.7450    5.7180 C   0  0  0  0  0  0  0  0  0  0  0  0
    0.7470   -2.6130    5.1150 N   0  0  0  0  0  0  0  0  0  0  0  0
    1.5680   -1.6640    5.6570 C   0  0  0  0  0  0  0  0  0  0  0  0
    1.6590   -0.3010    5.3510 C   0  0  0  0  0  3  0  0  0  0  0  0
    2.5880    0.5080    6.0300 C   0  0  0  0  0  0  0  0  0  0  0  0
    3.4050   -0.0770    7.0110 C   0  0  0  0  0  3  0  0  0  0  0  0
    3.3280   -1.4410    7.3330 C   0  0  0  0  0  3  0  0  0  0  0  0
    2.3930   -2.2160    6.6330 C   0  0  0  0  0  0  0  0  0  0  0  0
    2.0390   -3.5550    6.6680 N   0  0  0  0  0  0  0  0  0  0  0  0
    2.6440   -4.5380    7.5650 C   0  0  0  0  0  3  0  0  0  0  0  0
    1.7510   -4.9100    8.7580 C   0  0  0  0  0  2  0  0  0  0  0  0
    2.4730   -5.8530    9.7190 C   0  0  0  0  0  2  0  0  0  0  0  0
    3.0000   -7.0920    9.0020 C   0  0  0  0  0  2  0  0  0  0  0  0
    3.8910   -6.7230    7.8170 C   0  0  0  0  0  2  0  0  0  0  0  0
    3.1760   -5.7860    6.8430 C   0  0  0  0  0  2  0  0  0  0  0  0
    2.6880    1.9820    5.6980 C   0  0  0  0  0  0  0  0  0  0  0  0
    3.8540    2.4430    5.4800 O   0  0  0  0  0  0  0  0  0  0  0  0
    1.6030    2.6410    5.6610 O   0  0  0  0  0  1  0  0  0  0  0  0
   -1.6240   -8.6150    5.3950 O   0  0  0  0  0  0  0  0  0  0  0  0
   -2.6490   -8.7270    6.3650 C   0  0  0  0  0  2  0  0  0  0  0  0
   -3.2640   -8.1150    8.7490 N   0  0  0  0  0  0  0  0  0  0  0  0
   -2.3150   -8.5090    7.8510 C   0  0  0  0  0  0  0  0  0  0  0  0
   -1.1670   -8.6510    8.2780 O   0  0  0  0  0  0  0  0  0  0  0  0
   -2.8450   -7.9630    9.6600 H   0  0  0  0  0  0  0  0  0  0  0  0
   -4.6530   -7.7740    8.5360 C   0  0  0  0  0  2  0  0  0  0  0  0
   -4.9210   -6.9620    7.2680 C   0  0  0  0  0  2  0  0  0  0  0  0
   -4.5430   -5.4800    7.2990 C   0  0  0  0  0  2  0  0  0  0  0  0
   -5.1720   -3.1710    8.1230 C   0  0  0  0  0  1  0  0  0  0  0  0
   -5.5500   -4.6250    8.0460 N   0  0  0  0  0  4  0  0  0  0  0  0
   -6.9230   -4.7760    7.4210 C   0  0  0  0  0  1  0  0  0  0  0  0
   -5.6350   -4.9840    9.0020 H   0  0  0  0  0  0  0  0  0  0  0  0
  1  2  1  0  0  0  0
  1 25  1  0  0  0  0
  2  3  2  0  0  0  0
  4  3  1  0  0  0  0
  4  7  1  0  0  0  0
  5  4  2  0  0  0  0
  6  5  1  0  0  0  0
  6  1  2  0  0  0  0
  7 15  1  0  0  0  0
  8  9  1  0  0  0  0
  8  7  2  0  0  0  0
  9 14  1  0  0  0  0
 10  9  2  0  0  0  0
 10 11  1  0  0  0  0
 11 12  2  0  0  0  0
 12 13  1  0  0  0  0
 14 15  1  0  0  0  0
 14 13  2  0  0  0  0
 15 16  1  0  0  0  0
 16 17  1  0  0  0  0
 17 18  1  0  0  0  0
 19 18  1  0  0  0  0
 20 19  1  0  0  0  0
 21 16  1  0  0  0  0
 21 20  1  0  0  0  0
 22 11  1  0  0  0  0
 23 22  2  0  0  0  0
 24 22  1  0  0  0  0
 25 26  1  0  0  0  0
 26 28  1  0  0  0  0
 27 30  1  0  0  0  0
 28 29  2  0  0  0  0
 28 27  1  0  0  0  0
 31 27  1  0  0  0  0
 32 33  1  0  0  0  0
 32 31  1  0  0  0  0
 33 35  1  0  0  0  0
 35 34  1  0  0  0  0
 35 37  1  0  0  0  0
 36 35  1  0  0  0  0
M  END
>  <minimizedAffinity>
18.1794186

$$$$

 OpenBabel09122218103D

 37 40  0  0  0  0  0  0  0  0999 V2000
    3.1300   -7.4010    6.4560 C   0  0  0  0  0  0  0  0  0  0  0  0
    3.9020   -6.2440    6.6000 C   0  0  0  0  0  3  0  0  0  0  0  0
    3.4350   -5.0180    6.1310 C   0  0  0  0  0  3  0  0  0  0  0  0
    2.2110   -4.9490    5.4620 C   0  0  0  0  0  0  0  0  0  0  0  0
    1.4880   -6.1240    5.2300 C   0  0  0  0  0  3  0  0  0  0  0  0
    1.9550   -7.3510    5.7080 C   0  0  0  0  0  3  0  0  0  0  0  0
    1.5810   -3.6600    5.2220 C   0  0  0  0  0  0  0  0  0  0  0  0
    0.6730   -3.5220    4.2750 N   0  0  0  0  0  0  0  0  0  0  0  0
    0.3210   -2.2010    4.2820 C   0  0  0  0  0  0  0  0  0  0  0  0
   -0.5930   -1.5310    3.4590 C   0  0  0  0  0  3  0  0  0  0  0  0
   -0.8060   -0.1510    3.6300 C   0  0  0  0  0  0  0  0  0  0  0  0
   -0.0920    0.5250    4.6330 C   0  0  0  0  0  3  0  0  0  0  0  0
    0.8250   -0.1300    5.4680 C   0  0  0  0  0  3  0  0  0  0  0  0
    1.0130   -1.5040    5.2670 C   0  0  0  0  0  0  0  0  0  0  0  0
    1.8130   -2.4610    5.8710 N   0  0  0  0  0  0  0  0  0  0  0  0
    2.7200   -2.1860    6.9830 C   0  0  0  0  0  3  0  0  0  0  0  0
    2.6780   -0.7260    7.4600 C   0  0  0  0  0  2  0  0  0  0  0  0
    3.7210   -0.4680    8.5460 C   0  0  0  0  0  2  0  0  0  0  0  0
    3.5770   -1.4460    9.7090 C   0  0  0  0  0  2  0  0  0  0  0  0
    3.6220   -2.8970    9.2350 C   0  0  0  0  0  2  0  0  0  0  0  0
    2.5760   -3.1700    8.1540 C   0  0  0  0  0  2  0  0  0  0  0  0
   -1.7920    0.5750    2.7390 C   0  0  0  0  0  0  0  0  0  0  0  0
   -1.3730    1.6250    2.1550 O   0  0  0  0  0  0  0  0  0  0  0  0
   -2.9580    0.0800    2.6440 O   0  0  0  0  0  1  0  0  0  0  0  0
    3.5860   -8.4740    7.1690 O   0  0  0  0  0  0  0  0  0  0  0  0
    3.0740   -8.6700    8.4740 C   0  0  0  0  0  2  0  0  0  0  0  0
    1.2040   -7.6040    9.8170 N   0  0  0  0  0  0  0  0  0  0  0  0
    2.4270   -7.4910    9.2210 C   0  0  0  0  0  0  0  0  0  0  0  0
    2.9770   -6.3890    9.2800 O   0  0  0  0  0  0  0  0  0  0  0  0
    0.9170   -6.7100   10.2020 H   0  0  0  0  0  0  0  0  0  0  0  0
    0.2820   -8.7180    9.8320 C   0  0  0  0  0  2  0  0  0  0  0  0
   -1.1840   -8.3320    9.6320 C   0  0  0  0  0  2  0  0  0  0  0  0
   -1.8210   -8.6920    8.2880 C   0  0  0  0  0  2  0  0  0  0  0  0
   -1.3050   -8.1850    5.8620 C   0  0  0  0  0  1  0  0  0  0  0  0
   -1.6090   -7.6280    7.2260 N   0  0  0  0  0  4  0  0  0  0  0  0
   -2.8140   -6.7120    7.1610 C   0  0  0  0  0  1  0  0  0  0  0  0
   -0.8210   -7.0380    7.5120 H   0  0  0  0  0  0  0  0  0  0  0  0
  1  2  1  0  0  0  0
  1 25  1  0  0  0  0
  3  2  2  0  0  0  0
  4  3  1  0  0  0  0
  5  4  2  0  0  0  0
  5  6  1  0  0  0  0
  6  1  2  0  0  0  0
  7  4  1  0  0  0  0
  7 15  1  0  0  0  0
  8  9  1  0  0  0  0
  8  7  2  0  0  0  0
  9 14  1  0  0  0  0
 10 11  1  0  0  0  0
 10  9  2  0  0  0  0
 11 12  2  0  0  0  0
 12 13  1  0  0  0  0
 14 13  2  0  0  0  0
 14 15  1  0  0  0  0
 15 16  1  0  0  0  0
 16 17  1  0  0  0  0
 16 21  1  0  0  0  0
 17 18  1  0  0  0  0
 18 19  1  0  0  0  0
 20 19  1  0  0  0  0
 21 20  1  0  0  0  0
 22 11  1  0  0  0  0
 23 22  2  0  0  0  0
 24 22  1  0  0  0  0
 25 26  1  0  0  0  0
 26 28  1  0  0  0  0
 27 31  1  0  0  0  0
 27 30  1  0  0  0  0
 28 29  2  0  0  0  0
 28 27  1  0  0  0  0
 32 31  1  0  0  0  0
 33 32  1  0  0  0  0
 34 35  1  0  0  0  0
 35 37  1  0  0  0  0
 35 33  1  0  0  0  0
 36 35  1  0  0  0  0
M  END
>  <minimizedAffinity>
19.3111629

$$$$
