REMARK  Name = 
REMARK  12 active torsions:
REMARK  status: ('A' for Active; 'I' for Inactive)
REMARK    1  A    between atoms: C_1  and  C_2
REMARK    2  A    between atoms: C_5  and  C_8
REMARK    3  A    between atoms: N_10  and  C_11
REMARK    4  A    between atoms: N_10  and  C_25
REMARK    5  A    between atoms: C_13  and  C_19
REMARK    6  A    between atoms: C_15  and  C_16
REMARK    7  A    between atoms: C_20  and  C_21
REMARK    8  A    between atoms: C_21  and  C_22
REMARK    9  A    between atoms: C_21  and  C_23
REMARK   10  A    between atoms: C_21  and  C_24
REMARK   11  A    between atoms: C_25  and  C_26
REMARK   12  A    between atoms: C_25  and  C_27
REMARK                            x       y       z     vdW  Elec       q    Type
REMARK                         _______ _______ _______ _____ _____    ______ ____
ROOT
ATOM      1  C   UNL     1      -4.052  -0.014  -2.202  0.00  0.00    +0.054 A 
ATOM      2  C   UNL     1      -3.321  -1.059  -2.880  0.00  0.00    +0.048 A 
ATOM      3  C   UNL     1      -3.225  -0.870  -4.236  0.00  0.00    +0.064 A 
ATOM      4  S   UNL     1      -4.115   0.482  -4.738  0.00  0.00    -0.077 S 
ATOM      5  C   UNL     1      -4.516   0.926  -3.117  0.00  0.00    +0.057 A 
ENDROOT
BRANCH   1   8
ATOM      6  C   UNL     1      -3.258  -0.449   0.073  0.00  0.00    +0.223 C 
ATOM      7  O   UNL     1      -3.471  -0.979   1.170  0.00  0.00    -0.275 OA
ATOM      8  N   UNL     1      -4.279  -0.055  -0.802  0.00  0.00    -0.267 N 
BRANCH   6  13
ATOM      9  C   UNL     1       2.457   0.730   0.046  0.00  0.00    +0.007 C 
ATOM     10  C   UNL     1       1.027   0.353   0.430  0.00  0.00    -0.014 C 
ATOM     11  C   UNL     1       0.578  -0.897  -0.339  0.00  0.00    +0.004 C 
ATOM     12  C   UNL     1      -0.871  -1.259  -0.022  0.00  0.00    +0.013 C 
ATOM     13  C   UNL     1      -1.813  -0.083  -0.308  0.00  0.00    +0.076 C 
ATOM     14  C   UNL     1      -1.381   1.157   0.486  0.00  0.00    +0.013 C 
ATOM     15  C   UNL     1       0.071   1.529   0.183  0.00  0.00    +0.004 C 
ENDBRANCH   6  13
BRANCH   8  16
ATOM     16  C   UNL     1      -5.671   0.037  -0.292  0.00  0.00    +0.075 C 
ATOM     17  C   UNL     1      -6.274  -1.351  -0.046  0.00  0.00    +0.028 C 
ATOM     18  C   UNL     1      -5.801   0.913   0.960  0.00  0.00    +0.028 C 
ENDBRANCH   8  16
ENDBRANCH   1   8
BRANCH   5  19
ATOM     19  C   UNL     1      -5.198   2.228  -2.840  0.00  0.00    +0.080 C 
ATOM     20  O   UNL     1      -5.686   2.849  -3.836  0.00  0.00    -0.544 OA
ATOM     21  O   UNL     1      -5.228   2.641  -1.640  0.00  0.00    -0.544 OA
ENDBRANCH   5  19
BRANCH   3  22
ATOM     22  C   UNL     1      -2.465  -1.693  -5.117  0.00  0.00    -0.059 C 
ATOM     23  C   UNL     1      -1.767  -2.349  -5.842  0.00  0.00    -0.091 C 
BRANCH  23  24
ATOM     24  C   UNL     1      -0.863  -3.116  -6.725  0.00  0.00    +0.024 C 
ATOM     25  C   UNL     1       0.327  -3.634  -5.905  0.00  0.00    +0.024 C 
ATOM     26  C   UNL     1      -1.623  -4.301  -7.334  0.00  0.00    +0.024 C 
ATOM     27  C   UNL     1      -0.352  -2.200  -7.845  0.00  0.00    +0.024 C 
ENDBRANCH  23  24
ENDBRANCH   3  22
TORSDOF 6
