
 OpenBabel08192222423D

 27 28  0  0  1  0  0  0  0  0999 V2000
   12.1120   28.8290   24.9230 C   0  0  0  0  0  0  0  0  0  0  0  0
   12.1710   29.5710   23.6860 C   0  0  0  0  0  3  0  0  0  0  0  0
   13.4500   29.8710   23.2870 C   0  0  0  0  0  0  0  0  0  0  0  0
   14.5900   29.3880   24.4440 S   0  0  0  0  0  0  0  0  0  0  0  0
   13.3920   28.6270   25.4300 C   0  0  0  0  0  0  0  0  0  0  0  0
   10.5020   28.9520   26.7640 C   0  0  0  0  0  0  0  0  0  0  0  0
    9.7530   28.3450   27.5380 O   0  0  0  0  0  0  0  0  0  0  0  0
   10.8740   28.4560   25.5070 N   0  0  0  0  0  0  0  0  0  0  0  0
   11.1630   34.2380   29.1450 C   0  0  0  0  0  1  0  0  0  0  0  0
   10.7170   32.8180   28.7970 C   0  0  2  0  0  3  0  0  0  0  0  0
   11.8810   31.8330   28.9730 C   0  0  0  0  0  2  0  0  0  0  0  0
   11.4800   30.4160   28.5690 C   0  0  0  0  0  2  0  0  0  0  0  0
   10.9540   30.3760   27.1300 C   0  0  2  0  0  3  0  0  0  0  0  0
    9.7700   31.3390   26.9630 C   0  0  0  0  0  2  0  0  0  0  0  0
   10.1540   32.7620   27.3690 C   0  0  0  0  0  2  0  0  0  0  0  0
   10.1110   27.3230   24.9230 C   0  0  0  0  0  3  0  0  0  0  0  0
    8.9030   27.8130   24.1150 C   0  0  0  0  0  1  0  0  0  0  0  0
   10.9770   26.3790   24.0820 C   0  0  0  0  0  1  0  0  0  0  0  0
   13.8010   27.8020   26.6090 C   0  0  0  0  0  0  0  0  0  0  0  0
   13.6280   26.5450   26.5230 O   0  0  0  0  0  0  0  0  0  0  0  0
   14.2700   28.4030   27.6230 O   0  0  0  0  0  1  0  0  0  0  0  0
   13.7880   30.4960   22.0510 C   0  0  0  0  0  0  0  0  0  0  0  0
   14.0130   30.9960   20.9820 C   0  0  0  0  0  0  0  0  0  0  0  0
   14.2430   31.5790   19.6440 C   0  0  0  0  0  0  0  0  0  0  0  0
   15.6230   31.1410   19.1310 C   0  0  0  0  0  1  0  0  0  0  0  0
   13.1570   31.0920   18.6770 C   0  0  0  0  0  1  0  0  0  0  0  0
   14.1970   33.1100   19.7440 C   0  0  0  0  0  1  0  0  0  0  0  0
  1  5  2  0  0  0  0
  1  8  1  0  0  0  0
  2  1  1  0  0  0  0
  3  2  2  0  0  0  0
  3  4  1  0  0  0  0
  4  5  1  0  0  0  0
  5 19  1  0  0  0  0
  6  7  2  0  0  0  0
  8  6  1  0  0  0  0
 10 11  1  0  0  0  0
 10  9  1  6  0  0  0
 12 11  1  0  0  0  0
 13  6  1  1  0  0  0
 13 12  1  0  0  0  0
 14 13  1  0  0  0  0
 14 15  1  0  0  0  0
 15 10  1  0  0  0  0
 16  8  1  0  0  0  0
 17 16  1  0  0  0  0
 18 16  1  0  0  0  0
 19 21  1  0  0  0  0
 20 19  2  0  0  0  0
 22  3  1  0  0  0  0
 23 22  3  0  0  0  0
 24 27  1  0  0  0  0
 24 23  1  0  0  0  0
 25 24  1  0  0  0  0
 26 24  1  0  0  0  0
M  END
>  <minimizedAffinity>
-5.42212582

$$$$
