
 OpenBabel08192222423D

 27 28  0  0  1  0  0  0  0  0999 V2000
   -9.2700   34.3050   -4.7870 C   0  0  0  0  0  0  0  0  0  0  0  0
  -10.1680   34.5010   -3.6730 C   0  0  0  0  0  3  0  0  0  0  0  0
  -11.2670   35.2620   -3.9810 C   0  0  0  0  0  0  0  0  0  0  0  0
  -11.1800   35.8650   -5.5630 S   0  0  0  0  0  0  0  0  0  0  0  0
   -9.7360   34.9810   -5.9110 C   0  0  0  0  0  0  0  0  0  0  0  0
   -8.0560   32.1790   -4.8200 C   0  0  0  0  0  0  0  0  0  0  0  0
   -7.2440   31.4310   -4.2620 O   0  0  0  0  0  0  0  0  0  0  0  0
   -8.0640   33.5700   -4.6490 N   0  0  0  0  0  0  0  0  0  0  0  0
  -10.7940   28.8210   -8.7290 C   0  0  0  0  0  1  0  0  0  0  0  0
   -9.8300   29.4010   -7.6960 C   0  0  2  0  0  3  0  0  0  0  0  0
  -10.5500   29.6310   -6.3610 C   0  0  0  0  0  2  0  0  0  0  0  0
   -9.6250   30.2700   -5.3280 C   0  0  0  0  0  2  0  0  0  0  0  0
   -9.0300   31.5830   -5.8520 C   0  0  2  0  0  3  0  0  0  0  0  0
   -8.2820   31.3450   -7.1710 C   0  0  0  0  0  2  0  0  0  0  0  0
   -9.1950   30.7000   -8.2140 C   0  0  0  0  0  2  0  0  0  0  0  0
   -6.8800   34.2290   -4.0430 C   0  0  0  0  0  3  0  0  0  0  0  0
   -5.8930   34.7110   -5.1130 C   0  0  0  0  0  1  0  0  0  0  0  0
   -7.2450   35.3740   -3.0900 C   0  0  0  0  0  1  0  0  0  0  0  0
   -9.1940   34.9440   -7.3040 C   0  0  0  0  0  0  0  0  0  0  0  0
   -9.9820   34.5520   -8.2210 O   0  0  0  0  0  0  0  0  0  0  0  0
   -7.9830   35.2810   -7.4810 O   0  0  0  0  0  1  0  0  0  0  0  0
  -12.3560   35.5100   -3.0960 C   0  0  0  0  0  0  0  0  0  0  0  0
  -13.2550   35.6600   -2.3130 C   0  0  0  0  0  0  0  0  0  0  0  0
  -14.3490   35.7900   -1.3270 C   0  0  0  0  0  0  0  0  0  0  0  0
  -15.0530   34.4350   -1.1710 C   0  0  0  0  0  1  0  0  0  0  0  0
  -13.7730   36.2300    0.0250 C   0  0  0  0  0  1  0  0  0  0  0  0
  -15.3560   36.8350   -1.8240 C   0  0  0  0  0  1  0  0  0  0  0  0
  1  8  1  0  0  0  0
  1  2  1  0  0  0  0
  3  2  2  0  0  0  0
  3 22  1  0  0  0  0
  4  3  1  0  0  0  0
  5  4  1  0  0  0  0
  5  1  2  0  0  0  0
  6  8  1  0  0  0  0
  6  7  2  0  0  0  0
  8 16  1  0  0  0  0
 10  9  1  6  0  0  0
 10 11  1  0  0  0  0
 11 12  1  0  0  0  0
 13 12  1  0  0  0  0
 13  6  1  1  0  0  0
 14 13  1  0  0  0  0
 15 10  1  0  0  0  0
 15 14  1  0  0  0  0
 16 18  1  0  0  0  0
 17 16  1  0  0  0  0
 19  5  1  0  0  0  0
 20 19  2  0  0  0  0
 21 19  1  0  0  0  0
 22 23  3  0  0  0  0
 23 24  1  0  0  0  0
 24 25  1  0  0  0  0
 24 26  1  0  0  0  0
 27 24  1  0  0  0  0
M  END
>  <minimizedAffinity>
-5.75439644

$$$$
