
 OpenBabel08192222423D

 27 28  0  0  1  0  0  0  0  0999 V2000
  -11.0330   33.0450   61.1270 C   0  0  0  0  0  0  0  0  0  0  0  0
  -11.0030   34.4830   60.9930 C   0  0  0  0  0  3  0  0  0  0  0  0
  -10.8020   35.1400   62.1810 C   0  0  0  0  0  0  0  0  0  0  0  0
  -10.7780   34.0630   63.4890 S   0  0  0  0  0  0  0  0  0  0  0  0
  -10.8810   32.6790   62.4600 C   0  0  0  0  0  0  0  0  0  0  0  0
  -10.3990   32.2340   58.9050 C   0  0  0  0  0  0  0  0  0  0  0  0
  -10.7570   31.9480   57.7560 O   0  0  0  0  0  0  0  0  0  0  0  0
  -11.2600   32.2000   60.0100 N   0  0  0  0  0  0  0  0  0  0  0  0
   -4.5800   32.5920   58.6660 C   0  0  0  0  0  1  0  0  0  0  0  0
   -6.0570   32.3170   58.3880 C   0  0  2  0  0  3  0  0  0  0  0  0
   -6.8330   33.6350   58.2670 C   0  0  0  0  0  2  0  0  0  0  0  0
   -8.3250   33.3880   58.0520 C   0  0  0  0  0  2  0  0  0  0  0  0
   -8.9110   32.5180   59.1710 C   0  0  2  0  0  3  0  0  0  0  0  0
   -8.1530   31.1880   59.2700 C   0  0  0  0  0  2  0  0  0  0  0  0
   -6.6560   31.4190   59.4800 C   0  0  0  0  0  2  0  0  0  0  0  0
  -12.5640   31.4980   59.8880 C   0  0  0  0  0  3  0  0  0  0  0  0
  -12.4440   30.0180   60.2680 C   0  0  0  0  0  1  0  0  0  0  0  0
  -13.6910   32.1710   60.6810 C   0  0  0  0  0  1  0  0  0  0  0  0
  -10.7220   31.3050   63.0290 C   0  0  0  0  0  0  0  0  0  0  0  0
  -11.6720   30.8620   63.7470 O   0  0  0  0  0  1  0  0  0  0  0  0
   -9.6460   30.6790   62.7810 O   0  0  0  0  0  0  0  0  0  0  0  0
  -10.6220   36.5480   62.3080 C   0  0  0  0  0  0  0  0  0  0  0  0
  -10.4000   37.7240   62.4150 C   0  0  0  0  0  0  0  0  0  0  0  0
  -10.0690   39.1570   62.5590 C   0  0  0  0  0  0  0  0  0  0  0  0
   -9.2590   39.6150   61.3380 C   0  0  0  0  0  1  0  0  0  0  0  0
  -11.3620   39.9770   62.6560 C   0  0  0  0  0  1  0  0  0  0  0  0
   -9.2340   39.3590   63.8310 C   0  0  0  0  0  1  0  0  0  0  0  0
  1  5  2  0  0  0  0
  2  1  1  0  0  0  0
  2  3  2  0  0  0  0
  3 22  1  0  0  0  0
  3  4  1  0  0  0  0
  5 19  1  0  0  0  0
  5  4  1  0  0  0  0
  6  8  1  0  0  0  0
  7  6  2  0  0  0  0
  8  1  1  0  0  0  0
 10  9  1  1  0  0  0
 10 15  1  0  0  0  0
 11 10  1  0  0  0  0
 12 11  1  0  0  0  0
 12 13  1  0  0  0  0
 13  6  1  6  0  0  0
 13 14  1  0  0  0  0
 14 15  1  0  0  0  0
 16  8  1  0  0  0  0
 16 17  1  0  0  0  0
 16 18  1  0  0  0  0
 19 20  1  0  0  0  0
 21 19  2  0  0  0  0
 22 23  3  0  0  0  0
 23 24  1  0  0  0  0
 24 26  1  0  0  0  0
 24 27  1  0  0  0  0
 25 24  1  0  0  0  0
M  END
>  <minimizedAffinity>
-5.33406639

$$$$
