REMARK  Name = 
REMARK  3 active torsions:
REMARK  status: ('A' for Active; 'I' for Inactive)
REMARK    1  A    between atoms: C_2  and  C_4
REMARK    2  A    between atoms: C_11  and  C_12
REMARK    3  A    between atoms: N_17  and  C_18
REMARK                            x       y       z     vdW  Elec       q    Type
REMARK                         _______ _______ _______ _____ _____    ______ ____
ROOT
ATOM      1  C   UNL     1       2.984  -0.351   1.199  0.00  0.00    -0.001 A 
ATOM      2  C   UNL     1       2.573  -1.616   1.647  0.00  0.00    +0.012 A 
ATOM      3  C   UNL     1       3.252  -2.307   2.660  0.00  0.00    +0.028 A 
ATOM      4  C   UNL     1       4.374  -1.689   3.229  0.00  0.00    +0.069 A 
ATOM      5  C   UNL     1       4.811  -0.437   2.803  0.00  0.00    +0.090 A 
ATOM      6  C   UNL     1       4.117   0.240   1.788  0.00  0.00    +0.039 A 
ATOM      7  N   UNL     1       5.927  -0.046   3.495  0.00  0.00    -0.225 NA
ATOM      8  C   UNL     1       6.195  -1.030   4.334  0.00  0.00    +0.178 A 
ATOM      9  N   UNL     1       5.267  -2.048   4.226  0.00  0.00    -0.318 N 
ENDROOT
BRANCH   8  10
ATOM     10  C   UNL     1       7.331  -0.950   5.200  0.00  0.00    +0.174 A 
ATOM     11  N   UNL     1       7.779  -1.833   6.070  0.00  0.00    -0.233 NA
ATOM     12  C   UNL     1       8.898  -1.266   6.629  0.00  0.00    +0.130 A 
ATOM     13  C   UNL     1       9.139  -0.024   6.094  0.00  0.00    +0.104 A 
ATOM     14  N   UNL     1       8.136   0.163   5.185  0.00  0.00    -0.342 N 
ATOM     15  H   UNL     1       7.971   0.959   4.582  0.00  0.00    +0.167 HD
ENDBRANCH   8  10
BRANCH   9  16
ATOM     16  C   UNL     1       5.221  -3.277   5.013  0.00  0.00    +0.089 C 
ATOM     17  C   UNL     1       3.945  -3.399   5.864  0.00  0.00    +0.025 C 
ATOM     18  C   UNL     1       3.958  -4.672   6.708  0.00  0.00    +0.002 C 
ATOM     19  C   UNL     1       4.192  -5.913   5.850  0.00  0.00    +0.000 C 
ATOM     20  C   UNL     1       5.471  -5.797   5.027  0.00  0.00    +0.002 C 
ATOM     21  C   UNL     1       5.476  -4.535   4.166  0.00  0.00    +0.025 C 
ENDBRANCH   9  16
BRANCH   1  23
ATOM     22  O   UNL     1       1.210  -0.230  -0.385  0.00  0.00    -0.545 OA
ATOM     23  C   UNL     1       2.223   0.366   0.101  0.00  0.00    +0.072 C 
ATOM     24  O   UNL     1       2.653   1.509  -0.253  0.00  0.00    -0.545 OA
ENDBRANCH   1  23
TORSDOF 3
