
 OpenBabel09122222393D

 24 27  0  0  0  0  0  0  0  0999 V2000
    6.2120   -6.1530    0.2720 C   0  0  0  0  0  0  0  0  0  0  0  0
    6.2860   -5.5540    1.5390 C   0  0  0  0  0  3  0  0  0  0  0  0
    7.2860   -4.6290    1.8710 C   0  0  0  0  0  3  0  0  0  0  0  0
    8.2280   -4.3070    0.8840 C   0  0  0  0  0  0  0  0  0  0  0  0
    8.1850   -4.8880   -0.3810 C   0  0  0  0  0  0  0  0  0  0  0  0
    7.1750   -5.8120   -0.6950 C   0  0  0  0  0  3  0  0  0  0  0  0
    9.2100   -4.4290   -1.1660 N   0  0  0  0  0  0  0  0  0  0  0  0
    9.8900   -3.5830   -0.4140 C   0  0  0  0  0  0  0  0  0  0  0  0
    9.3220   -3.4580    0.8390 N   0  0  0  0  0  0  0  0  0  0  0  0
   11.0560   -2.9350   -0.9310 C   0  0  0  0  0  0  0  0  0  0  0  0
   12.3270   -3.2260   -0.7340 N   0  0  0  0  0  0  0  0  0  0  0  0
   13.0340   -2.3020   -1.4640 C   0  0  0  0  0  3  0  0  0  0  0  0
   12.1880   -1.4380   -2.1160 C   0  0  0  0  0  3  0  0  0  0  0  0
   10.9330   -1.8540   -1.7700 N   0  0  0  0  0  0  0  0  0  0  0  0
   10.0400   -1.4720   -2.0540 H   0  0  0  0  0  0  0  0  0  0  0  0
    9.7760   -2.5920    1.9230 C   0  0  0  0  0  3  0  0  0  0  0  0
    9.0280   -1.2480    1.9740 C   0  0  0  0  0  2  0  0  0  0  0  0
    9.5660   -0.3530    3.0890 C   0  0  0  0  0  2  0  0  0  0  0  0
    9.5500   -1.0660    4.4390 C   0  0  0  0  0  2  0  0  0  0  0  0
   10.3140   -2.3850    4.3890 C   0  0  0  0  0  2  0  0  0  0  0  0
    9.7870   -3.3020    3.2870 C   0  0  0  0  0  2  0  0  0  0  0  0
    5.2260   -7.8000   -1.1370 O   0  0  0  0  0  0  0  0  0  0  0  0
    5.1150   -7.1490   -0.0500 C   0  0  0  0  0  0  0  0  0  0  0  0
    4.1660   -7.2590    0.7890 O   0  0  0  0  0  1  0  0  0  0  0  0
  1  2  1  0  0  0  0
  2  3  2  0  0  0  0
  4  3  1  0  0  0  0
  5  4  2  0  0  0  0
  6  5  1  0  0  0  0
  6  1  2  0  0  0  0
  7  8  2  0  0  0  0
  7  5  1  0  0  0  0
  8  9  1  0  0  0  0
  9  4  1  0  0  0  0
  9 16  1  0  0  0  0
 10 11  2  0  0  0  0
 10  8  1  0  0  0  0
 12 11  1  0  0  0  0
 13 14  1  0  0  0  0
 13 12  2  0  0  0  0
 14 10  1  0  0  0  0
 15 14  1  0  0  0  0
 16 17  1  0  0  0  0
 16 21  1  0  0  0  0
 17 18  1  0  0  0  0
 18 19  1  0  0  0  0
 20 19  1  0  0  0  0
 21 20  1  0  0  0  0
 22 23  2  0  0  0  0
 23  1  1  0  0  0  0
 23 24  1  0  0  0  0
M  END
>  <minimizedAffinity>
-8.16061878

$$$$
