
 OpenBabel09122222393D

 24 27  0  0  0  0  0  0  0  0999 V2000
    6.2890   -6.0280   -0.1080 C   0  0  0  0  0  0  0  0  0  0  0  0
    7.1900   -5.6030   -1.0970 C   0  0  0  0  0  3  0  0  0  0  0  0
    8.2440   -4.7220   -0.8180 C   0  0  0  0  0  3  0  0  0  0  0  0
    8.3810   -4.2680    0.5010 C   0  0  0  0  0  0  0  0  0  0  0  0
    7.5000   -4.6660    1.5040 C   0  0  0  0  0  0  0  0  0  0  0  0
    6.4510   -5.5510    1.2050 C   0  0  0  0  0  3  0  0  0  0  0  0
    7.8270   -4.0870    2.7010 N   0  0  0  0  0  0  0  0  0  0  0  0
    8.8840   -3.3330    2.4610 C   0  0  0  0  0  0  0  0  0  0  0  0
    9.2750   -3.4230    1.1390 N   0  0  0  0  0  0  0  0  0  0  0  0
    9.4710   -2.5590    3.5120 C   0  0  0  0  0  0  0  0  0  0  0  0
   10.3280   -2.9310    4.4420 N   0  0  0  0  0  0  0  0  0  0  0  0
   10.5740   -1.8050    5.1890 C   0  0  0  0  0  3  0  0  0  0  0  0
    9.8620   -0.7320    4.7100 C   0  0  0  0  0  3  0  0  0  0  0  0
    9.1670   -1.2260    3.6420 N   0  0  0  0  0  0  0  0  0  0  0  0
    8.5310   -0.7390    3.0230 H   0  0  0  0  0  0  0  0  0  0  0  0
   10.4170   -2.7600    0.5170 C   0  0  0  0  0  3  0  0  0  0  0  0
   11.4770   -3.7480   -0.0010 C   0  0  0  0  0  2  0  0  0  0  0  0
   12.6770   -3.0150   -0.5990 C   0  0  0  0  0  2  0  0  0  0  0  0
   12.2480   -2.0220   -1.6760 C   0  0  0  0  0  2  0  0  0  0  0  0
   11.2160   -1.0290   -1.1500 C   0  0  0  0  0  2  0  0  0  0  0  0
   10.0010   -1.7400   -0.5560 C   0  0  0  0  0  2  0  0  0  0  0  0
    3.9980   -6.6720   -0.0400 O   0  0  0  0  0  1  0  0  0  0  0  0
    5.1620   -6.9830   -0.4480 C   0  0  0  0  0  0  0  0  0  0  0  0
    5.4620   -8.0230   -1.1150 O   0  0  0  0  0  0  0  0  0  0  0  0
  1  6  1  0  0  0  0
  2  3  1  0  0  0  0
  2  1  2  0  0  0  0
  3  4  2  0  0  0  0
  4  9  1  0  0  0  0
  4  5  1  0  0  0  0
  5  7  1  0  0  0  0
  6  5  2  0  0  0  0
  8  7  2  0  0  0  0
  8 10  1  0  0  0  0
  9  8  1  0  0  0  0
 10 14  1  0  0  0  0
 10 11  2  0  0  0  0
 11 12  1  0  0  0  0
 13 12  2  0  0  0  0
 14 13  1  0  0  0  0
 15 14  1  0  0  0  0
 16  9  1  0  0  0  0
 17 16  1  0  0  0  0
 18 17  1  0  0  0  0
 19 20  1  0  0  0  0
 19 18  1  0  0  0  0
 20 21  1  0  0  0  0
 21 16  1  0  0  0  0
 23  1  1  0  0  0  0
 23 22  1  0  0  0  0
 24 23  2  0  0  0  0
M  END
>  <minimizedAffinity>
-8.10077572

$$$$
