
 OpenBabel09122219273D

 24 27  0  0  0  0  0  0  0  0999 V2000
    6.2120   -6.1530    0.2720 C   0  0  0  0  0  0  0  0  0  0  0  0
    6.2860   -5.5540    1.5390 C   0  0  0  0  0  3  0  0  0  0  0  0
    7.2860   -4.6290    1.8710 C   0  0  0  0  0  3  0  0  0  0  0  0
    8.2280   -4.3070    0.8840 C   0  0  0  0  0  0  0  0  0  0  0  0
    8.1850   -4.8880   -0.3810 C   0  0  0  0  0  0  0  0  0  0  0  0
    7.1750   -5.8120   -0.6950 C   0  0  0  0  0  3  0  0  0  0  0  0
    9.2100   -4.4290   -1.1660 N   0  0  0  0  0  0  0  0  0  0  0  0
    9.8900   -3.5830   -0.4140 C   0  0  0  0  0  0  0  0  0  0  0  0
    9.3220   -3.4580    0.8390 N   0  0  0  0  0  0  0  0  0  0  0  0
   11.0560   -2.9350   -0.9310 C   0  0  0  0  0  0  0  0  0  0  0  0
   12.3270   -3.2260   -0.7340 N   0  0  0  0  0  0  0  0  0  0  0  0
   13.0340   -2.3020   -1.4640 C   0  0  0  0  0  3  0  0  0  0  0  0
   12.1880   -1.4380   -2.1160 C   0  0  0  0  0  3  0  0  0  0  0  0
   10.9330   -1.8540   -1.7700 N   0  0  0  0  0  0  0  0  0  0  0  0
   10.0400   -1.4720   -2.0540 H   0  0  0  0  0  0  0  0  0  0  0  0
    9.7760   -2.5920    1.9230 C   0  0  0  0  0  3  0  0  0  0  0  0
    9.0280   -1.2480    1.9740 C   0  0  0  0  0  2  0  0  0  0  0  0
    9.5660   -0.3530    3.0890 C   0  0  0  0  0  2  0  0  0  0  0  0
    9.5500   -1.0660    4.4390 C   0  0  0  0  0  2  0  0  0  0  0  0
   10.3140   -2.3850    4.3890 C   0  0  0  0  0  2  0  0  0  0  0  0
    9.7870   -3.3020    3.2870 C   0  0  0  0  0  2  0  0  0  0  0  0
    5.2260   -7.8000   -1.1370 O   0  0  0  0  0  0  0  0  0  0  0  0
    5.1150   -7.1490   -0.0500 C   0  0  0  0  0  0  0  0  0  0  0  0
    4.1660   -7.2590    0.7890 O   0  0  0  0  0  1  0  0  0  0  0  0
  1  2  1  0  0  0  0
  2  3  2  0  0  0  0
  4  3  1  0  0  0  0
  5  4  2  0  0  0  0
  6  5  1  0  0  0  0
  6  1  2  0  0  0  0
  7  8  2  0  0  0  0
  7  5  1  0  0  0  0
  8  9  1  0  0  0  0
  9  4  1  0  0  0  0
  9 16  1  0  0  0  0
 10 11  2  0  0  0  0
 10  8  1  0  0  0  0
 12 11  1  0  0  0  0
 13 14  1  0  0  0  0
 13 12  2  0  0  0  0
 14 10  1  0  0  0  0
 15 14  1  0  0  0  0
 16 17  1  0  0  0  0
 16 21  1  0  0  0  0
 17 18  1  0  0  0  0
 18 19  1  0  0  0  0
 20 19  1  0  0  0  0
 21 20  1  0  0  0  0
 22 23  2  0  0  0  0
 23  1  1  0  0  0  0
 23 24  1  0  0  0  0
M  END
>  <minimizedAffinity>
-8.16061878

$$$$

 OpenBabel09122219273D

 24 27  0  0  0  0  0  0  0  0999 V2000
    6.2890   -6.0280   -0.1080 C   0  0  0  0  0  0  0  0  0  0  0  0
    7.1900   -5.6030   -1.0970 C   0  0  0  0  0  3  0  0  0  0  0  0
    8.2440   -4.7220   -0.8180 C   0  0  0  0  0  3  0  0  0  0  0  0
    8.3810   -4.2680    0.5010 C   0  0  0  0  0  0  0  0  0  0  0  0
    7.5000   -4.6660    1.5040 C   0  0  0  0  0  0  0  0  0  0  0  0
    6.4510   -5.5510    1.2050 C   0  0  0  0  0  3  0  0  0  0  0  0
    7.8270   -4.0870    2.7010 N   0  0  0  0  0  0  0  0  0  0  0  0
    8.8840   -3.3330    2.4610 C   0  0  0  0  0  0  0  0  0  0  0  0
    9.2750   -3.4230    1.1390 N   0  0  0  0  0  0  0  0  0  0  0  0
    9.4710   -2.5590    3.5120 C   0  0  0  0  0  0  0  0  0  0  0  0
   10.3280   -2.9310    4.4420 N   0  0  0  0  0  0  0  0  0  0  0  0
   10.5740   -1.8050    5.1890 C   0  0  0  0  0  3  0  0  0  0  0  0
    9.8620   -0.7320    4.7100 C   0  0  0  0  0  3  0  0  0  0  0  0
    9.1670   -1.2260    3.6420 N   0  0  0  0  0  0  0  0  0  0  0  0
    8.5310   -0.7390    3.0230 H   0  0  0  0  0  0  0  0  0  0  0  0
   10.4170   -2.7600    0.5170 C   0  0  0  0  0  3  0  0  0  0  0  0
   11.4770   -3.7480   -0.0010 C   0  0  0  0  0  2  0  0  0  0  0  0
   12.6770   -3.0150   -0.5990 C   0  0  0  0  0  2  0  0  0  0  0  0
   12.2480   -2.0220   -1.6760 C   0  0  0  0  0  2  0  0  0  0  0  0
   11.2160   -1.0290   -1.1500 C   0  0  0  0  0  2  0  0  0  0  0  0
   10.0010   -1.7400   -0.5560 C   0  0  0  0  0  2  0  0  0  0  0  0
    3.9980   -6.6720   -0.0400 O   0  0  0  0  0  1  0  0  0  0  0  0
    5.1620   -6.9830   -0.4480 C   0  0  0  0  0  0  0  0  0  0  0  0
    5.4620   -8.0230   -1.1150 O   0  0  0  0  0  0  0  0  0  0  0  0
  1  6  1  0  0  0  0
  2  3  1  0  0  0  0
  2  1  2  0  0  0  0
  3  4  2  0  0  0  0
  4  9  1  0  0  0  0
  4  5  1  0  0  0  0
  5  7  1  0  0  0  0
  6  5  2  0  0  0  0
  8  7  2  0  0  0  0
  8 10  1  0  0  0  0
  9  8  1  0  0  0  0
 10 14  1  0  0  0  0
 10 11  2  0  0  0  0
 11 12  1  0  0  0  0
 13 12  2  0  0  0  0
 14 13  1  0  0  0  0
 15 14  1  0  0  0  0
 16  9  1  0  0  0  0
 17 16  1  0  0  0  0
 18 17  1  0  0  0  0
 19 20  1  0  0  0  0
 19 18  1  0  0  0  0
 20 21  1  0  0  0  0
 21 16  1  0  0  0  0
 23  1  1  0  0  0  0
 23 22  1  0  0  0  0
 24 23  2  0  0  0  0
M  END
>  <minimizedAffinity>
-8.10077572

$$$$

 OpenBabel09122219273D

 24 27  0  0  0  0  0  0  0  0999 V2000
    9.6480   -3.7060    0.3250 C   0  0  0  0  0  0  0  0  0  0  0  0
    9.0140   -4.7880   -0.3060 C   0  0  0  0  0  3  0  0  0  0  0  0
    7.8400   -5.3640    0.1980 C   0  0  0  0  0  3  0  0  0  0  0  0
    7.3010   -4.8200    1.3710 C   0  0  0  0  0  0  0  0  0  0  0  0
    7.9080   -3.7500    2.0250 C   0  0  0  0  0  0  0  0  0  0  0  0
    9.0830   -3.1860    1.5040 C   0  0  0  0  0  3  0  0  0  0  0  0
    7.2070   -3.4010    3.1490 N   0  0  0  0  0  0  0  0  0  0  0  0
    6.1850   -4.2350    3.2110 C   0  0  0  0  0  0  0  0  0  0  0  0
    6.1840   -5.1080    2.1400 N   0  0  0  0  0  0  0  0  0  0  0  0
    5.2560   -4.1580    4.2960 C   0  0  0  0  0  0  0  0  0  0  0  0
    5.1240   -4.9550    5.3380 N   0  0  0  0  0  0  0  0  0  0  0  0
    4.0920   -4.4290    6.0770 C   0  0  0  0  0  3  0  0  0  0  0  0
    3.5900   -3.2970    5.4830 C   0  0  0  0  0  3  0  0  0  0  0  0
    4.3410   -3.1350    4.3530 N   0  0  0  0  0  0  0  0  0  0  0  0
    4.2760   -2.4090    3.6510 H   0  0  0  0  0  0  0  0  0  0  0  0
    5.1950   -6.1430    1.8560 C   0  0  0  0  0  3  0  0  0  0  0  0
    4.9040   -6.3020    0.3530 C   0  0  0  0  0  2  0  0  0  0  0  0
    3.8300   -7.3590    0.1020 C   0  0  0  0  0  2  0  0  0  0  0  0
    4.1880   -8.6900    0.7580 C   0  0  0  0  0  2  0  0  0  0  0  0
    4.4510   -8.5310    2.2520 C   0  0  0  0  0  2  0  0  0  0  0  0
    5.5300   -7.4860    2.5270 C   0  0  0  0  0  2  0  0  0  0  0  0
   10.8140   -2.4890   -1.3570 O   0  0  0  0  0  0  0  0  0  0  0  0
   10.9170   -3.1090   -0.2510 C   0  0  0  0  0  0  0  0  0  0  0  0
   11.9890   -3.2730    0.4120 O   0  0  0  0  0  1  0  0  0  0  0  0
  1  6  1  0  0  0  0
  2  3  1  0  0  0  0
  2  1  2  0  0  0  0
  3  4  2  0  0  0  0
  4  5  1  0  0  0  0
  4  9  1  0  0  0  0
  5  7  1  0  0  0  0
  6  5  2  0  0  0  0
  7  8  2  0  0  0  0
  8 10  1  0  0  0  0
  9  8  1  0  0  0  0
 10 14  1  0  0  0  0
 10 11  2  0  0  0  0
 11 12  1  0  0  0  0
 13 12  2  0  0  0  0
 14 13  1  0  0  0  0
 15 14  1  0  0  0  0
 16  9  1  0  0  0  0
 16 21  1  0  0  0  0
 17 16  1  0  0  0  0
 18 17  1  0  0  0  0
 18 19  1  0  0  0  0
 19 20  1  0  0  0  0
 20 21  1  0  0  0  0
 22 23  2  0  0  0  0
 23  1  1  0  0  0  0
 23 24  1  0  0  0  0
M  END
>  <minimizedAffinity>
-7.22343397

$$$$

 OpenBabel09122219273D

 24 27  0  0  0  0  0  0  0  0999 V2000
    7.5130   -5.4540    1.0230 C   0  0  0  0  0  0  0  0  0  0  0  0
    8.2830   -5.2660   -0.1350 C   0  0  0  0  0  3  0  0  0  0  0  0
    9.0480   -4.1100   -0.3450 C   0  0  0  0  0  3  0  0  0  0  0  0
    9.0260   -3.1260    0.6530 C   0  0  0  0  0  0  0  0  0  0  0  0
    8.2670   -3.2790    1.8110 C   0  0  0  0  0  0  0  0  0  0  0  0
    7.5090   -4.4450    2.0040 C   0  0  0  0  0  3  0  0  0  0  0  0
    8.3960   -2.1880    2.6290 N   0  0  0  0  0  0  0  0  0  0  0  0
    9.2100   -1.3600    2.0010 C   0  0  0  0  0  0  0  0  0  0  0  0
    9.6390   -1.8920    0.8000 N   0  0  0  0  0  0  0  0  0  0  0  0
    9.5390   -0.0930    2.5800 C   0  0  0  0  0  0  0  0  0  0  0  0
    9.3490    1.1180    2.0970 N   0  0  0  0  0  0  0  0  0  0  0  0
    9.8350    1.9770    3.0520 C   0  0  0  0  0  3  0  0  0  0  0  0
   10.3260    1.2850    4.1320 C   0  0  0  0  0  3  0  0  0  0  0  0
   10.1280   -0.0310    3.8190 N   0  0  0  0  0  0  0  0  0  0  0  0
   10.3560   -0.8510    4.3670 H   0  0  0  0  0  0  0  0  0  0  0  0
   10.5680   -1.2810   -0.1460 C   0  0  0  0  0  3  0  0  0  0  0  0
   11.4430   -2.3120   -0.8810 C   0  0  0  0  0  2  0  0  0  0  0  0
   12.4330   -1.6300   -1.8230 C   0  0  0  0  0  2  0  0  0  0  0  0
   11.7280   -0.6860   -2.7940 C   0  0  0  0  0  2  0  0  0  0  0  0
   10.8810    0.3490   -2.0590 C   0  0  0  0  0  2  0  0  0  0  0  0
    9.8750   -0.3100   -1.1170 C   0  0  0  0  0  2  0  0  0  0  0  0
    6.5930   -7.1640    2.4010 O   0  0  0  0  0  1  0  0  0  0  0  0
    6.6990   -6.7190    1.2150 C   0  0  0  0  0  0  0  0  0  0  0  0
    6.1840   -7.2410    0.1760 O   0  0  0  0  0  0  0  0  0  0  0  0
  1 23  1  0  0  0  0
  1  6  1  0  0  0  0
  2  1  2  0  0  0  0
  3  2  1  0  0  0  0
  3  4  2  0  0  0  0
  4  9  1  0  0  0  0
  4  5  1  0  0  0  0
  5  6  2  0  0  0  0
  5  7  1  0  0  0  0
  8 10  1  0  0  0  0
  8  7  2  0  0  0  0
  9  8  1  0  0  0  0
 10 14  1  0  0  0  0
 11 10  2  0  0  0  0
 11 12  1  0  0  0  0
 12 13  2  0  0  0  0
 14 13  1  0  0  0  0
 14 15  1  0  0  0  0
 16  9  1  0  0  0  0
 17 16  1  0  0  0  0
 18 17  1  0  0  0  0
 19 20  1  0  0  0  0
 19 18  1  0  0  0  0
 20 21  1  0  0  0  0
 21 16  1  0  0  0  0
 23 22  1  0  0  0  0
 24 23  2  0  0  0  0
M  END
>  <minimizedAffinity>
-6.97536945

$$$$

 OpenBabel09122219273D

 24 27  0  0  0  0  0  0  0  0999 V2000
    9.3250   -3.8150    0.3750 C   0  0  0  0  0  0  0  0  0  0  0  0
    8.8470   -2.9820    1.3990 C   0  0  0  0  0  3  0  0  0  0  0  0
    7.7330   -3.3210    2.1790 C   0  0  0  0  0  3  0  0  0  0  0  0
    7.0960   -4.5400    1.9080 C   0  0  0  0  0  0  0  0  0  0  0  0
    7.5420   -5.3860    0.8950 C   0  0  0  0  0  0  0  0  0  0  0  0
    8.6600   -5.0290    0.1250 C   0  0  0  0  0  3  0  0  0  0  0  0
    6.7580   -6.5060    0.8120 N   0  0  0  0  0  0  0  0  0  0  0  0
    5.8330   -6.3700    1.7440 C   0  0  0  0  0  0  0  0  0  0  0  0
    6.0050   -5.1970    2.4540 N   0  0  0  0  0  0  0  0  0  0  0  0
    4.8240   -7.3700    1.9110 C   0  0  0  0  0  0  0  0  0  0  0  0
    4.4640   -8.0170    3.0010 N   0  0  0  0  0  0  0  0  0  0  0  0
    3.4480   -8.8560    2.6140 C   0  0  0  0  0  3  0  0  0  0  0  0
    3.1810   -8.7200    1.2740 C   0  0  0  0  0  3  0  0  0  0  0  0
    4.0610   -7.7700    0.8400 N   0  0  0  0  0  0  0  0  0  0  0  0
    4.1730   -7.3910   -0.0920 H   0  0  0  0  0  0  0  0  0  0  0  0
    5.1990   -4.7270    3.5770 C   0  0  0  0  0  3  0  0  0  0  0  0
    6.0010   -3.8840    4.5830 C   0  0  0  0  0  2  0  0  0  0  0  0
    5.1350   -3.4540    5.7660 C   0  0  0  0  0  2  0  0  0  0  0  0
    3.8690   -2.7380    5.3030 C   0  0  0  0  0  2  0  0  0  0  0  0
    3.0640   -3.5880    4.3250 C   0  0  0  0  0  2  0  0  0  0  0  0
    3.9080   -4.0220    3.1280 C   0  0  0  0  0  2  0  0  0  0  0  0
   11.5920   -4.1020   -0.2940 O   0  0  0  0  0  1  0  0  0  0  0  0
   10.5340   -3.4140   -0.4470 C   0  0  0  0  0  0  0  0  0  0  0  0
   10.4020   -2.4200   -1.2290 O   0  0  0  0  0  0  0  0  0  0  0  0
  1  2  1  0  0  0  0
  2  3  2  0  0  0  0
  4  3  1  0  0  0  0
  4  9  1  0  0  0  0
  5  4  2  0  0  0  0
  6  1  2  0  0  0  0
  6  5  1  0  0  0  0
  7  5  1  0  0  0  0
  7  8  2  0  0  0  0
  8 10  1  0  0  0  0
  8  9  1  0  0  0  0
  9 16  1  0  0  0  0
 10 11  2  0  0  0  0
 12 11  1  0  0  0  0
 13 12  2  0  0  0  0
 14 13  1  0  0  0  0
 14 10  1  0  0  0  0
 15 14  1  0  0  0  0
 16 17  1  0  0  0  0
 17 18  1  0  0  0  0
 19 18  1  0  0  0  0
 20 19  1  0  0  0  0
 21 16  1  0  0  0  0
 21 20  1  0  0  0  0
 23 22  1  0  0  0  0
 23  1  1  0  0  0  0
 24 23  2  0  0  0  0
M  END
>  <minimizedAffinity>
-6.77528191

$$$$

 OpenBabel09122219273D

 24 27  0  0  0  0  0  0  0  0999 V2000
    5.1500   -6.5090    0.7980 C   0  0  0  0  0  0  0  0  0  0  0  0
    4.7710   -7.5710    1.6330 C   0  0  0  0  0  3  0  0  0  0  0  0
    4.2520   -7.3620    2.9180 C   0  0  0  0  0  3  0  0  0  0  0  0
    4.1160   -6.0380    3.3570 C   0  0  0  0  0  0  0  0  0  0  0  0
    4.4890   -4.9620    2.5550 C   0  0  0  0  0  0  0  0  0  0  0  0
    5.0050   -5.1910    1.2700 C   0  0  0  0  0  3  0  0  0  0  0  0
    4.2750   -3.7720    3.2000 N   0  0  0  0  0  0  0  0  0  0  0  0
    3.7850   -4.0870    4.3850 C   0  0  0  0  0  0  0  0  0  0  0  0
    3.6500   -5.4550    4.5250 N   0  0  0  0  0  0  0  0  0  0  0  0
    3.4710   -3.0610    5.3320 C   0  0  0  0  0  0  0  0  0  0  0  0
    2.2940   -2.5870    5.6860 N   0  0  0  0  0  0  0  0  0  0  0  0
    2.5520   -1.6240    6.6300 C   0  0  0  0  0  3  0  0  0  0  0  0
    3.9020   -1.5080    6.8580 C   0  0  0  0  0  3  0  0  0  0  0  0
    4.4740   -2.4300    6.0270 N   0  0  0  0  0  0  0  0  0  0  0  0
    5.4550   -2.6490    5.9080 H   0  0  0  0  0  0  0  0  0  0  0  0
    3.1140   -6.1680    5.6810 C   0  0  0  0  0  3  0  0  0  0  0  0
    3.7510   -5.7250    7.0100 C   0  0  0  0  0  2  0  0  0  0  0  0
    3.1990   -6.5270    8.1870 C   0  0  0  0  0  2  0  0  0  0  0  0
    1.6740   -6.4710    8.2390 C   0  0  0  0  0  2  0  0  0  0  0  0
    1.0470   -6.9350    6.9280 C   0  0  0  0  0  2  0  0  0  0  0  0
    1.5770   -6.1390    5.7360 C   0  0  0  0  0  2  0  0  0  0  0  0
    5.4190   -7.8920   -1.1220 O   0  0  0  0  0  0  0  0  0  0  0  0
    5.7070   -6.7740   -0.5870 C   0  0  0  0  0  0  0  0  0  0  0  0
    6.4210   -5.8620   -1.1120 O   0  0  0  0  0  1  0  0  0  0  0  0
  1  6  2  0  0  0  0
  1  2  1  0  0  0  0
  2  3  2  0  0  0  0
  3  4  1  0  0  0  0
  4  9  1  0  0  0  0
  5  7  1  0  0  0  0
  5  4  2  0  0  0  0
  6  5  1  0  0  0  0
  7  8  2  0  0  0  0
  8  9  1  0  0  0  0
  8 10  1  0  0  0  0
  9 16  1  0  0  0  0
 10 11  2  0  0  0  0
 10 14  1  0  0  0  0
 11 12  1  0  0  0  0
 12 13  2  0  0  0  0
 14 13  1  0  0  0  0
 15 14  1  0  0  0  0
 16 21  1  0  0  0  0
 16 17  1  0  0  0  0
 17 18  1  0  0  0  0
 18 19  1  0  0  0  0
 20 19  1  0  0  0  0
 21 20  1  0  0  0  0
 22 23  2  0  0  0  0
 23  1  1  0  0  0  0
 24 23  1  0  0  0  0
M  END
>  <minimizedAffinity>
-6.57177448

$$$$

 OpenBabel09122219273D

 24 27  0  0  0  0  0  0  0  0999 V2000
    5.0550   -6.4770    0.9310 C   0  0  0  0  0  0  0  0  0  0  0  0
    4.5470   -7.5180    1.7240 C   0  0  0  0  0  3  0  0  0  0  0  0
    3.9600   -7.2850    2.9750 C   0  0  0  0  0  3  0  0  0  0  0  0
    3.8870   -5.9590    3.4230 C   0  0  0  0  0  0  0  0  0  0  0  0
    4.3860   -4.9040    2.6620 C   0  0  0  0  0  0  0  0  0  0  0  0
    4.9700   -5.1570    1.4110 C   0  0  0  0  0  3  0  0  0  0  0  0
    4.2130   -3.7090    3.3080 N   0  0  0  0  0  0  0  0  0  0  0  0
    3.6250   -3.9990    4.4540 C   0  0  0  0  0  0  0  0  0  0  0  0
    3.3860   -5.3560    4.5650 N   0  0  0  0  0  0  0  0  0  0  0  0
    3.3200   -2.9630    5.3920 C   0  0  0  0  0  0  0  0  0  0  0  0
    4.0630   -2.4750    6.3650 N   0  0  0  0  0  0  0  0  0  0  0  0
    3.3030   -1.4950    6.9540 C   0  0  0  0  0  3  0  0  0  0  0  0
    2.0830   -1.3800    6.3350 C   0  0  0  0  0  3  0  0  0  0  0  0
    2.1080   -2.3180    5.3410 N   0  0  0  0  0  0  0  0  0  0  0  0
    1.3910   -2.5370    4.6620 H   0  0  0  0  0  0  0  0  0  0  0  0
    2.7250   -6.0400    5.6730 C   0  0  0  0  0  3  0  0  0  0  0  0
    1.2780   -6.4520    5.3490 C   0  0  0  0  0  2  0  0  0  0  0  0
    0.6070   -7.1190    6.5480 C   0  0  0  0  0  2  0  0  0  0  0  0
    1.4310   -8.2930    7.0710 C   0  0  0  0  0  2  0  0  0  0  0  0
    2.8560   -7.8740    7.4140 C   0  0  0  0  0  2  0  0  0  0  0  0
    3.5520   -7.2120    6.2260 C   0  0  0  0  0  2  0  0  0  0  0  0
    6.5150   -5.9160   -0.8650 O   0  0  0  0  0  1  0  0  0  0  0  0
    5.6830   -6.7680   -0.4180 C   0  0  0  0  0  0  0  0  0  0  0  0
    5.3330   -7.8410   -1.0030 O   0  0  0  0  0  0  0  0  0  0  0  0
  1  6  2  0  0  0  0
  1  2  1  0  0  0  0
  2  3  2  0  0  0  0
  3  4  1  0  0  0  0
  4  9  1  0  0  0  0
  5  7  1  0  0  0  0
  5  4  2  0  0  0  0
  6  5  1  0  0  0  0
  7  8  2  0  0  0  0
  8  9  1  0  0  0  0
  8 10  1  0  0  0  0
  9 16  1  0  0  0  0
 10 11  2  0  0  0  0
 11 12  1  0  0  0  0
 13 12  2  0  0  0  0
 14 10  1  0  0  0  0
 14 13  1  0  0  0  0
 15 14  1  0  0  0  0
 16 21  1  0  0  0  0
 17 16  1  0  0  0  0
 17 18  1  0  0  0  0
 18 19  1  0  0  0  0
 19 20  1  0  0  0  0
 21 20  1  0  0  0  0
 22 23  1  0  0  0  0
 23  1  1  0  0  0  0
 24 23  2  0  0  0  0
M  END
>  <minimizedAffinity>
-6.37160015

$$$$

 OpenBabel09122219273D

 24 27  0  0  0  0  0  0  0  0999 V2000
    5.7090   -6.0780    2.2210 C   0  0  0  0  0  0  0  0  0  0  0  0
    5.6530   -4.7360    2.6270 C   0  0  0  0  0  3  0  0  0  0  0  0
    4.7290   -4.2800    3.5780 C   0  0  0  0  0  3  0  0  0  0  0  0
    3.8440   -5.2190    4.1260 C   0  0  0  0  0  0  0  0  0  0  0  0
    3.8700   -6.5570    3.7400 C   0  0  0  0  0  0  0  0  0  0  0  0
    4.8040   -6.9940    2.7880 C   0  0  0  0  0  3  0  0  0  0  0  0
    2.9090   -7.2760    4.4010 N   0  0  0  0  0  0  0  0  0  0  0  0
    2.2850   -6.4130    5.1820 C   0  0  0  0  0  0  0  0  0  0  0  0
    2.8290   -5.1480    5.0670 N   0  0  0  0  0  0  0  0  0  0  0  0
    1.1930   -6.8400    6.0010 C   0  0  0  0  0  0  0  0  0  0  0  0
    1.1630   -7.0620    7.3000 N   0  0  0  0  0  0  0  0  0  0  0  0
   -0.1260   -7.4440    7.5800 C   0  0  0  0  0  3  0  0  0  0  0  0
   -0.8940   -7.4540    6.4420 C   0  0  0  0  0  3  0  0  0  0  0  0
   -0.0430   -7.0650    5.4460 N   0  0  0  0  0  0  0  0  0  0  0  0
   -0.2380   -6.9470    4.4590 H   0  0  0  0  0  0  0  0  0  0  0  0
    2.4230   -3.9510    5.7970 C   0  0  0  0  0  3  0  0  0  0  0  0
    3.3690   -3.6060    6.9600 C   0  0  0  0  0  2  0  0  0  0  0  0
    2.8830   -2.3780    7.7280 C   0  0  0  0  0  2  0  0  0  0  0  0
    2.6620   -1.1860    6.8000 C   0  0  0  0  0  2  0  0  0  0  0  0
    1.7040   -1.5260    5.6630 C   0  0  0  0  0  2  0  0  0  0  0  0
    2.1750   -2.7460    4.8740 C   0  0  0  0  0  2  0  0  0  0  0  0
    7.6550   -7.3000    1.5950 O   0  0  0  0  0  1  0  0  0  0  0  0
    6.7240   -6.5340    1.1910 C   0  0  0  0  0  0  0  0  0  0  0  0
    6.5700   -6.1160   -0.0000 O   0  0  0  0  0  0  0  0  0  0  0  0
  1  2  2  0  0  0  0
  1  6  1  0  0  0  0
  2  3  1  0  0  0  0
  3  4  2  0  0  0  0
  4  9  1  0  0  0  0
  5  4  1  0  0  0  0
  5  7  1  0  0  0  0
  6  5  2  0  0  0  0
  7  8  2  0  0  0  0
  8 10  1  0  0  0  0
  9  8  1  0  0  0  0
  9 16  1  0  0  0  0
 10 11  2  0  0  0  0
 11 12  1  0  0  0  0
 13 12  2  0  0  0  0
 14 10  1  0  0  0  0
 14 13  1  0  0  0  0
 15 14  1  0  0  0  0
 16 17  1  0  0  0  0
 17 18  1  0  0  0  0
 19 18  1  0  0  0  0
 20 19  1  0  0  0  0
 21 20  1  0  0  0  0
 21 16  1  0  0  0  0
 23 22  1  0  0  0  0
 23  1  1  0  0  0  0
 24 23  2  0  0  0  0
M  END
>  <minimizedAffinity>
-6.35689306

$$$$

 OpenBabel09122219273D

 24 27  0  0  0  0  0  0  0  0999 V2000
    9.2640   -3.4860    0.8540 C   0  0  0  0  0  0  0  0  0  0  0  0
   10.1900   -2.5810    1.3930 C   0  0  0  0  0  3  0  0  0  0  0  0
   10.0890   -2.1010    2.7060 C   0  0  0  0  0  3  0  0  0  0  0  0
    9.0180   -2.5610    3.4850 C   0  0  0  0  0  0  0  0  0  0  0  0
    8.0790   -3.4550    2.9780 C   0  0  0  0  0  0  0  0  0  0  0  0
    8.1980   -3.9250    1.6610 C   0  0  0  0  0  3  0  0  0  0  0  0
    7.1250   -3.7490    3.9160 N   0  0  0  0  0  0  0  0  0  0  0  0
    7.4480   -3.0510    4.9900 C   0  0  0  0  0  0  0  0  0  0  0  0
    8.6060   -2.3250    4.7870 N   0  0  0  0  0  0  0  0  0  0  0  0
    6.6300   -3.1110    6.1620 C   0  0  0  0  0  0  0  0  0  0  0  0
    6.8090   -3.8060    7.2690 N   0  0  0  0  0  0  0  0  0  0  0  0
    5.7410   -3.4980    8.0750 C   0  0  0  0  0  3  0  0  0  0  0  0
    4.9000   -2.6040    7.4580 C   0  0  0  0  0  3  0  0  0  0  0  0
    5.4790   -2.3650    6.2430 N   0  0  0  0  0  0  0  0  0  0  0  0
    5.1600   -1.7560    5.5000 H   0  0  0  0  0  0  0  0  0  0  0  0
    9.2820   -1.4670    5.7560 C   0  0  0  0  0  3  0  0  0  0  0  0
   10.3050   -2.2260    6.6200 C   0  0  0  0  0  2  0  0  0  0  0  0
   10.9540   -1.3060    7.6520 C   0  0  0  0  0  2  0  0  0  0  0  0
   11.5650   -0.0700    6.9970 C   0  0  0  0  0  2  0  0  0  0  0  0
   10.5410    0.6920    6.1620 C   0  0  0  0  0  2  0  0  0  0  0  0
    9.8850   -0.2070    5.1150 C   0  0  0  0  0  2  0  0  0  0  0  0
    8.4610   -4.6960   -1.0340 O   0  0  0  0  0  1  0  0  0  0  0  0
    9.4070   -3.9830   -0.5720 C   0  0  0  0  0  0  0  0  0  0  0  0
   10.4620   -3.6510   -1.2000 O   0  0  0  0  0  0  0  0  0  0  0  0
  1  2  2  0  0  0  0
  1  6  1  0  0  0  0
  2  3  1  0  0  0  0
  3  4  2  0  0  0  0
  4  9  1  0  0  0  0
  5  4  1  0  0  0  0
  5  7  1  0  0  0  0
  6  5  2  0  0  0  0
  7  8  2  0  0  0  0
  8 10  1  0  0  0  0
  9  8  1  0  0  0  0
  9 16  1  0  0  0  0
 10 14  1  0  0  0  0
 10 11  2  0  0  0  0
 11 12  1  0  0  0  0
 13 12  2  0  0  0  0
 14 13  1  0  0  0  0
 15 14  1  0  0  0  0
 16 17  1  0  0  0  0
 17 18  1  0  0  0  0
 19 18  1  0  0  0  0
 20 19  1  0  0  0  0
 21 16  1  0  0  0  0
 21 20  1  0  0  0  0
 22 23  1  0  0  0  0
 23  1  1  0  0  0  0
 24 23  2  0  0  0  0
M  END
>  <minimizedAffinity>
-6.26635075

$$$$

 OpenBabel09122219273D

 24 27  0  0  0  0  0  0  0  0999 V2000
    4.6430   -6.3350    1.9660 C   0  0  0  0  0  0  0  0  0  0  0  0
    4.6790   -4.9330    1.9170 C   0  0  0  0  0  3  0  0  0  0  0  0
    4.4660   -4.1390    3.0520 C   0  0  0  0  0  3  0  0  0  0  0  0
    4.2140   -4.7950    4.2650 C   0  0  0  0  0  0  0  0  0  0  0  0
    4.1660   -6.1840    4.3470 C   0  0  0  0  0  0  0  0  0  0  0  0
    4.3830   -6.9620    3.1990 C   0  0  0  0  0  3  0  0  0  0  0  0
    3.8950   -6.5910    5.6270 N   0  0  0  0  0  0  0  0  0  0  0  0
    3.7660   -5.4860    6.3380 C   0  0  0  0  0  0  0  0  0  0  0  0
    3.9710   -4.3620    5.5590 N   0  0  0  0  0  0  0  0  0  0  0  0
    3.4510   -5.5570    7.7310 C   0  0  0  0  0  0  0  0  0  0  0  0
    4.2600   -5.6990    8.7620 N   0  0  0  0  0  0  0  0  0  0  0  0
    3.4490   -5.6990    9.8710 C   0  0  0  0  0  3  0  0  0  0  0  0
    2.1310   -5.5540    9.5150 C   0  0  0  0  0  3  0  0  0  0  0  0
    2.1470   -5.4620    8.1520 N   0  0  0  0  0  0  0  0  0  0  0  0
    1.3670   -5.3430    7.5180 H   0  0  0  0  0  0  0  0  0  0  0  0
    3.9430   -2.9720    6.0050 C   0  0  0  0  0  3  0  0  0  0  0  0
    2.5350   -2.4960    6.4010 C   0  0  0  0  0  2  0  0  0  0  0  0
    2.5400   -1.0250    6.8140 C   0  0  0  0  0  2  0  0  0  0  0  0
    3.5640   -0.7540    7.9130 C   0  0  0  0  0  2  0  0  0  0  0  0
    4.9630   -1.2060    7.5060 C   0  0  0  0  0  2  0  0  0  0  0  0
    4.9840   -2.6780    7.0980 C   0  0  0  0  0  2  0  0  0  0  0  0
    6.0760   -7.5150    0.4750 O   0  0  0  0  0  1  0  0  0  0  0  0
    4.8790   -7.1590    0.7160 C   0  0  0  0  0  0  0  0  0  0  0  0
    3.8650   -7.4340    0.0010 O   0  0  0  0  0  0  0  0  0  0  0  0
  1  6  1  0  0  0  0
  2  1  2  0  0  0  0
  2  3  1  0  0  0  0
  3  4  2  0  0  0  0
  4  5  1  0  0  0  0
  4  9  1  0  0  0  0
  5  7  1  0  0  0  0
  6  5  2  0  0  0  0
  7  8  2  0  0  0  0
  8 10  1  0  0  0  0
  9 16  1  0  0  0  0
  9  8  1  0  0  0  0
 10 14  1  0  0  0  0
 10 11  2  0  0  0  0
 11 12  1  0  0  0  0
 13 12  2  0  0  0  0
 14 13  1  0  0  0  0
 15 14  1  0  0  0  0
 16 17  1  0  0  0  0
 16 21  1  0  0  0  0
 17 18  1  0  0  0  0
 18 19  1  0  0  0  0
 20 19  1  0  0  0  0
 21 20  1  0  0  0  0
 22 23  1  0  0  0  0
 23  1  1  0  0  0  0
 24 23  2  0  0  0  0
M  END
>  <minimizedAffinity>
-6.00791788

$$$$
