
 OpenBabel09122222393D

 24 27  0  0  0  0  0  0  0  0999 V2000
    5.7090   -6.0780    2.2210 C   0  0  0  0  0  0  0  0  0  0  0  0
    5.6530   -4.7360    2.6270 C   0  0  0  0  0  3  0  0  0  0  0  0
    4.7290   -4.2800    3.5780 C   0  0  0  0  0  3  0  0  0  0  0  0
    3.8440   -5.2190    4.1260 C   0  0  0  0  0  0  0  0  0  0  0  0
    3.8700   -6.5570    3.7400 C   0  0  0  0  0  0  0  0  0  0  0  0
    4.8040   -6.9940    2.7880 C   0  0  0  0  0  3  0  0  0  0  0  0
    2.9090   -7.2760    4.4010 N   0  0  0  0  0  0  0  0  0  0  0  0
    2.2850   -6.4130    5.1820 C   0  0  0  0  0  0  0  0  0  0  0  0
    2.8290   -5.1480    5.0670 N   0  0  0  0  0  0  0  0  0  0  0  0
    1.1930   -6.8400    6.0010 C   0  0  0  0  0  0  0  0  0  0  0  0
    1.1630   -7.0620    7.3000 N   0  0  0  0  0  0  0  0  0  0  0  0
   -0.1260   -7.4440    7.5800 C   0  0  0  0  0  3  0  0  0  0  0  0
   -0.8940   -7.4540    6.4420 C   0  0  0  0  0  3  0  0  0  0  0  0
   -0.0430   -7.0650    5.4460 N   0  0  0  0  0  0  0  0  0  0  0  0
   -0.2380   -6.9470    4.4590 H   0  0  0  0  0  0  0  0  0  0  0  0
    2.4230   -3.9510    5.7970 C   0  0  0  0  0  3  0  0  0  0  0  0
    3.3690   -3.6060    6.9600 C   0  0  0  0  0  2  0  0  0  0  0  0
    2.8830   -2.3780    7.7280 C   0  0  0  0  0  2  0  0  0  0  0  0
    2.6620   -1.1860    6.8000 C   0  0  0  0  0  2  0  0  0  0  0  0
    1.7040   -1.5260    5.6630 C   0  0  0  0  0  2  0  0  0  0  0  0
    2.1750   -2.7460    4.8740 C   0  0  0  0  0  2  0  0  0  0  0  0
    7.6550   -7.3000    1.5950 O   0  0  0  0  0  1  0  0  0  0  0  0
    6.7240   -6.5340    1.1910 C   0  0  0  0  0  0  0  0  0  0  0  0
    6.5700   -6.1160   -0.0000 O   0  0  0  0  0  0  0  0  0  0  0  0
  1  2  2  0  0  0  0
  1  6  1  0  0  0  0
  2  3  1  0  0  0  0
  3  4  2  0  0  0  0
  4  9  1  0  0  0  0
  5  4  1  0  0  0  0
  5  7  1  0  0  0  0
  6  5  2  0  0  0  0
  7  8  2  0  0  0  0
  8 10  1  0  0  0  0
  9  8  1  0  0  0  0
  9 16  1  0  0  0  0
 10 11  2  0  0  0  0
 11 12  1  0  0  0  0
 13 12  2  0  0  0  0
 14 10  1  0  0  0  0
 14 13  1  0  0  0  0
 15 14  1  0  0  0  0
 16 17  1  0  0  0  0
 17 18  1  0  0  0  0
 19 18  1  0  0  0  0
 20 19  1  0  0  0  0
 21 20  1  0  0  0  0
 21 16  1  0  0  0  0
 23 22  1  0  0  0  0
 23  1  1  0  0  0  0
 24 23  2  0  0  0  0
M  END
>  <minimizedAffinity>
-6.35689306

$$$$
