REMARK  Name = 
REMARK  7 active torsions:
REMARK  status: ('A' for Active; 'I' for Inactive)
REMARK    1  A    between atoms: C_1  and  O_2
REMARK    2  A    between atoms: O_2  and  C_3
REMARK    3  A    between atoms: C_3  and  C_4
REMARK    4  A    between atoms: C_5  and  O_6
REMARK    5  A    between atoms: C_7  and  C_8
REMARK    6  A    between atoms: C_8  and  O_9
REMARK    7  A    between atoms: C_11  and  N_12
REMARK                            x       y       z     vdW  Elec       q    Type
REMARK                         _______ _______ _______ _____ _____    ______ ____
ROOT
ATOM      1  C   UNL     1       0.836   1.718  -1.803  0.00  0.00    +0.139 C 
ATOM      2  C   UNL     1      -0.102   0.522  -1.621  0.00  0.00    +0.049 C 
ATOM      3  C   UNL     1       0.131   3.023  -1.407  0.00  0.00    +0.181 C 
ATOM      4  C   UNL     1       1.308   3.970  -1.238  0.00  0.00    +0.178 C 
ATOM      5  O   UNL     1       2.336   3.194  -0.585  0.00  0.00    -0.345 OA
ATOM      6  C   UNL     1       2.100   1.792  -0.902  0.00  0.00    +0.256 C 
ENDROOT
BRANCH   6   7
ATOM      7  N   UNL     1       2.038   1.051   0.341  0.00  0.00    -0.285 N 
ATOM      8  C   UNL     1       1.649   1.508   1.572  0.00  0.00    +0.203 A 
ATOM      9  N   UNL     1       1.686   0.559   2.484  0.00  0.00    -0.231 NA
ATOM     10  C   UNL     1       2.150  -0.557   1.816  0.00  0.00    +0.147 A 
ATOM     11  C   UNL     1       2.413  -1.874   2.229  0.00  0.00    +0.147 A 
ATOM     12  N   UNL     1       2.232  -2.307   3.521  0.00  0.00    -0.341 N 
ATOM     13  N   UNL     1       2.865  -2.759   1.310  0.00  0.00    -0.219 NA
ATOM     14  C   UNL     1       3.040  -2.334   0.040  0.00  0.00    +0.225 A 
ATOM     15  N   UNL     1       2.817  -1.105  -0.473  0.00  0.00    -0.216 NA
ATOM     16  C   UNL     1       2.378  -0.268   0.481  0.00  0.00    +0.167 A 
ATOM     17  H   UNL     1       1.911  -1.652   4.220  0.00  0.00    +0.144 HD
ATOM     18  H   UNL     1       2.458  -3.263   3.742  0.00  0.00    +0.144 HD
ENDBRANCH   6   7
BRANCH   1  20
ATOM     19  C   UNL     1       1.763   0.748  -3.840  0.00  0.00    +0.195 C 
ATOM     20  O   UNL     1       1.177   1.882  -3.209  0.00  0.00    -0.370 OA
ENDBRANCH   1  20
BRANCH   3  21
ATOM     21  O   UNL     1      -0.792   3.466  -2.392  0.00  0.00    -0.386 OA
ATOM     22  H   UNL     1      -0.396   3.230  -3.256  0.00  0.00    +0.210 HD
ENDBRANCH   3  21
BRANCH   4  23
ATOM     23  C   UNL     1       0.978   5.194  -0.390  0.00  0.00    +0.190 C 
BRANCH  23  24
ATOM     24  O   UNL     1       2.141   6.010  -0.251  0.00  0.00    -0.392 OA
ATOM     25  H   UNL     1       2.871   5.409  -0.009  0.00  0.00    +0.210 HD
ENDBRANCH  23  24
ENDBRANCH   4  23
TORSDOF 5
