
 OpenBabel09122222393D

 25 27  0  0  1  0  0  0  0  0999 V2000
    3.4000   -3.6220    5.5420 C   0  0  1  0  0  0  0  0  0  0  0  0
    2.2280   -3.6630    4.5590 C   0  0  0  0  0  1  0  0  0  0  0  0
    3.1240   -4.5280    6.7510 C   0  0  1  0  0  3  0  0  0  0  0  0
    4.5150   -4.6870    7.3410 C   0  0  2  0  0  3  0  0  0  0  0  0
    5.3990   -4.8360    6.2090 O   0  0  0  0  0  0  0  0  0  0  0  0
    4.7660   -4.1920    5.0660 C   0  0  1  0  0  3  0  0  0  0  0  0
    4.7110   -5.1490    3.9800 N   0  0  0  0  0  0  0  0  0  0  0  0
    3.8580   -6.2100    3.8390 C   0  0  0  0  0  3  0  0  0  0  0  0
    4.0650   -6.8630    2.7150 N   0  0  0  0  0  0  0  0  0  0  0  0
    5.1230   -6.2090    2.1150 C   0  0  0  0  0  0  0  0  0  0  0  0
    5.8150   -6.4200    0.9100 C   0  0  0  0  0  0  0  0  0  0  0  0
    5.5110   -7.4380    0.0380 N   0  0  0  0  0  0  0  0  0  0  0  0
    6.8270   -5.5800    0.5930 N   0  0  0  0  0  0  0  0  0  0  0  0
    7.1240   -4.5790    1.4490 C   0  0  0  0  0  3  0  0  0  0  0  0
    6.5310   -4.2740    2.6230 N   0  0  0  0  0  0  0  0  0  0  0  0
    5.5410   -5.1410    2.8910 C   0  0  0  0  0  0  0  0  0  0  0  0
    4.7680   -8.0820    0.2710 H   0  0  0  0  0  0  0  0  0  0  0  0
    6.0640   -7.5340   -0.7980 H   0  0  0  0  0  0  0  0  0  0  0  0
    2.3450   -1.5350    6.2330 C   0  0  0  0  0  1  0  0  0  0  0  0
    3.5480   -2.2840    6.0960 O   0  0  0  0  0  0  0  0  0  0  0  0
    2.2020   -3.9510    7.6660 O   0  0  0  0  0  0  0  0  0  0  0  0
    2.3850   -2.9890    7.6590 H   0  0  0  0  0  0  0  0  0  0  0  0
    4.6460   -5.9040    8.2520 C   0  0  0  0  0  2  0  0  0  0  0  0
    4.0460   -7.0380    7.6270 O   0  0  0  0  0  0  0  0  0  0  0  0
    3.1760   -6.7440    7.2990 H   0  0  0  0  0  0  0  0  0  0  0  0
  1  2  1  6  0  0  0
  1 20  1  0  0  0  0
  1  3  1  0  0  0  0
  3  4  1  0  0  0  0
  3 21  1  1  0  0  0
  4 23  1  1  0  0  0
  5  4  1  0  0  0  0
  6  7  1  6  0  0  0
  6  1  1  0  0  0  0
  6  5  1  0  0  0  0
  8  7  1  0  0  0  0
  9  8  2  0  0  0  0
 10  9  1  0  0  0  0
 10 16  1  0  0  0  0
 11 10  2  0  0  0  0
 12 17  1  0  0  0  0
 12 11  1  0  0  0  0
 13 11  1  0  0  0  0
 13 14  2  0  0  0  0
 14 15  1  0  0  0  0
 15 16  2  0  0  0  0
 16  7  1  0  0  0  0
 18 12  1  0  0  0  0
 20 19  1  0  0  0  0
 22 21  1  0  0  0  0
 24 23  1  0  0  0  0
 25 24  1  0  0  0  0
M  END
>  <minimizedAffinity>
-4.14707804

$$$$
