
 OpenBabel09122222393D

 25 27  0  0  1  0  0  0  0  0999 V2000
    2.8770   -5.8260    6.5340 C   0  0  1  0  0  0  0  0  0  0  0  0
    3.8510   -6.9680    6.8330 C   0  0  0  0  0  1  0  0  0  0  0  0
    3.5200   -4.4690    6.8560 C   0  0  1  0  0  3  0  0  0  0  0  0
    2.6100   -3.5110    6.1050 C   0  0  2  0  0  3  0  0  0  0  0  0
    2.3140   -4.1630    4.8510 O   0  0  0  0  0  0  0  0  0  0  0  0
    2.4580   -5.5990    5.0550 C   0  0  1  0  0  3  0  0  0  0  0  0
    3.3690   -6.1100    4.0510 N   0  0  0  0  0  0  0  0  0  0  0  0
    3.2930   -7.2990    3.3780 C   0  0  0  0  0  3  0  0  0  0  0  0
    4.2750   -7.4380    2.5110 N   0  0  0  0  0  0  0  0  0  0  0  0
    5.0380   -6.2950    2.6540 C   0  0  0  0  0  0  0  0  0  0  0  0
    6.2120   -5.8490    2.0240 C   0  0  0  0  0  0  0  0  0  0  0  0
    6.8660   -6.5700    1.0540 N   0  0  0  0  0  0  0  0  0  0  0  0
    6.7220   -4.6500    2.3900 N   0  0  0  0  0  0  0  0  0  0  0  0
    6.0780   -3.9400    3.3410 C   0  0  0  0  0  3  0  0  0  0  0  0
    4.9480   -4.2600    4.0070 N   0  0  0  0  0  0  0  0  0  0  0  0
    4.4900   -5.4580    3.6110 C   0  0  0  0  0  0  0  0  0  0  0  0
    6.5040   -7.4740    0.7840 H   0  0  0  0  0  0  0  0  0  0  0  0
    7.7110   -6.1890    0.6620 H   0  0  0  0  0  0  0  0  0  0  0  0
    1.0020   -7.1440    7.3680 C   0  0  0  0  0  1  0  0  0  0  0  0
    1.7150   -5.9120    7.4070 O   0  0  0  0  0  0  0  0  0  0  0  0
    3.5640   -4.2030    8.2510 O   0  0  0  0  0  0  0  0  0  0  0  0
    2.7450   -4.5880    8.6240 H   0  0  0  0  0  0  0  0  0  0  0  0
    3.2550   -2.1560    5.8340 C   0  0  0  0  0  2  0  0  0  0  0  0
    4.6580   -2.2330    6.0860 O   0  0  0  0  0  0  0  0  0  0  0  0
    4.7580   -2.6780    6.9500 H   0  0  0  0  0  0  0  0  0  0  0  0
  1  2  1  1  0  0  0
  1  3  1  0  0  0  0
  1 20  1  0  0  0  0
  3 21  1  1  0  0  0
  4 23  1  6  0  0  0
  4  3  1  0  0  0  0
  5  6  1  0  0  0  0
  5  4  1  0  0  0  0
  6  7  1  6  0  0  0
  6  1  1  0  0  0  0
  8  7  1  0  0  0  0
  9 10  1  0  0  0  0
  9  8  2  0  0  0  0
 10 16  1  0  0  0  0
 11 13  1  0  0  0  0
 11 10  2  0  0  0  0
 12 11  1  0  0  0  0
 13 14  2  0  0  0  0
 14 15  1  0  0  0  0
 16 15  2  0  0  0  0
 16  7  1  0  0  0  0
 17 12  1  0  0  0  0
 18 12  1  0  0  0  0
 19 20  1  0  0  0  0
 21 22  1  0  0  0  0
 23 24  1  0  0  0  0
 24 25  1  0  0  0  0
M  END
>  <minimizedAffinity>
-3.83516979

$$$$
