
 OpenBabel09122222393D

 25 27  0  0  1  0  0  0  0  0999 V2000
    4.1940   -3.7880    4.9820 C   0  0  1  0  0  0  0  0  0  0  0  0
    3.8370   -3.0540    3.6870 C   0  0  0  0  0  1  0  0  0  0  0  0
    2.9230   -4.1710    5.7540 C   0  0  1  0  0  3  0  0  0  0  0  0
    3.4520   -5.2240    6.7150 C   0  0  2  0  0  3  0  0  0  0  0  0
    4.3860   -6.0120    5.9460 O   0  0  0  0  0  0  0  0  0  0  0  0
    4.8840   -5.1760    4.8630 C   0  0  1  0  0  3  0  0  0  0  0  0
    4.6780   -5.8820    3.6150 N   0  0  0  0  0  0  0  0  0  0  0  0
    3.6760   -6.7620    3.3040 C   0  0  0  0  0  3  0  0  0  0  0  0
    3.7730   -7.2030    2.0670 N   0  0  0  0  0  0  0  0  0  0  0  0
    4.9100   -6.6010    1.5650 C   0  0  0  0  0  0  0  0  0  0  0  0
    5.5500   -6.6670    0.3160 C   0  0  0  0  0  0  0  0  0  0  0  0
    5.0910   -7.4390   -0.7250 N   0  0  0  0  0  0  0  0  0  0  0  0
    6.6720   -5.9330    0.1280 N   0  0  0  0  0  0  0  0  0  0  0  0
    7.1220   -5.1730    1.1500 C   0  0  0  0  0  3  0  0  0  0  0  0
    6.5920   -5.0240    2.3830 N   0  0  0  0  0  0  0  0  0  0  0  0
    5.4880   -5.7770    2.5160 C   0  0  0  0  0  0  0  0  0  0  0  0
    4.2640   -8.0030   -0.5920 H   0  0  0  0  0  0  0  0  0  0  0  0
    5.6150   -7.4450   -1.5840 H   0  0  0  0  0  0  0  0  0  0  0  0
    6.3190   -3.1850    6.0170 C   0  0  0  0  0  1  0  0  0  0  0  0
    4.9300   -2.9060    5.8760 O   0  0  0  0  0  0  0  0  0  0  0  0
    2.3360   -3.0640    6.4230 O   0  0  0  0  0  0  0  0  0  0  0  0
    3.0820   -2.5060    6.7240 H   0  0  0  0  0  0  0  0  0  0  0  0
    2.3600   -6.1300    7.2740 C   0  0  0  0  0  2  0  0  0  0  0  0
    1.3650   -6.3570    6.2750 O   0  0  0  0  0  0  0  0  0  0  0  0
    1.1520   -5.4830    5.8970 H   0  0  0  0  0  0  0  0  0  0  0  0
  1  2  1  6  0  0  0
  1  3  1  0  0  0  0
  1 20  1  0  0  0  0
  3 21  1  1  0  0  0
  3  4  1  0  0  0  0
  4 23  1  6  0  0  0
  5  4  1  0  0  0  0
  6  7  1  6  0  0  0
  6  1  1  0  0  0  0
  6  5  1  0  0  0  0
  8  7  1  0  0  0  0
  9  8  2  0  0  0  0
 10  9  1  0  0  0  0
 10 16  1  0  0  0  0
 11 10  2  0  0  0  0
 12 17  1  0  0  0  0
 12 11  1  0  0  0  0
 13 11  1  0  0  0  0
 13 14  2  0  0  0  0
 14 15  1  0  0  0  0
 15 16  2  0  0  0  0
 16  7  1  0  0  0  0
 18 12  1  0  0  0  0
 20 19  1  0  0  0  0
 21 22  1  0  0  0  0
 24 23  1  0  0  0  0
 25 24  1  0  0  0  0
M  END
>  <minimizedAffinity>
-4.97972631

$$$$
