
 OpenBabel09122222393D

 25 27  0  0  1  0  0  0  0  0999 V2000
    4.7010   -3.8450    6.7570 C   0  0  1  0  0  0  0  0  0  0  0  0
    6.2240   -3.6900    6.7880 C   0  0  0  0  0  1  0  0  0  0  0  0
    4.0220   -2.4790    6.5880 C   0  0  1  0  0  3  0  0  0  0  0  0
    2.6240   -2.8820    6.1500 C   0  0  2  0  0  3  0  0  0  0  0  0
    2.8090   -3.9850    5.2370 O   0  0  0  0  0  0  0  0  0  0  0  0
    4.0760   -4.6240    5.5660 C   0  0  1  0  0  3  0  0  0  0  0  0
    4.8760   -4.6900    4.3610 N   0  0  0  0  0  0  0  0  0  0  0  0
    5.8670   -3.8320    3.9620 C   0  0  0  0  0  3  0  0  0  0  0  0
    6.4110   -4.2030    2.8220 N   0  0  0  0  0  0  0  0  0  0  0  0
    5.7180   -5.3390    2.4520 C   0  0  0  0  0  0  0  0  0  0  0  0
    5.8150   -6.1950    1.3420 C   0  0  0  0  0  0  0  0  0  0  0  0
    6.7230   -6.0090    0.3260 N   0  0  0  0  0  0  0  0  0  0  0  0
    4.9760   -7.2550    1.2700 N   0  0  0  0  0  0  0  0  0  0  0  0
    4.0860   -7.4390    2.2700 C   0  0  0  0  0  3  0  0  0  0  0  0
    3.9050   -6.6930    3.3810 N   0  0  0  0  0  0  0  0  0  0  0  0
    4.7560   -5.6550    3.3970 C   0  0  0  0  0  0  0  0  0  0  0  0
    7.3430   -5.2130    0.3600 H   0  0  0  0  0  0  0  0  0  0  0  0
    6.7200   -6.6580   -0.4440 H   0  0  0  0  0  0  0  0  0  0  0  0
    4.0240   -5.7620    8.1050 C   0  0  0  0  0  1  0  0  0  0  0  0
    4.2200   -4.3530    8.0340 O   0  0  0  0  0  0  0  0  0  0  0  0
    4.0230   -1.7160    7.7870 O   0  0  0  0  0  0  0  0  0  0  0  0
    3.9120   -2.3610    8.5150 H   0  0  0  0  0  0  0  0  0  0  0  0
    1.8670   -1.7600    5.4460 C   0  0  0  0  0  2  0  0  0  0  0  0
    1.5970   -0.7080    6.3730 O   0  0  0  0  0  0  0  0  0  0  0  0
    1.2390   -1.1330    7.1750 H   0  0  0  0  0  0  0  0  0  0  0  0
  1  2  1  6  0  0  0
  1 20  1  0  0  0  0
  3  1  1  0  0  0  0
  3 21  1  1  0  0  0
  4 23  1  6  0  0  0
  4  3  1  0  0  0  0
  5  6  1  0  0  0  0
  5  4  1  0  0  0  0
  6  7  1  6  0  0  0
  6  1  1  0  0  0  0
  8  7  1  0  0  0  0
  9  8  2  0  0  0  0
 10  9  1  0  0  0  0
 10 16  1  0  0  0  0
 11 10  2  0  0  0  0
 12 17  1  0  0  0  0
 12 11  1  0  0  0  0
 13 11  1  0  0  0  0
 13 14  2  0  0  0  0
 14 15  1  0  0  0  0
 15 16  2  0  0  0  0
 16  7  1  0  0  0  0
 18 12  1  0  0  0  0
 20 19  1  0  0  0  0
 21 22  1  0  0  0  0
 23 24  1  0  0  0  0
 24 25  1  0  0  0  0
M  END
>  <minimizedAffinity>
-4.87396622

$$$$
