
 OpenBabel09122222393D

 25 27  0  0  1  0  0  0  0  0999 V2000
    4.8390   -4.9600    3.1030 C   0  0  1  0  0  0  0  0  0  0  0  0
    6.2690   -4.4220    3.2060 C   0  0  0  0  0  1  0  0  0  0  0  0
    4.7200   -6.3150    3.8150 C   0  0  1  0  0  3  0  0  0  0  0  0
    3.2140   -6.4460    3.9780 C   0  0  2  0  0  3  0  0  0  0  0  0
    2.7490   -5.1260    4.3350 O   0  0  0  0  0  0  0  0  0  0  0  0
    3.7120   -4.1630    3.8160 C   0  0  1  0  0  3  0  0  0  0  0  0
    4.1310   -3.3080    4.9080 N   0  0  0  0  0  0  0  0  0  0  0  0
    5.3570   -3.2640    5.5160 C   0  0  0  0  0  3  0  0  0  0  0  0
    5.4050   -2.3480    6.4610 N   0  0  0  0  0  0  0  0  0  0  0  0
    4.1400   -1.7950    6.4840 C   0  0  0  0  0  0  0  0  0  0  0  0
    3.5560   -0.7840    7.2660 C   0  0  0  0  0  0  0  0  0  0  0  0
    4.2360   -0.1100    8.2520 N   0  0  0  0  0  0  0  0  0  0  0  0
    2.2630   -0.4570    7.0350 N   0  0  0  0  0  0  0  0  0  0  0  0
    1.5970   -1.1180    6.0630 C   0  0  0  0  0  3  0  0  0  0  0  0
    2.0500   -2.0960    5.2490 N   0  0  0  0  0  0  0  0  0  0  0  0
    3.3320   -2.3840    5.5260 C   0  0  0  0  0  0  0  0  0  0  0  0
    5.1960   -0.3560    8.4460 H   0  0  0  0  0  0  0  0  0  0  0  0
    3.7430    0.5920    8.7800 H   0  0  0  0  0  0  0  0  0  0  0  0
    5.5920   -5.5690    0.8650 C   0  0  0  0  0  1  0  0  0  0  0  0
    4.5010   -5.2300    1.7130 O   0  0  0  0  0  0  0  0  0  0  0  0
    5.2840   -7.3790    3.0620 O   0  0  0  0  0  0  0  0  0  0  0  0
    5.1000   -7.1710    2.1230 H   0  0  0  0  0  0  0  0  0  0  0  0
    2.8110   -7.4380    5.0640 C   0  0  0  0  0  2  0  0  0  0  0  0
    3.6800   -7.3010    6.1880 O   0  0  0  0  0  0  0  0  0  0  0  0
    4.5890   -7.2830    5.8320 H   0  0  0  0  0  0  0  0  0  0  0  0
  1  2  1  1  0  0  0
  1  3  1  0  0  0  0
  1  6  1  0  0  0  0
  3 21  1  6  0  0  0
  3  4  1  0  0  0  0
  4  5  1  0  0  0  0
  4 23  1  1  0  0  0
  6  5  1  0  0  0  0
  6  7  1  1  0  0  0
  7  8  1  0  0  0  0
  7 16  1  0  0  0  0
  8  9  2  0  0  0  0
  9 10  1  0  0  0  0
 10 11  1  0  0  0  0
 11 12  1  0  0  0  0
 12 17  1  0  0  0  0
 12 18  1  0  0  0  0
 13 11  2  0  0  0  0
 14 13  1  0  0  0  0
 15 16  1  0  0  0  0
 15 14  2  0  0  0  0
 16 10  2  0  0  0  0
 19 20  1  0  0  0  0
 20  1  1  0  0  0  0
 22 21  1  0  0  0  0
 23 24  1  0  0  0  0
 25 24  1  0  0  0  0
M  END
>  <minimizedAffinity>
-3.58140445

$$$$
