
 OpenBabel09122222393D

 25 27  0  0  1  0  0  0  0  0999 V2000
    3.2130   -3.8490    4.8780 C   0  0  1  0  0  0  0  0  0  0  0  0
    3.1720   -2.7660    3.7970 C   0  0  0  0  0  1  0  0  0  0  0  0
    2.1680   -4.9370    4.5920 C   0  0  1  0  0  3  0  0  0  0  0  0
    2.6560   -6.0730    5.4760 C   0  0  2  0  0  3  0  0  0  0  0  0
    4.0950   -6.0640    5.3550 O   0  0  0  0  0  0  0  0  0  0  0  0
    4.5000   -4.7130    4.9910 C   0  0  1  0  0  3  0  0  0  0  0  0
    5.3190   -4.7910    3.7990 N   0  0  0  0  0  0  0  0  0  0  0  0
    6.3990   -4.0160    3.4710 C   0  0  0  0  0  3  0  0  0  0  0  0
    6.9310   -4.3750    2.3210 N   0  0  0  0  0  0  0  0  0  0  0  0
    6.1380   -5.4110    1.8700 C   0  0  0  0  0  0  0  0  0  0  0  0
    6.1760   -6.2080    0.7130 C   0  0  0  0  0  0  0  0  0  0  0  0
    7.1220   -6.0570   -0.2720 N   0  0  0  0  0  0  0  0  0  0  0  0
    5.2370   -7.1710    0.5630 N   0  0  0  0  0  0  0  0  0  0  0  0
    4.3090   -7.3210    1.5330 C   0  0  0  0  0  3  0  0  0  0  0  0
    4.1760   -6.6260    2.6830 N   0  0  0  0  0  0  0  0  0  0  0  0
    5.1260   -5.6820    2.7770 C   0  0  0  0  0  0  0  0  0  0  0  0
    7.8190   -5.3300   -0.1800 H   0  0  0  0  0  0  0  0  0  0  0  0
    7.0740   -6.6570   -1.0790 H   0  0  0  0  0  0  0  0  0  0  0  0
    2.7650   -1.8680    6.2280 C   0  0  0  0  0  1  0  0  0  0  0  0
    2.8360   -3.2880    6.1670 O   0  0  0  0  0  0  0  0  0  0  0  0
    0.8470   -4.5220    4.9120 O   0  0  0  0  0  0  0  0  0  0  0  0
    0.9290   -3.9550    5.7060 H   0  0  0  0  0  0  0  0  0  0  0  0
    2.1180   -7.4360    5.0550 C   0  0  0  0  0  2  0  0  0  0  0  0
    0.6930   -7.4390    5.1440 O   0  0  0  0  0  0  0  0  0  0  0  0
    0.4710   -7.0540    6.0130 H   0  0  0  0  0  0  0  0  0  0  0  0
  1  2  1  6  0  0  0
  1  6  1  0  0  0  0
  1 20  1  0  0  0  0
  3  1  1  0  0  0  0
  3 21  1  1  0  0  0
  3  4  1  0  0  0  0
  4 23  1  6  0  0  0
  5  4  1  0  0  0  0
  6  7  1  6  0  0  0
  6  5  1  0  0  0  0
  8  7  1  0  0  0  0
  9  8  2  0  0  0  0
 10  9  1  0  0  0  0
 10 16  1  0  0  0  0
 11 10  2  0  0  0  0
 12 17  1  0  0  0  0
 12 11  1  0  0  0  0
 13 11  1  0  0  0  0
 13 14  2  0  0  0  0
 14 15  1  0  0  0  0
 15 16  2  0  0  0  0
 16  7  1  0  0  0  0
 18 12  1  0  0  0  0
 20 19  1  0  0  0  0
 21 22  1  0  0  0  0
 23 24  1  0  0  0  0
 24 25  1  0  0  0  0
M  END
>  <minimizedAffinity>
-4.09904766

$$$$
