
 OpenBabel09092210413D

 44 49  0  0  0  0  0  0  0  0999 V2000
    0.8100   -0.7900   -5.4630 C   0  0  0  0  0  0  0  0  0  0  0  0
    1.1360   -1.3250   -6.7000 C   0  0  0  0  0  3  0  0  0  0  0  0
    2.0030   -2.4180   -6.7760 C   0  0  0  0  0  3  0  0  0  0  0  0
    2.5500   -3.0130   -5.6240 C   0  0  0  0  0  0  0  0  0  0  0  0
    2.2400   -2.4570   -4.3540 C   0  0  0  0  0  0  0  0  0  0  0  0
    1.3630   -1.3530   -4.3090 C   0  0  0  0  0  3  0  0  0  0  0  0
    2.7810   -2.9860   -3.0580 C   0  0  0  0  0  0  0  0  0  0  0  0
    1.8360   -2.9940   -1.8800 C   0  0  0  0  0  1  0  0  0  0  0  0
    4.0570   -3.4280   -2.9910 C   0  0  0  0  0  0  0  0  0  0  0  0
    5.0610   -3.2950   -4.0990 C   0  0  0  0  0  2  0  0  0  0  0  0
    4.7050   -4.2060   -5.1770 N   0  0  0  0  0  0  0  0  0  0  0  0
    3.4860   -4.1470   -5.8250 C   0  0  0  0  0  0  0  0  0  0  0  0
    3.4070   -5.2880   -6.6300 C   0  0  0  0  0  0  0  0  0  0  0  0
    4.6900   -5.9450   -6.5620 C   0  0  0  0  0  0  0  0  0  0  0  0
    5.2570   -7.0760   -7.2000 C   0  0  0  0  0  3  0  0  0  0  0  0
    6.5660   -7.4780   -6.9040 C   0  0  0  0  0  3  0  0  0  0  0  0
    7.2980   -6.7870   -5.9470 C   0  0  0  0  0  0  0  0  0  0  0  0
    6.7840   -5.6460   -5.3190 C   0  0  0  0  0  3  0  0  0  0  0  0
    5.4740   -5.2480   -5.6410 C   0  0  0  0  0  0  0  0  0  0  0  0
    8.6780   -7.1930   -5.6230 C   0  0  0  0  0  0  0  0  0  0  0  0
    9.6270   -6.7460   -6.2460 O   0  0  0  0  0  0  0  0  0  0  0  0
    8.8750   -7.9780   -4.4710 N   0  0  0  0  0  0  0  0  0  0  0  0
    8.0240   -9.3610   -4.1250 S   0  0  0  0  0  0  0  0  0  0  0  0
    7.9200  -10.1180   -5.3490 O   0  0  0  0  0  0  0  0  0  0  0  0
    8.6170   -9.9300   -2.9380 O   0  0  0  0  0  0  0  0  0  0  0  0
    6.5250   -8.7500   -3.7200 N   0  0  0  0  0  0  0  0  0  0  0  0
    5.3410   -9.4750   -4.1980 C   0  0  0  0  0  1  0  0  0  0  0  0
    6.3960   -7.9070   -2.5090 C   0  0  0  0  0  2  0  0  0  0  0  0
    5.3860   -8.4410   -1.4940 C   0  0  0  0  0  2  0  0  0  0  0  0
    5.1260   -7.5370   -0.2820 C   0  0  0  0  0  2  0  0  0  0  0  0
    5.1770   -6.0170   -0.4790 C   0  0  0  0  0  2  0  0  0  0  0  0
    4.3420   -5.3790   -1.5010 N   0  0  0  0  0  0  0  0  0  0  0  0
    3.2920   -6.1400   -2.1740 C   0  0  0  0  0  1  0  0  0  0  0  0
    4.6490   -4.0460   -1.7780 C   0  0  0  0  0  0  0  0  0  0  0  0
    5.4780   -3.3960   -1.1420 O   0  0  0  0  0  0  0  0  0  0  0  0
    9.8660   -8.1610   -4.3270 H   0  0  0  0  0  0  0  0  0  0  0  0
    2.1990   -5.7430   -7.4240 C   0  0  0  0  0  3  0  0  0  0  0  0
    2.4300   -5.6950   -8.9430 C   0  0  0  0  0  2  0  0  0  0  0  0
    1.1840   -6.1310   -9.7110 C   0  0  0  0  0  2  0  0  0  0  0  0
    0.6970   -7.5070   -9.2640 C   0  0  0  0  0  2  0  0  0  0  0  0
    0.4590   -7.5560   -7.7570 C   0  0  0  0  0  2  0  0  0  0  0  0
    1.7000   -7.1290   -6.9760 C   0  0  0  0  0  2  0  0  0  0  0  0
    0.5480    1.5730   -5.3960 C   0  0  0  0  0  1  0  0  0  0  0  0
   -0.0160    0.2770   -5.2390 O   0  0  0  0  0  0  0  0  0  0  0  0
  1 44  1  0  0  0  0
  1  6  1  0  0  0  0
  2  1  2  0  0  0  0
  3  2  1  0  0  0  0
  3  4  2  0  0  0  0
  4  5  1  0  0  0  0
  5  6  2  0  0  0  0
  5  7  1  0  0  0  0
  7  9  2  0  0  0  0
  7  8  1  0  0  0  0
  9 34  1  0  0  0  0
 10  9  1  0  0  0  0
 11 10  1  0  0  0  0
 12  4  1  0  0  0  0
 12 11  1  0  0  0  0
 13 14  1  0  0  0  0
 13 12  2  0  0  0  0
 14 19  1  0  0  0  0
 15 16  1  0  0  0  0
 15 14  2  0  0  0  0
 16 17  2  0  0  0  0
 17 20  1  0  0  0  0
 17 18  1  0  0  0  0
 19 18  2  0  0  0  0
 19 11  1  0  0  0  0
 20 22  1  0  0  0  0
 21 20  2  0  0  0  0
 22 36  1  0  0  0  0
 22 23  1  0  0  0  0
 23 26  1  0  0  0  0
 23 25  2  0  0  0  0
 24 23  2  0  0  0  0
 26 28  1  0  0  0  0
 27 26  1  0  0  0  0
 28 29  1  0  0  0  0
 29 30  1  0  0  0  0
 31 30  1  0  0  0  0
 32 31  1  0  0  0  0
 33 32  1  0  0  0  0
 34 32  1  0  0  0  0
 34 35  2  0  0  0  0
 37 42  1  0  0  0  0
 37 13  1  0  0  0  0
 38 37  1  0  0  0  0
 39 40  1  0  0  0  0
 39 38  1  0  0  0  0
 40 41  1  0  0  0  0
 41 42  1  0  0  0  0
 43 44  1  0  0  0  0
M  END
>  <minimizedAffinity>
-4.63358545

$$$$
