
 OpenBabel09092210413D

 44 49  0  0  0  0  0  0  0  0999 V2000
    0.9040   -4.4950  -13.7440 C   0  0  0  0  0  0  0  0  0  0  0  0
    1.5640   -5.6870  -13.4880 C   0  0  0  0  0  3  0  0  0  0  0  0
    2.1260   -5.9120  -12.2290 C   0  0  0  0  0  3  0  0  0  0  0  0
    2.0300   -4.9650  -11.1920 C   0  0  0  0  0  0  0  0  0  0  0  0
    1.3750   -3.7310  -11.4530 C   0  0  0  0  0  0  0  0  0  0  0  0
    0.8180   -3.5320  -12.7330 C   0  0  0  0  0  3  0  0  0  0  0  0
    1.2310   -2.6340  -10.4390 C   0  0  0  0  0  0  0  0  0  0  0  0
   -0.0780   -1.8810  -10.4340 C   0  0  0  0  0  1  0  0  0  0  0  0
    2.2460   -2.3670   -9.5860 C   0  0  0  0  0  0  0  0  0  0  0  0
    3.6080   -2.9940   -9.6640 C   0  0  0  0  0  2  0  0  0  0  0  0
    3.5140   -4.3900   -9.2610 N   0  0  0  0  0  0  0  0  0  0  0  0
    2.6940   -5.2950   -9.9080 C   0  0  0  0  0  0  0  0  0  0  0  0
    2.6890   -6.4560   -9.1280 C   0  0  0  0  0  0  0  0  0  0  0  0
    3.6620   -6.2670   -8.0800 C   0  0  0  0  0  0  0  0  0  0  0  0
    4.1710   -7.0880   -7.0430 C   0  0  0  0  0  3  0  0  0  0  0  0
    5.1330   -6.5960   -6.1520 C   0  0  0  0  0  3  0  0  0  0  0  0
    5.5630   -5.2790   -6.2620 C   0  0  0  0  0  0  0  0  0  0  0  0
    5.1080   -4.4470   -7.2930 C   0  0  0  0  0  3  0  0  0  0  0  0
    4.1530   -4.9640   -8.1870 C   0  0  0  0  0  0  0  0  0  0  0  0
    6.5760   -4.7430   -5.3360 C   0  0  0  0  0  0  0  0  0  0  0  0
    7.7680   -4.8410   -5.5840 O   0  0  0  0  0  0  0  0  0  0  0  0
    6.1260   -3.9700   -4.2490 N   0  0  0  0  0  0  0  0  0  0  0  0
    4.9250   -4.4380   -3.2030 S   0  0  0  0  0  0  0  0  0  0  0  0
    5.1480   -5.8300   -2.8910 O   0  0  0  0  0  0  0  0  0  0  0  0
    4.8610   -3.4380   -2.1640 O   0  0  0  0  0  0  0  0  0  0  0  0
    3.5630   -4.2930   -4.1550 N   0  0  0  0  0  0  0  0  0  0  0  0
    2.5350   -5.3350   -4.0380 C   0  0  0  0  0  1  0  0  0  0  0  0
    3.1560   -2.9490   -4.6270 C   0  0  0  0  0  2  0  0  0  0  0  0
    1.7380   -2.5580   -4.2160 C   0  0  0  0  0  2  0  0  0  0  0  0
    1.2280   -1.2280   -4.7870 C   0  0  0  0  0  2  0  0  0  0  0  0
    1.6860   -0.8110   -6.1900 C   0  0  0  0  0  2  0  0  0  0  0  0
    1.4840   -1.7130   -7.3290 N   0  0  0  0  0  0  0  0  0  0  0  0
    0.6450   -2.9000   -7.1870 C   0  0  0  0  0  1  0  0  0  0  0  0
    2.1610   -1.3620   -8.4970 C   0  0  0  0  0  0  0  0  0  0  0  0
    2.7930   -0.3140   -8.6250 O   0  0  0  0  0  0  0  0  0  0  0  0
    6.9130   -3.6210   -3.7060 H   0  0  0  0  0  0  0  0  0  0  0  0
    1.8240   -7.6800   -9.3490 C   0  0  0  0  0  3  0  0  0  0  0  0
    2.6370   -8.9240   -9.7400 C   0  0  0  0  0  2  0  0  0  0  0  0
    1.7310  -10.1300   -9.9840 C   0  0  0  0  0  2  0  0  0  0  0  0
    0.8280  -10.4080   -8.7860 C   0  0  0  0  0  2  0  0  0  0  0  0
    0.0130   -9.1780   -8.3990 C   0  0  0  0  0  2  0  0  0  0  0  0
    0.9070   -7.9660   -8.1450 C   0  0  0  0  0  2  0  0  0  0  0  0
   -0.3960   -2.9060  -14.9450 C   0  0  0  0  0  1  0  0  0  0  0  0
    0.3130   -4.1380  -14.9250 O   0  0  0  0  0  0  0  0  0  0  0  0
  1  2  2  0  0  0  0
  1  6  1  0  0  0  0
  2  3  1  0  0  0  0
  3  4  2  0  0  0  0
  4 12  1  0  0  0  0
  5  4  1  0  0  0  0
  5  7  1  0  0  0  0
  6  5  2  0  0  0  0
  7  8  1  0  0  0  0
  7  9  2  0  0  0  0
  9 34  1  0  0  0  0
 10  9  1  0  0  0  0
 10 11  1  0  0  0  0
 11 19  1  0  0  0  0
 12 11  1  0  0  0  0
 12 13  2  0  0  0  0
 13 14  1  0  0  0  0
 14 15  1  0  0  0  0
 15 16  2  0  0  0  0
 17 16  1  0  0  0  0
 17 20  1  0  0  0  0
 18 17  2  0  0  0  0
 19 14  2  0  0  0  0
 19 18  1  0  0  0  0
 20 22  1  0  0  0  0
 21 20  2  0  0  0  0
 22 36  1  0  0  0  0
 22 23  1  0  0  0  0
 23 24  2  0  0  0  0
 23 25  2  0  0  0  0
 26 27  1  0  0  0  0
 26 23  1  0  0  0  0
 28 29  1  0  0  0  0
 28 26  1  0  0  0  0
 30 29  1  0  0  0  0
 31 30  1  0  0  0  0
 32 33  1  0  0  0  0
 32 31  1  0  0  0  0
 34 32  1  0  0  0  0
 35 34  2  0  0  0  0
 37 13  1  0  0  0  0
 37 42  1  0  0  0  0
 38 37  1  0  0  0  0
 39 38  1  0  0  0  0
 39 40  1  0  0  0  0
 40 41  1  0  0  0  0
 41 42  1  0  0  0  0
 43 44  1  0  0  0  0
 44  1  1  0  0  0  0
M  END
>  <minimizedAffinity>
-4.70370436

$$$$
