
 OpenBabel09092210413D

 44 49  0  0  0  0  0  0  0  0999 V2000
    8.2940   -7.1150   -6.2460 C   0  0  0  0  0  0  0  0  0  0  0  0
    8.1120   -5.9890   -5.4570 C   0  0  0  0  0  3  0  0  0  0  0  0
    6.9000   -5.2960   -5.5070 C   0  0  0  0  0  3  0  0  0  0  0  0
    5.8370   -5.7170   -6.3280 C   0  0  0  0  0  0  0  0  0  0  0  0
    6.0230   -6.8560   -7.1570 C   0  0  0  0  0  0  0  0  0  0  0  0
    7.2580   -7.5340   -7.0860 C   0  0  0  0  0  3  0  0  0  0  0  0
    4.9770   -7.3850   -8.0920 C   0  0  0  0  0  0  0  0  0  0  0  0
    4.8650   -8.8870   -8.2080 C   0  0  0  0  0  1  0  0  0  0  0  0
    4.1890   -6.5260   -8.7780 C   0  0  0  0  0  0  0  0  0  0  0  0
    4.3740   -5.0360   -8.7990 C   0  0  0  0  0  2  0  0  0  0  0  0
    3.9980   -4.4910   -7.5030 N   0  0  0  0  0  0  0  0  0  0  0  0
    4.6090   -4.8850   -6.3270 C   0  0  0  0  0  0  0  0  0  0  0  0
    3.8580   -4.3330   -5.2840 C   0  0  0  0  0  0  0  0  0  0  0  0
    2.8740   -3.4640   -5.8830 C   0  0  0  0  0  0  0  0  0  0  0  0
    1.8940   -2.5790   -5.3700 C   0  0  0  0  0  3  0  0  0  0  0  0
    1.0590   -1.8610   -6.2360 C   0  0  0  0  0  3  0  0  0  0  0  0
    1.1670   -2.0500   -7.6090 C   0  0  0  0  0  0  0  0  0  0  0  0
    2.1450   -2.8920   -8.1550 C   0  0  0  0  0  3  0  0  0  0  0  0
    2.9840   -3.5920   -7.2690 C   0  0  0  0  0  0  0  0  0  0  0  0
    0.3000   -1.3030   -8.5370 C   0  0  0  0  0  0  0  0  0  0  0  0
    0.6300   -0.2070   -8.9600 O   0  0  0  0  0  0  0  0  0  0  0  0
   -0.8330   -1.9640   -9.0490 N   0  0  0  0  0  0  0  0  0  0  0  0
   -1.9470   -2.7670   -8.1170 S   0  0  0  0  0  0  0  0  0  0  0  0
   -2.2110   -1.9450   -6.9600 O   0  0  0  0  0  0  0  0  0  0  0  0
   -3.0110   -3.1810   -9.0010 O   0  0  0  0  0  0  0  0  0  0  0  0
   -1.0940   -4.1230   -7.6520 N   0  0  0  0  0  0  0  0  0  0  0  0
   -1.2560   -4.5910   -6.2710 C   0  0  0  0  0  1  0  0  0  0  0  0
   -0.6820   -5.1020   -8.6860 C   0  0  0  0  0  2  0  0  0  0  0  0
   -1.1980   -6.5170   -8.4310 C   0  0  0  0  0  2  0  0  0  0  0  0
   -0.6940   -7.5900   -9.4060 C   0  0  0  0  0  2  0  0  0  0  0  0
    0.7260   -7.4570   -9.9680 C   0  0  0  0  0  2  0  0  0  0  0  0
    1.8700   -7.3320   -9.0580 N   0  0  0  0  0  0  0  0  0  0  0  0
    1.6990   -7.5650   -7.6260 C   0  0  0  0  0  1  0  0  0  0  0  0
    3.0730   -6.9580   -9.6570 C   0  0  0  0  0  0  0  0  0  0  0  0
    3.2190   -6.8490  -10.8740 O   0  0  0  0  0  0  0  0  0  0  0  0
   -1.3290   -1.3670   -9.7080 H   0  0  0  0  0  0  0  0  0  0  0  0
    4.0480   -4.6000   -3.8040 C   0  0  0  0  0  3  0  0  0  0  0  0
    4.5400   -3.3660   -3.0330 C   0  0  0  0  0  2  0  0  0  0  0  0
    4.7490   -3.6790   -1.5530 C   0  0  0  0  0  2  0  0  0  0  0  0
    3.4930   -4.2700   -0.9180 C   0  0  0  0  0  2  0  0  0  0  0  0
    3.0060   -5.5000   -1.6760 C   0  0  0  0  0  2  0  0  0  0  0  0
    2.7860   -5.2000   -3.1570 C   0  0  0  0  0  2  0  0  0  0  0  0
    9.6860   -8.5530   -7.5300 C   0  0  0  0  0  1  0  0  0  0  0  0
    9.4230   -7.8840   -6.3030 O   0  0  0  0  0  0  0  0  0  0  0  0
  1  2  1  0  0  0  0
  3  2  2  0  0  0  0
  4 12  1  0  0  0  0
  4  3  1  0  0  0  0
  5  6  1  0  0  0  0
  5  4  2  0  0  0  0
  6  1  2  0  0  0  0
  7  5  1  0  0  0  0
  8  7  1  0  0  0  0
  9  7  2  0  0  0  0
 10  9  1  0  0  0  0
 10 11  1  0  0  0  0
 11 19  1  0  0  0  0
 11 12  1  0  0  0  0
 12 13  2  0  0  0  0
 13 37  1  0  0  0  0
 14 15  1  0  0  0  0
 14 13  1  0  0  0  0
 16 15  2  0  0  0  0
 17 16  1  0  0  0  0
 18 17  2  0  0  0  0
 18 19  1  0  0  0  0
 19 14  2  0  0  0  0
 20 17  1  0  0  0  0
 21 20  2  0  0  0  0
 22 20  1  0  0  0  0
 22 23  1  0  0  0  0
 23 26  1  0  0  0  0
 23 24  2  0  0  0  0
 25 23  2  0  0  0  0
 26 27  1  0  0  0  0
 28 29  1  0  0  0  0
 28 26  1  0  0  0  0
 30 29  1  0  0  0  0
 31 30  1  0  0  0  0
 31 32  1  0  0  0  0
 32 33  1  0  0  0  0
 34 32  1  0  0  0  0
 34  9  1  0  0  0  0
 35 34  2  0  0  0  0
 36 22  1  0  0  0  0
 37 42  1  0  0  0  0
 37 38  1  0  0  0  0
 38 39  1  0  0  0  0
 39 40  1  0  0  0  0
 41 40  1  0  0  0  0
 42 41  1  0  0  0  0
 43 44  1  0  0  0  0
 44  1  1  0  0  0  0
M  END
>  <minimizedAffinity>
-4.60856485

$$$$
