
 OpenBabel09082221133D

 44 49  0  0  0  0  0  0  0  0999 V2000
    6.2110   -4.1190    0.5050 C   0  0  0  0  0  0  0  0  0  0  0  0
    5.2720   -3.2140    0.0320 C   0  0  0  0  0  3  0  0  0  0  0  0
    4.7490   -3.3660   -1.2540 C   0  0  0  0  0  3  0  0  0  0  0  0
    5.1340   -4.4290   -2.0920 C   0  0  0  0  0  0  0  0  0  0  0  0
    6.1130   -5.3470   -1.6250 C   0  0  0  0  0  0  0  0  0  0  0  0
    6.6240   -5.1680   -0.3230 C   0  0  0  0  0  3  0  0  0  0  0  0
    6.6230   -6.5040   -2.4330 C   0  0  0  0  0  0  0  0  0  0  0  0
    6.8830   -7.7920   -1.6880 C   0  0  0  0  0  1  0  0  0  0  0  0
    6.8220   -6.3610   -3.7630 C   0  0  0  0  0  0  0  0  0  0  0  0
    6.7160   -5.0580   -4.5020 C   0  0  0  0  0  2  0  0  0  0  0  0
    5.3170   -4.6650   -4.5770 N   0  0  0  0  0  0  0  0  0  0  0  0
    4.5400   -4.4720   -3.4500 C   0  0  0  0  0  0  0  0  0  0  0  0
    3.2220   -4.3250   -3.8960 C   0  0  0  0  0  0  0  0  0  0  0  0
    3.2650   -4.2760   -5.3370 C   0  0  0  0  0  0  0  0  0  0  0  0
    2.2950   -4.0640   -6.3480 C   0  0  0  0  0  3  0  0  0  0  0  0
    2.6600   -4.0850   -7.7000 C   0  0  0  0  0  3  0  0  0  0  0  0
    3.9760   -4.3570   -8.0530 C   0  0  0  0  0  0  0  0  0  0  0  0
    4.9680   -4.5400   -7.0830 C   0  0  0  0  0  3  0  0  0  0  0  0
    4.5850   -4.4990   -5.7300 C   0  0  0  0  0  0  0  0  0  0  0  0
    4.3800   -4.3820   -9.4710 C   0  0  0  0  0  0  0  0  0  0  0  0
    4.7490   -3.3650  -10.0370 O   0  0  0  0  0  0  0  0  0  0  0  0
    4.4880   -5.6380  -10.0980 N   0  0  0  0  0  0  0  0  0  0  0  0
    3.3080   -6.8060  -10.0610 S   0  0  0  0  0  0  0  0  0  0  0  0
    2.0430   -6.1440  -10.2710 O   0  0  0  0  0  0  0  0  0  0  0  0
    3.7490   -7.8730  -10.9280 O   0  0  0  0  0  0  0  0  0  0  0  0
    3.4010   -7.3400   -8.4840 N   0  0  0  0  0  0  0  0  0  0  0  0
    2.1430   -7.6260   -7.7850 C   0  0  0  0  0  1  0  0  0  0  0  0
    4.6340   -8.0260   -8.0290 C   0  0  0  0  0  2  0  0  0  0  0  0
    4.3870   -9.4290   -7.4770 C   0  0  0  0  0  2  0  0  0  0  0  0
    5.6150  -10.1290   -6.8790 C   0  0  0  0  0  2  0  0  0  0  0  0
    6.6670   -9.2740   -6.1630 C   0  0  0  0  0  2  0  0  0  0  0  0
    6.2720   -8.3900   -5.0610 N   0  0  0  0  0  0  0  0  0  0  0  0
    4.9340   -8.4860   -4.4850 C   0  0  0  0  0  1  0  0  0  0  0  0
    7.2410   -7.4710   -4.6550 C   0  0  0  0  0  0  0  0  0  0  0  0
    8.3910   -7.4610   -5.0920 O   0  0  0  0  0  0  0  0  0  0  0  0
    4.8130   -5.5330  -11.0570 H   0  0  0  0  0  0  0  0  0  0  0  0
    1.9860   -4.2330   -3.0230 C   0  0  0  0  0  3  0  0  0  0  0  0
    1.3460   -2.8350   -3.0410 C   0  0  0  0  0  2  0  0  0  0  0  0
    0.1230   -2.7710   -2.1280 C   0  0  0  0  0  2  0  0  0  0  0  0
   -0.8950   -3.8550   -2.4710 C   0  0  0  0  0  2  0  0  0  0  0  0
   -0.2650   -5.2450   -2.4480 C   0  0  0  0  0  2  0  0  0  0  0  0
    0.9560   -5.3260   -3.3620 C   0  0  0  0  0  2  0  0  0  0  0  0
    6.9990   -2.8130    2.3300 C   0  0  0  0  0  1  0  0  0  0  0  0
    6.8100   -4.0900    1.7340 O   0  0  0  0  0  0  0  0  0  0  0  0
  1 44  1  0  0  0  0
  2  1  1  0  0  0  0
  3  2  2  0  0  0  0
  4  5  2  0  0  0  0
  4  3  1  0  0  0  0
  5  6  1  0  0  0  0
  6  1  2  0  0  0  0
  7  8  1  0  0  0  0
  7  5  1  0  0  0  0
  9  7  2  0  0  0  0
 10  9  1  0  0  0  0
 11 10  1  0  0  0  0
 11 12  1  0  0  0  0
 12  4  1  0  0  0  0
 13 12  2  0  0  0  0
 13 37  1  0  0  0  0
 14 13  1  0  0  0  0
 15 14  2  0  0  0  0
 16 15  1  0  0  0  0
 17 16  2  0  0  0  0
 17 18  1  0  0  0  0
 18 19  2  0  0  0  0
 19 14  1  0  0  0  0
 19 11  1  0  0  0  0
 20 17  1  0  0  0  0
 21 20  2  0  0  0  0
 22 23  1  0  0  0  0
 22 20  1  0  0  0  0
 23 26  1  0  0  0  0
 24 23  2  0  0  0  0
 25 23  2  0  0  0  0
 26 28  1  0  0  0  0
 26 27  1  0  0  0  0
 28 29  1  0  0  0  0
 29 30  1  0  0  0  0
 30 31  1  0  0  0  0
 31 32  1  0  0  0  0
 32 34  1  0  0  0  0
 32 33  1  0  0  0  0
 34  9  1  0  0  0  0
 35 34  2  0  0  0  0
 36 22  1  0  0  0  0
 38 37  1  0  0  0  0
 38 39  1  0  0  0  0
 40 41  1  0  0  0  0
 40 39  1  0  0  0  0
 42 37  1  0  0  0  0
 42 41  1  0  0  0  0
 44 43  1  0  0  0  0
M  END
>  <minimizedAffinity>
-5.08381653

$$$$

 OpenBabel09082221133D

 44 49  0  0  0  0  0  0  0  0999 V2000
    6.3900   -5.1730    0.2460 C   0  0  0  0  0  0  0  0  0  0  0  0
    5.2320   -4.4780   -0.0720 C   0  0  0  0  0  3  0  0  0  0  0  0
    4.7260   -4.5330   -1.3730 C   0  0  0  0  0  3  0  0  0  0  0  0
    5.3490   -5.2940   -2.3800 C   0  0  0  0  0  0  0  0  0  0  0  0
    6.5480   -5.9910   -2.0690 C   0  0  0  0  0  0  0  0  0  0  0  0
    7.0350   -5.9150   -0.7480 C   0  0  0  0  0  3  0  0  0  0  0  0
    7.3150   -6.8120   -3.0620 C   0  0  0  0  0  0  0  0  0  0  0  0
    7.9270   -8.0970   -2.5540 C   0  0  0  0  0  1  0  0  0  0  0  0
    7.4290   -6.3910   -4.3420 C   0  0  0  0  0  0  0  0  0  0  0  0
    6.9630   -5.0520   -4.8390 C   0  0  0  0  0  2  0  0  0  0  0  0
    5.5070   -5.0340   -4.8650 N   0  0  0  0  0  0  0  0  0  0  0  0
    4.7430   -5.2520   -3.7340 C   0  0  0  0  0  0  0  0  0  0  0  0
    3.4190   -5.3800   -4.1670 C   0  0  0  0  0  0  0  0  0  0  0  0
    3.4020   -5.0690   -5.5750 C   0  0  0  0  0  0  0  0  0  0  0  0
    2.3780   -4.9450   -6.5480 C   0  0  0  0  0  3  0  0  0  0  0  0
    2.6930   -4.6320   -7.8760 C   0  0  0  0  0  3  0  0  0  0  0  0
    4.0220   -4.4830   -8.2510 C   0  0  0  0  0  0  0  0  0  0  0  0
    5.0590   -4.5660   -7.3130 C   0  0  0  0  0  3  0  0  0  0  0  0
    4.7220   -4.8650   -5.9810 C   0  0  0  0  0  0  0  0  0  0  0  0
    4.3740   -4.1520   -9.6440 C   0  0  0  0  0  0  0  0  0  0  0  0
    4.4470   -2.9910  -10.0140 O   0  0  0  0  0  0  0  0  0  0  0  0
    4.7850   -5.2050  -10.4830 N   0  0  0  0  0  0  0  0  0  0  0  0
    3.9540   -6.6280  -10.6730 S   0  0  0  0  0  0  0  0  0  0  0  0
    2.5530   -6.2950  -10.7810 O   0  0  0  0  0  0  0  0  0  0  0  0
    4.6300   -7.3730  -11.7090 O   0  0  0  0  0  0  0  0  0  0  0  0
    4.2330   -7.3880   -9.2140 N   0  0  0  0  0  0  0  0  0  0  0  0
    3.1160   -8.1120   -8.5970 C   0  0  0  0  0  1  0  0  0  0  0  0
    5.6160   -7.7950   -8.8700 C   0  0  0  0  0  2  0  0  0  0  0  0
    5.7610   -9.2880   -8.5800 C   0  0  0  0  0  2  0  0  0  0  0  0
    7.1480   -9.7350   -8.0970 C   0  0  0  0  0  2  0  0  0  0  0  0
    7.9630   -8.7740   -7.2230 C   0  0  0  0  0  2  0  0  0  0  0  0
    7.3860   -8.2320   -5.9880 N   0  0  0  0  0  0  0  0  0  0  0  0
    6.1380   -8.7760   -5.4590 C   0  0  0  0  0  1  0  0  0  0  0  0
    8.0940   -7.1780   -5.4100 C   0  0  0  0  0  0  0  0  0  0  0  0
    9.1870   -6.7890   -5.8210 O   0  0  0  0  0  0  0  0  0  0  0  0
    5.0410   -4.8510  -11.4030 H   0  0  0  0  0  0  0  0  0  0  0  0
    2.2310   -5.7700   -3.3110 C   0  0  0  0  0  3  0  0  0  0  0  0
    1.2210   -4.6250   -3.1350 C   0  0  0  0  0  2  0  0  0  0  0  0
    0.0520   -5.0440   -2.2440 C   0  0  0  0  0  2  0  0  0  0  0  0
   -0.6250   -6.3120   -2.7590 C   0  0  0  0  0  2  0  0  0  0  0  0
    0.3740   -7.4530   -2.9280 C   0  0  0  0  0  2  0  0  0  0  0  0
    1.5440   -7.0500   -3.8230 C   0  0  0  0  0  2  0  0  0  0  0  0
    6.6200   -4.2030    2.4060 C   0  0  0  0  0  1  0  0  0  0  0  0
    6.9990   -5.2050    1.4710 O   0  0  0  0  0  0  0  0  0  0  0  0
  1 44  1  0  0  0  0
  2  1  1  0  0  0  0
  3  2  2  0  0  0  0
  4  5  2  0  0  0  0
  4  3  1  0  0  0  0
  5  6  1  0  0  0  0
  6  1  2  0  0  0  0
  7  8  1  0  0  0  0
  7  5  1  0  0  0  0
  9  7  2  0  0  0  0
 10  9  1  0  0  0  0
 11 10  1  0  0  0  0
 11 12  1  0  0  0  0
 12  4  1  0  0  0  0
 13 12  2  0  0  0  0
 13 37  1  0  0  0  0
 14 13  1  0  0  0  0
 15 14  2  0  0  0  0
 16 15  1  0  0  0  0
 17 16  2  0  0  0  0
 17 18  1  0  0  0  0
 18 19  2  0  0  0  0
 19 14  1  0  0  0  0
 19 11  1  0  0  0  0
 20 17  1  0  0  0  0
 21 20  2  0  0  0  0
 22 20  1  0  0  0  0
 23 22  1  0  0  0  0
 23 26  1  0  0  0  0
 24 23  2  0  0  0  0
 25 23  2  0  0  0  0
 26 28  1  0  0  0  0
 26 27  1  0  0  0  0
 28 29  1  0  0  0  0
 29 30  1  0  0  0  0
 30 31  1  0  0  0  0
 31 32  1  0  0  0  0
 32 33  1  0  0  0  0
 32 34  1  0  0  0  0
 34  9  1  0  0  0  0
 35 34  2  0  0  0  0
 36 22  1  0  0  0  0
 37 38  1  0  0  0  0
 38 39  1  0  0  0  0
 40 39  1  0  0  0  0
 41 40  1  0  0  0  0
 42 37  1  0  0  0  0
 42 41  1  0  0  0  0
 44 43  1  0  0  0  0
M  END
>  <minimizedAffinity>
-4.93589163

$$$$

 OpenBabel09082221133D

 44 49  0  0  0  0  0  0  0  0999 V2000
    2.6810   -3.7570   -9.9830 C   0  0  0  0  0  0  0  0  0  0  0  0
    3.9940   -4.0460   -9.6450 C   0  0  0  0  0  3  0  0  0  0  0  0
    4.3320   -4.2730   -8.3080 C   0  0  0  0  0  3  0  0  0  0  0  0
    3.3690   -4.2360   -7.2820 C   0  0  0  0  0  0  0  0  0  0  0  0
    2.0250   -3.9180   -7.6180 C   0  0  0  0  0  0  0  0  0  0  0  0
    1.7140   -3.6920   -8.9750 C   0  0  0  0  0  3  0  0  0  0  0  0
    0.9160   -3.8220   -6.6120 C   0  0  0  0  0  0  0  0  0  0  0  0
   -0.4330   -4.3540   -7.0340 C   0  0  0  0  0  1  0  0  0  0  0  0
    1.1540   -3.2830   -5.3950 C   0  0  0  0  0  0  0  0  0  0  0  0
    2.4390   -2.6130   -5.0000 C   0  0  0  0  0  2  0  0  0  0  0  0
    3.4790   -3.6210   -4.8590 N   0  0  0  0  0  0  0  0  0  0  0  0
    3.8460   -4.4580   -5.8960 C   0  0  0  0  0  0  0  0  0  0  0  0
    4.6960   -5.4240   -5.3460 C   0  0  0  0  0  0  0  0  0  0  0  0
    4.9500   -5.0370   -3.9800 C   0  0  0  0  0  0  0  0  0  0  0  0
    5.7740   -5.5460   -2.9460 C   0  0  0  0  0  3  0  0  0  0  0  0
    5.7940   -4.9340   -1.6860 C   0  0  0  0  0  3  0  0  0  0  0  0
    4.9680   -3.8450   -1.4360 C   0  0  0  0  0  0  0  0  0  0  0  0
    4.1640   -3.2950   -2.4420 C   0  0  0  0  0  3  0  0  0  0  0  0
    4.1690   -3.9130   -3.7050 C   0  0  0  0  0  0  0  0  0  0  0  0
    4.9760   -3.1870   -0.1180 C   0  0  0  0  0  0  0  0  0  0  0  0
    5.7530   -2.2770    0.1250 O   0  0  0  0  0  0  0  0  0  0  0  0
    3.9520   -3.5240    0.7880 N   0  0  0  0  0  0  0  0  0  0  0  0
    3.5330   -5.0790    1.1890 S   0  0  0  0  0  0  0  0  0  0  0  0
    4.7580   -5.8190    1.3750 O   0  0  0  0  0  0  0  0  0  0  0  0
    2.5440   -4.9880    2.2370 O   0  0  0  0  0  0  0  0  0  0  0  0
    2.7750   -5.6010   -0.2030 N   0  0  0  0  0  0  0  0  0  0  0  0
    3.0410   -6.9730   -0.6510 C   0  0  0  0  0  1  0  0  0  0  0  0
    1.5060   -4.9550   -0.6150 C   0  0  0  0  0  2  0  0  0  0  0  0
    0.3410   -5.9330   -0.7630 C   0  0  0  0  0  2  0  0  0  0  0  0
   -0.9610   -5.3310   -1.3080 C   0  0  0  0  0  2  0  0  0  0  0  0
   -0.8680   -4.1990   -2.3380 C   0  0  0  0  0  2  0  0  0  0  0  0
   -0.0960   -4.3860   -3.5710 N   0  0  0  0  0  0  0  0  0  0  0  0
    0.3910   -5.7130   -3.9390 C   0  0  0  0  0  1  0  0  0  0  0  0
    0.1430   -3.2260   -4.3090 C   0  0  0  0  0  0  0  0  0  0  0  0
   -0.3460   -2.1320   -4.0300 O   0  0  0  0  0  0  0  0  0  0  0  0
    4.0360   -2.9780    1.6430 H   0  0  0  0  0  0  0  0  0  0  0  0
    5.2450   -6.6440   -6.0590 C   0  0  0  0  0  3  0  0  0  0  0  0
    6.7680   -6.5870   -6.2520 C   0  0  0  0  0  2  0  0  0  0  0  0
    7.2820   -7.8170   -6.9990 C   0  0  0  0  0  2  0  0  0  0  0  0
    6.8540   -9.1120   -6.3150 C   0  0  0  0  0  2  0  0  0  0  0  0
    5.3410   -9.1760   -6.1280 C   0  0  0  0  0  2  0  0  0  0  0  0
    4.8140   -7.9550   -5.3760 C   0  0  0  0  0  2  0  0  0  0  0  0
    1.3510   -2.3860  -11.4010 C   0  0  0  0  0  1  0  0  0  0  0  0
    2.2100   -3.5090  -11.2430 O   0  0  0  0  0  0  0  0  0  0  0  0
  1  2  2  0  0  0  0
  1  6  1  0  0  0  0
  2  3  1  0  0  0  0
  3  4  2  0  0  0  0
  4 12  1  0  0  0  0
  5  4  1  0  0  0  0
  5  7  1  0  0  0  0
  6  5  2  0  0  0  0
  7  9  2  0  0  0  0
  8  7  1  0  0  0  0
  9 10  1  0  0  0  0
  9 34  1  0  0  0  0
 10 11  1  0  0  0  0
 11 19  1  0  0  0  0
 12 13  2  0  0  0  0
 12 11  1  0  0  0  0
 13 14  1  0  0  0  0
 14 19  2  0  0  0  0
 14 15  1  0  0  0  0
 15 16  2  0  0  0  0
 16 17  1  0  0  0  0
 17 20  1  0  0  0  0
 18 17  2  0  0  0  0
 19 18  1  0  0  0  0
 20 21  2  0  0  0  0
 20 22  1  0  0  0  0
 22 23  1  0  0  0  0
 22 36  1  0  0  0  0
 23 24  2  0  0  0  0
 23 25  2  0  0  0  0
 26 23  1  0  0  0  0
 27 26  1  0  0  0  0
 28 26  1  0  0  0  0
 29 28  1  0  0  0  0
 30 29  1  0  0  0  0
 31 30  1  0  0  0  0
 32 31  1  0  0  0  0
 33 32  1  0  0  0  0
 34 35  2  0  0  0  0
 34 32  1  0  0  0  0
 37 42  1  0  0  0  0
 37 13  1  0  0  0  0
 38 37  1  0  0  0  0
 39 40  1  0  0  0  0
 39 38  1  0  0  0  0
 40 41  1  0  0  0  0
 41 42  1  0  0  0  0
 43 44  1  0  0  0  0
 44  1  1  0  0  0  0
M  END
>  <minimizedAffinity>
-4.83819818

$$$$

 OpenBabel09082221133D

 44 49  0  0  0  0  0  0  0  0999 V2000
    8.8620   -7.8650   -6.8790 C   0  0  0  0  0  0  0  0  0  0  0  0
    9.0270   -7.1570   -5.6980 C   0  0  0  0  0  3  0  0  0  0  0  0
    7.9420   -6.4790   -5.1390 C   0  0  0  0  0  3  0  0  0  0  0  0
    6.6650   -6.5030   -5.7320 C   0  0  0  0  0  0  0  0  0  0  0  0
    6.4930   -7.2070   -6.9540 C   0  0  0  0  0  0  0  0  0  0  0  0
    7.6070   -7.8810   -7.4950 C   0  0  0  0  0  3  0  0  0  0  0  0
    5.1900   -7.2840   -7.6940 C   0  0  0  0  0  0  0  0  0  0  0  0
    4.8560   -8.6040   -8.3470 C   0  0  0  0  0  1  0  0  0  0  0  0
    4.3790   -6.2030   -7.7460 C   0  0  0  0  0  0  0  0  0  0  0  0
    4.7490   -4.8390   -7.2370 C   0  0  0  0  0  2  0  0  0  0  0  0
    4.7740   -4.8640   -5.7820 N   0  0  0  0  0  0  0  0  0  0  0  0
    5.5950   -5.7180   -5.0700 C   0  0  0  0  0  0  0  0  0  0  0  0
    5.1990   -5.6260   -3.7310 C   0  0  0  0  0  0  0  0  0  0  0  0
    4.2230   -4.5660   -3.6500 C   0  0  0  0  0  0  0  0  0  0  0  0
    3.5220   -3.9480   -2.5850 C   0  0  0  0  0  3  0  0  0  0  0  0
    2.6050   -2.9200   -2.8380 C   0  0  0  0  0  3  0  0  0  0  0  0
    2.3500   -2.5330   -4.1490 C   0  0  0  0  0  0  0  0  0  0  0  0
    3.0460   -3.0980   -5.2240 C   0  0  0  0  0  3  0  0  0  0  0  0
    3.9750   -4.1180   -4.9480 C   0  0  0  0  0  0  0  0  0  0  0  0
    1.3900   -1.4530   -4.4360 C   0  0  0  0  0  0  0  0  0  0  0  0
    1.7490   -0.2870   -4.4740 O   0  0  0  0  0  0  0  0  0  0  0  0
    0.0890   -1.8210   -4.8300 N   0  0  0  0  0  0  0  0  0  0  0  0
   -0.8610   -2.9110   -4.0160 S   0  0  0  0  0  0  0  0  0  0  0  0
   -0.7250   -2.6290   -2.6070 O   0  0  0  0  0  0  0  0  0  0  0  0
   -2.1530   -2.9040   -4.6610 O   0  0  0  0  0  0  0  0  0  0  0  0
   -0.1070   -4.3570   -4.3680 N   0  0  0  0  0  0  0  0  0  0  0  0
    0.0110   -5.3450   -3.2900 C   0  0  0  0  0  1  0  0  0  0  0  0
   -0.0910   -4.8350   -5.7710 C   0  0  0  0  0  2  0  0  0  0  0  0
   -0.7120   -6.2190   -5.9530 C   0  0  0  0  0  2  0  0  0  0  0  0
   -0.6060   -6.8100   -7.3660 C   0  0  0  0  0  2  0  0  0  0  0  0
    0.6400   -6.4900   -8.2000 C   0  0  0  0  0  2  0  0  0  0  0  0
    1.9770   -6.7730   -7.6660 N   0  0  0  0  0  0  0  0  0  0  0  0
    2.1290   -7.5680   -6.4510 C   0  0  0  0  0  1  0  0  0  0  0  0
    3.0370   -6.2120   -8.3800 C   0  0  0  0  0  0  0  0  0  0  0  0
    2.8960   -5.6180   -9.4480 O   0  0  0  0  0  0  0  0  0  0  0  0
   -0.4690   -0.9960   -5.0420 H   0  0  0  0  0  0  0  0  0  0  0  0
    5.7060   -6.4790   -2.5860 C   0  0  0  0  0  3  0  0  0  0  0  0
    6.3280   -5.6490   -1.4520 C   0  0  0  0  0  2  0  0  0  0  0  0
    6.8540   -6.5420   -0.3300 C   0  0  0  0  0  2  0  0  0  0  0  0
    5.7740   -7.4840    0.1950 C   0  0  0  0  0  2  0  0  0  0  0  0
    5.1600   -8.3160   -0.9260 C   0  0  0  0  0  2  0  0  0  0  0  0
    4.6230   -7.4350   -2.0530 C   0  0  0  0  0  2  0  0  0  0  0  0
   11.1830   -8.2410   -7.2390 C   0  0  0  0  0  1  0  0  0  0  0  0
    9.8320   -8.5680   -7.5390 O   0  0  0  0  0  0  0  0  0  0  0  0
  1  2  1  0  0  0  0
  2  3  2  0  0  0  0
  4  3  1  0  0  0  0
  4 12  1  0  0  0  0
  5  4  2  0  0  0  0
  6  5  1  0  0  0  0
  6  1  2  0  0  0  0
  7  5  1  0  0  0  0
  8  7  1  0  0  0  0
  9  7  2  0  0  0  0
  9 10  1  0  0  0  0
 10 11  1  0  0  0  0
 11 12  1  0  0  0  0
 11 19  1  0  0  0  0
 12 13  2  0  0  0  0
 13 14  1  0  0  0  0
 13 37  1  0  0  0  0
 14 15  1  0  0  0  0
 16 15  2  0  0  0  0
 17 16  1  0  0  0  0
 18 19  1  0  0  0  0
 18 17  2  0  0  0  0
 19 14  2  0  0  0  0
 20 17  1  0  0  0  0
 21 20  2  0  0  0  0
 22 20  1  0  0  0  0
 22 23  1  0  0  0  0
 23 24  2  0  0  0  0
 25 23  2  0  0  0  0
 26 23  1  0  0  0  0
 26 27  1  0  0  0  0
 28 26  1  0  0  0  0
 29 28  1  0  0  0  0
 30 29  1  0  0  0  0
 31 32  1  0  0  0  0
 31 30  1  0  0  0  0
 32 33  1  0  0  0  0
 34  9  1  0  0  0  0
 34 32  1  0  0  0  0
 35 34  2  0  0  0  0
 36 22  1  0  0  0  0
 37 42  1  0  0  0  0
 37 38  1  0  0  0  0
 38 39  1  0  0  0  0
 39 40  1  0  0  0  0
 41 40  1  0  0  0  0
 42 41  1  0  0  0  0
 44 43  1  0  0  0  0
 44  1  1  0  0  0  0
M  END
>  <minimizedAffinity>
-4.79038429

$$$$

 OpenBabel09082221133D

 44 49  0  0  0  0  0  0  0  0999 V2000
    6.3800   -5.5280    0.7660 C   0  0  0  0  0  0  0  0  0  0  0  0
    5.2780   -4.8030    1.1950 C   0  0  0  0  0  3  0  0  0  0  0  0
    4.3410   -4.3500    0.2640 C   0  0  0  0  0  3  0  0  0  0  0  0
    4.4690   -4.6230   -1.1110 C   0  0  0  0  0  0  0  0  0  0  0  0
    5.6070   -5.3450   -1.5620 C   0  0  0  0  0  0  0  0  0  0  0  0
    6.5370   -5.7880   -0.5990 C   0  0  0  0  0  3  0  0  0  0  0  0
    5.8670   -5.6740   -3.0020 C   0  0  0  0  0  0  0  0  0  0  0  0
    6.4590   -7.0330   -3.2930 C   0  0  0  0  0  1  0  0  0  0  0  0
    5.5690   -4.7720   -3.9650 C   0  0  0  0  0  0  0  0  0  0  0  0
    5.1220   -3.3630   -3.6990 C   0  0  0  0  0  2  0  0  0  0  0  0
    3.7660   -3.3840   -3.1700 N   0  0  0  0  0  0  0  0  0  0  0  0
    3.4330   -4.0630   -2.0130 C   0  0  0  0  0  0  0  0  0  0  0  0
    2.0360   -4.0510   -1.9340 C   0  0  0  0  0  0  0  0  0  0  0  0
    1.5580   -3.2040   -2.9990 C   0  0  0  0  0  0  0  0  0  0  0  0
    0.2790   -2.7360   -3.3910 C   0  0  0  0  0  3  0  0  0  0  0  0
    0.1370   -1.9070   -4.5110 C   0  0  0  0  0  3  0  0  0  0  0  0
    1.2550   -1.5750   -5.2670 C   0  0  0  0  0  0  0  0  0  0  0  0
    2.5390   -1.9910   -4.8930 C   0  0  0  0  0  3  0  0  0  0  0  0
    2.6620   -2.8100   -3.7560 C   0  0  0  0  0  0  0  0  0  0  0  0
    1.1270   -0.7020   -6.4480 C   0  0  0  0  0  0  0  0  0  0  0  0
    1.2030    0.5110   -6.3430 O   0  0  0  0  0  0  0  0  0  0  0  0
    1.0840   -1.3170   -7.7140 N   0  0  0  0  0  0  0  0  0  0  0  0
    0.0730   -2.5730   -8.1090 S   0  0  0  0  0  0  0  0  0  0  0  0
   -1.2230   -2.2720   -7.5500 O   0  0  0  0  0  0  0  0  0  0  0  0
    0.2430   -2.8170   -9.5220 O   0  0  0  0  0  0  0  0  0  0  0  0
    0.7580   -3.8430   -7.2720 N   0  0  0  0  0  0  0  0  0  0  0  0
   -0.1470   -4.7910   -6.6110 C   0  0  0  0  0  1  0  0  0  0  0  0
    2.1130   -4.3070   -7.6520 C   0  0  0  0  0  2  0  0  0  0  0  0
    2.1700   -5.7860   -8.0330 C   0  0  0  0  0  2  0  0  0  0  0  0
    3.5730   -6.3420   -8.3140 C   0  0  0  0  0  2  0  0  0  0  0  0
    4.7540   -5.7830   -7.5120 C   0  0  0  0  0  2  0  0  0  0  0  0
    4.7230   -5.8000   -6.0450 N   0  0  0  0  0  0  0  0  0  0  0  0
    3.6880   -6.5520   -5.3410 C   0  0  0  0  0  1  0  0  0  0  0  0
    5.7120   -5.0420   -5.4170 C   0  0  0  0  0  0  0  0  0  0  0  0
    6.6270   -4.4860   -6.0230 O   0  0  0  0  0  0  0  0  0  0  0  0
    1.0370   -0.6170   -8.4510 H   0  0  0  0  0  0  0  0  0  0  0  0
    1.1900   -4.7910   -0.9170 C   0  0  0  0  0  3  0  0  0  0  0  0
    0.4490   -3.8470    0.0430 C   0  0  0  0  0  2  0  0  0  0  0  0
   -0.3680   -4.6270    1.0720 C   0  0  0  0  0  2  0  0  0  0  0  0
   -1.3270   -5.6090    0.4040 C   0  0  0  0  0  2  0  0  0  0  0  0
   -0.5930   -6.5530   -0.5440 C   0  0  0  0  0  2  0  0  0  0  0  0
    0.2230   -5.7870   -1.5830 C   0  0  0  0  0  2  0  0  0  0  0  0
    7.6500   -7.4180    1.4540 C   0  0  0  0  0  1  0  0  0  0  0  0
    7.3760   -6.0260    1.5610 O   0  0  0  0  0  0  0  0  0  0  0  0
  1  2  1  0  0  0  0
  1 44  1  0  0  0  0
  3  2  2  0  0  0  0
  4  3  1  0  0  0  0
  5  4  2  0  0  0  0
  5  6  1  0  0  0  0
  6  1  2  0  0  0  0
  7  5  1  0  0  0  0
  8  7  1  0  0  0  0
  9 10  1  0  0  0  0
  9  7  2  0  0  0  0
 10 11  1  0  0  0  0
 11 12  1  0  0  0  0
 12 13  2  0  0  0  0
 12  4  1  0  0  0  0
 13 37  1  0  0  0  0
 14 13  1  0  0  0  0
 15 14  1  0  0  0  0
 16 15  2  0  0  0  0
 17 18  2  0  0  0  0
 17 16  1  0  0  0  0
 18 19  1  0  0  0  0
 19 11  1  0  0  0  0
 19 14  2  0  0  0  0
 20 21  2  0  0  0  0
 20 17  1  0  0  0  0
 22 20  1  0  0  0  0
 23 22  1  0  0  0  0
 23 24  2  0  0  0  0
 23 26  1  0  0  0  0
 25 23  2  0  0  0  0
 26 27  1  0  0  0  0
 28 26  1  0  0  0  0
 29 28  1  0  0  0  0
 30 29  1  0  0  0  0
 30 31  1  0  0  0  0
 31 32  1  0  0  0  0
 32 34  1  0  0  0  0
 32 33  1  0  0  0  0
 34  9  1  0  0  0  0
 35 34  2  0  0  0  0
 36 22  1  0  0  0  0
 37 38  1  0  0  0  0
 38 39  1  0  0  0  0
 40 39  1  0  0  0  0
 41 40  1  0  0  0  0
 42 37  1  0  0  0  0
 42 41  1  0  0  0  0
 43 44  1  0  0  0  0
M  END
>  <minimizedAffinity>
-4.7318182

$$$$

 OpenBabel09082221133D

 44 49  0  0  0  0  0  0  0  0999 V2000
    0.9040   -4.4950  -13.7440 C   0  0  0  0  0  0  0  0  0  0  0  0
    1.5640   -5.6870  -13.4880 C   0  0  0  0  0  3  0  0  0  0  0  0
    2.1260   -5.9120  -12.2290 C   0  0  0  0  0  3  0  0  0  0  0  0
    2.0300   -4.9650  -11.1920 C   0  0  0  0  0  0  0  0  0  0  0  0
    1.3750   -3.7310  -11.4530 C   0  0  0  0  0  0  0  0  0  0  0  0
    0.8180   -3.5320  -12.7330 C   0  0  0  0  0  3  0  0  0  0  0  0
    1.2310   -2.6340  -10.4390 C   0  0  0  0  0  0  0  0  0  0  0  0
   -0.0780   -1.8810  -10.4340 C   0  0  0  0  0  1  0  0  0  0  0  0
    2.2460   -2.3670   -9.5860 C   0  0  0  0  0  0  0  0  0  0  0  0
    3.6080   -2.9940   -9.6640 C   0  0  0  0  0  2  0  0  0  0  0  0
    3.5140   -4.3900   -9.2610 N   0  0  0  0  0  0  0  0  0  0  0  0
    2.6940   -5.2950   -9.9080 C   0  0  0  0  0  0  0  0  0  0  0  0
    2.6890   -6.4560   -9.1280 C   0  0  0  0  0  0  0  0  0  0  0  0
    3.6620   -6.2670   -8.0800 C   0  0  0  0  0  0  0  0  0  0  0  0
    4.1710   -7.0880   -7.0430 C   0  0  0  0  0  3  0  0  0  0  0  0
    5.1330   -6.5960   -6.1520 C   0  0  0  0  0  3  0  0  0  0  0  0
    5.5630   -5.2790   -6.2620 C   0  0  0  0  0  0  0  0  0  0  0  0
    5.1080   -4.4470   -7.2930 C   0  0  0  0  0  3  0  0  0  0  0  0
    4.1530   -4.9640   -8.1870 C   0  0  0  0  0  0  0  0  0  0  0  0
    6.5760   -4.7430   -5.3360 C   0  0  0  0  0  0  0  0  0  0  0  0
    7.7680   -4.8410   -5.5840 O   0  0  0  0  0  0  0  0  0  0  0  0
    6.1260   -3.9700   -4.2490 N   0  0  0  0  0  0  0  0  0  0  0  0
    4.9250   -4.4380   -3.2030 S   0  0  0  0  0  0  0  0  0  0  0  0
    5.1480   -5.8300   -2.8910 O   0  0  0  0  0  0  0  0  0  0  0  0
    4.8610   -3.4380   -2.1640 O   0  0  0  0  0  0  0  0  0  0  0  0
    3.5630   -4.2930   -4.1550 N   0  0  0  0  0  0  0  0  0  0  0  0
    2.5350   -5.3350   -4.0380 C   0  0  0  0  0  1  0  0  0  0  0  0
    3.1560   -2.9490   -4.6270 C   0  0  0  0  0  2  0  0  0  0  0  0
    1.7380   -2.5580   -4.2160 C   0  0  0  0  0  2  0  0  0  0  0  0
    1.2280   -1.2280   -4.7870 C   0  0  0  0  0  2  0  0  0  0  0  0
    1.6860   -0.8110   -6.1900 C   0  0  0  0  0  2  0  0  0  0  0  0
    1.4840   -1.7130   -7.3290 N   0  0  0  0  0  0  0  0  0  0  0  0
    0.6450   -2.9000   -7.1870 C   0  0  0  0  0  1  0  0  0  0  0  0
    2.1610   -1.3620   -8.4970 C   0  0  0  0  0  0  0  0  0  0  0  0
    2.7930   -0.3140   -8.6250 O   0  0  0  0  0  0  0  0  0  0  0  0
    6.9130   -3.6210   -3.7060 H   0  0  0  0  0  0  0  0  0  0  0  0
    1.8240   -7.6800   -9.3490 C   0  0  0  0  0  3  0  0  0  0  0  0
    2.6370   -8.9240   -9.7400 C   0  0  0  0  0  2  0  0  0  0  0  0
    1.7310  -10.1300   -9.9840 C   0  0  0  0  0  2  0  0  0  0  0  0
    0.8280  -10.4080   -8.7860 C   0  0  0  0  0  2  0  0  0  0  0  0
    0.0130   -9.1780   -8.3990 C   0  0  0  0  0  2  0  0  0  0  0  0
    0.9070   -7.9660   -8.1450 C   0  0  0  0  0  2  0  0  0  0  0  0
   -0.3960   -2.9060  -14.9450 C   0  0  0  0  0  1  0  0  0  0  0  0
    0.3130   -4.1380  -14.9250 O   0  0  0  0  0  0  0  0  0  0  0  0
  1  2  2  0  0  0  0
  1  6  1  0  0  0  0
  2  3  1  0  0  0  0
  3  4  2  0  0  0  0
  4 12  1  0  0  0  0
  5  4  1  0  0  0  0
  5  7  1  0  0  0  0
  6  5  2  0  0  0  0
  7  8  1  0  0  0  0
  7  9  2  0  0  0  0
  9 34  1  0  0  0  0
 10  9  1  0  0  0  0
 10 11  1  0  0  0  0
 11 19  1  0  0  0  0
 12 11  1  0  0  0  0
 12 13  2  0  0  0  0
 13 14  1  0  0  0  0
 14 15  1  0  0  0  0
 15 16  2  0  0  0  0
 17 16  1  0  0  0  0
 17 20  1  0  0  0  0
 18 17  2  0  0  0  0
 19 14  2  0  0  0  0
 19 18  1  0  0  0  0
 20 22  1  0  0  0  0
 21 20  2  0  0  0  0
 22 36  1  0  0  0  0
 22 23  1  0  0  0  0
 23 24  2  0  0  0  0
 23 25  2  0  0  0  0
 26 27  1  0  0  0  0
 26 23  1  0  0  0  0
 28 29  1  0  0  0  0
 28 26  1  0  0  0  0
 30 29  1  0  0  0  0
 31 30  1  0  0  0  0
 32 33  1  0  0  0  0
 32 31  1  0  0  0  0
 34 32  1  0  0  0  0
 35 34  2  0  0  0  0
 37 13  1  0  0  0  0
 37 42  1  0  0  0  0
 38 37  1  0  0  0  0
 39 38  1  0  0  0  0
 39 40  1  0  0  0  0
 40 41  1  0  0  0  0
 41 42  1  0  0  0  0
 43 44  1  0  0  0  0
 44  1  1  0  0  0  0
M  END
>  <minimizedAffinity>
-4.70370436

$$$$

 OpenBabel09082221133D

 44 49  0  0  0  0  0  0  0  0999 V2000
    4.3090   -6.0570  -10.9230 C   0  0  0  0  0  0  0  0  0  0  0  0
    4.6000   -6.1870   -9.5730 C   0  0  0  0  0  3  0  0  0  0  0  0
    3.9630   -5.3600   -8.6440 C   0  0  0  0  0  3  0  0  0  0  0  0
    3.0110   -4.3990   -9.0340 C   0  0  0  0  0  0  0  0  0  0  0  0
    2.7240   -4.2440  -10.4170 C   0  0  0  0  0  0  0  0  0  0  0  0
    3.3840   -5.0910  -11.3310 C   0  0  0  0  0  3  0  0  0  0  0  0
    1.7510   -3.2390  -10.9570 C   0  0  0  0  0  0  0  0  0  0  0  0
    0.8930   -3.6800  -12.1200 C   0  0  0  0  0  1  0  0  0  0  0  0
    1.6710   -2.0090  -10.4000 C   0  0  0  0  0  0  0  0  0  0  0  0
    2.6090   -1.4930   -9.3470 C   0  0  0  0  0  2  0  0  0  0  0  0
    2.3410   -2.1800   -8.0920 N   0  0  0  0  0  0  0  0  0  0  0  0
    2.4240   -3.5540   -7.9660 C   0  0  0  0  0  0  0  0  0  0  0  0
    1.8940   -3.8710   -6.7110 C   0  0  0  0  0  0  0  0  0  0  0  0
    1.6420   -2.6250   -6.0290 C   0  0  0  0  0  0  0  0  0  0  0  0
    1.1940   -2.2830   -4.7290 C   0  0  0  0  0  3  0  0  0  0  0  0
    1.0360   -0.9410   -4.3610 C   0  0  0  0  0  3  0  0  0  0  0  0
    1.2820    0.0610   -5.2920 C   0  0  0  0  0  0  0  0  0  0  0  0
    1.7560   -0.2360   -6.5760 C   0  0  0  0  0  3  0  0  0  0  0  0
    1.9230   -1.5890   -6.9210 C   0  0  0  0  0  0  0  0  0  0  0  0
    1.1230    1.4800   -4.9240 C   0  0  0  0  0  0  0  0  0  0  0  0
    2.0500    2.1100   -4.4410 O   0  0  0  0  0  0  0  0  0  0  0  0
   -0.0700    2.1240   -5.3020 N   0  0  0  0  0  0  0  0  0  0  0  0
   -1.5900    1.5260   -5.0070 S   0  0  0  0  0  0  0  0  0  0  0  0
   -1.5940    1.0120   -3.6590 O   0  0  0  0  0  0  0  0  0  0  0  0
   -2.5280    2.5410   -5.4260 O   0  0  0  0  0  0  0  0  0  0  0  0
   -1.6760    0.2560   -6.0860 N   0  0  0  0  0  0  0  0  0  0  0  0
   -2.3110   -0.9860   -5.6290 C   0  0  0  0  0  1  0  0  0  0  0  0
   -1.6530    0.5450   -7.5390 C   0  0  0  0  0  2  0  0  0  0  0  0
   -2.8700    0.0070   -8.2900 C   0  0  0  0  0  2  0  0  0  0  0  0
   -2.8310    0.1720   -9.8160 C   0  0  0  0  0  2  0  0  0  0  0  0
   -1.4750    0.0770  -10.5260 C   0  0  0  0  0  2  0  0  0  0  0  0
   -0.6270   -1.1050  -10.3410 N   0  0  0  0  0  0  0  0  0  0  0  0
   -1.1570   -2.2930   -9.6760 C   0  0  0  0  0  1  0  0  0  0  0  0
    0.6800   -0.9830  -10.8120 C   0  0  0  0  0  0  0  0  0  0  0  0
    1.0850   -0.0090  -11.4450 O   0  0  0  0  0  0  0  0  0  0  0  0
   -0.0480    3.1060   -5.0330 H   0  0  0  0  0  0  0  0  0  0  0  0
    1.6380   -5.2650   -6.1740 C   0  0  0  0  0  3  0  0  0  0  0  0
    2.5720   -5.6370   -5.0110 C   0  0  0  0  0  2  0  0  0  0  0  0
    2.3070   -7.0580   -4.5150 C   0  0  0  0  0  2  0  0  0  0  0  0
    0.8410   -7.2600   -4.1400 C   0  0  0  0  0  2  0  0  0  0  0  0
   -0.0890   -6.8990   -5.2950 C   0  0  0  0  0  2  0  0  0  0  0  0
    0.1610   -5.4780   -5.7970 C   0  0  0  0  0  2  0  0  0  0  0  0
    6.1720   -6.4390  -12.3510 C   0  0  0  0  0  1  0  0  0  0  0  0
    4.8570   -6.7900  -11.9390 O   0  0  0  0  0  0  0  0  0  0  0  0
  1  2  1  0  0  0  0
  2  3  2  0  0  0  0
  4  3  1  0  0  0  0
  4 12  1  0  0  0  0
  5  4  2  0  0  0  0
  6  1  2  0  0  0  0
  6  5  1  0  0  0  0
  7  5  1  0  0  0  0
  7  9  2  0  0  0  0
  8  7  1  0  0  0  0
  9 10  1  0  0  0  0
 10 11  1  0  0  0  0
 11 12  1  0  0  0  0
 11 19  1  0  0  0  0
 12 13  2  0  0  0  0
 13 37  1  0  0  0  0
 13 14  1  0  0  0  0
 14 15  1  0  0  0  0
 15 16  2  0  0  0  0
 17 20  1  0  0  0  0
 17 16  1  0  0  0  0
 18 17  2  0  0  0  0
 19 18  1  0  0  0  0
 19 14  2  0  0  0  0
 20 21  2  0  0  0  0
 22 36  1  0  0  0  0
 22 23  1  0  0  0  0
 22 20  1  0  0  0  0
 23 24  2  0  0  0  0
 25 23  2  0  0  0  0
 26 27  1  0  0  0  0
 26 23  1  0  0  0  0
 28 26  1  0  0  0  0
 29 28  1  0  0  0  0
 30 29  1  0  0  0  0
 31 32  1  0  0  0  0
 31 30  1  0  0  0  0
 32 33  1  0  0  0  0
 34  9  1  0  0  0  0
 34 32  1  0  0  0  0
 35 34  2  0  0  0  0
 37 42  1  0  0  0  0
 37 38  1  0  0  0  0
 38 39  1  0  0  0  0
 39 40  1  0  0  0  0
 41 40  1  0  0  0  0
 42 41  1  0  0  0  0
 43 44  1  0  0  0  0
 44  1  1  0  0  0  0
M  END
>  <minimizedAffinity>
-4.63925838

$$$$

 OpenBabel09082221133D

 44 49  0  0  0  0  0  0  0  0999 V2000
    0.8100   -0.7900   -5.4630 C   0  0  0  0  0  0  0  0  0  0  0  0
    1.1360   -1.3250   -6.7000 C   0  0  0  0  0  3  0  0  0  0  0  0
    2.0030   -2.4180   -6.7760 C   0  0  0  0  0  3  0  0  0  0  0  0
    2.5500   -3.0130   -5.6240 C   0  0  0  0  0  0  0  0  0  0  0  0
    2.2400   -2.4570   -4.3540 C   0  0  0  0  0  0  0  0  0  0  0  0
    1.3630   -1.3530   -4.3090 C   0  0  0  0  0  3  0  0  0  0  0  0
    2.7810   -2.9860   -3.0580 C   0  0  0  0  0  0  0  0  0  0  0  0
    1.8360   -2.9940   -1.8800 C   0  0  0  0  0  1  0  0  0  0  0  0
    4.0570   -3.4280   -2.9910 C   0  0  0  0  0  0  0  0  0  0  0  0
    5.0610   -3.2950   -4.0990 C   0  0  0  0  0  2  0  0  0  0  0  0
    4.7050   -4.2060   -5.1770 N   0  0  0  0  0  0  0  0  0  0  0  0
    3.4860   -4.1470   -5.8250 C   0  0  0  0  0  0  0  0  0  0  0  0
    3.4070   -5.2880   -6.6300 C   0  0  0  0  0  0  0  0  0  0  0  0
    4.6900   -5.9450   -6.5620 C   0  0  0  0  0  0  0  0  0  0  0  0
    5.2570   -7.0760   -7.2000 C   0  0  0  0  0  3  0  0  0  0  0  0
    6.5660   -7.4780   -6.9040 C   0  0  0  0  0  3  0  0  0  0  0  0
    7.2980   -6.7870   -5.9470 C   0  0  0  0  0  0  0  0  0  0  0  0
    6.7840   -5.6460   -5.3190 C   0  0  0  0  0  3  0  0  0  0  0  0
    5.4740   -5.2480   -5.6410 C   0  0  0  0  0  0  0  0  0  0  0  0
    8.6780   -7.1930   -5.6230 C   0  0  0  0  0  0  0  0  0  0  0  0
    9.6270   -6.7460   -6.2460 O   0  0  0  0  0  0  0  0  0  0  0  0
    8.8750   -7.9780   -4.4710 N   0  0  0  0  0  0  0  0  0  0  0  0
    8.0240   -9.3610   -4.1250 S   0  0  0  0  0  0  0  0  0  0  0  0
    7.9200  -10.1180   -5.3490 O   0  0  0  0  0  0  0  0  0  0  0  0
    8.6170   -9.9300   -2.9380 O   0  0  0  0  0  0  0  0  0  0  0  0
    6.5250   -8.7500   -3.7200 N   0  0  0  0  0  0  0  0  0  0  0  0
    5.3410   -9.4750   -4.1980 C   0  0  0  0  0  1  0  0  0  0  0  0
    6.3960   -7.9070   -2.5090 C   0  0  0  0  0  2  0  0  0  0  0  0
    5.3860   -8.4410   -1.4940 C   0  0  0  0  0  2  0  0  0  0  0  0
    5.1260   -7.5370   -0.2820 C   0  0  0  0  0  2  0  0  0  0  0  0
    5.1770   -6.0170   -0.4790 C   0  0  0  0  0  2  0  0  0  0  0  0
    4.3420   -5.3790   -1.5010 N   0  0  0  0  0  0  0  0  0  0  0  0
    3.2920   -6.1400   -2.1740 C   0  0  0  0  0  1  0  0  0  0  0  0
    4.6490   -4.0460   -1.7780 C   0  0  0  0  0  0  0  0  0  0  0  0
    5.4780   -3.3960   -1.1420 O   0  0  0  0  0  0  0  0  0  0  0  0
    9.8660   -8.1610   -4.3270 H   0  0  0  0  0  0  0  0  0  0  0  0
    2.1990   -5.7430   -7.4240 C   0  0  0  0  0  3  0  0  0  0  0  0
    2.4300   -5.6950   -8.9430 C   0  0  0  0  0  2  0  0  0  0  0  0
    1.1840   -6.1310   -9.7110 C   0  0  0  0  0  2  0  0  0  0  0  0
    0.6970   -7.5070   -9.2640 C   0  0  0  0  0  2  0  0  0  0  0  0
    0.4590   -7.5560   -7.7570 C   0  0  0  0  0  2  0  0  0  0  0  0
    1.7000   -7.1290   -6.9760 C   0  0  0  0  0  2  0  0  0  0  0  0
    0.5480    1.5730   -5.3960 C   0  0  0  0  0  1  0  0  0  0  0  0
   -0.0160    0.2770   -5.2390 O   0  0  0  0  0  0  0  0  0  0  0  0
  1 44  1  0  0  0  0
  1  6  1  0  0  0  0
  2  1  2  0  0  0  0
  3  2  1  0  0  0  0
  3  4  2  0  0  0  0
  4  5  1  0  0  0  0
  5  6  2  0  0  0  0
  5  7  1  0  0  0  0
  7  9  2  0  0  0  0
  7  8  1  0  0  0  0
  9 34  1  0  0  0  0
 10  9  1  0  0  0  0
 11 10  1  0  0  0  0
 12  4  1  0  0  0  0
 12 11  1  0  0  0  0
 13 14  1  0  0  0  0
 13 12  2  0  0  0  0
 14 19  1  0  0  0  0
 15 16  1  0  0  0  0
 15 14  2  0  0  0  0
 16 17  2  0  0  0  0
 17 20  1  0  0  0  0
 17 18  1  0  0  0  0
 19 18  2  0  0  0  0
 19 11  1  0  0  0  0
 20 22  1  0  0  0  0
 21 20  2  0  0  0  0
 22 36  1  0  0  0  0
 22 23  1  0  0  0  0
 23 26  1  0  0  0  0
 23 25  2  0  0  0  0
 24 23  2  0  0  0  0
 26 28  1  0  0  0  0
 27 26  1  0  0  0  0
 28 29  1  0  0  0  0
 29 30  1  0  0  0  0
 31 30  1  0  0  0  0
 32 31  1  0  0  0  0
 33 32  1  0  0  0  0
 34 32  1  0  0  0  0
 34 35  2  0  0  0  0
 37 42  1  0  0  0  0
 37 13  1  0  0  0  0
 38 37  1  0  0  0  0
 39 40  1  0  0  0  0
 39 38  1  0  0  0  0
 40 41  1  0  0  0  0
 41 42  1  0  0  0  0
 43 44  1  0  0  0  0
M  END
>  <minimizedAffinity>
-4.63358545

$$$$

 OpenBabel09082221133D

 44 49  0  0  0  0  0  0  0  0999 V2000
   -0.4390   -1.0870   -1.4680 C   0  0  0  0  0  0  0  0  0  0  0  0
   -0.1770   -0.8710   -2.8130 C   0  0  0  0  0  3  0  0  0  0  0  0
    0.8030   -1.6290   -3.4580 C   0  0  0  0  0  3  0  0  0  0  0  0
    1.5310   -2.6290   -2.7860 C   0  0  0  0  0  0  0  0  0  0  0  0
    1.2850   -2.8410   -1.4030 C   0  0  0  0  0  0  0  0  0  0  0  0
    0.2910   -2.0600   -0.7780 C   0  0  0  0  0  3  0  0  0  0  0  0
    2.0120   -3.8570   -0.5740 C   0  0  0  0  0  0  0  0  0  0  0  0
    1.1990   -4.6020    0.4590 C   0  0  0  0  0  1  0  0  0  0  0  0
    3.3330   -4.0710   -0.7740 C   0  0  0  0  0  0  0  0  0  0  0  0
    4.1980   -3.2450   -1.6830 C   0  0  0  0  0  2  0  0  0  0  0  0
    3.8470   -3.5350   -3.0660 N   0  0  0  0  0  0  0  0  0  0  0  0
    2.5700   -3.3490   -3.5620 C   0  0  0  0  0  0  0  0  0  0  0  0
    2.5490   -3.9280   -4.8350 C   0  0  0  0  0  0  0  0  0  0  0  0
    3.9020   -4.3230   -5.1440 C   0  0  0  0  0  0  0  0  0  0  0  0
    4.5340   -4.8770   -6.2840 C   0  0  0  0  0  3  0  0  0  0  0  0
    5.9050   -5.1660   -6.2690 C   0  0  0  0  0  3  0  0  0  0  0  0
    6.6410   -4.9440   -5.1120 C   0  0  0  0  0  0  0  0  0  0  0  0
    6.0590   -4.3680   -3.9760 C   0  0  0  0  0  3  0  0  0  0  0  0
    4.6850   -4.0710   -4.0160 C   0  0  0  0  0  0  0  0  0  0  0  0
    8.0850   -5.2400   -5.0760 C   0  0  0  0  0  0  0  0  0  0  0  0
    8.9060   -4.3990   -5.4060 O   0  0  0  0  0  0  0  0  0  0  0  0
    8.4900   -6.4550   -4.4930 N   0  0  0  0  0  0  0  0  0  0  0  0
    7.8500   -7.9370   -4.8800 S   0  0  0  0  0  0  0  0  0  0  0  0
    7.7160   -7.9840   -6.3160 O   0  0  0  0  0  0  0  0  0  0  0  0
    8.6240   -8.9260   -4.1660 O   0  0  0  0  0  0  0  0  0  0  0  0
    6.3370   -7.8530   -4.1830 N   0  0  0  0  0  0  0  0  0  0  0  0
    5.2070   -8.4120   -4.9340 C   0  0  0  0  0  1  0  0  0  0  0  0
    6.2300   -7.7620   -2.7070 C   0  0  0  0  0  2  0  0  0  0  0  0
    5.3980   -8.8830   -2.0840 C   0  0  0  0  0  2  0  0  0  0  0  0
    5.1550   -8.7620   -0.5730 C   0  0  0  0  0  2  0  0  0  0  0  0
    5.0030   -7.3610    0.0330 C   0  0  0  0  0  2  0  0  0  0  0  0
    3.9980   -6.4340   -0.4980 N   0  0  0  0  0  0  0  0  0  0  0  0
    2.9860   -6.9060   -1.4390 C   0  0  0  0  0  1  0  0  0  0  0  0
    4.1140   -5.1130   -0.0620 C   0  0  0  0  0  0  0  0  0  0  0  0
    4.9180   -4.7510    0.7950 O   0  0  0  0  0  0  0  0  0  0  0  0
    9.5050   -6.5300   -4.4870 H   0  0  0  0  0  0  0  0  0  0  0  0
    1.3310   -4.1040   -5.7190 C   0  0  0  0  0  3  0  0  0  0  0  0
    1.3790   -3.2290   -6.9820 C   0  0  0  0  0  2  0  0  0  0  0  0
    0.1230   -3.4090   -7.8330 C   0  0  0  0  0  2  0  0  0  0  0  0
   -0.1190   -4.8760   -8.1790 C   0  0  0  0  0  2  0  0  0  0  0  0
   -0.1750   -5.7460   -6.9270 C   0  0  0  0  0  2  0  0  0  0  0  0
    1.0780   -5.5820   -6.0690 C   0  0  0  0  0  2  0  0  0  0  0  0
   -1.4480   -0.7780    0.6640 C   0  0  0  0  0  1  0  0  0  0  0  0
   -1.3610   -0.4190   -0.7100 O   0  0  0  0  0  0  0  0  0  0  0  0
  1  6  1  0  0  0  0
  1 44  1  0  0  0  0
  2  1  2  0  0  0  0
  3  2  1  0  0  0  0
  3  4  2  0  0  0  0
  4  5  1  0  0  0  0
  5  6  2  0  0  0  0
  5  7  1  0  0  0  0
  7  8  1  0  0  0  0
  9  7  2  0  0  0  0
  9 34  1  0  0  0  0
 10  9  1  0  0  0  0
 11 10  1  0  0  0  0
 12 11  1  0  0  0  0
 12  4  1  0  0  0  0
 13 12  2  0  0  0  0
 14 13  1  0  0  0  0
 14 19  1  0  0  0  0
 15 16  1  0  0  0  0
 15 14  2  0  0  0  0
 16 17  2  0  0  0  0
 17 20  1  0  0  0  0
 17 18  1  0  0  0  0
 19 18  2  0  0  0  0
 19 11  1  0  0  0  0
 20 22  1  0  0  0  0
 21 20  2  0  0  0  0
 22 36  1  0  0  0  0
 23 22  1  0  0  0  0
 23 26  1  0  0  0  0
 23 25  2  0  0  0  0
 24 23  2  0  0  0  0
 26 28  1  0  0  0  0
 27 26  1  0  0  0  0
 28 29  1  0  0  0  0
 29 30  1  0  0  0  0
 30 31  1  0  0  0  0
 32 34  1  0  0  0  0
 32 31  1  0  0  0  0
 33 32  1  0  0  0  0
 34 35  2  0  0  0  0
 37 13  1  0  0  0  0
 38 37  1  0  0  0  0
 39 38  1  0  0  0  0
 40 39  1  0  0  0  0
 40 41  1  0  0  0  0
 41 42  1  0  0  0  0
 42 37  1  0  0  0  0
 44 43  1  0  0  0  0
M  END
>  <minimizedAffinity>
-4.61681271

$$$$

 OpenBabel09082221133D

 44 49  0  0  0  0  0  0  0  0999 V2000
    8.2940   -7.1150   -6.2460 C   0  0  0  0  0  0  0  0  0  0  0  0
    8.1120   -5.9890   -5.4570 C   0  0  0  0  0  3  0  0  0  0  0  0
    6.9000   -5.2960   -5.5070 C   0  0  0  0  0  3  0  0  0  0  0  0
    5.8370   -5.7170   -6.3280 C   0  0  0  0  0  0  0  0  0  0  0  0
    6.0230   -6.8560   -7.1570 C   0  0  0  0  0  0  0  0  0  0  0  0
    7.2580   -7.5340   -7.0860 C   0  0  0  0  0  3  0  0  0  0  0  0
    4.9770   -7.3850   -8.0920 C   0  0  0  0  0  0  0  0  0  0  0  0
    4.8650   -8.8870   -8.2080 C   0  0  0  0  0  1  0  0  0  0  0  0
    4.1890   -6.5260   -8.7780 C   0  0  0  0  0  0  0  0  0  0  0  0
    4.3740   -5.0360   -8.7990 C   0  0  0  0  0  2  0  0  0  0  0  0
    3.9980   -4.4910   -7.5030 N   0  0  0  0  0  0  0  0  0  0  0  0
    4.6090   -4.8850   -6.3270 C   0  0  0  0  0  0  0  0  0  0  0  0
    3.8580   -4.3330   -5.2840 C   0  0  0  0  0  0  0  0  0  0  0  0
    2.8740   -3.4640   -5.8830 C   0  0  0  0  0  0  0  0  0  0  0  0
    1.8940   -2.5790   -5.3700 C   0  0  0  0  0  3  0  0  0  0  0  0
    1.0590   -1.8610   -6.2360 C   0  0  0  0  0  3  0  0  0  0  0  0
    1.1670   -2.0500   -7.6090 C   0  0  0  0  0  0  0  0  0  0  0  0
    2.1450   -2.8920   -8.1550 C   0  0  0  0  0  3  0  0  0  0  0  0
    2.9840   -3.5920   -7.2690 C   0  0  0  0  0  0  0  0  0  0  0  0
    0.3000   -1.3030   -8.5370 C   0  0  0  0  0  0  0  0  0  0  0  0
    0.6300   -0.2070   -8.9600 O   0  0  0  0  0  0  0  0  0  0  0  0
   -0.8330   -1.9640   -9.0490 N   0  0  0  0  0  0  0  0  0  0  0  0
   -1.9470   -2.7670   -8.1170 S   0  0  0  0  0  0  0  0  0  0  0  0
   -2.2110   -1.9450   -6.9600 O   0  0  0  0  0  0  0  0  0  0  0  0
   -3.0110   -3.1810   -9.0010 O   0  0  0  0  0  0  0  0  0  0  0  0
   -1.0940   -4.1230   -7.6520 N   0  0  0  0  0  0  0  0  0  0  0  0
   -1.2560   -4.5910   -6.2710 C   0  0  0  0  0  1  0  0  0  0  0  0
   -0.6820   -5.1020   -8.6860 C   0  0  0  0  0  2  0  0  0  0  0  0
   -1.1980   -6.5170   -8.4310 C   0  0  0  0  0  2  0  0  0  0  0  0
   -0.6940   -7.5900   -9.4060 C   0  0  0  0  0  2  0  0  0  0  0  0
    0.7260   -7.4570   -9.9680 C   0  0  0  0  0  2  0  0  0  0  0  0
    1.8700   -7.3320   -9.0580 N   0  0  0  0  0  0  0  0  0  0  0  0
    1.6990   -7.5650   -7.6260 C   0  0  0  0  0  1  0  0  0  0  0  0
    3.0730   -6.9580   -9.6570 C   0  0  0  0  0  0  0  0  0  0  0  0
    3.2190   -6.8490  -10.8740 O   0  0  0  0  0  0  0  0  0  0  0  0
   -1.3290   -1.3670   -9.7080 H   0  0  0  0  0  0  0  0  0  0  0  0
    4.0480   -4.6000   -3.8040 C   0  0  0  0  0  3  0  0  0  0  0  0
    4.5400   -3.3660   -3.0330 C   0  0  0  0  0  2  0  0  0  0  0  0
    4.7490   -3.6790   -1.5530 C   0  0  0  0  0  2  0  0  0  0  0  0
    3.4930   -4.2700   -0.9180 C   0  0  0  0  0  2  0  0  0  0  0  0
    3.0060   -5.5000   -1.6760 C   0  0  0  0  0  2  0  0  0  0  0  0
    2.7860   -5.2000   -3.1570 C   0  0  0  0  0  2  0  0  0  0  0  0
    9.6860   -8.5530   -7.5300 C   0  0  0  0  0  1  0  0  0  0  0  0
    9.4230   -7.8840   -6.3030 O   0  0  0  0  0  0  0  0  0  0  0  0
  1  2  1  0  0  0  0
  3  2  2  0  0  0  0
  4 12  1  0  0  0  0
  4  3  1  0  0  0  0
  5  6  1  0  0  0  0
  5  4  2  0  0  0  0
  6  1  2  0  0  0  0
  7  5  1  0  0  0  0
  8  7  1  0  0  0  0
  9  7  2  0  0  0  0
 10  9  1  0  0  0  0
 10 11  1  0  0  0  0
 11 19  1  0  0  0  0
 11 12  1  0  0  0  0
 12 13  2  0  0  0  0
 13 37  1  0  0  0  0
 14 15  1  0  0  0  0
 14 13  1  0  0  0  0
 16 15  2  0  0  0  0
 17 16  1  0  0  0  0
 18 17  2  0  0  0  0
 18 19  1  0  0  0  0
 19 14  2  0  0  0  0
 20 17  1  0  0  0  0
 21 20  2  0  0  0  0
 22 20  1  0  0  0  0
 22 23  1  0  0  0  0
 23 26  1  0  0  0  0
 23 24  2  0  0  0  0
 25 23  2  0  0  0  0
 26 27  1  0  0  0  0
 28 29  1  0  0  0  0
 28 26  1  0  0  0  0
 30 29  1  0  0  0  0
 31 30  1  0  0  0  0
 31 32  1  0  0  0  0
 32 33  1  0  0  0  0
 34 32  1  0  0  0  0
 34  9  1  0  0  0  0
 35 34  2  0  0  0  0
 36 22  1  0  0  0  0
 37 42  1  0  0  0  0
 37 38  1  0  0  0  0
 38 39  1  0  0  0  0
 39 40  1  0  0  0  0
 41 40  1  0  0  0  0
 42 41  1  0  0  0  0
 43 44  1  0  0  0  0
 44  1  1  0  0  0  0
M  END
>  <minimizedAffinity>
-4.60856485

$$$$
