REMARK  Name = 
REMARK  6 active torsions:
REMARK  status: ('A' for Active; 'I' for Inactive)
REMARK    1  A    between atoms: C_1  and  O_2
REMARK    2  A    between atoms: O_2  and  C_3
REMARK    3  A    between atoms: C_9  and  C_10
REMARK    4  A    between atoms: C_15  and  C_16
REMARK    5  A    between atoms: N_34  and  C_35
REMARK    6  A    between atoms: N_40  and  C_41
REMARK                            x       y       z     vdW  Elec       q    Type
REMARK                         _______ _______ _______ _____ _____    ______ ____
ROOT
ATOM      1  C   UNL     1       0.193  -0.753  -3.558  0.00  0.00    +0.121 A 
ATOM      2  C   UNL     1       1.281  -1.399  -2.990  0.00  0.00    +0.046 A 
ATOM      3  C   UNL     1       2.299  -1.893  -3.809  0.00  0.00    +0.014 A 
ATOM      4  C   UNL     1       2.267  -1.740  -5.208  0.00  0.00    +0.006 A 
ATOM      5  C   UNL     1       1.145  -1.100  -5.800  0.00  0.00    -0.009 A 
ATOM      6  C   UNL     1       0.132  -0.613  -4.948  0.00  0.00    +0.054 A 
ATOM      7  C   UNL     1       0.984  -0.901  -7.278  0.00  0.00    -0.033 C 
ATOM      8  C   UNL     1       0.375   0.407  -7.726  0.00  0.00    +0.045 C 
ATOM      9  C   UNL     1       1.381  -1.868  -8.136  0.00  0.00    +0.038 C 
ATOM     10  C   UNL     1       1.849  -3.233  -7.719  0.00  0.00    +0.163 C 
ATOM     11  N   UNL     1       3.160  -3.118  -7.097  0.00  0.00    -0.335 N 
ATOM     12  C   UNL     1       3.385  -2.334  -5.981  0.00  0.00    +0.054 A 
ATOM     13  C   UNL     1       4.771  -2.288  -5.800  0.00  0.00    -0.011 A 
ATOM     14  C   UNL     1       5.354  -3.203  -6.751  0.00  0.00    +0.004 A 
ATOM     15  C   UNL     1       6.672  -3.655  -7.008  0.00  0.00    +0.011 A 
ATOM     16  C   UNL     1       6.923  -4.568  -8.040  0.00  0.00    +0.014 A 
ATOM     17  C   UNL     1       5.876  -5.002  -8.844  0.00  0.00    +0.040 A 
ATOM     18  C   UNL     1       4.556  -4.603  -8.601  0.00  0.00    +0.039 A 
ATOM     19  C   UNL     1       4.322  -3.698  -7.550  0.00  0.00    +0.051 A 
ATOM     20  C   UNL     1       6.119  -5.964  -9.934  0.00  0.00    +0.264 C 
ATOM     21  O   UNL     1       6.072  -7.167  -9.732  0.00  0.00    -0.269 OA
ATOM     22  N   UNL     1       6.239  -5.455 -11.241  0.00  0.00    -0.171 N 
ATOM     23  S   UNL     1       7.238  -4.200 -11.668  0.00  0.00    +0.114 S 
ATOM     24  O   UNL     1       8.497  -4.406 -10.993  0.00  0.00    -0.138 OA
ATOM     25  O   UNL     1       7.168  -4.080 -13.105  0.00  0.00    -0.138 OA
ATOM     26  N   UNL     1       6.454  -2.891 -10.994  0.00  0.00    -0.167 NA
ATOM     27  C   UNL     1       7.277  -1.859 -10.352  0.00  0.00    +0.133 C 
ATOM     28  C   UNL     1       5.118  -2.510 -11.510  0.00  0.00    +0.110 C 
ATOM     29  C   UNL     1       5.045  -1.071 -12.019  0.00  0.00    +0.019 C 
ATOM     30  C   UNL     1       3.651  -0.592 -12.447  0.00  0.00    +0.020 C 
ATOM     31  C   UNL     1       2.430  -1.125 -11.688  0.00  0.00    +0.108 C 
ATOM     32  N   UNL     1       2.350  -0.985 -10.230  0.00  0.00    -0.301 N 
ATOM     33  C   UNL     1       3.306  -0.140  -9.519  0.00  0.00    +0.132 C 
ATOM     34  C   UNL     1       1.340  -1.724  -9.613  0.00  0.00    +0.244 C 
ATOM     35  O   UNL     1       0.491  -2.362 -10.234  0.00  0.00    -0.270 OA
ATOM     36  H   UNL     1       6.362  -6.212 -11.911  0.00  0.00    +0.178 HD
ENDROOT
BRANCH  13  37
ATOM     37  C   UNL     1       5.515  -1.436  -4.791  0.00  0.00    +0.022 C 
ATOM     38  C   UNL     1       6.236  -2.271  -3.721  0.00  0.00    +0.008 C 
ATOM     39  C   UNL     1       6.949  -1.380  -2.705  0.00  0.00    +0.001 C 
ATOM     40  C   UNL     1       7.902  -0.400  -3.384  0.00  0.00    +0.000 C 
ATOM     41  C   UNL     1       7.188   0.436  -4.442  0.00  0.00    +0.001 C 
ATOM     42  C   UNL     1       6.476  -0.442  -5.469  0.00  0.00    +0.008 C 
ENDBRANCH  13  37
BRANCH   1  44
ATOM     43  C   UNL     1      -0.870  -0.359  -1.467  0.00  0.00    +0.277 C 
ATOM     44  O   UNL     1      -0.874  -0.227  -2.883  0.00  0.00    -0.495 OA
ENDBRANCH   1  44
TORSDOF 2
