@<TRIPOS>MOLECULE
*****
 43 48 0 0 0
SMALL
GASTEIGER

@<TRIPOS>ATOM
      1 C           0.0000    0.0000    0.0000 C.3     1  UNL11       0.2525
      2 O           0.0000    0.0000    0.0000 O.3     1  UNL11      -0.4714
      3 C           0.0000    0.0000    0.0000 C.ar    1  UNL11       0.1387
      4 C           0.0000    0.0000    0.0000 C.ar    1  UNL11       0.0369
      5 C           0.0000    0.0000    0.0000 C.ar    1  UNL11       0.0045
      6 C           0.0000    0.0000    0.0000 C.ar    1  UNL11       0.0154
      7 C           0.0000    0.0000    0.0000 C.ar    1  UNL11       0.0003
      8 C           0.0000    0.0000    0.0000 C.ar    1  UNL11       0.0366
      9 C           0.0000    0.0000    0.0000 C.2     1  UNL11      -0.0195
     10 C           0.0000    0.0000    0.0000 C.3     1  UNL11       0.0309
     11 C           0.0000    0.0000    0.0000 C.2     1  UNL11       0.0500
     12 C           0.0000    0.0000    0.0000 C.3     1  UNL11       0.1369
     13 N           0.0000    0.0000    0.0000 N.ar    1  UNL11      -0.3231
     14 C           0.0000    0.0000    0.0000 C.ar    1  UNL11       0.0561
     15 C           0.0000    0.0000    0.0000 C.ar    1  UNL11      -0.0053
     16 C           0.0000    0.0000    0.0000 C.3     1  UNL11       0.0238
     17 C           0.0000    0.0000    0.0000 C.3     1  UNL11       0.0044
     18 C           0.0000    0.0000    0.0000 C.3     1  UNL11       0.0003
     19 C           0.0000    0.0000    0.0000 C.3     1  UNL11       0.0000
     20 C           0.0000    0.0000    0.0000 C.3     1  UNL11       0.0003
     21 C           0.0000    0.0000    0.0000 C.3     1  UNL11       0.0044
     22 C           0.0000    0.0000    0.0000 C.ar    1  UNL11       0.0132
     23 C           0.0000    0.0000    0.0000 C.ar    1  UNL11       0.0013
     24 C           0.0000    0.0000    0.0000 C.ar    1  UNL11       0.0047
     25 C           0.0000    0.0000    0.0000 C.ar    1  UNL11       0.0581
     26 C           0.0000    0.0000    0.0000 C.ar    1  UNL11       0.0218
     27 C           0.0000    0.0000    0.0000 C.ar    1  UNL11       0.0600
     28 C           0.0000    0.0000    0.0000 C.2     1  UNL11       0.2867
     29 O           0.0000    0.0000    0.0000 O.2     1  UNL11      -0.2666
     30 N           0.0000    0.0000    0.0000 N.am    1  UNL11      -0.0440
     31 S           0.0000    0.0000    0.0000 S.O2    1  UNL11       0.1354
     32 O           0.0000    0.0000    0.0000 O.2     1  UNL11      -0.1362
     33 O           0.0000    0.0000    0.0000 O.2     1  UNL11      -0.1362
     34 N           0.0000    0.0000    0.0000 N.3     1  UNL11      -0.1397
     35 C           0.0000    0.0000    0.0000 C.3     1  UNL11       0.1164
     36 C           0.0000    0.0000    0.0000 C.3     1  UNL11       0.0973
     37 C           0.0000    0.0000    0.0000 C.3     1  UNL11       0.0210
     38 C           0.0000    0.0000    0.0000 C.3     1  UNL11       0.0230
     39 C           0.0000    0.0000    0.0000 C.3     1  UNL11       0.0938
     40 N           0.0000    0.0000    0.0000 N.am    1  UNL11      -0.2745
     41 C           0.0000    0.0000    0.0000 C.3     1  UNL11       0.1151
     42 C           0.0000    0.0000    0.0000 C.2     1  UNL11       0.2466
     43 O           0.0000    0.0000    0.0000 O.2     1  UNL11      -0.2702
@<TRIPOS>BOND
     1     1     2    1
     2     2     3    1
     3     3     4   ar
     4     4     5   ar
     5     5     6   ar
     6     6     7   ar
     7     7     8   ar
     8     3     8   ar
     9     7     9    1
    10     9    10    1
    11     9    11    2
    12    11    12    1
    13    12    13    1
    14    13    14   ar
    15     6    14    1
    16    14    15   ar
    17    15    16    1
    18    16    17    1
    19    17    18    1
    20    18    19    1
    21    19    20    1
    22    20    21    1
    23    16    21    1
    24    15    22   ar
    25    22    23   ar
    26    23    24   ar
    27    24    25   ar
    28    25    26   ar
    29    26    27   ar
    30    22    27   ar
    31    13    27   ar
    32    25    28    1
    33    28    29    2
    34    28    30   am
    35    30    31    1
    36    31    32    2
    37    31    33    2
    38    31    34    1
    39    34    35    1
    40    34    36    1
    41    36    37    1
    42    37    38    1
    43    38    39    1
    44    39    40    1
    45    40    41    1
    46    40    42   am
    47    11    42    1
    48    42    43    2
