
 OpenBabel09092210413D

 44 49  0  0  0  0  0  0  0  0999 V2000
    0.9420   -4.4770  -13.7680 C   0  0  0  0  0  0  0  0  0  0  0  0
    1.6000   -5.6700  -13.5110 C   0  0  0  0  0  3  0  0  0  0  0  0
    2.1580   -5.8970  -12.2510 C   0  0  0  0  0  3  0  0  0  0  0  0
    2.0590   -4.9510  -11.2130 C   0  0  0  0  0  0  0  0  0  0  0  0
    1.4060   -3.7160  -11.4750 C   0  0  0  0  0  0  0  0  0  0  0  0
    0.8540   -3.5150  -12.7570 C   0  0  0  0  0  3  0  0  0  0  0  0
    1.2590   -2.6210  -10.4600 C   0  0  0  0  0  0  0  0  0  0  0  0
   -0.0490   -1.8660  -10.4580 C   0  0  0  0  0  1  0  0  0  0  0  0
    2.2710   -2.3550   -9.6030 C   0  0  0  0  0  0  0  0  0  0  0  0
    3.6340   -2.9840   -9.6770 C   0  0  0  0  0  2  0  0  0  0  0  0
    3.5370   -4.3800   -9.2760 N   0  0  0  0  0  0  0  0  0  0  0  0
    2.7180   -5.2830   -9.9270 C   0  0  0  0  0  0  0  0  0  0  0  0
    2.7100   -6.4450   -9.1490 C   0  0  0  0  0  0  0  0  0  0  0  0
    3.6790   -6.2580   -8.0970 C   0  0  0  0  0  0  0  0  0  0  0  0
    4.1830   -7.0810   -7.0590 C   0  0  0  0  0  3  0  0  0  0  0  0
    5.1430   -6.5910   -6.1650 C   0  0  0  0  0  3  0  0  0  0  0  0
    5.5740   -5.2740   -6.2710 C   0  0  0  0  0  0  0  0  0  0  0  0
    5.1230   -4.4410   -7.3020 C   0  0  0  0  0  3  0  0  0  0  0  0
    4.1710   -4.9560   -8.2000 C   0  0  0  0  0  0  0  0  0  0  0  0
    6.5850   -4.7400   -5.3410 C   0  0  0  0  0  0  0  0  0  0  0  0
    7.7770   -4.8390   -5.5840 O   0  0  0  0  0  0  0  0  0  0  0  0
    6.1310   -3.9690   -4.2540 N   0  0  0  0  0  0  0  0  0  0  0  0
    4.9260   -4.4370   -3.2130 S   0  0  0  0  0  0  0  0  0  0  0  0
    5.1470   -5.8300   -2.9020 O   0  0  0  0  0  0  0  0  0  0  0  0
    4.8600   -3.4380   -2.1730 O   0  0  0  0  0  0  0  0  0  0  0  0
    3.5680   -4.2900   -4.1690 N   0  0  0  0  0  0  0  0  0  0  0  0
    2.5390   -5.3310   -4.0580 C   0  0  0  0  0  1  0  0  0  0  0  0
    3.1640   -2.9450   -4.6420 C   0  0  0  0  0  2  0  0  0  0  0  0
    1.7440   -2.5530   -4.2350 C   0  0  0  0  0  2  0  0  0  0  0  0
    1.2370   -1.2210   -4.8060 C   0  0  0  0  0  2  0  0  0  0  0  0
    1.7010   -0.8040   -6.2070 C   0  0  0  0  0  2  0  0  0  0  0  0
    1.5020   -1.7040   -7.3480 N   0  0  0  0  0  0  0  0  0  0  0  0
    0.6610   -2.8900   -7.2100 C   0  0  0  0  0  1  0  0  0  0  0  0
    2.1830   -1.3510   -8.5130 C   0  0  0  0  0  0  0  0  0  0  0  0
    2.8170   -0.3040   -8.6370 O   0  0  0  0  0  0  0  0  0  0  0  0
    6.9170   -3.6210   -3.7080 H   0  0  0  0  0  0  0  0  0  0  0  0
    1.8440   -7.6690   -9.3740 C   0  0  0  0  0  3  0  0  0  0  0  0
    2.6580   -8.9120   -9.7650 C   0  0  0  0  0  2  0  0  0  0  0  0
    1.7520  -10.1170  -10.0130 C   0  0  0  0  0  2  0  0  0  0  0  0
    0.8440  -10.3970   -8.8190 C   0  0  0  0  0  2  0  0  0  0  0  0
    0.0290   -9.1660   -8.4320 C   0  0  0  0  0  2  0  0  0  0  0  0
    0.9230   -7.9550   -8.1740 C   0  0  0  0  0  2  0  0  0  0  0  0
    0.1230   -2.7310  -15.1610 C   0  0  0  0  0  1  0  0  0  0  0  0
    0.3560   -4.1180  -14.9510 O   0  0  0  0  0  0  0  0  0  0  0  0
  1  2  2  0  0  0  0
  1  6  1  0  0  0  0
  2  3  1  0  0  0  0
  3  4  2  0  0  0  0
  4 12  1  0  0  0  0
  5  4  1  0  0  0  0
  5  7  1  0  0  0  0
  6  5  2  0  0  0  0
  7  8  1  0  0  0  0
  7  9  2  0  0  0  0
  9 34  1  0  0  0  0
 10  9  1  0  0  0  0
 10 11  1  0  0  0  0
 11 19  1  0  0  0  0
 12 11  1  0  0  0  0
 12 13  2  0  0  0  0
 13 14  1  0  0  0  0
 14 15  1  0  0  0  0
 15 16  2  0  0  0  0
 17 16  1  0  0  0  0
 17 20  1  0  0  0  0
 18 17  2  0  0  0  0
 19 14  2  0  0  0  0
 19 18  1  0  0  0  0
 20 22  1  0  0  0  0
 21 20  2  0  0  0  0
 22 36  1  0  0  0  0
 22 23  1  0  0  0  0
 23 24  2  0  0  0  0
 23 25  2  0  0  0  0
 26 27  1  0  0  0  0
 26 23  1  0  0  0  0
 28 29  1  0  0  0  0
 28 26  1  0  0  0  0
 30 29  1  0  0  0  0
 31 30  1  0  0  0  0
 32 33  1  0  0  0  0
 32 31  1  0  0  0  0
 34 32  1  0  0  0  0
 35 34  2  0  0  0  0
 37 13  1  0  0  0  0
 37 42  1  0  0  0  0
 38 37  1  0  0  0  0
 39 38  1  0  0  0  0
 39 40  1  0  0  0  0
 40 41  1  0  0  0  0
 41 42  1  0  0  0  0
 43 44  1  0  0  0  0
 44  1  1  0  0  0  0
M  END
>  <minimizedAffinity>
-4.7016654

$$$$
