
 OpenBabel09092210413D

 44 49  0  0  0  0  0  0  0  0999 V2000
    6.2110   -4.1190    0.5030 C   0  0  0  0  0  0  0  0  0  0  0  0
    5.2720   -3.2140    0.0310 C   0  0  0  0  0  3  0  0  0  0  0  0
    4.7490   -3.3660   -1.2550 C   0  0  0  0  0  3  0  0  0  0  0  0
    5.1340   -4.4290   -2.0930 C   0  0  0  0  0  0  0  0  0  0  0  0
    6.1130   -5.3470   -1.6260 C   0  0  0  0  0  0  0  0  0  0  0  0
    6.6240   -5.1680   -0.3240 C   0  0  0  0  0  3  0  0  0  0  0  0
    6.6230   -6.5040   -2.4340 C   0  0  0  0  0  0  0  0  0  0  0  0
    6.8830   -7.7920   -1.6890 C   0  0  0  0  0  1  0  0  0  0  0  0
    6.8220   -6.3610   -3.7640 C   0  0  0  0  0  0  0  0  0  0  0  0
    6.7160   -5.0580   -4.5040 C   0  0  0  0  0  2  0  0  0  0  0  0
    5.3170   -4.6650   -4.5780 N   0  0  0  0  0  0  0  0  0  0  0  0
    4.5400   -4.4720   -3.4510 C   0  0  0  0  0  0  0  0  0  0  0  0
    3.2220   -4.3250   -3.8970 C   0  0  0  0  0  0  0  0  0  0  0  0
    3.2650   -4.2760   -5.3380 C   0  0  0  0  0  0  0  0  0  0  0  0
    2.2950   -4.0640   -6.3490 C   0  0  0  0  0  3  0  0  0  0  0  0
    2.6600   -4.0850   -7.7010 C   0  0  0  0  0  3  0  0  0  0  0  0
    3.9760   -4.3570   -8.0550 C   0  0  0  0  0  0  0  0  0  0  0  0
    4.9680   -4.5400   -7.0840 C   0  0  0  0  0  3  0  0  0  0  0  0
    4.5850   -4.4990   -5.7310 C   0  0  0  0  0  0  0  0  0  0  0  0
    4.3800   -4.3820   -9.4720 C   0  0  0  0  0  0  0  0  0  0  0  0
    4.7490   -3.3650  -10.0380 O   0  0  0  0  0  0  0  0  0  0  0  0
    4.4880   -5.6380  -10.0990 N   0  0  0  0  0  0  0  0  0  0  0  0
    3.3080   -6.8060  -10.0630 S   0  0  0  0  0  0  0  0  0  0  0  0
    2.0430   -6.1440  -10.2720 O   0  0  0  0  0  0  0  0  0  0  0  0
    3.7490   -7.8730  -10.9300 O   0  0  0  0  0  0  0  0  0  0  0  0
    3.4020   -7.3400   -8.4850 N   0  0  0  0  0  0  0  0  0  0  0  0
    2.1430   -7.6260   -7.7860 C   0  0  0  0  0  1  0  0  0  0  0  0
    4.6340   -8.0260   -8.0300 C   0  0  0  0  0  2  0  0  0  0  0  0
    4.3870   -9.4290   -7.4780 C   0  0  0  0  0  2  0  0  0  0  0  0
    5.6150  -10.1290   -6.8800 C   0  0  0  0  0  2  0  0  0  0  0  0
    6.6670   -9.2740   -6.1640 C   0  0  0  0  0  2  0  0  0  0  0  0
    6.2720   -8.3900   -5.0620 N   0  0  0  0  0  0  0  0  0  0  0  0
    4.9340   -8.4860   -4.4860 C   0  0  0  0  0  1  0  0  0  0  0  0
    7.2410   -7.4710   -4.6560 C   0  0  0  0  0  0  0  0  0  0  0  0
    8.3910   -7.4610   -5.0930 O   0  0  0  0  0  0  0  0  0  0  0  0
    4.8130   -5.5330  -11.0580 H   0  0  0  0  0  0  0  0  0  0  0  0
    1.9860   -4.2330   -3.0250 C   0  0  0  0  0  3  0  0  0  0  0  0
    1.3480   -2.8350   -3.0400 C   0  0  0  0  0  2  0  0  0  0  0  0
    0.1240   -2.7710   -2.1280 C   0  0  0  0  0  2  0  0  0  0  0  0
   -0.8950   -3.8530   -2.4720 C   0  0  0  0  0  2  0  0  0  0  0  0
   -0.2660   -5.2430   -2.4510 C   0  0  0  0  0  2  0  0  0  0  0  0
    0.9550   -5.3250   -3.3640 C   0  0  0  0  0  2  0  0  0  0  0  0
    6.9980   -2.8130    2.3290 C   0  0  0  0  0  1  0  0  0  0  0  0
    6.8100   -4.0900    1.7330 O   0  0  0  0  0  0  0  0  0  0  0  0
  1 44  1  0  0  0  0
  2  1  1  0  0  0  0
  3  2  2  0  0  0  0
  4  5  2  0  0  0  0
  4  3  1  0  0  0  0
  5  6  1  0  0  0  0
  6  1  2  0  0  0  0
  7  8  1  0  0  0  0
  7  5  1  0  0  0  0
  9  7  2  0  0  0  0
 10  9  1  0  0  0  0
 11 10  1  0  0  0  0
 11 12  1  0  0  0  0
 12  4  1  0  0  0  0
 13 12  2  0  0  0  0
 13 37  1  0  0  0  0
 14 13  1  0  0  0  0
 15 14  2  0  0  0  0
 16 15  1  0  0  0  0
 17 16  2  0  0  0  0
 17 18  1  0  0  0  0
 18 19  2  0  0  0  0
 19 14  1  0  0  0  0
 19 11  1  0  0  0  0
 20 17  1  0  0  0  0
 21 20  2  0  0  0  0
 22 23  1  0  0  0  0
 22 20  1  0  0  0  0
 23 26  1  0  0  0  0
 24 23  2  0  0  0  0
 25 23  2  0  0  0  0
 26 28  1  0  0  0  0
 26 27  1  0  0  0  0
 28 29  1  0  0  0  0
 29 30  1  0  0  0  0
 30 31  1  0  0  0  0
 31 32  1  0  0  0  0
 32 34  1  0  0  0  0
 32 33  1  0  0  0  0
 34  9  1  0  0  0  0
 35 34  2  0  0  0  0
 36 22  1  0  0  0  0
 38 37  1  0  0  0  0
 38 39  1  0  0  0  0
 40 41  1  0  0  0  0
 40 39  1  0  0  0  0
 42 37  1  0  0  0  0
 42 41  1  0  0  0  0
 44 43  1  0  0  0  0
M  END
>  <minimizedAffinity>
-5.08664989

$$$$
