
 OpenBabel09092210413D

 44 49  0  0  0  0  0  0  0  0999 V2000
    4.9370   -4.2120    0.1530 C   0  0  0  0  0  0  0  0  0  0  0  0
    3.7460   -3.7770   -0.4090 C   0  0  0  0  0  3  0  0  0  0  0  0
    3.4680   -4.0580   -1.7490 C   0  0  0  0  0  3  0  0  0  0  0  0
    4.3590   -4.7940   -2.5540 C   0  0  0  0  0  0  0  0  0  0  0  0
    5.5920   -5.2240   -1.9920 C   0  0  0  0  0  0  0  0  0  0  0  0
    5.8450   -4.9230   -0.6370 C   0  0  0  0  0  3  0  0  0  0  0  0
    6.6310   -5.9900   -2.7540 C   0  0  0  0  0  0  0  0  0  0  0  0
    7.3580   -7.0820   -2.0040 C   0  0  0  0  0  1  0  0  0  0  0  0
    6.8750   -5.6910   -4.0500 C   0  0  0  0  0  0  0  0  0  0  0  0
    6.2800   -4.5190   -4.7770 C   0  0  0  0  0  2  0  0  0  0  0  0
    4.8640   -4.7690   -5.0050 N   0  0  0  0  0  0  0  0  0  0  0  0
    3.9770   -5.0040   -3.9710 C   0  0  0  0  0  0  0  0  0  0  0  0
    2.7780   -5.4150   -4.5620 C   0  0  0  0  0  0  0  0  0  0  0  0
    2.9320   -5.2620   -5.9880 C   0  0  0  0  0  0  0  0  0  0  0  0
    2.0700   -5.4280   -7.1000 C   0  0  0  0  0  3  0  0  0  0  0  0
    2.5350   -5.2030   -8.4020 C   0  0  0  0  0  3  0  0  0  0  0  0
    3.8640   -4.8540   -8.6070 C   0  0  0  0  0  0  0  0  0  0  0  0
    4.7380   -4.6490   -7.5320 C   0  0  0  0  0  3  0  0  0  0  0  0
    4.2480   -4.8640   -6.2310 C   0  0  0  0  0  0  0  0  0  0  0  0
    4.3720   -4.6110   -9.9690 C   0  0  0  0  0  0  0  0  0  0  0  0
    4.3100   -3.5010  -10.4730 O   0  0  0  0  0  0  0  0  0  0  0  0
    5.0790   -5.6530  -10.5990 N   0  0  0  0  0  0  0  0  0  0  0  0
    4.5330   -7.2160  -10.7140 S   0  0  0  0  0  0  0  0  0  0  0  0
    3.1320   -7.1570  -11.0560 O   0  0  0  0  0  0  0  0  0  0  0  0
    5.4780   -7.9290  -11.5410 O   0  0  0  0  0  0  0  0  0  0  0  0
    4.7000   -7.7560   -9.1450 N   0  0  0  0  0  0  0  0  0  0  0  0
    3.6330   -8.6040   -8.5980 C   0  0  0  0  0  1  0  0  0  0  0  0
    6.0580   -7.8660   -8.5630 C   0  0  0  0  0  2  0  0  0  0  0  0
    6.3990   -9.2700   -8.0640 C   0  0  0  0  0  2  0  0  0  0  0  0
    7.7460   -9.4040   -7.3400 C   0  0  0  0  0  2  0  0  0  0  0  0
    8.2430   -8.2240   -6.4960 C   0  0  0  0  0  2  0  0  0  0  0  0
    7.3970   -7.6710   -5.4330 N   0  0  0  0  0  0  0  0  0  0  0  0
    6.1880   -8.3750   -5.0150 C   0  0  0  0  0  1  0  0  0  0  0  0
    7.8210   -6.4510   -4.9050 C   0  0  0  0  0  0  0  0  0  0  0  0
    8.8870   -5.9150   -5.2090 O   0  0  0  0  0  0  0  0  0  0  0  0
    5.4150   -5.3570  -11.5130 H   0  0  0  0  0  0  0  0  0  0  0  0
    1.5490   -5.9240   -3.8350 C   0  0  0  0  0  3  0  0  0  0  0  0
    0.3470   -4.9750   -3.9570 C   0  0  0  0  0  2  0  0  0  0  0  0
   -0.8630   -5.5040   -3.1880 C   0  0  0  0  0  2  0  0  0  0  0  0
   -1.2260   -6.9240   -3.6160 C   0  0  0  0  0  2  0  0  0  0  0  0
   -0.0370   -7.8710   -3.4880 C   0  0  0  0  0  2  0  0  0  0  0  0
    1.1780   -7.3580   -4.2580 C   0  0  0  0  0  2  0  0  0  0  0  0
    6.6020   -3.3740    1.6300 C   0  0  0  0  0  1  0  0  0  0  0  0
    5.3410   -4.0050    1.4430 O   0  0  0  0  0  0  0  0  0  0  0  0
  1 44  1  0  0  0  0
  2  1  1  0  0  0  0
  3  2  2  0  0  0  0
  4  5  2  0  0  0  0
  4  3  1  0  0  0  0
  5  6  1  0  0  0  0
  6  1  2  0  0  0  0
  7  8  1  0  0  0  0
  7  5  1  0  0  0  0
  9  7  2  0  0  0  0
 10  9  1  0  0  0  0
 11 10  1  0  0  0  0
 11 12  1  0  0  0  0
 12  4  1  0  0  0  0
 13 12  2  0  0  0  0
 13 37  1  0  0  0  0
 14 13  1  0  0  0  0
 15 14  2  0  0  0  0
 16 15  1  0  0  0  0
 17 16  2  0  0  0  0
 17 18  1  0  0  0  0
 18 19  2  0  0  0  0
 19 14  1  0  0  0  0
 19 11  1  0  0  0  0
 20 17  1  0  0  0  0
 21 20  2  0  0  0  0
 22 20  1  0  0  0  0
 23 22  1  0  0  0  0
 23 26  1  0  0  0  0
 24 23  2  0  0  0  0
 25 23  2  0  0  0  0
 26 27  1  0  0  0  0
 26 28  1  0  0  0  0
 28 29  1  0  0  0  0
 29 30  1  0  0  0  0
 30 31  1  0  0  0  0
 31 32  1  0  0  0  0
 32 33  1  0  0  0  0
 32 34  1  0  0  0  0
 34  9  1  0  0  0  0
 35 34  2  0  0  0  0
 36 22  1  0  0  0  0
 38 37  1  0  0  0  0
 38 39  1  0  0  0  0
 40 41  1  0  0  0  0
 40 39  1  0  0  0  0
 42 37  1  0  0  0  0
 42 41  1  0  0  0  0
 44 43  1  0  0  0  0
M  END
>  <minimizedAffinity>
-4.89082718

$$$$
