
 OpenBabel09082221293D

 44 49  0  0  0  0  0  0  0  0999 V2000
    6.2110   -4.1190    0.5030 C   0  0  0  0  0  0  0  0  0  0  0  0
    5.2720   -3.2140    0.0310 C   0  0  0  0  0  3  0  0  0  0  0  0
    4.7490   -3.3660   -1.2550 C   0  0  0  0  0  3  0  0  0  0  0  0
    5.1340   -4.4290   -2.0930 C   0  0  0  0  0  0  0  0  0  0  0  0
    6.1130   -5.3470   -1.6260 C   0  0  0  0  0  0  0  0  0  0  0  0
    6.6240   -5.1680   -0.3240 C   0  0  0  0  0  3  0  0  0  0  0  0
    6.6230   -6.5040   -2.4340 C   0  0  0  0  0  0  0  0  0  0  0  0
    6.8830   -7.7920   -1.6890 C   0  0  0  0  0  1  0  0  0  0  0  0
    6.8220   -6.3610   -3.7640 C   0  0  0  0  0  0  0  0  0  0  0  0
    6.7160   -5.0580   -4.5040 C   0  0  0  0  0  2  0  0  0  0  0  0
    5.3170   -4.6650   -4.5780 N   0  0  0  0  0  0  0  0  0  0  0  0
    4.5400   -4.4720   -3.4510 C   0  0  0  0  0  0  0  0  0  0  0  0
    3.2220   -4.3250   -3.8970 C   0  0  0  0  0  0  0  0  0  0  0  0
    3.2650   -4.2760   -5.3380 C   0  0  0  0  0  0  0  0  0  0  0  0
    2.2950   -4.0640   -6.3490 C   0  0  0  0  0  3  0  0  0  0  0  0
    2.6600   -4.0850   -7.7010 C   0  0  0  0  0  3  0  0  0  0  0  0
    3.9760   -4.3570   -8.0550 C   0  0  0  0  0  0  0  0  0  0  0  0
    4.9680   -4.5400   -7.0840 C   0  0  0  0  0  3  0  0  0  0  0  0
    4.5850   -4.4990   -5.7310 C   0  0  0  0  0  0  0  0  0  0  0  0
    4.3800   -4.3820   -9.4720 C   0  0  0  0  0  0  0  0  0  0  0  0
    4.7490   -3.3650  -10.0380 O   0  0  0  0  0  0  0  0  0  0  0  0
    4.4880   -5.6380  -10.0990 N   0  0  0  0  0  0  0  0  0  0  0  0
    3.3080   -6.8060  -10.0630 S   0  0  0  0  0  0  0  0  0  0  0  0
    2.0430   -6.1440  -10.2720 O   0  0  0  0  0  0  0  0  0  0  0  0
    3.7490   -7.8730  -10.9300 O   0  0  0  0  0  0  0  0  0  0  0  0
    3.4020   -7.3400   -8.4850 N   0  0  0  0  0  0  0  0  0  0  0  0
    2.1430   -7.6260   -7.7860 C   0  0  0  0  0  1  0  0  0  0  0  0
    4.6340   -8.0260   -8.0300 C   0  0  0  0  0  2  0  0  0  0  0  0
    4.3870   -9.4290   -7.4780 C   0  0  0  0  0  2  0  0  0  0  0  0
    5.6150  -10.1290   -6.8800 C   0  0  0  0  0  2  0  0  0  0  0  0
    6.6670   -9.2740   -6.1640 C   0  0  0  0  0  2  0  0  0  0  0  0
    6.2720   -8.3900   -5.0620 N   0  0  0  0  0  0  0  0  0  0  0  0
    4.9340   -8.4860   -4.4860 C   0  0  0  0  0  1  0  0  0  0  0  0
    7.2410   -7.4710   -4.6560 C   0  0  0  0  0  0  0  0  0  0  0  0
    8.3910   -7.4610   -5.0930 O   0  0  0  0  0  0  0  0  0  0  0  0
    4.8130   -5.5330  -11.0580 H   0  0  0  0  0  0  0  0  0  0  0  0
    1.9860   -4.2330   -3.0250 C   0  0  0  0  0  3  0  0  0  0  0  0
    1.3480   -2.8350   -3.0400 C   0  0  0  0  0  2  0  0  0  0  0  0
    0.1240   -2.7710   -2.1280 C   0  0  0  0  0  2  0  0  0  0  0  0
   -0.8950   -3.8530   -2.4720 C   0  0  0  0  0  2  0  0  0  0  0  0
   -0.2660   -5.2430   -2.4510 C   0  0  0  0  0  2  0  0  0  0  0  0
    0.9550   -5.3250   -3.3640 C   0  0  0  0  0  2  0  0  0  0  0  0
    6.9980   -2.8130    2.3290 C   0  0  0  0  0  1  0  0  0  0  0  0
    6.8100   -4.0900    1.7330 O   0  0  0  0  0  0  0  0  0  0  0  0
  1 44  1  0  0  0  0
  2  1  1  0  0  0  0
  3  2  2  0  0  0  0
  4  5  2  0  0  0  0
  4  3  1  0  0  0  0
  5  6  1  0  0  0  0
  6  1  2  0  0  0  0
  7  8  1  0  0  0  0
  7  5  1  0  0  0  0
  9  7  2  0  0  0  0
 10  9  1  0  0  0  0
 11 10  1  0  0  0  0
 11 12  1  0  0  0  0
 12  4  1  0  0  0  0
 13 12  2  0  0  0  0
 13 37  1  0  0  0  0
 14 13  1  0  0  0  0
 15 14  2  0  0  0  0
 16 15  1  0  0  0  0
 17 16  2  0  0  0  0
 17 18  1  0  0  0  0
 18 19  2  0  0  0  0
 19 14  1  0  0  0  0
 19 11  1  0  0  0  0
 20 17  1  0  0  0  0
 21 20  2  0  0  0  0
 22 23  1  0  0  0  0
 22 20  1  0  0  0  0
 23 26  1  0  0  0  0
 24 23  2  0  0  0  0
 25 23  2  0  0  0  0
 26 28  1  0  0  0  0
 26 27  1  0  0  0  0
 28 29  1  0  0  0  0
 29 30  1  0  0  0  0
 30 31  1  0  0  0  0
 31 32  1  0  0  0  0
 32 34  1  0  0  0  0
 32 33  1  0  0  0  0
 34  9  1  0  0  0  0
 35 34  2  0  0  0  0
 36 22  1  0  0  0  0
 38 37  1  0  0  0  0
 38 39  1  0  0  0  0
 40 41  1  0  0  0  0
 40 39  1  0  0  0  0
 42 37  1  0  0  0  0
 42 41  1  0  0  0  0
 44 43  1  0  0  0  0
M  END
>  <minimizedAffinity>
-5.08664989

$$$$

 OpenBabel09082221293D

 44 49  0  0  0  0  0  0  0  0999 V2000
    4.9370   -4.2120    0.1530 C   0  0  0  0  0  0  0  0  0  0  0  0
    3.7460   -3.7770   -0.4090 C   0  0  0  0  0  3  0  0  0  0  0  0
    3.4680   -4.0580   -1.7490 C   0  0  0  0  0  3  0  0  0  0  0  0
    4.3590   -4.7940   -2.5540 C   0  0  0  0  0  0  0  0  0  0  0  0
    5.5920   -5.2240   -1.9920 C   0  0  0  0  0  0  0  0  0  0  0  0
    5.8450   -4.9230   -0.6370 C   0  0  0  0  0  3  0  0  0  0  0  0
    6.6310   -5.9900   -2.7540 C   0  0  0  0  0  0  0  0  0  0  0  0
    7.3580   -7.0820   -2.0040 C   0  0  0  0  0  1  0  0  0  0  0  0
    6.8750   -5.6910   -4.0500 C   0  0  0  0  0  0  0  0  0  0  0  0
    6.2800   -4.5190   -4.7770 C   0  0  0  0  0  2  0  0  0  0  0  0
    4.8640   -4.7690   -5.0050 N   0  0  0  0  0  0  0  0  0  0  0  0
    3.9770   -5.0040   -3.9710 C   0  0  0  0  0  0  0  0  0  0  0  0
    2.7780   -5.4150   -4.5620 C   0  0  0  0  0  0  0  0  0  0  0  0
    2.9320   -5.2620   -5.9880 C   0  0  0  0  0  0  0  0  0  0  0  0
    2.0700   -5.4280   -7.1000 C   0  0  0  0  0  3  0  0  0  0  0  0
    2.5350   -5.2030   -8.4020 C   0  0  0  0  0  3  0  0  0  0  0  0
    3.8640   -4.8540   -8.6070 C   0  0  0  0  0  0  0  0  0  0  0  0
    4.7380   -4.6490   -7.5320 C   0  0  0  0  0  3  0  0  0  0  0  0
    4.2480   -4.8640   -6.2310 C   0  0  0  0  0  0  0  0  0  0  0  0
    4.3720   -4.6110   -9.9690 C   0  0  0  0  0  0  0  0  0  0  0  0
    4.3100   -3.5010  -10.4730 O   0  0  0  0  0  0  0  0  0  0  0  0
    5.0790   -5.6530  -10.5990 N   0  0  0  0  0  0  0  0  0  0  0  0
    4.5330   -7.2160  -10.7140 S   0  0  0  0  0  0  0  0  0  0  0  0
    3.1320   -7.1570  -11.0560 O   0  0  0  0  0  0  0  0  0  0  0  0
    5.4780   -7.9290  -11.5410 O   0  0  0  0  0  0  0  0  0  0  0  0
    4.7000   -7.7560   -9.1450 N   0  0  0  0  0  0  0  0  0  0  0  0
    3.6330   -8.6040   -8.5980 C   0  0  0  0  0  1  0  0  0  0  0  0
    6.0580   -7.8660   -8.5630 C   0  0  0  0  0  2  0  0  0  0  0  0
    6.3990   -9.2700   -8.0640 C   0  0  0  0  0  2  0  0  0  0  0  0
    7.7460   -9.4040   -7.3400 C   0  0  0  0  0  2  0  0  0  0  0  0
    8.2430   -8.2240   -6.4960 C   0  0  0  0  0  2  0  0  0  0  0  0
    7.3970   -7.6710   -5.4330 N   0  0  0  0  0  0  0  0  0  0  0  0
    6.1880   -8.3750   -5.0150 C   0  0  0  0  0  1  0  0  0  0  0  0
    7.8210   -6.4510   -4.9050 C   0  0  0  0  0  0  0  0  0  0  0  0
    8.8870   -5.9150   -5.2090 O   0  0  0  0  0  0  0  0  0  0  0  0
    5.4150   -5.3570  -11.5130 H   0  0  0  0  0  0  0  0  0  0  0  0
    1.5490   -5.9240   -3.8350 C   0  0  0  0  0  3  0  0  0  0  0  0
    0.3470   -4.9750   -3.9570 C   0  0  0  0  0  2  0  0  0  0  0  0
   -0.8630   -5.5040   -3.1880 C   0  0  0  0  0  2  0  0  0  0  0  0
   -1.2260   -6.9240   -3.6160 C   0  0  0  0  0  2  0  0  0  0  0  0
   -0.0370   -7.8710   -3.4880 C   0  0  0  0  0  2  0  0  0  0  0  0
    1.1780   -7.3580   -4.2580 C   0  0  0  0  0  2  0  0  0  0  0  0
    6.6020   -3.3740    1.6300 C   0  0  0  0  0  1  0  0  0  0  0  0
    5.3410   -4.0050    1.4430 O   0  0  0  0  0  0  0  0  0  0  0  0
  1 44  1  0  0  0  0
  2  1  1  0  0  0  0
  3  2  2  0  0  0  0
  4  5  2  0  0  0  0
  4  3  1  0  0  0  0
  5  6  1  0  0  0  0
  6  1  2  0  0  0  0
  7  8  1  0  0  0  0
  7  5  1  0  0  0  0
  9  7  2  0  0  0  0
 10  9  1  0  0  0  0
 11 10  1  0  0  0  0
 11 12  1  0  0  0  0
 12  4  1  0  0  0  0
 13 12  2  0  0  0  0
 13 37  1  0  0  0  0
 14 13  1  0  0  0  0
 15 14  2  0  0  0  0
 16 15  1  0  0  0  0
 17 16  2  0  0  0  0
 17 18  1  0  0  0  0
 18 19  2  0  0  0  0
 19 14  1  0  0  0  0
 19 11  1  0  0  0  0
 20 17  1  0  0  0  0
 21 20  2  0  0  0  0
 22 20  1  0  0  0  0
 23 22  1  0  0  0  0
 23 26  1  0  0  0  0
 24 23  2  0  0  0  0
 25 23  2  0  0  0  0
 26 27  1  0  0  0  0
 26 28  1  0  0  0  0
 28 29  1  0  0  0  0
 29 30  1  0  0  0  0
 30 31  1  0  0  0  0
 31 32  1  0  0  0  0
 32 33  1  0  0  0  0
 32 34  1  0  0  0  0
 34  9  1  0  0  0  0
 35 34  2  0  0  0  0
 36 22  1  0  0  0  0
 38 37  1  0  0  0  0
 38 39  1  0  0  0  0
 40 41  1  0  0  0  0
 40 39  1  0  0  0  0
 42 37  1  0  0  0  0
 42 41  1  0  0  0  0
 44 43  1  0  0  0  0
M  END
>  <minimizedAffinity>
-4.89082718

$$$$

 OpenBabel09082221293D

 44 49  0  0  0  0  0  0  0  0999 V2000
    2.6810   -3.7610   -9.9810 C   0  0  0  0  0  0  0  0  0  0  0  0
    3.9950   -4.0470   -9.6430 C   0  0  0  0  0  3  0  0  0  0  0  0
    4.3340   -4.2740   -8.3070 C   0  0  0  0  0  3  0  0  0  0  0  0
    3.3710   -4.2390   -7.2800 C   0  0  0  0  0  0  0  0  0  0  0  0
    2.0270   -3.9230   -7.6140 C   0  0  0  0  0  0  0  0  0  0  0  0
    1.7150   -3.6980   -8.9710 C   0  0  0  0  0  3  0  0  0  0  0  0
    0.9190   -3.8300   -6.6080 C   0  0  0  0  0  0  0  0  0  0  0  0
   -0.4300   -4.3650   -7.0300 C   0  0  0  0  0  1  0  0  0  0  0  0
    1.1560   -3.2910   -5.3910 C   0  0  0  0  0  0  0  0  0  0  0  0
    2.4400   -2.6180   -4.9960 C   0  0  0  0  0  2  0  0  0  0  0  0
    3.4820   -3.6250   -4.8560 N   0  0  0  0  0  0  0  0  0  0  0  0
    3.8500   -4.4610   -5.8940 C   0  0  0  0  0  0  0  0  0  0  0  0
    4.7020   -5.4250   -5.3450 C   0  0  0  0  0  0  0  0  0  0  0  0
    4.9560   -5.0380   -3.9790 C   0  0  0  0  0  0  0  0  0  0  0  0
    5.7820   -5.5460   -2.9450 C   0  0  0  0  0  3  0  0  0  0  0  0
    5.8020   -4.9350   -1.6850 C   0  0  0  0  0  3  0  0  0  0  0  0
    4.9740   -3.8470   -1.4350 C   0  0  0  0  0  0  0  0  0  0  0  0
    4.1680   -3.2980   -2.4400 C   0  0  0  0  0  3  0  0  0  0  0  0
    4.1740   -3.9160   -3.7030 C   0  0  0  0  0  0  0  0  0  0  0  0
    4.9810   -3.1890   -0.1160 C   0  0  0  0  0  0  0  0  0  0  0  0
    5.7570   -2.2780    0.1270 O   0  0  0  0  0  0  0  0  0  0  0  0
    3.9590   -3.5280    0.7900 N   0  0  0  0  0  0  0  0  0  0  0  0
    3.5420   -5.0850    1.1900 S   0  0  0  0  0  0  0  0  0  0  0  0
    4.7690   -5.8220    1.3760 O   0  0  0  0  0  0  0  0  0  0  0  0
    2.5540   -4.9960    2.2390 O   0  0  0  0  0  0  0  0  0  0  0  0
    2.7850   -5.6070   -0.2010 N   0  0  0  0  0  0  0  0  0  0  0  0
    3.0530   -6.9790   -0.6500 C   0  0  0  0  0  1  0  0  0  0  0  0
    1.5140   -4.9650   -0.6120 C   0  0  0  0  0  2  0  0  0  0  0  0
    0.3510   -5.9440   -0.7590 C   0  0  0  0  0  2  0  0  0  0  0  0
   -0.9530   -5.3450   -1.3040 C   0  0  0  0  0  2  0  0  0  0  0  0
   -0.8620   -4.2120   -2.3330 C   0  0  0  0  0  2  0  0  0  0  0  0
   -0.0900   -4.3970   -3.5670 N   0  0  0  0  0  0  0  0  0  0  0  0
    0.3990   -5.7230   -3.9360 C   0  0  0  0  0  1  0  0  0  0  0  0
    0.1460   -3.2360   -4.3040 C   0  0  0  0  0  0  0  0  0  0  0  0
   -0.3450   -2.1440   -4.0250 O   0  0  0  0  0  0  0  0  0  0  0  0
    4.0420   -2.9830    1.6460 H   0  0  0  0  0  0  0  0  0  0  0  0
    5.2530   -6.6440   -6.0580 C   0  0  0  0  0  3  0  0  0  0  0  0
    6.7770   -6.5860   -6.2490 C   0  0  0  0  0  2  0  0  0  0  0  0
    7.2920   -7.8140   -6.9970 C   0  0  0  0  0  2  0  0  0  0  0  0
    6.8640   -9.1110   -6.3150 C   0  0  0  0  0  2  0  0  0  0  0  0
    5.3510   -9.1750   -6.1310 C   0  0  0  0  0  2  0  0  0  0  0  0
    4.8220   -7.9560   -5.3790 C   0  0  0  0  0  2  0  0  0  0  0  0
    1.3650   -2.3790  -11.4010 C   0  0  0  0  0  1  0  0  0  0  0  0
    2.2080   -3.5120  -11.2400 O   0  0  0  0  0  0  0  0  0  0  0  0
  1  2  2  0  0  0  0
  1  6  1  0  0  0  0
  2  3  1  0  0  0  0
  3  4  2  0  0  0  0
  4 12  1  0  0  0  0
  5  4  1  0  0  0  0
  5  7  1  0  0  0  0
  6  5  2  0  0  0  0
  7  9  2  0  0  0  0
  8  7  1  0  0  0  0
  9 10  1  0  0  0  0
  9 34  1  0  0  0  0
 10 11  1  0  0  0  0
 11 19  1  0  0  0  0
 12 13  2  0  0  0  0
 12 11  1  0  0  0  0
 13 14  1  0  0  0  0
 14 19  2  0  0  0  0
 14 15  1  0  0  0  0
 15 16  2  0  0  0  0
 16 17  1  0  0  0  0
 17 20  1  0  0  0  0
 18 17  2  0  0  0  0
 19 18  1  0  0  0  0
 20 21  2  0  0  0  0
 20 22  1  0  0  0  0
 22 23  1  0  0  0  0
 22 36  1  0  0  0  0
 23 24  2  0  0  0  0
 23 25  2  0  0  0  0
 26 23  1  0  0  0  0
 27 26  1  0  0  0  0
 28 26  1  0  0  0  0
 29 28  1  0  0  0  0
 30 29  1  0  0  0  0
 31 30  1  0  0  0  0
 32 31  1  0  0  0  0
 33 32  1  0  0  0  0
 34 35  2  0  0  0  0
 34 32  1  0  0  0  0
 37 42  1  0  0  0  0
 37 13  1  0  0  0  0
 38 37  1  0  0  0  0
 39 40  1  0  0  0  0
 39 38  1  0  0  0  0
 40 41  1  0  0  0  0
 41 42  1  0  0  0  0
 43 44  1  0  0  0  0
 44  1  1  0  0  0  0
M  END
>  <minimizedAffinity>
-4.84143209

$$$$

 OpenBabel09082221293D

 44 49  0  0  0  0  0  0  0  0999 V2000
    8.8470   -7.8650   -6.9120 C   0  0  0  0  0  0  0  0  0  0  0  0
    9.0060   -7.1710   -5.7220 C   0  0  0  0  0  3  0  0  0  0  0  0
    7.9200   -6.4940   -5.1630 C   0  0  0  0  0  3  0  0  0  0  0  0
    6.6480   -6.5060   -5.7650 C   0  0  0  0  0  0  0  0  0  0  0  0
    6.4810   -7.1960   -6.9960 C   0  0  0  0  0  0  0  0  0  0  0  0
    7.5960   -7.8690   -7.5370 C   0  0  0  0  0  3  0  0  0  0  0  0
    5.1830   -7.2590   -7.7460 C   0  0  0  0  0  0  0  0  0  0  0  0
    4.8480   -8.5710   -8.4160 C   0  0  0  0  0  1  0  0  0  0  0  0
    4.3770   -6.1740   -7.7930 C   0  0  0  0  0  0  0  0  0  0  0  0
    4.7490   -4.8170   -7.2660 C   0  0  0  0  0  2  0  0  0  0  0  0
    4.7640   -4.8580   -5.8110 N   0  0  0  0  0  0  0  0  0  0  0  0
    5.5760   -5.7240   -5.1020 C   0  0  0  0  0  0  0  0  0  0  0  0
    5.1710   -5.6440   -3.7660 C   0  0  0  0  0  0  0  0  0  0  0  0
    4.1990   -4.5820   -3.6790 C   0  0  0  0  0  0  0  0  0  0  0  0
    3.4930   -3.9720   -2.6130 C   0  0  0  0  0  3  0  0  0  0  0  0
    2.5820   -2.9380   -2.8610 C   0  0  0  0  0  3  0  0  0  0  0  0
    2.3380   -2.5350   -4.1690 C   0  0  0  0  0  0  0  0  0  0  0  0
    3.0390   -3.0920   -5.2460 C   0  0  0  0  0  3  0  0  0  0  0  0
    3.9620   -4.1180   -4.9740 C   0  0  0  0  0  0  0  0  0  0  0  0
    1.3850   -1.4480   -4.4510 C   0  0  0  0  0  0  0  0  0  0  0  0
    1.7490   -0.2830   -4.4730 O   0  0  0  0  0  0  0  0  0  0  0  0
    0.0850   -1.8060   -4.8590 N   0  0  0  0  0  0  0  0  0  0  0  0
   -0.8750   -2.9010   -4.0630 S   0  0  0  0  0  0  0  0  0  0  0  0
   -0.7480   -2.6350   -2.6500 O   0  0  0  0  0  0  0  0  0  0  0  0
   -2.1620   -2.8810   -4.7170 O   0  0  0  0  0  0  0  0  0  0  0  0
   -0.1250   -4.3460   -4.4260 N   0  0  0  0  0  0  0  0  0  0  0  0
   -0.0180   -5.3470   -3.3580 C   0  0  0  0  0  1  0  0  0  0  0  0
   -0.1020   -4.8090   -5.8340 C   0  0  0  0  0  2  0  0  0  0  0  0
   -0.7270   -6.1880   -6.0360 C   0  0  0  0  0  2  0  0  0  0  0  0
   -0.6130   -6.7630   -7.4540 C   0  0  0  0  0  2  0  0  0  0  0  0
    0.6400   -6.4400   -8.2760 C   0  0  0  0  0  2  0  0  0  0  0  0
    1.9720   -6.7340   -7.7360 N   0  0  0  0  0  0  0  0  0  0  0  0
    2.1130   -7.5440   -6.5280 C   0  0  0  0  0  1  0  0  0  0  0  0
    3.0390   -6.1710   -8.4360 C   0  0  0  0  0  0  0  0  0  0  0  0
    2.9080   -5.5640   -9.4980 O   0  0  0  0  0  0  0  0  0  0  0  0
   -0.4680   -0.9760   -5.0650 H   0  0  0  0  0  0  0  0  0  0  0  0
    5.6660   -6.5130   -2.6260 C   0  0  0  0  0  3  0  0  0  0  0  0
    6.3590   -5.7050   -1.5180 C   0  0  0  0  0  2  0  0  0  0  0  0
    6.8710   -6.6140   -0.4020 C   0  0  0  0  0  2  0  0  0  0  0  0
    5.7610   -7.4970    0.1620 C   0  0  0  0  0  2  0  0  0  0  0  0
    5.0750   -8.3060   -0.9350 C   0  0  0  0  0  2  0  0  0  0  0  0
    4.5520   -7.4090   -2.0550 C   0  0  0  0  0  2  0  0  0  0  0  0
   11.1690   -8.2410   -7.2650 C   0  0  0  0  0  1  0  0  0  0  0  0
    9.8180   -8.5650   -7.5730 O   0  0  0  0  0  0  0  0  0  0  0  0
  1  2  1  0  0  0  0
  2  3  2  0  0  0  0
  4  3  1  0  0  0  0
  4 12  1  0  0  0  0
  5  4  2  0  0  0  0
  6  5  1  0  0  0  0
  6  1  2  0  0  0  0
  7  5  1  0  0  0  0
  8  7  1  0  0  0  0
  9  7  2  0  0  0  0
  9 10  1  0  0  0  0
 10 11  1  0  0  0  0
 11 12  1  0  0  0  0
 11 19  1  0  0  0  0
 12 13  2  0  0  0  0
 13 14  1  0  0  0  0
 13 37  1  0  0  0  0
 14 15  1  0  0  0  0
 16 15  2  0  0  0  0
 17 16  1  0  0  0  0
 18 19  1  0  0  0  0
 18 17  2  0  0  0  0
 19 14  2  0  0  0  0
 20 17  1  0  0  0  0
 21 20  2  0  0  0  0
 22 20  1  0  0  0  0
 22 23  1  0  0  0  0
 23 24  2  0  0  0  0
 25 23  2  0  0  0  0
 26 23  1  0  0  0  0
 26 27  1  0  0  0  0
 28 26  1  0  0  0  0
 29 28  1  0  0  0  0
 30 29  1  0  0  0  0
 31 32  1  0  0  0  0
 31 30  1  0  0  0  0
 32 33  1  0  0  0  0
 34  9  1  0  0  0  0
 34 32  1  0  0  0  0
 35 34  2  0  0  0  0
 36 22  1  0  0  0  0
 37 42  1  0  0  0  0
 37 38  1  0  0  0  0
 38 39  1  0  0  0  0
 39 40  1  0  0  0  0
 41 40  1  0  0  0  0
 42 41  1  0  0  0  0
 44 43  1  0  0  0  0
 44  1  1  0  0  0  0
M  END
>  <minimizedAffinity>
-4.78889418

$$$$

 OpenBabel09082221293D

 44 49  0  0  0  0  0  0  0  0999 V2000
    6.3830   -5.5060    0.7970 C   0  0  0  0  0  0  0  0  0  0  0  0
    5.2830   -4.7770    1.2240 C   0  0  0  0  0  3  0  0  0  0  0  0
    4.3450   -4.3260    0.2920 C   0  0  0  0  0  3  0  0  0  0  0  0
    4.4710   -4.6050   -1.0830 C   0  0  0  0  0  0  0  0  0  0  0  0
    5.6070   -5.3300   -1.5320 C   0  0  0  0  0  0  0  0  0  0  0  0
    6.5380   -5.7710   -0.5680 C   0  0  0  0  0  3  0  0  0  0  0  0
    5.8660   -5.6660   -2.9710 C   0  0  0  0  0  0  0  0  0  0  0  0
    6.4540   -7.0270   -3.2570 C   0  0  0  0  0  1  0  0  0  0  0  0
    5.5680   -4.7670   -3.9370 C   0  0  0  0  0  0  0  0  0  0  0  0
    5.1240   -3.3560   -3.6760 C   0  0  0  0  0  2  0  0  0  0  0  0
    3.7690   -3.3730   -3.1450 N   0  0  0  0  0  0  0  0  0  0  0  0
    3.4350   -4.0470   -1.9850 C   0  0  0  0  0  0  0  0  0  0  0  0
    2.0390   -4.0320   -1.9050 C   0  0  0  0  0  0  0  0  0  0  0  0
    1.5600   -3.1880   -2.9720 C   0  0  0  0  0  0  0  0  0  0  0  0
    0.2820   -2.7190   -3.3650 C   0  0  0  0  0  3  0  0  0  0  0  0
    0.1410   -1.8940   -4.4880 C   0  0  0  0  0  3  0  0  0  0  0  0
    1.2580   -1.5680   -5.2470 C   0  0  0  0  0  0  0  0  0  0  0  0
    2.5410   -1.9850   -4.8720 C   0  0  0  0  0  3  0  0  0  0  0  0
    2.6650   -2.7990   -3.7320 C   0  0  0  0  0  0  0  0  0  0  0  0
    1.1310   -0.7000   -6.4310 C   0  0  0  0  0  0  0  0  0  0  0  0
    1.2090    0.5140   -6.3310 O   0  0  0  0  0  0  0  0  0  0  0  0
    1.0850   -1.3190   -7.6940 N   0  0  0  0  0  0  0  0  0  0  0  0
    0.0710   -2.5750   -8.0840 S   0  0  0  0  0  0  0  0  0  0  0  0
   -1.2240   -2.2700   -7.5250 O   0  0  0  0  0  0  0  0  0  0  0  0
    0.2390   -2.8250   -9.4960 O   0  0  0  0  0  0  0  0  0  0  0  0
    0.7550   -3.8430   -7.2420 N   0  0  0  0  0  0  0  0  0  0  0  0
   -0.1510   -4.7870   -6.5760 C   0  0  0  0  0  1  0  0  0  0  0  0
    2.1090   -4.3110   -7.6220 C   0  0  0  0  0  2  0  0  0  0  0  0
    2.1630   -5.7910   -7.9980 C   0  0  0  0  0  2  0  0  0  0  0  0
    3.5640   -6.3510   -8.2770 C   0  0  0  0  0  2  0  0  0  0  0  0
    4.7470   -5.7910   -7.4790 C   0  0  0  0  0  2  0  0  0  0  0  0
    4.7180   -5.8030   -6.0120 N   0  0  0  0  0  0  0  0  0  0  0  0
    3.6820   -6.5500   -5.3040 C   0  0  0  0  0  1  0  0  0  0  0  0
    5.7090   -5.0440   -5.3880 C   0  0  0  0  0  0  0  0  0  0  0  0
    6.6240   -4.4910   -5.9970 O   0  0  0  0  0  0  0  0  0  0  0  0
    1.0390   -0.6220   -8.4350 H   0  0  0  0  0  0  0  0  0  0  0  0
    1.1920   -4.7670   -0.8840 C   0  0  0  0  0  3  0  0  0  0  0  0
    0.4580   -3.8170    0.0760 C   0  0  0  0  0  2  0  0  0  0  0  0
   -0.3600   -4.5920    1.1090 C   0  0  0  0  0  2  0  0  0  0  0  0
   -1.3240   -5.5710    0.4460 C   0  0  0  0  0  2  0  0  0  0  0  0
   -0.5980   -6.5200   -0.5020 C   0  0  0  0  0  2  0  0  0  0  0  0
    0.2190   -5.7600   -1.5450 C   0  0  0  0  0  2  0  0  0  0  0  0
    7.6680   -7.3900    1.4720 C   0  0  0  0  0  1  0  0  0  0  0  0
    7.3780   -6.0030    1.5920 O   0  0  0  0  0  0  0  0  0  0  0  0
  1  2  1  0  0  0  0
  1 44  1  0  0  0  0
  3  2  2  0  0  0  0
  4  3  1  0  0  0  0
  5  4  2  0  0  0  0
  5  6  1  0  0  0  0
  6  1  2  0  0  0  0
  7  5  1  0  0  0  0
  8  7  1  0  0  0  0
  9 10  1  0  0  0  0
  9  7  2  0  0  0  0
 10 11  1  0  0  0  0
 11 12  1  0  0  0  0
 12 13  2  0  0  0  0
 12  4  1  0  0  0  0
 13 37  1  0  0  0  0
 14 13  1  0  0  0  0
 15 14  1  0  0  0  0
 16 15  2  0  0  0  0
 17 18  2  0  0  0  0
 17 16  1  0  0  0  0
 18 19  1  0  0  0  0
 19 11  1  0  0  0  0
 19 14  2  0  0  0  0
 20 21  2  0  0  0  0
 20 17  1  0  0  0  0
 22 20  1  0  0  0  0
 23 22  1  0  0  0  0
 23 24  2  0  0  0  0
 23 26  1  0  0  0  0
 25 23  2  0  0  0  0
 26 27  1  0  0  0  0
 28 26  1  0  0  0  0
 29 28  1  0  0  0  0
 30 29  1  0  0  0  0
 30 31  1  0  0  0  0
 31 32  1  0  0  0  0
 32 34  1  0  0  0  0
 32 33  1  0  0  0  0
 34  9  1  0  0  0  0
 35 34  2  0  0  0  0
 36 22  1  0  0  0  0
 37 38  1  0  0  0  0
 38 39  1  0  0  0  0
 40 39  1  0  0  0  0
 41 40  1  0  0  0  0
 42 37  1  0  0  0  0
 42 41  1  0  0  0  0
 43 44  1  0  0  0  0
M  END
>  <minimizedAffinity>
-4.73828697

$$$$

 OpenBabel09082221293D

 44 49  0  0  0  0  0  0  0  0999 V2000
    0.9420   -4.4770  -13.7680 C   0  0  0  0  0  0  0  0  0  0  0  0
    1.6000   -5.6700  -13.5110 C   0  0  0  0  0  3  0  0  0  0  0  0
    2.1580   -5.8970  -12.2510 C   0  0  0  0  0  3  0  0  0  0  0  0
    2.0590   -4.9510  -11.2130 C   0  0  0  0  0  0  0  0  0  0  0  0
    1.4060   -3.7160  -11.4750 C   0  0  0  0  0  0  0  0  0  0  0  0
    0.8540   -3.5150  -12.7570 C   0  0  0  0  0  3  0  0  0  0  0  0
    1.2590   -2.6210  -10.4600 C   0  0  0  0  0  0  0  0  0  0  0  0
   -0.0490   -1.8660  -10.4580 C   0  0  0  0  0  1  0  0  0  0  0  0
    2.2710   -2.3550   -9.6030 C   0  0  0  0  0  0  0  0  0  0  0  0
    3.6340   -2.9840   -9.6770 C   0  0  0  0  0  2  0  0  0  0  0  0
    3.5370   -4.3800   -9.2760 N   0  0  0  0  0  0  0  0  0  0  0  0
    2.7180   -5.2830   -9.9270 C   0  0  0  0  0  0  0  0  0  0  0  0
    2.7100   -6.4450   -9.1490 C   0  0  0  0  0  0  0  0  0  0  0  0
    3.6790   -6.2580   -8.0970 C   0  0  0  0  0  0  0  0  0  0  0  0
    4.1830   -7.0810   -7.0590 C   0  0  0  0  0  3  0  0  0  0  0  0
    5.1430   -6.5910   -6.1650 C   0  0  0  0  0  3  0  0  0  0  0  0
    5.5740   -5.2740   -6.2710 C   0  0  0  0  0  0  0  0  0  0  0  0
    5.1230   -4.4410   -7.3020 C   0  0  0  0  0  3  0  0  0  0  0  0
    4.1710   -4.9560   -8.2000 C   0  0  0  0  0  0  0  0  0  0  0  0
    6.5850   -4.7400   -5.3410 C   0  0  0  0  0  0  0  0  0  0  0  0
    7.7770   -4.8390   -5.5840 O   0  0  0  0  0  0  0  0  0  0  0  0
    6.1310   -3.9690   -4.2540 N   0  0  0  0  0  0  0  0  0  0  0  0
    4.9260   -4.4370   -3.2130 S   0  0  0  0  0  0  0  0  0  0  0  0
    5.1470   -5.8300   -2.9020 O   0  0  0  0  0  0  0  0  0  0  0  0
    4.8600   -3.4380   -2.1730 O   0  0  0  0  0  0  0  0  0  0  0  0
    3.5680   -4.2900   -4.1690 N   0  0  0  0  0  0  0  0  0  0  0  0
    2.5390   -5.3310   -4.0580 C   0  0  0  0  0  1  0  0  0  0  0  0
    3.1640   -2.9450   -4.6420 C   0  0  0  0  0  2  0  0  0  0  0  0
    1.7440   -2.5530   -4.2350 C   0  0  0  0  0  2  0  0  0  0  0  0
    1.2370   -1.2210   -4.8060 C   0  0  0  0  0  2  0  0  0  0  0  0
    1.7010   -0.8040   -6.2070 C   0  0  0  0  0  2  0  0  0  0  0  0
    1.5020   -1.7040   -7.3480 N   0  0  0  0  0  0  0  0  0  0  0  0
    0.6610   -2.8900   -7.2100 C   0  0  0  0  0  1  0  0  0  0  0  0
    2.1830   -1.3510   -8.5130 C   0  0  0  0  0  0  0  0  0  0  0  0
    2.8170   -0.3040   -8.6370 O   0  0  0  0  0  0  0  0  0  0  0  0
    6.9170   -3.6210   -3.7080 H   0  0  0  0  0  0  0  0  0  0  0  0
    1.8440   -7.6690   -9.3740 C   0  0  0  0  0  3  0  0  0  0  0  0
    2.6580   -8.9120   -9.7650 C   0  0  0  0  0  2  0  0  0  0  0  0
    1.7520  -10.1170  -10.0130 C   0  0  0  0  0  2  0  0  0  0  0  0
    0.8440  -10.3970   -8.8190 C   0  0  0  0  0  2  0  0  0  0  0  0
    0.0290   -9.1660   -8.4320 C   0  0  0  0  0  2  0  0  0  0  0  0
    0.9230   -7.9550   -8.1740 C   0  0  0  0  0  2  0  0  0  0  0  0
    0.1230   -2.7310  -15.1610 C   0  0  0  0  0  1  0  0  0  0  0  0
    0.3560   -4.1180  -14.9510 O   0  0  0  0  0  0  0  0  0  0  0  0
  1  2  2  0  0  0  0
  1  6  1  0  0  0  0
  2  3  1  0  0  0  0
  3  4  2  0  0  0  0
  4 12  1  0  0  0  0
  5  4  1  0  0  0  0
  5  7  1  0  0  0  0
  6  5  2  0  0  0  0
  7  8  1  0  0  0  0
  7  9  2  0  0  0  0
  9 34  1  0  0  0  0
 10  9  1  0  0  0  0
 10 11  1  0  0  0  0
 11 19  1  0  0  0  0
 12 11  1  0  0  0  0
 12 13  2  0  0  0  0
 13 14  1  0  0  0  0
 14 15  1  0  0  0  0
 15 16  2  0  0  0  0
 17 16  1  0  0  0  0
 17 20  1  0  0  0  0
 18 17  2  0  0  0  0
 19 14  2  0  0  0  0
 19 18  1  0  0  0  0
 20 22  1  0  0  0  0
 21 20  2  0  0  0  0
 22 36  1  0  0  0  0
 22 23  1  0  0  0  0
 23 24  2  0  0  0  0
 23 25  2  0  0  0  0
 26 27  1  0  0  0  0
 26 23  1  0  0  0  0
 28 29  1  0  0  0  0
 28 26  1  0  0  0  0
 30 29  1  0  0  0  0
 31 30  1  0  0  0  0
 32 33  1  0  0  0  0
 32 31  1  0  0  0  0
 34 32  1  0  0  0  0
 35 34  2  0  0  0  0
 37 13  1  0  0  0  0
 37 42  1  0  0  0  0
 38 37  1  0  0  0  0
 39 38  1  0  0  0  0
 39 40  1  0  0  0  0
 40 41  1  0  0  0  0
 41 42  1  0  0  0  0
 43 44  1  0  0  0  0
 44  1  1  0  0  0  0
M  END
>  <minimizedAffinity>
-4.7016654

$$$$

 OpenBabel09082221293D

 44 49  0  0  0  0  0  0  0  0999 V2000
   -0.4740   -1.5410   -0.8220 C   0  0  0  0  0  0  0  0  0  0  0  0
   -0.3360   -1.2680   -2.1750 C   0  0  0  0  0  3  0  0  0  0  0  0
    0.6450   -1.9280   -2.9190 C   0  0  0  0  0  3  0  0  0  0  0  0
    1.4970   -2.8870   -2.3390 C   0  0  0  0  0  0  0  0  0  0  0  0
    1.3770   -3.1560   -0.9490 C   0  0  0  0  0  0  0  0  0  0  0  0
    0.3790   -2.4720   -0.2240 C   0  0  0  0  0  3  0  0  0  0  0  0
    2.2440   -4.1350   -0.2130 C   0  0  0  0  0  0  0  0  0  0  0  0
    1.5730   -4.9690    0.8520 C   0  0  0  0  0  1  0  0  0  0  0  0
    3.5560   -4.2380   -0.5210 C   0  0  0  0  0  0  0  0  0  0  0  0
    4.2820   -3.3220   -1.4650 C   0  0  0  0  0  2  0  0  0  0  0  0
    3.8460   -3.5990   -2.8260 N   0  0  0  0  0  0  0  0  0  0  0  0
    2.5240   -3.5000   -3.2160 C   0  0  0  0  0  0  0  0  0  0  0  0
    2.4470   -4.0430   -4.5030 C   0  0  0  0  0  0  0  0  0  0  0  0
    3.7970   -4.3220   -4.9270 C   0  0  0  0  0  0  0  0  0  0  0  0
    4.3780   -4.7930   -6.1310 C   0  0  0  0  0  3  0  0  0  0  0  0
    5.7630   -4.9730   -6.2300 C   0  0  0  0  0  3  0  0  0  0  0  0
    6.5690   -4.7270   -5.1260 C   0  0  0  0  0  0  0  0  0  0  0  0
    6.0370   -4.2310   -3.9300 C   0  0  0  0  0  3  0  0  0  0  0  0
    4.6450   -4.0410   -3.8550 C   0  0  0  0  0  0  0  0  0  0  0  0
    8.0300   -4.9090   -5.2110 C   0  0  0  0  0  0  0  0  0  0  0  0
    8.7560   -3.9980   -5.5740 O   0  0  0  0  0  0  0  0  0  0  0  0
    8.5700   -6.1050   -4.7010 N   0  0  0  0  0  0  0  0  0  0  0  0
    8.0170   -7.6210   -5.0890 S   0  0  0  0  0  0  0  0  0  0  0  0
    7.7740   -7.6380   -6.5120 O   0  0  0  0  0  0  0  0  0  0  0  0
    8.9170   -8.5660   -4.4710 O   0  0  0  0  0  0  0  0  0  0  0  0
    6.5620   -7.6750   -4.2760 N   0  0  0  0  0  0  0  0  0  0  0  0
    5.4220   -8.3010   -4.9570 C   0  0  0  0  0  1  0  0  0  0  0  0
    6.5640   -7.6350   -2.7940 C   0  0  0  0  0  2  0  0  0  0  0  0
    5.8720   -8.8340   -2.1480 C   0  0  0  0  0  2  0  0  0  0  0  0
    5.7400   -8.7750   -0.6200 C   0  0  0  0  0  2  0  0  0  0  0  0
    5.5300   -7.4090    0.0440 C   0  0  0  0  0  2  0  0  0  0  0  0
    4.4190   -6.5480   -0.3770 N   0  0  0  0  0  0  0  0  0  0  0  0
    3.3750   -7.0720   -1.2540 C   0  0  0  0  0  1  0  0  0  0  0  0
    4.4680   -5.2360    0.0930 C   0  0  0  0  0  0  0  0  0  0  0  0
    5.3080   -4.8350    0.8990 O   0  0  0  0  0  0  0  0  0  0  0  0
    9.5860   -6.1000   -4.7760 H   0  0  0  0  0  0  0  0  0  0  0  0
    1.1790   -4.2890   -5.2970 C   0  0  0  0  0  3  0  0  0  0  0  0
    1.0770   -3.4020   -6.5470 C   0  0  0  0  0  2  0  0  0  0  0  0
   -0.2250   -3.6540   -7.3060 C   0  0  0  0  0  2  0  0  0  0  0  0
   -0.3980   -5.1300   -7.6530 C   0  0  0  0  0  2  0  0  0  0  0  0
   -0.3050   -6.0140   -6.4130 C   0  0  0  0  0  2  0  0  0  0  0  0
    0.9960   -5.7770   -5.6480 C   0  0  0  0  0  2  0  0  0  0  0  0
   -1.1890   -1.1860    1.4180 C   0  0  0  0  0  1  0  0  0  0  0  0
   -1.3820   -0.9690    0.0260 O   0  0  0  0  0  0  0  0  0  0  0  0
  1  6  1  0  0  0  0
  1 44  1  0  0  0  0
  2  1  2  0  0  0  0
  3  4  2  0  0  0  0
  3  2  1  0  0  0  0
  4  5  1  0  0  0  0
  5  6  2  0  0  0  0
  5  7  1  0  0  0  0
  7  8  1  0  0  0  0
  9  7  2  0  0  0  0
  9 34  1  0  0  0  0
 10  9  1  0  0  0  0
 11 10  1  0  0  0  0
 12 11  1  0  0  0  0
 12  4  1  0  0  0  0
 13 12  2  0  0  0  0
 14 13  1  0  0  0  0
 14 19  1  0  0  0  0
 15 14  2  0  0  0  0
 16 15  1  0  0  0  0
 16 17  2  0  0  0  0
 17 18  1  0  0  0  0
 18 19  2  0  0  0  0
 19 11  1  0  0  0  0
 20 17  1  0  0  0  0
 20 22  1  0  0  0  0
 21 20  2  0  0  0  0
 23 22  1  0  0  0  0
 23 25  2  0  0  0  0
 23 26  1  0  0  0  0
 24 23  2  0  0  0  0
 26 28  1  0  0  0  0
 27 26  1  0  0  0  0
 28 29  1  0  0  0  0
 29 30  1  0  0  0  0
 30 31  1  0  0  0  0
 32 31  1  0  0  0  0
 32 34  1  0  0  0  0
 33 32  1  0  0  0  0
 34 35  2  0  0  0  0
 36 22  1  0  0  0  0
 37 13  1  0  0  0  0
 38 37  1  0  0  0  0
 39 38  1  0  0  0  0
 40 39  1  0  0  0  0
 40 41  1  0  0  0  0
 41 42  1  0  0  0  0
 42 37  1  0  0  0  0
 44 43  1  0  0  0  0
M  END
>  <minimizedAffinity>
-4.67549658

$$$$

 OpenBabel09082221293D

 44 49  0  0  0  0  0  0  0  0999 V2000
    8.2960   -7.1160   -6.1900 C   0  0  0  0  0  0  0  0  0  0  0  0
    8.1150   -5.9900   -5.4010 C   0  0  0  0  0  3  0  0  0  0  0  0
    6.9030   -5.2970   -5.4490 C   0  0  0  0  0  3  0  0  0  0  0  0
    5.8390   -5.7170   -6.2700 C   0  0  0  0  0  0  0  0  0  0  0  0
    6.0250   -6.8560   -7.1000 C   0  0  0  0  0  0  0  0  0  0  0  0
    7.2590   -7.5340   -7.0300 C   0  0  0  0  0  3  0  0  0  0  0  0
    4.9770   -7.3850   -8.0340 C   0  0  0  0  0  0  0  0  0  0  0  0
    4.8650   -8.8870   -8.1500 C   0  0  0  0  0  1  0  0  0  0  0  0
    4.1890   -6.5260   -8.7190 C   0  0  0  0  0  0  0  0  0  0  0  0
    4.3740   -5.0350   -8.7390 C   0  0  0  0  0  2  0  0  0  0  0  0
    3.9990   -4.4900   -7.4430 N   0  0  0  0  0  0  0  0  0  0  0  0
    4.6110   -4.8860   -6.2680 C   0  0  0  0  0  0  0  0  0  0  0  0
    3.8610   -4.3340   -5.2240 C   0  0  0  0  0  0  0  0  0  0  0  0
    2.8770   -3.4650   -5.8210 C   0  0  0  0  0  0  0  0  0  0  0  0
    1.8970   -2.5800   -5.3070 C   0  0  0  0  0  3  0  0  0  0  0  0
    1.0620   -1.8620   -6.1720 C   0  0  0  0  0  3  0  0  0  0  0  0
    1.1690   -2.0500   -7.5450 C   0  0  0  0  0  0  0  0  0  0  0  0
    2.1460   -2.8910   -8.0920 C   0  0  0  0  0  3  0  0  0  0  0  0
    2.9850   -3.5920   -7.2070 C   0  0  0  0  0  0  0  0  0  0  0  0
    0.3010   -1.3020   -8.4720 C   0  0  0  0  0  0  0  0  0  0  0  0
    0.6310   -0.2060   -8.8950 O   0  0  0  0  0  0  0  0  0  0  0  0
   -0.8330   -1.9630   -8.9830 N   0  0  0  0  0  0  0  0  0  0  0  0
   -1.9460   -2.7660   -8.0510 S   0  0  0  0  0  0  0  0  0  0  0  0
   -2.2090   -1.9450   -6.8930 O   0  0  0  0  0  0  0  0  0  0  0  0
   -3.0110   -3.1800   -8.9340 O   0  0  0  0  0  0  0  0  0  0  0  0
   -1.0930   -4.1230   -7.5870 N   0  0  0  0  0  0  0  0  0  0  0  0
   -1.2530   -4.5910   -6.2060 C   0  0  0  0  0  1  0  0  0  0  0  0
   -0.6820   -5.1010   -8.6220 C   0  0  0  0  0  2  0  0  0  0  0  0
   -1.1980   -6.5160   -8.3670 C   0  0  0  0  0  2  0  0  0  0  0  0
   -0.6950   -7.5890   -9.3430 C   0  0  0  0  0  2  0  0  0  0  0  0
    0.7250   -7.4560   -9.9060 C   0  0  0  0  0  2  0  0  0  0  0  0
    1.8700   -7.3310   -8.9970 N   0  0  0  0  0  0  0  0  0  0  0  0
    1.7000   -7.5650   -7.5650 C   0  0  0  0  0  1  0  0  0  0  0  0
    3.0720   -6.9570   -9.5970 C   0  0  0  0  0  0  0  0  0  0  0  0
    3.2170   -6.8480  -10.8140 O   0  0  0  0  0  0  0  0  0  0  0  0
   -1.3300   -1.3650   -9.6420 H   0  0  0  0  0  0  0  0  0  0  0  0
    4.0520   -4.6020   -3.7440 C   0  0  0  0  0  3  0  0  0  0  0  0
    4.5380   -3.3660   -2.9720 C   0  0  0  0  0  2  0  0  0  0  0  0
    4.7490   -3.6800   -1.4910 C   0  0  0  0  0  2  0  0  0  0  0  0
    3.4960   -4.2780   -0.8570 C   0  0  0  0  0  2  0  0  0  0  0  0
    3.0150   -5.5100   -1.6170 C   0  0  0  0  0  2  0  0  0  0  0  0
    2.7930   -5.2090   -3.0980 C   0  0  0  0  0  2  0  0  0  0  0  0
    9.8630   -8.2910   -7.5400 C   0  0  0  0  0  1  0  0  0  0  0  0
    9.4250   -7.8850   -6.2490 O   0  0  0  0  0  0  0  0  0  0  0  0
  1  2  1  0  0  0  0
  3  2  2  0  0  0  0
  4 12  1  0  0  0  0
  4  3  1  0  0  0  0
  5  6  1  0  0  0  0
  5  4  2  0  0  0  0
  6  1  2  0  0  0  0
  7  5  1  0  0  0  0
  8  7  1  0  0  0  0
  9  7  2  0  0  0  0
 10  9  1  0  0  0  0
 10 11  1  0  0  0  0
 11 19  1  0  0  0  0
 11 12  1  0  0  0  0
 12 13  2  0  0  0  0
 13 37  1  0  0  0  0
 14 15  1  0  0  0  0
 14 13  1  0  0  0  0
 16 15  2  0  0  0  0
 17 16  1  0  0  0  0
 18 17  2  0  0  0  0
 18 19  1  0  0  0  0
 19 14  2  0  0  0  0
 20 17  1  0  0  0  0
 21 20  2  0  0  0  0
 22 20  1  0  0  0  0
 22 23  1  0  0  0  0
 23 26  1  0  0  0  0
 23 24  2  0  0  0  0
 25 23  2  0  0  0  0
 26 27  1  0  0  0  0
 28 29  1  0  0  0  0
 28 26  1  0  0  0  0
 30 29  1  0  0  0  0
 31 30  1  0  0  0  0
 31 32  1  0  0  0  0
 32 33  1  0  0  0  0
 34 32  1  0  0  0  0
 34  9  1  0  0  0  0
 35 34  2  0  0  0  0
 36 22  1  0  0  0  0
 37 42  1  0  0  0  0
 37 38  1  0  0  0  0
 38 39  1  0  0  0  0
 39 40  1  0  0  0  0
 41 40  1  0  0  0  0
 42 41  1  0  0  0  0
 43 44  1  0  0  0  0
 44  1  1  0  0  0  0
M  END
>  <minimizedAffinity>
-4.62781477

$$$$

 OpenBabel09082221293D

 44 49  0  0  0  0  0  0  0  0999 V2000
    0.7940   -0.7740   -5.4130 C   0  0  0  0  0  0  0  0  0  0  0  0
    1.1080   -1.3060   -6.6550 C   0  0  0  0  0  3  0  0  0  0  0  0
    1.9720   -2.3990   -6.7420 C   0  0  0  0  0  3  0  0  0  0  0  0
    2.5290   -2.9990   -5.5970 C   0  0  0  0  0  0  0  0  0  0  0  0
    2.2320   -2.4460   -4.3230 C   0  0  0  0  0  0  0  0  0  0  0  0
    1.3570   -1.3410   -4.2660 C   0  0  0  0  0  3  0  0  0  0  0  0
    2.7840   -2.9800   -3.0340 C   0  0  0  0  0  0  0  0  0  0  0  0
    1.8500   -2.9910   -1.8460 C   0  0  0  0  0  1  0  0  0  0  0  0
    4.0600   -3.4240   -2.9800 C   0  0  0  0  0  0  0  0  0  0  0  0
    5.0540   -3.2890   -4.0970 C   0  0  0  0  0  2  0  0  0  0  0  0
    4.6870   -4.1960   -5.1750 N   0  0  0  0  0  0  0  0  0  0  0  0
    3.4610   -4.1340   -5.8110 C   0  0  0  0  0  0  0  0  0  0  0  0
    3.3730   -5.2720   -6.6180 C   0  0  0  0  0  0  0  0  0  0  0  0
    4.6550   -5.9310   -6.5640 C   0  0  0  0  0  0  0  0  0  0  0  0
    5.2150   -7.0610   -7.2110 C   0  0  0  0  0  3  0  0  0  0  0  0
    6.5250   -7.4660   -6.9290 C   0  0  0  0  0  3  0  0  0  0  0  0
    7.2680   -6.7790   -5.9770 C   0  0  0  0  0  0  0  0  0  0  0  0
    6.7620   -5.6390   -5.3400 C   0  0  0  0  0  3  0  0  0  0  0  0
    5.4490   -5.2380   -5.6480 C   0  0  0  0  0  0  0  0  0  0  0  0
    8.6500   -7.1880   -5.6670 C   0  0  0  0  0  0  0  0  0  0  0  0
    9.5940   -6.7400   -6.2980 O   0  0  0  0  0  0  0  0  0  0  0  0
    8.8570   -7.9770   -4.5200 N   0  0  0  0  0  0  0  0  0  0  0  0
    8.0070   -9.3590   -4.1690 S   0  0  0  0  0  0  0  0  0  0  0  0
    7.8910  -10.1130   -5.3950 O   0  0  0  0  0  0  0  0  0  0  0  0
    8.6100   -9.9330   -2.9900 O   0  0  0  0  0  0  0  0  0  0  0  0
    6.5130   -8.7480   -3.7490 N   0  0  0  0  0  0  0  0  0  0  0  0
    5.3240   -9.4700   -4.2180 C   0  0  0  0  0  1  0  0  0  0  0  0
    6.3970   -7.9080   -2.5340 C   0  0  0  0  0  2  0  0  0  0  0  0
    5.3950   -8.4440   -1.5110 C   0  0  0  0  0  2  0  0  0  0  0  0
    5.1480   -7.5430   -0.2940 C   0  0  0  0  0  2  0  0  0  0  0  0
    5.2000   -6.0230   -0.4870 C   0  0  0  0  0  2  0  0  0  0  0  0
    4.3560   -5.3800   -1.4990 N   0  0  0  0  0  0  0  0  0  0  0  0
    3.2990   -6.1380   -2.1650 C   0  0  0  0  0  1  0  0  0  0  0  0
    4.6630   -4.0470   -1.7750 C   0  0  0  0  0  0  0  0  0  0  0  0
    5.4990   -3.4000   -1.1450 O   0  0  0  0  0  0  0  0  0  0  0  0
    9.8490   -8.1620   -4.3850 H   0  0  0  0  0  0  0  0  0  0  0  0
    2.1570   -5.7230   -7.4030 C   0  0  0  0  0  3  0  0  0  0  0  0
    2.3610   -5.6350   -8.9230 C   0  0  0  0  0  2  0  0  0  0  0  0
    1.1060   -6.0680   -9.6800 C   0  0  0  0  0  2  0  0  0  0  0  0
    0.6440   -7.4600   -9.2590 C   0  0  0  0  0  2  0  0  0  0  0  0
    0.4330   -7.5490   -7.7500 C   0  0  0  0  0  2  0  0  0  0  0  0
    1.6830   -7.1260   -6.9800 C   0  0  0  0  0  2  0  0  0  0  0  0
   -0.4780    0.4800   -3.8420 C   0  0  0  0  0  1  0  0  0  0  0  0
   -0.0280    0.2940   -5.1780 O   0  0  0  0  0  0  0  0  0  0  0  0
  1 44  1  0  0  0  0
  1  6  1  0  0  0  0
  2  1  2  0  0  0  0
  3  2  1  0  0  0  0
  3  4  2  0  0  0  0
  4  5  1  0  0  0  0
  5  6  2  0  0  0  0
  5  7  1  0  0  0  0
  7  9  2  0  0  0  0
  7  8  1  0  0  0  0
  9 34  1  0  0  0  0
 10  9  1  0  0  0  0
 11 10  1  0  0  0  0
 12  4  1  0  0  0  0
 12 11  1  0  0  0  0
 13 14  1  0  0  0  0
 13 12  2  0  0  0  0
 14 19  1  0  0  0  0
 15 16  1  0  0  0  0
 15 14  2  0  0  0  0
 16 17  2  0  0  0  0
 17 20  1  0  0  0  0
 17 18  1  0  0  0  0
 19 18  2  0  0  0  0
 19 11  1  0  0  0  0
 20 22  1  0  0  0  0
 21 20  2  0  0  0  0
 22 36  1  0  0  0  0
 22 23  1  0  0  0  0
 23 26  1  0  0  0  0
 23 25  2  0  0  0  0
 24 23  2  0  0  0  0
 26 28  1  0  0  0  0
 27 26  1  0  0  0  0
 28 29  1  0  0  0  0
 29 30  1  0  0  0  0
 31 30  1  0  0  0  0
 32 31  1  0  0  0  0
 33 32  1  0  0  0  0
 34 32  1  0  0  0  0
 34 35  2  0  0  0  0
 37 42  1  0  0  0  0
 37 13  1  0  0  0  0
 38 37  1  0  0  0  0
 39 40  1  0  0  0  0
 39 38  1  0  0  0  0
 40 41  1  0  0  0  0
 41 42  1  0  0  0  0
 44 43  1  0  0  0  0
M  END
>  <minimizedAffinity>
-4.61658859

$$$$

 OpenBabel09082221293D

 44 49  0  0  0  0  0  0  0  0999 V2000
    1.7220   -2.2400   -5.7390 C   0  0  0  0  0  0  0  0  0  0  0  0
    2.1240   -2.5860   -7.0200 C   0  0  0  0  0  3  0  0  0  0  0  0
    3.0550   -3.6120   -7.2020 C   0  0  0  0  0  3  0  0  0  0  0  0
    3.5910   -4.3280   -6.1150 C   0  0  0  0  0  0  0  0  0  0  0  0
    3.2020   -3.9650   -4.7980 C   0  0  0  0  0  0  0  0  0  0  0  0
    2.2620   -2.9250   -4.6460 C   0  0  0  0  0  3  0  0  0  0  0  0
    3.7230   -4.6350   -3.5610 C   0  0  0  0  0  0  0  0  0  0  0  0
    2.7370   -4.8520   -2.4380 C   0  0  0  0  0  1  0  0  0  0  0  0
    5.0190   -5.0160   -3.4960 C   0  0  0  0  0  0  0  0  0  0  0  0
    6.0560   -4.6820   -4.5310 C   0  0  0  0  0  2  0  0  0  0  0  0
    5.7930   -5.4570   -5.7350 N   0  0  0  0  0  0  0  0  0  0  0  0
    4.5970   -5.3740   -6.4230 C   0  0  0  0  0  0  0  0  0  0  0  0
    4.6150   -6.3990   -7.3750 C   0  0  0  0  0  0  0  0  0  0  0  0
    5.9300   -6.9910   -7.3370 C   0  0  0  0  0  0  0  0  0  0  0  0
    6.5840   -7.9940   -8.0940 C   0  0  0  0  0  3  0  0  0  0  0  0
    7.9020   -8.3650   -7.7960 C   0  0  0  0  0  3  0  0  0  0  0  0
    8.5570   -7.7720   -6.7230 C   0  0  0  0  0  0  0  0  0  0  0  0
    7.9550   -6.7550   -5.9730 C   0  0  0  0  0  3  0  0  0  0  0  0
    6.6370   -6.3860   -6.2970 C   0  0  0  0  0  0  0  0  0  0  0  0
    9.9440   -8.1470   -6.3950 C   0  0  0  0  0  0  0  0  0  0  0  0
   10.8890   -7.5700   -6.9100 O   0  0  0  0  0  0  0  0  0  0  0  0
   10.1430   -9.0690   -5.3500 N   0  0  0  0  0  0  0  0  0  0  0  0
    9.3600  -10.5270   -5.2280 S   0  0  0  0  0  0  0  0  0  0  0  0
    9.3460  -11.1170   -6.5460 O   0  0  0  0  0  0  0  0  0  0  0  0
    9.9400  -11.2210   -4.1020 O   0  0  0  0  0  0  0  0  0  0  0  0
    7.8150  -10.0560   -4.8140 N   0  0  0  0  0  0  0  0  0  0  0  0
    6.6930  -10.7700   -5.4370 C   0  0  0  0  0  1  0  0  0  0  0  0
    7.5920   -9.3920   -3.5080 C   0  0  0  0  0  2  0  0  0  0  0  0
    6.5770  -10.1100   -2.6200 C   0  0  0  0  0  2  0  0  0  0  0  0
    6.2200   -9.3920   -1.3110 C   0  0  0  0  0  2  0  0  0  0  0  0
    6.1910   -7.8590   -1.3020 C   0  0  0  0  0  2  0  0  0  0  0  0
    5.3600   -7.1330   -2.2670 N   0  0  0  0  0  0  0  0  0  0  0  0
    4.3820   -7.8490   -3.0820 C   0  0  0  0  0  1  0  0  0  0  0  0
    5.6000   -5.7610   -2.3500 C   0  0  0  0  0  0  0  0  0  0  0  0
    6.3660   -5.1600   -1.5970 O   0  0  0  0  0  0  0  0  0  0  0  0
   11.1370   -9.2170   -5.1860 H   0  0  0  0  0  0  0  0  0  0  0  0
    3.4650   -6.8040   -8.2760 C   0  0  0  0  0  3  0  0  0  0  0  0
    3.7180   -6.4680   -9.7540 C   0  0  0  0  0  2  0  0  0  0  0  0
    2.5280   -6.8630  -10.6280 C   0  0  0  0  0  2  0  0  0  0  0  0
    2.1570   -8.3320  -10.4450 C   0  0  0  0  0  2  0  0  0  0  0  0
    1.8970   -8.6680   -8.9800 C   0  0  0  0  0  2  0  0  0  0  0  0
    3.0820   -8.2850   -8.0950 C   0  0  0  0  0  2  0  0  0  0  0  0
    0.6160   -1.0120   -4.0280 C   0  0  0  0  0  1  0  0  0  0  0  0
    0.8280   -1.2580   -5.4130 O   0  0  0  0  0  0  0  0  0  0  0  0
  1 44  1  0  0  0  0
  1  6  1  0  0  0  0
  2  1  2  0  0  0  0
  3  2  1  0  0  0  0
  3  4  2  0  0  0  0
  4  5  1  0  0  0  0
  5  6  2  0  0  0  0
  5  7  1  0  0  0  0
  7  9  2  0  0  0  0
  7  8  1  0  0  0  0
  9 34  1  0  0  0  0
 10  9  1  0  0  0  0
 11 10  1  0  0  0  0
 12  4  1  0  0  0  0
 12 11  1  0  0  0  0
 13 14  1  0  0  0  0
 13 12  2  0  0  0  0
 14 19  1  0  0  0  0
 15 16  1  0  0  0  0
 15 14  2  0  0  0  0
 16 17  2  0  0  0  0
 17 20  1  0  0  0  0
 17 18  1  0  0  0  0
 19 18  2  0  0  0  0
 19 11  1  0  0  0  0
 20 22  1  0  0  0  0
 21 20  2  0  0  0  0
 22 23  1  0  0  0  0
 22 36  1  0  0  0  0
 23 26  1  0  0  0  0
 23 25  2  0  0  0  0
 24 23  2  0  0  0  0
 26 28  1  0  0  0  0
 27 26  1  0  0  0  0
 28 29  1  0  0  0  0
 29 30  1  0  0  0  0
 30 31  1  0  0  0  0
 32 31  1  0  0  0  0
 33 32  1  0  0  0  0
 34 32  1  0  0  0  0
 34 35  2  0  0  0  0
 37 42  1  0  0  0  0
 37 13  1  0  0  0  0
 38 37  1  0  0  0  0
 39 40  1  0  0  0  0
 39 38  1  0  0  0  0
 40 41  1  0  0  0  0
 41 42  1  0  0  0  0
 44 43  1  0  0  0  0
M  END
>  <minimizedAffinity>
-4.50877619

$$$$
