REMARK  Name = 
REMARK  8 active torsions:
REMARK  status: ('A' for Active; 'I' for Inactive)
REMARK    1  A    between atoms: C_1  and  C_2
REMARK    2  A    between atoms: C_5  and  C_6
REMARK    3  A    between atoms: C_12  and  C_13
REMARK    4  A    between atoms: C_13  and  O_14
REMARK    5  A    between atoms: O_14  and  C_15
REMARK    6  A    between atoms: C_18  and  C_19
REMARK    7  A    between atoms: C_23  and  C_24
REMARK    8  A    between atoms: N_30  and  C_31
REMARK                            x       y       z     vdW  Elec       q    Type
REMARK                         _______ _______ _______ _____ _____    ______ ____
ROOT
ATOM      1  C   UNL     1      -3.098   3.354  -0.898  0.00  0.00    +0.121 A 
ATOM      2  C   UNL     1      -3.198   4.473  -1.721  0.00  0.00    +0.046 A 
ATOM      3  C   UNL     1      -3.740   5.655  -1.213  0.00  0.00    +0.015 A 
ATOM      4  C   UNL     1      -4.157   5.720   0.124  0.00  0.00    +0.018 A 
ATOM      5  C   UNL     1      -4.064   4.582   0.935  0.00  0.00    +0.015 A 
ATOM      6  C   UNL     1      -3.521   3.402   0.428  0.00  0.00    +0.046 A 
ENDROOT
BRANCH   4   7
ATOM      7  C   UNL     1      -4.641   6.971   0.698  0.00  0.00    +0.142 A 
ATOM      8  N   UNL     1      -5.904   7.229   0.964  0.00  0.00    -0.228 NA
ATOM      9  C   UNL     1      -5.924   8.468   1.555  0.00  0.00    +0.090 A 
ATOM     10  C   UNL     1      -7.015   9.206   2.042  0.00  0.00    +0.039 A 
ATOM     11  C   UNL     1      -6.802  10.465   2.637  0.00  0.00    -0.001 A 
ATOM     12  C   UNL     1      -5.490  10.957   2.725  0.00  0.00    +0.012 A 
ATOM     13  C   UNL     1      -4.388  10.239   2.242  0.00  0.00    +0.028 A 
ATOM     14  C   UNL     1      -4.636   8.990   1.659  0.00  0.00    +0.069 A 
ATOM     15  N   UNL     1      -3.828   8.020   1.102  0.00  0.00    -0.320 N 
BRANCH  15  16
ATOM     16  C   UNL     1      -2.372   8.051   0.994  0.00  0.00    +0.089 C 
ATOM     17  C   UNL     1      -1.862   9.180   0.086  0.00  0.00    +0.025 C 
ATOM     18  C   UNL     1      -0.340   9.136  -0.051  0.00  0.00    +0.002 C 
ATOM     19  C   UNL     1       0.350   9.139   1.311  0.00  0.00    +0.000 C 
ATOM     20  C   UNL     1      -0.152   8.006   2.202  0.00  0.00    +0.002 C 
ATOM     21  C   UNL     1      -1.671   8.044   2.362  0.00  0.00    +0.025 C 
ENDBRANCH  15  16
BRANCH  11  22
ATOM     22  C   UNL     1      -7.965  11.274   3.177  0.00  0.00    +0.072 C 
ATOM     23  O   UNL     1      -7.690  12.397   3.708  0.00  0.00    -0.545 OA
ATOM     24  O   UNL     1      -9.127  10.773   3.062  0.00  0.00    -0.545 OA
ENDBRANCH  11  22
ENDBRANCH   4   7
BRANCH   1  25
ATOM     25  O   UNL     1      -2.476   2.230  -1.365  0.00  0.00    -0.487 OA
BRANCH  25  26
ATOM     26  C   UNL     1      -3.399   1.311  -1.962  0.00  0.00    +0.265 C 
BRANCH  26  33
ATOM     27  C   UNL     1      -3.183  -0.562  -0.216  0.00  0.00    -0.011 A 
ATOM     28  C   UNL     1      -3.807  -1.433   0.699  0.00  0.00    +0.010 A 
ATOM     29  C   UNL     1      -5.191  -1.425   0.877  0.00  0.00    +0.020 A 
ATOM     30  C   UNL     1      -5.972  -0.541   0.143  0.00  0.00    +0.041 A 
ATOM     31 CL   UNL     1      -7.679  -0.534   0.354  0.00  0.00    -0.084 Cl
ATOM     32  C   UNL     1      -5.381   0.335  -0.765  0.00  0.00    +0.027 A 
ATOM     33  C   UNL     1      -3.985   0.336  -0.959  0.00  0.00    -0.001 A 
BRANCH  27  38
ATOM     34  C   UNL     1       2.587  -0.803  -0.678  0.00  0.00    +0.044 C 
ATOM     35  C   UNL     1       1.092  -0.726  -0.580  0.00  0.00    -0.050 A 
ATOM     36  C   UNL     1       0.280  -1.503  -1.414  0.00  0.00    +0.004 A 
ATOM     37  C   UNL     1      -1.113  -1.445  -1.301  0.00  0.00    +0.009 A 
ATOM     38  C   UNL     1      -1.721  -0.617  -0.347  0.00  0.00    -0.017 A 
ATOM     39  C   UNL     1      -0.899   0.140   0.500  0.00  0.00    +0.009 A 
ATOM     40  C   UNL     1       0.492   0.087   0.387  0.00  0.00    +0.004 A 
ENDBRANCH  27  38
ENDBRANCH  26  33
ENDBRANCH  25  26
ENDBRANCH   1  25
TORSDOF 7
