REMARK  Name = 
REMARK  8 active torsions:
REMARK  status: ('A' for Active; 'I' for Inactive)
REMARK    1  A    between atoms: C_2  and  C_4
REMARK    2  A    between atoms: C_11  and  C_12
REMARK    3  A    between atoms: C_15  and  O_16
REMARK    4  A    between atoms: O_16  and  C_17
REMARK    5  A    between atoms: C_17  and  C_18
REMARK    6  A    between atoms: C_18  and  O_19
REMARK    7  A    between atoms: O_19  and  C_20
REMARK    8  A    between atoms: N_28  and  C_29
REMARK                            x       y       z     vdW  Elec       q    Type
REMARK                         _______ _______ _______ _____ _____    ______ ____
ROOT
ATOM      1  C   UNL     1       3.246   0.871  -0.898  0.00  0.00    -0.001 A 
ATOM      2  C   UNL     1       2.768   2.173  -0.679  0.00  0.00    +0.012 A 
ATOM      3  C   UNL     1       3.030   3.225  -1.567  0.00  0.00    +0.028 A 
ATOM      4  C   UNL     1       3.798   2.937  -2.702  0.00  0.00    +0.069 A 
ATOM      5  C   UNL     1       4.291   1.659  -2.951  0.00  0.00    +0.090 A 
ATOM      6  C   UNL     1       4.015   0.618  -2.051  0.00  0.00    +0.039 A 
ATOM      7  N   UNL     1       5.015   1.632  -4.117  0.00  0.00    -0.228 NA
ATOM      8  C   UNL     1       5.012   2.867  -4.581  0.00  0.00    +0.142 A 
ATOM      9  N   UNL     1       4.237   3.688  -3.775  0.00  0.00    -0.320 N 
ENDROOT
BRANCH   8  10
ATOM     10  C   UNL     1       5.719   3.277  -5.794  0.00  0.00    +0.018 A 
ATOM     11  C   UNL     1       6.737   4.239  -5.747  0.00  0.00    +0.015 A 
ATOM     12  C   UNL     1       7.433   4.585  -6.907  0.00  0.00    +0.046 A 
ATOM     13  C   UNL     1       7.145   3.940  -8.109  0.00  0.00    +0.121 A 
ATOM     14  C   UNL     1       6.121   2.998  -8.175  0.00  0.00    +0.046 A 
ATOM     15  C   UNL     1       5.417   2.661  -7.015  0.00  0.00    +0.015 A 
BRANCH  13  16
ATOM     16  O   UNL     1       7.890   4.299  -9.199  0.00  0.00    -0.489 OA
BRANCH  16  17
ATOM     17  C   UNL     1       8.615   3.203  -9.792  0.00  0.00    +0.270 C 
BRANCH  17  18
ATOM     18  C   UNL     1       9.755   2.703  -8.894  0.00  0.00    +0.270 C 
BRANCH  18  19
ATOM     19  O   UNL     1       9.275   1.603  -8.112  0.00  0.00    -0.489 OA
BRANCH  19  20
ATOM     20  C   UNL     1       9.668   1.579  -6.804  0.00  0.00    +0.121 A 
ATOM     21  C   UNL     1      10.916   1.994  -6.341  0.00  0.00    +0.045 A 
ATOM     22  C   UNL     1      11.206   1.940  -4.974  0.00  0.00    +0.004 A 
ATOM     23  C   UNL     1      10.254   1.461  -4.074  0.00  0.00    +0.000 A 
ATOM     24  C   UNL     1       9.018   1.018  -4.539  0.00  0.00    +0.004 A 
ATOM     25  C   UNL     1       8.735   1.063  -5.904  0.00  0.00    +0.045 A 
ENDBRANCH  19  20
ENDBRANCH  18  19
ENDBRANCH  17  18
ENDBRANCH  16  17
ENDBRANCH  13  16
ENDBRANCH   8  10
BRANCH   9  26
ATOM     26  C   UNL     1       3.910   5.085  -4.050  0.00  0.00    +0.089 C 
ATOM     27  C   UNL     1       2.403   5.327  -4.239  0.00  0.00    +0.025 C 
ATOM     28  C   UNL     1       2.117   6.788  -4.584  0.00  0.00    +0.002 C 
ATOM     29  C   UNL     1       2.721   7.738  -3.553  0.00  0.00    +0.000 C 
ATOM     30  C   UNL     1       4.219   7.504  -3.376  0.00  0.00    +0.002 C 
ATOM     31  C   UNL     1       4.525   6.049  -3.024  0.00  0.00    +0.025 C 
ENDBRANCH   9  26
BRANCH   1  33
ATOM     32  O   UNL     1       2.234   0.069   1.102  0.00  0.00    -0.545 OA
ATOM     33  C   UNL     1       2.939  -0.238   0.088  0.00  0.00    +0.072 C 
ATOM     34  O   UNL     1       3.408  -1.392  -0.166  0.00  0.00    -0.545 OA
ENDBRANCH   1  33
TORSDOF 8
