
 OpenBabel09132204463D

 34 38  0  0  0  0  0  0  0  0999 V2000
    9.8010    7.9700    0.1750 C   0  0  0  0  0  0  0  0  0  0  0  0
   10.5890    7.9350    1.3370 C   0  0  0  0  0  3  0  0  0  0  0  0
   10.9610    6.7320    1.9520 C   0  0  0  0  0  3  0  0  0  0  0  0
   10.5150    5.5410    1.3650 C   0  0  0  0  0  0  0  0  0  0  0  0
    9.7310    5.5370    0.2150 C   0  0  0  0  0  0  0  0  0  0  0  0
    9.3710    6.7520   -0.3880 C   0  0  0  0  0  3  0  0  0  0  0  0
    9.4190    4.2540   -0.1600 N   0  0  0  0  0  0  0  0  0  0  0  0
    9.9620    3.4630    0.7450 C   0  0  0  0  0  0  0  0  0  0  0  0
   10.6850    4.2040    1.6680 N   0  0  0  0  0  0  0  0  0  0  0  0
    9.8220    2.0070    0.7360 C   0  0  0  0  0  0  0  0  0  0  0  0
   10.2940    1.2420   -0.3390 C   0  0  0  0  0  3  0  0  0  0  0  0
   10.1940   -0.1500   -0.3100 C   0  0  0  0  0  3  0  0  0  0  0  0
    9.6620   -0.7860    0.8110 C   0  0  0  0  0  0  0  0  0  0  0  0
    9.1680   -0.0380    1.8770 C   0  0  0  0  0  3  0  0  0  0  0  0
    9.2580    1.3570    1.8420 C   0  0  0  0  0  3  0  0  0  0  0  0
    9.6280   -2.1540    0.7890 O   0  0  0  0  0  0  0  0  0  0  0  0
    8.3500   -2.7070    1.1640 C   0  0  0  0  0  2  0  0  0  0  0  0
    8.4040   -3.4400    2.5120 C   0  0  0  0  0  2  0  0  0  0  0  0
    7.6240   -4.6380    2.4150 O   0  0  0  0  0  0  0  0  0  0  0  0
    6.3450   -4.5620    2.8880 C   0  0  0  0  0  0  0  0  0  0  0  0
    5.9490   -3.8060    3.9910 C   0  0  0  0  0  3  0  0  0  0  0  0
    4.6050   -3.7900    4.3790 C   0  0  0  0  0  3  0  0  0  0  0  0
    3.6630   -4.5370    3.6730 C   0  0  0  0  0  3  0  0  0  0  0  0
    4.0630   -5.3160    2.5890 C   0  0  0  0  0  3  0  0  0  0  0  0
    5.4050   -5.3390    2.2110 C   0  0  0  0  0  3  0  0  0  0  0  0
   11.5150    3.6540    2.7370 C   0  0  0  0  0  3  0  0  0  0  0  0
   13.0210    3.7240    2.4300 C   0  0  0  0  0  2  0  0  0  0  0  0
   13.8430    3.0820    3.5460 C   0  0  0  0  0  2  0  0  0  0  0  0
   13.5120    3.6880    4.9080 C   0  0  0  0  0  2  0  0  0  0  0  0
   12.0190    3.6070    5.2160 C   0  0  0  0  0  2  0  0  0  0  0  0
   11.1790    4.2490    4.1130 C   0  0  0  0  0  2  0  0  0  0  0  0
    9.0860   10.2360    0.3280 O   0  0  0  0  0  1  0  0  0  0  0  0
    9.4220    9.2940   -0.4580 C   0  0  0  0  0  0  0  0  0  0  0  0
    9.4650    9.3680   -1.7270 O   0  0  0  0  0  0  0  0  0  0  0  0
  1  2  1  0  0  0  0
  2  3  2  0  0  0  0
  4  9  1  0  0  0  0
  4  3  1  0  0  0  0
  5  4  2  0  0  0  0
  6  1  2  0  0  0  0
  6  5  1  0  0  0  0
  7  5  1  0  0  0  0
  7  8  2  0  0  0  0
  8  9  1  0  0  0  0
  9 26  1  0  0  0  0
 10  8  1  0  0  0  0
 10 15  1  0  0  0  0
 11 12  1  0  0  0  0
 11 10  2  0  0  0  0
 12 13  2  0  0  0  0
 13 14  1  0  0  0  0
 15 14  2  0  0  0  0
 16 13  1  0  0  0  0
 16 17  1  0  0  0  0
 17 18  1  0  0  0  0
 19 18  1  0  0  0  0
 19 20  1  0  0  0  0
 20 21  1  0  0  0  0
 21 22  2  0  0  0  0
 23 22  1  0  0  0  0
 24 23  2  0  0  0  0
 25 24  1  0  0  0  0
 25 20  2  0  0  0  0
 26 31  1  0  0  0  0
 27 26  1  0  0  0  0
 27 28  1  0  0  0  0
 28 29  1  0  0  0  0
 29 30  1  0  0  0  0
 31 30  1  0  0  0  0
 33  1  1  0  0  0  0
 33 32  1  0  0  0  0
 34 33  2  0  0  0  0
M  END
>  <minimizedAffinity>
-6.03363991

$$$$
