
 OpenBabel09132204463D

 34 38  0  0  0  0  0  0  0  0999 V2000
    9.6760    7.7620    0.0790 C   0  0  0  0  0  0  0  0  0  0  0  0
   10.5100    7.7880    1.2090 C   0  0  0  0  0  3  0  0  0  0  0  0
   10.9290    6.6170    1.8560 C   0  0  0  0  0  3  0  0  0  0  0  0
   10.4830    5.3960    1.3350 C   0  0  0  0  0  0  0  0  0  0  0  0
    9.6540    5.3320    0.2190 C   0  0  0  0  0  0  0  0  0  0  0  0
    9.2480    6.5150   -0.4170 C   0  0  0  0  0  3  0  0  0  0  0  0
    9.3520    4.0290   -0.0920 N   0  0  0  0  0  0  0  0  0  0  0  0
    9.9460    3.2850    0.8210 C   0  0  0  0  0  0  0  0  0  0  0  0
   10.6910    4.0760    1.6840 N   0  0  0  0  0  0  0  0  0  0  0  0
    9.8340    1.8280    0.8750 C   0  0  0  0  0  0  0  0  0  0  0  0
    9.3700    1.1810    2.0290 C   0  0  0  0  0  3  0  0  0  0  0  0
    9.2260   -0.2080    2.0480 C   0  0  0  0  0  3  0  0  0  0  0  0
    9.5010   -0.9510    0.9010 C   0  0  0  0  0  0  0  0  0  0  0  0
    9.9840   -0.3240   -0.2460 C   0  0  0  0  0  3  0  0  0  0  0  0
   10.1390    1.0650   -0.2590 C   0  0  0  0  0  3  0  0  0  0  0  0
    9.3020   -2.3020    0.9750 O   0  0  0  0  0  0  0  0  0  0  0  0
    9.4830   -2.9850   -0.2810 C   0  0  0  0  0  2  0  0  0  0  0  0
   10.7990   -3.7730   -0.3330 C   0  0  0  0  0  2  0  0  0  0  0  0
   11.3670   -3.6330   -1.6410 O   0  0  0  0  0  0  0  0  0  0  0  0
   12.4720   -2.8350   -1.7340 C   0  0  0  0  0  0  0  0  0  0  0  0
   13.7360   -3.1670   -1.2470 C   0  0  0  0  0  3  0  0  0  0  0  0
   14.8020   -2.2780   -1.4110 C   0  0  0  0  0  3  0  0  0  0  0  0
   14.6020   -1.0550   -2.0510 C   0  0  0  0  0  3  0  0  0  0  0  0
   13.3340   -0.7090   -2.5110 C   0  0  0  0  0  3  0  0  0  0  0  0
   12.2690   -1.5930   -2.3360 C   0  0  0  0  0  3  0  0  0  0  0  0
   11.5740    3.5840    2.7390 C   0  0  0  0  0  3  0  0  0  0  0  0
   13.0650    3.7180    2.3900 C   0  0  0  0  0  2  0  0  0  0  0  0
   13.9460    3.1360    3.4950 C   0  0  0  0  0  2  0  0  0  0  0  0
   13.6210    3.7500    4.8550 C   0  0  0  0  0  2  0  0  0  0  0  0
   12.1430    3.6040    5.2040 C   0  0  0  0  0  2  0  0  0  0  0  0
   11.2450    4.1870    4.1130 C   0  0  0  0  0  2  0  0  0  0  0  0
    9.7390    9.3000   -1.7370 O   0  0  0  0  0  0  0  0  0  0  0  0
    9.2460    9.0520   -0.5900 C   0  0  0  0  0  0  0  0  0  0  0  0
    8.4280    9.7930    0.0400 O   0  0  0  0  0  1  0  0  0  0  0  0
  1  2  1  0  0  0  0
  2  3  2  0  0  0  0
  4  9  1  0  0  0  0
  4  3  1  0  0  0  0
  5  4  2  0  0  0  0
  6  1  2  0  0  0  0
  6  5  1  0  0  0  0
  7  5  1  0  0  0  0
  7  8  2  0  0  0  0
  8 10  1  0  0  0  0
  8  9  1  0  0  0  0
  9 26  1  0  0  0  0
 10 11  1  0  0  0  0
 11 12  2  0  0  0  0
 13 16  1  0  0  0  0
 13 12  1  0  0  0  0
 14 13  2  0  0  0  0
 15 14  1  0  0  0  0
 15 10  2  0  0  0  0
 17 16  1  0  0  0  0
 18 17  1  0  0  0  0
 19 18  1  0  0  0  0
 20 19  1  0  0  0  0
 20 21  1  0  0  0  0
 22 21  2  0  0  0  0
 23 22  1  0  0  0  0
 24 25  1  0  0  0  0
 24 23  2  0  0  0  0
 25 20  2  0  0  0  0
 26 31  1  0  0  0  0
 27 26  1  0  0  0  0
 27 28  1  0  0  0  0
 28 29  1  0  0  0  0
 29 30  1  0  0  0  0
 31 30  1  0  0  0  0
 32 33  2  0  0  0  0
 33 34  1  0  0  0  0
 33  1  1  0  0  0  0
M  END
>  <minimizedAffinity>
-7.77664995

$$$$
