
 OpenBabel09132204463D

 34 38  0  0  0  0  0  0  0  0999 V2000
    9.0630   -2.0510    3.1620 C   0  0  0  0  0  0  0  0  0  0  0  0
    9.3430   -2.4780    1.8550 C   0  0  0  0  0  3  0  0  0  0  0  0
    9.6920   -1.5830    0.8340 C   0  0  0  0  0  3  0  0  0  0  0  0
    9.7550   -0.2230    1.1610 C   0  0  0  0  0  0  0  0  0  0  0  0
    9.4810    0.2380    2.4460 C   0  0  0  0  0  0  0  0  0  0  0  0
    9.1360   -0.6750    3.4550 C   0  0  0  0  0  3  0  0  0  0  0  0
    9.6030    1.6040    2.5130 N   0  0  0  0  0  0  0  0  0  0  0  0
    9.9140    2.0060    1.2950 C   0  0  0  0  0  0  0  0  0  0  0  0
   10.0670    0.9180    0.4480 N   0  0  0  0  0  0  0  0  0  0  0  0
   10.0880    3.4100    0.9270 C   0  0  0  0  0  0  0  0  0  0  0  0
    9.2210    4.0330    0.0190 C   0  0  0  0  0  3  0  0  0  0  0  0
    9.3740    5.3870   -0.2860 C   0  0  0  0  0  3  0  0  0  0  0  0
   10.3650    6.1340    0.3480 C   0  0  0  0  0  0  0  0  0  0  0  0
   11.2480    5.5240    1.2360 C   0  0  0  0  0  3  0  0  0  0  0  0
   11.1010    4.1650    1.5310 C   0  0  0  0  0  3  0  0  0  0  0  0
   10.4360    7.4640    0.0330 O   0  0  0  0  0  0  0  0  0  0  0  0
   11.1110    7.7290   -1.2130 C   0  0  0  0  0  2  0  0  0  0  0  0
   10.5630    8.9760   -1.9210 C   0  0  0  0  0  2  0  0  0  0  0  0
   10.5010    8.7160   -3.3280 O   0  0  0  0  0  0  0  0  0  0  0  0
    9.5100    9.3580   -4.0140 C   0  0  0  0  0  0  0  0  0  0  0  0
    8.6530    8.7490   -4.9300 C   0  0  0  0  0  3  0  0  0  0  0  0
    7.6610    9.5020   -5.5650 C   0  0  0  0  0  3  0  0  0  0  0  0
    7.5330   10.8640   -5.2930 C   0  0  0  0  0  3  0  0  0  0  0  0
    8.4070   11.4800   -4.4000 C   0  0  0  0  0  3  0  0  0  0  0  0
    9.4030   10.7290   -3.7760 C   0  0  0  0  0  3  0  0  0  0  0  0
   10.5260    0.9790   -0.9380 C   0  0  0  0  0  3  0  0  0  0  0  0
   11.9290    1.5920   -1.0830 C   0  0  0  0  0  2  0  0  0  0  0  0
   12.3400    1.6900   -2.5520 C   0  0  0  0  0  2  0  0  0  0  0  0
   12.2330    0.3400   -3.2570 C   0  0  0  0  0  2  0  0  0  0  0  0
   10.8360   -0.2610   -3.1220 C   0  0  0  0  0  2  0  0  0  0  0  0
   10.4100   -0.3730   -1.6590 C   0  0  0  0  0  2  0  0  0  0  0  0
    9.6440   -3.5930    4.8800 O   0  0  0  0  0  1  0  0  0  0  0  0
    8.6890   -3.0530    4.2360 C   0  0  0  0  0  0  0  0  0  0  0  0
    7.4520   -3.2830    4.4150 O   0  0  0  0  0  0  0  0  0  0  0  0
  1  6  1  0  0  0  0
  1 33  1  0  0  0  0
  2  1  2  0  0  0  0
  3  4  2  0  0  0  0
  3  2  1  0  0  0  0
  4  5  1  0  0  0  0
  5  7  1  0  0  0  0
  5  6  2  0  0  0  0
  8  7  2  0  0  0  0
  9  4  1  0  0  0  0
  9  8  1  0  0  0  0
 10  8  1  0  0  0  0
 10 15  1  0  0  0  0
 11 10  2  0  0  0  0
 12 11  1  0  0  0  0
 12 13  2  0  0  0  0
 13 14  1  0  0  0  0
 14 15  2  0  0  0  0
 16 13  1  0  0  0  0
 17 16  1  0  0  0  0
 18 17  1  0  0  0  0
 19 18  1  0  0  0  0
 20 25  1  0  0  0  0
 20 19  1  0  0  0  0
 21 20  2  0  0  0  0
 22 23  2  0  0  0  0
 22 21  1  0  0  0  0
 23 24  1  0  0  0  0
 24 25  2  0  0  0  0
 26  9  1  0  0  0  0
 27 26  1  0  0  0  0
 28 27  1  0  0  0  0
 29 30  1  0  0  0  0
 29 28  1  0  0  0  0
 30 31  1  0  0  0  0
 31 26  1  0  0  0  0
 33 34  2  0  0  0  0
 33 32  1  0  0  0  0
M  END
>  <minimizedAffinity>
-6.78245878

$$$$
