
 OpenBabel09132204463D

 34 38  0  0  0  0  0  0  0  0999 V2000
    9.6620    0.6750    2.5940 C   0  0  0  0  0  0  0  0  0  0  0  0
   10.3520    1.2810    3.6560 C   0  0  0  0  0  3  0  0  0  0  0  0
   10.7850    2.6120    3.6040 C   0  0  0  0  0  3  0  0  0  0  0  0
   10.5060    3.3380    2.4390 C   0  0  0  0  0  0  0  0  0  0  0  0
    9.8250    2.7710    1.3650 C   0  0  0  0  0  0  0  0  0  0  0  0
    9.3970    1.4360    1.4380 C   0  0  0  0  0  3  0  0  0  0  0  0
    9.6790    3.6770    0.3440 N   0  0  0  0  0  0  0  0  0  0  0  0
   10.2790    4.7820    0.7440 C   0  0  0  0  0  0  0  0  0  0  0  0
   10.7540    4.6370    2.0390 N   0  0  0  0  0  0  0  0  0  0  0  0
   10.3910    5.9850   -0.0800 C   0  0  0  0  0  0  0  0  0  0  0  0
   11.6390    6.5650   -0.3460 C   0  0  0  0  0  3  0  0  0  0  0  0
   11.7320    7.6870   -1.1730 C   0  0  0  0  0  3  0  0  0  0  0  0
   10.5850    8.2060   -1.7720 C   0  0  0  0  0  0  0  0  0  0  0  0
    9.3360    7.6530   -1.4990 C   0  0  0  0  0  3  0  0  0  0  0  0
    9.2430    6.5370   -0.6620 C   0  0  0  0  0  3  0  0  0  0  0  0
   10.7510    9.2820   -2.6010 O   0  0  0  0  0  0  0  0  0  0  0  0
    9.6630   10.2270   -2.5500 C   0  0  0  0  0  2  0  0  0  0  0  0
   10.0390   11.5090   -1.7950 C   0  0  0  0  0  2  0  0  0  0  0  0
    9.2800   11.5680   -0.5820 O   0  0  0  0  0  0  0  0  0  0  0  0
    9.7170   10.7730    0.4400 C   0  0  0  0  0  0  0  0  0  0  0  0
    8.9080    9.9110    1.1790 C   0  0  0  0  0  3  0  0  0  0  0  0
    9.4670    9.1300    2.1960 C   0  0  0  0  0  3  0  0  0  0  0  0
   10.8300    9.2200    2.4800 C   0  0  0  0  0  3  0  0  0  0  0  0
   11.6330   10.1030    1.7620 C   0  0  0  0  0  3  0  0  0  0  0  0
   11.0710   10.8890    0.7550 C   0  0  0  0  0  3  0  0  0  0  0  0
   11.3630    5.6930    2.8440 C   0  0  0  0  0  3  0  0  0  0  0  0
   10.7870    5.7760    4.2670 C   0  0  0  0  0  2  0  0  0  0  0  0
   11.4100    6.9320    5.0490 C   0  0  0  0  0  2  0  0  0  0  0  0
   12.9340    6.8490    5.0570 C   0  0  0  0  0  2  0  0  0  0  0  0
   13.5050    6.7780    3.6430 C   0  0  0  0  0  2  0  0  0  0  0  0
   12.8980    5.6240    2.8470 C   0  0  0  0  0  2  0  0  0  0  0  0
    8.6580   -1.2720    1.6620 O   0  0  0  0  0  0  0  0  0  0  0  0
    9.2110   -0.7680    2.6920 C   0  0  0  0  0  0  0  0  0  0  0  0
    9.4140   -1.3700    3.7920 O   0  0  0  0  0  1  0  0  0  0  0  0
  1 33  1  0  0  0  0
  1  2  1  0  0  0  0
  3  2  2  0  0  0  0
  4  3  1  0  0  0  0
  5  6  1  0  0  0  0
  5  4  2  0  0  0  0
  6  1  2  0  0  0  0
  7  8  2  0  0  0  0
  7  5  1  0  0  0  0
  8  9  1  0  0  0  0
  9  4  1  0  0  0  0
  9 26  1  0  0  0  0
 10  8  1  0  0  0  0
 11 10  1  0  0  0  0
 12 11  2  0  0  0  0
 13 14  2  0  0  0  0
 13 12  1  0  0  0  0
 14 15  1  0  0  0  0
 15 10  2  0  0  0  0
 16 17  1  0  0  0  0
 16 13  1  0  0  0  0
 17 18  1  0  0  0  0
 18 19  1  0  0  0  0
 19 20  1  0  0  0  0
 20 25  2  0  0  0  0
 20 21  1  0  0  0  0
 21 22  2  0  0  0  0
 22 23  1  0  0  0  0
 24 23  2  0  0  0  0
 25 24  1  0  0  0  0
 26 31  1  0  0  0  0
 26 27  1  0  0  0  0
 27 28  1  0  0  0  0
 28 29  1  0  0  0  0
 30 29  1  0  0  0  0
 31 30  1  0  0  0  0
 32 33  2  0  0  0  0
 33 34  1  0  0  0  0
M  END
>  <minimizedAffinity>
-6.69590425

$$$$
