
 OpenBabel09132204463D

 34 38  0  0  0  0  0  0  0  0999 V2000
    9.7150    0.9680    2.6030 C   0  0  0  0  0  0  0  0  0  0  0  0
   10.2750    1.6430    3.6990 C   0  0  0  0  0  3  0  0  0  0  0  0
   10.6960    2.9770    3.6200 C   0  0  0  0  0  3  0  0  0  0  0  0
   10.5390    3.6330    2.3930 C   0  0  0  0  0  0  0  0  0  0  0  0
    9.9900    2.9960    1.2840 C   0  0  0  0  0  0  0  0  0  0  0  0
    9.5720    1.6600    1.3840 C   0  0  0  0  0  3  0  0  0  0  0  0
    9.9480    3.8420    0.2040 N   0  0  0  0  0  0  0  0  0  0  0  0
   10.4870    4.9780    0.6050 C   0  0  0  0  0  0  0  0  0  0  0  0
   10.8160    4.9120    1.9510 N   0  0  0  0  0  0  0  0  0  0  0  0
   10.6760    6.1360   -0.2680 C   0  0  0  0  0  0  0  0  0  0  0  0
   11.9490    6.4900   -0.7340 C   0  0  0  0  0  3  0  0  0  0  0  0
   12.1060    7.5710   -1.6040 C   0  0  0  0  0  3  0  0  0  0  0  0
   10.9870    8.2750   -2.0470 C   0  0  0  0  0  0  0  0  0  0  0  0
    9.7170    7.9480   -1.5750 C   0  0  0  0  0  3  0  0  0  0  0  0
    9.5640    6.8730   -0.6940 C   0  0  0  0  0  3  0  0  0  0  0  0
   11.2060    9.2980   -2.9280 O   0  0  0  0  0  0  0  0  0  0  0  0
    9.9970    9.8650   -3.4710 C   0  0  0  0  0  2  0  0  0  0  0  0
    9.8110   11.3350   -3.0700 C   0  0  0  0  0  2  0  0  0  0  0  0
    8.8210   11.4080   -2.0380 O   0  0  0  0  0  0  0  0  0  0  0  0
    9.2900   11.4200   -0.7550 C   0  0  0  0  0  0  0  0  0  0  0  0
    8.5230   11.1370    0.3750 C   0  0  0  0  0  3  0  0  0  0  0  0
    9.1130   11.1630    1.6420 C   0  0  0  0  0  3  0  0  0  0  0  0
   10.4640   11.4840    1.7800 C   0  0  0  0  0  3  0  0  0  0  0  0
   11.2230   11.7970    0.6550 C   0  0  0  0  0  3  0  0  0  0  0  0
   10.6300   11.7800   -0.6070 C   0  0  0  0  0  3  0  0  0  0  0  0
   11.3190    6.0210    2.7580 C   0  0  0  0  0  3  0  0  0  0  0  0
   12.8280    6.2610    2.5810 C   0  0  0  0  0  2  0  0  0  0  0  0
   13.3180    7.3890    3.4890 C   0  0  0  0  0  2  0  0  0  0  0  0
   12.5100    8.6680    3.2830 C   0  0  0  0  0  2  0  0  0  0  0  0
   11.0140    8.4300    3.4700 C   0  0  0  0  0  2  0  0  0  0  0  0
   10.5040    7.3090    2.5660 C   0  0  0  0  0  2  0  0  0  0  0  0
    9.3430   -1.0010    3.8880 O   0  0  0  0  0  1  0  0  0  0  0  0
    9.2720   -0.4760    2.7310 C   0  0  0  0  0  0  0  0  0  0  0  0
    8.8660   -1.0580    1.6770 O   0  0  0  0  0  0  0  0  0  0  0  0
  1 33  1  0  0  0  0
  1  2  1  0  0  0  0
  3  2  2  0  0  0  0
  4  3  1  0  0  0  0
  5  6  1  0  0  0  0
  5  4  2  0  0  0  0
  6  1  2  0  0  0  0
  7  8  2  0  0  0  0
  7  5  1  0  0  0  0
  8  9  1  0  0  0  0
  9  4  1  0  0  0  0
  9 26  1  0  0  0  0
 10  8  1  0  0  0  0
 11 10  2  0  0  0  0
 12 11  1  0  0  0  0
 13 12  2  0  0  0  0
 13 14  1  0  0  0  0
 14 15  2  0  0  0  0
 15 10  1  0  0  0  0
 16 13  1  0  0  0  0
 17 18  1  0  0  0  0
 17 16  1  0  0  0  0
 18 19  1  0  0  0  0
 19 20  1  0  0  0  0
 20 25  2  0  0  0  0
 20 21  1  0  0  0  0
 21 22  2  0  0  0  0
 22 23  1  0  0  0  0
 24 23  2  0  0  0  0
 25 24  1  0  0  0  0
 27 26  1  0  0  0  0
 27 28  1  0  0  0  0
 29 30  1  0  0  0  0
 29 28  1  0  0  0  0
 31 26  1  0  0  0  0
 31 30  1  0  0  0  0
 33 32  1  0  0  0  0
 34 33  2  0  0  0  0
M  END
>  <minimizedAffinity>
-6.22311068

$$$$
