
 OpenBabel09132200203D

 34 38  0  0  0  0  0  0  0  0999 V2000
    9.6760    7.7620    0.0790 C   0  0  0  0  0  0  0  0  0  0  0  0
   10.5100    7.7880    1.2090 C   0  0  0  0  0  3  0  0  0  0  0  0
   10.9290    6.6170    1.8560 C   0  0  0  0  0  3  0  0  0  0  0  0
   10.4830    5.3960    1.3350 C   0  0  0  0  0  0  0  0  0  0  0  0
    9.6540    5.3320    0.2190 C   0  0  0  0  0  0  0  0  0  0  0  0
    9.2480    6.5150   -0.4170 C   0  0  0  0  0  3  0  0  0  0  0  0
    9.3520    4.0290   -0.0920 N   0  0  0  0  0  0  0  0  0  0  0  0
    9.9460    3.2850    0.8210 C   0  0  0  0  0  0  0  0  0  0  0  0
   10.6910    4.0760    1.6840 N   0  0  0  0  0  0  0  0  0  0  0  0
    9.8340    1.8280    0.8750 C   0  0  0  0  0  0  0  0  0  0  0  0
    9.3700    1.1810    2.0290 C   0  0  0  0  0  3  0  0  0  0  0  0
    9.2260   -0.2080    2.0480 C   0  0  0  0  0  3  0  0  0  0  0  0
    9.5010   -0.9510    0.9010 C   0  0  0  0  0  0  0  0  0  0  0  0
    9.9840   -0.3240   -0.2460 C   0  0  0  0  0  3  0  0  0  0  0  0
   10.1390    1.0650   -0.2590 C   0  0  0  0  0  3  0  0  0  0  0  0
    9.3020   -2.3020    0.9750 O   0  0  0  0  0  0  0  0  0  0  0  0
    9.4830   -2.9850   -0.2810 C   0  0  0  0  0  2  0  0  0  0  0  0
   10.7990   -3.7730   -0.3330 C   0  0  0  0  0  2  0  0  0  0  0  0
   11.3670   -3.6330   -1.6410 O   0  0  0  0  0  0  0  0  0  0  0  0
   12.4720   -2.8350   -1.7340 C   0  0  0  0  0  0  0  0  0  0  0  0
   13.7360   -3.1670   -1.2470 C   0  0  0  0  0  3  0  0  0  0  0  0
   14.8020   -2.2780   -1.4110 C   0  0  0  0  0  3  0  0  0  0  0  0
   14.6020   -1.0550   -2.0510 C   0  0  0  0  0  3  0  0  0  0  0  0
   13.3340   -0.7090   -2.5110 C   0  0  0  0  0  3  0  0  0  0  0  0
   12.2690   -1.5930   -2.3360 C   0  0  0  0  0  3  0  0  0  0  0  0
   11.5740    3.5840    2.7390 C   0  0  0  0  0  3  0  0  0  0  0  0
   13.0650    3.7180    2.3900 C   0  0  0  0  0  2  0  0  0  0  0  0
   13.9460    3.1360    3.4950 C   0  0  0  0  0  2  0  0  0  0  0  0
   13.6210    3.7500    4.8550 C   0  0  0  0  0  2  0  0  0  0  0  0
   12.1430    3.6040    5.2040 C   0  0  0  0  0  2  0  0  0  0  0  0
   11.2450    4.1870    4.1130 C   0  0  0  0  0  2  0  0  0  0  0  0
    9.7390    9.3000   -1.7370 O   0  0  0  0  0  0  0  0  0  0  0  0
    9.2460    9.0520   -0.5900 C   0  0  0  0  0  0  0  0  0  0  0  0
    8.4280    9.7930    0.0400 O   0  0  0  0  0  1  0  0  0  0  0  0
  1  2  1  0  0  0  0
  2  3  2  0  0  0  0
  4  9  1  0  0  0  0
  4  3  1  0  0  0  0
  5  4  2  0  0  0  0
  6  1  2  0  0  0  0
  6  5  1  0  0  0  0
  7  5  1  0  0  0  0
  7  8  2  0  0  0  0
  8 10  1  0  0  0  0
  8  9  1  0  0  0  0
  9 26  1  0  0  0  0
 10 11  1  0  0  0  0
 11 12  2  0  0  0  0
 13 16  1  0  0  0  0
 13 12  1  0  0  0  0
 14 13  2  0  0  0  0
 15 14  1  0  0  0  0
 15 10  2  0  0  0  0
 17 16  1  0  0  0  0
 18 17  1  0  0  0  0
 19 18  1  0  0  0  0
 20 19  1  0  0  0  0
 20 21  1  0  0  0  0
 22 21  2  0  0  0  0
 23 22  1  0  0  0  0
 24 25  1  0  0  0  0
 24 23  2  0  0  0  0
 25 20  2  0  0  0  0
 26 31  1  0  0  0  0
 27 26  1  0  0  0  0
 27 28  1  0  0  0  0
 28 29  1  0  0  0  0
 29 30  1  0  0  0  0
 31 30  1  0  0  0  0
 32 33  2  0  0  0  0
 33 34  1  0  0  0  0
 33  1  1  0  0  0  0
M  END
>  <minimizedAffinity>
-7.77664995

$$$$

 OpenBabel09132200203D

 34 38  0  0  0  0  0  0  0  0999 V2000
    9.3210    9.0560    0.8750 C   0  0  0  0  0  0  0  0  0  0  0  0
    9.9830    8.9430    2.1080 C   0  0  0  0  0  3  0  0  0  0  0  0
   10.4580    7.7160    2.5920 C   0  0  0  0  0  3  0  0  0  0  0  0
   10.2480    6.5830    1.7970 C   0  0  0  0  0  0  0  0  0  0  0  0
    9.5940    6.6560    0.5700 C   0  0  0  0  0  0  0  0  0  0  0  0
    9.1290    7.8950    0.1010 C   0  0  0  0  0  3  0  0  0  0  0  0
    9.5080    5.4170   -0.0140 N   0  0  0  0  0  0  0  0  0  0  0  0
   10.0620    4.5710    0.8330 C   0  0  0  0  0  0  0  0  0  0  0  0
   10.5750    5.2470    1.9310 N   0  0  0  0  0  0  0  0  0  0  0  0
   10.1320    3.1280    0.6070 C   0  0  0  0  0  0  0  0  0  0  0  0
    9.4410    2.2320    1.4340 C   0  0  0  0  0  3  0  0  0  0  0  0
    9.4820    0.8600    1.1750 C   0  0  0  0  0  3  0  0  0  0  0  0
   10.1760    0.3830    0.0640 C   0  0  0  0  0  0  0  0  0  0  0  0
   10.8850    1.2590   -0.7540 C   0  0  0  0  0  3  0  0  0  0  0  0
   10.8530    2.6310   -0.4870 C   0  0  0  0  0  3  0  0  0  0  0  0
   10.1440   -0.9680   -0.1540 O   0  0  0  0  0  0  0  0  0  0  0  0
    9.5710   -1.7170    0.9370 C   0  0  0  0  0  2  0  0  0  0  0  0
   10.2530   -3.0770    1.1330 C   0  0  0  0  0  2  0  0  0  0  0  0
   10.6370   -3.5880   -0.1490 O   0  0  0  0  0  0  0  0  0  0  0  0
   11.9560   -3.4610   -0.4770 C   0  0  0  0  0  0  0  0  0  0  0  0
   12.4380   -3.2550   -1.7690 C   0  0  0  0  0  3  0  0  0  0  0  0
   13.8130   -3.1220   -1.9870 C   0  0  0  0  0  3  0  0  0  0  0  0
   14.7040   -3.2070   -0.9170 C   0  0  0  0  0  3  0  0  0  0  0  0
   14.2260   -3.4430    0.3690 C   0  0  0  0  0  3  0  0  0  0  0  0
   12.8550   -3.5860    0.5830 C   0  0  0  0  0  3  0  0  0  0  0  0
   11.3610    4.6480    3.0060 C   0  0  0  0  0  3  0  0  0  0  0  0
   10.4990    3.9300    4.0580 C   0  0  0  0  0  2  0  0  0  0  0  0
   11.3600    3.3740    5.1920 C   0  0  0  0  0  2  0  0  0  0  0  0
   12.4760    2.4770    4.6630 C   0  0  0  0  0  2  0  0  0  0  0  0
   13.3380    3.1960    3.6280 C   0  0  0  0  0  2  0  0  0  0  0  0
   12.4960    3.7550    2.4820 C   0  0  0  0  0  2  0  0  0  0  0  0
    7.5640   10.5670    0.3320 O   0  0  0  0  0  1  0  0  0  0  0  0
    8.8240   10.4030    0.3890 C   0  0  0  0  0  0  0  0  0  0  0  0
    9.7000   11.2680    0.0710 O   0  0  0  0  0  0  0  0  0  0  0  0
  1  2  1  0  0  0  0
  2  3  2  0  0  0  0
  4  9  1  0  0  0  0
  4  3  1  0  0  0  0
  5  4  2  0  0  0  0
  6  5  1  0  0  0  0
  6  1  2  0  0  0  0
  7  5  1  0  0  0  0
  7  8  2  0  0  0  0
  8  9  1  0  0  0  0
  9 26  1  0  0  0  0
 10  8  1  0  0  0  0
 10 11  1  0  0  0  0
 12 11  2  0  0  0  0
 13 12  1  0  0  0  0
 14 15  1  0  0  0  0
 14 13  2  0  0  0  0
 15 10  2  0  0  0  0
 16 13  1  0  0  0  0
 16 17  1  0  0  0  0
 17 18  1  0  0  0  0
 19 18  1  0  0  0  0
 20 19  1  0  0  0  0
 20 25  1  0  0  0  0
 21 20  2  0  0  0  0
 22 21  1  0  0  0  0
 22 23  2  0  0  0  0
 23 24  1  0  0  0  0
 24 25  2  0  0  0  0
 26 27  1  0  0  0  0
 27 28  1  0  0  0  0
 29 28  1  0  0  0  0
 30 29  1  0  0  0  0
 31 26  1  0  0  0  0
 31 30  1  0  0  0  0
 32 33  1  0  0  0  0
 33  1  1  0  0  0  0
 34 33  2  0  0  0  0
M  END
>  <minimizedAffinity>
-7.52893686

$$$$

 OpenBabel09132200203D

 34 38  0  0  0  0  0  0  0  0999 V2000
    9.0630   -2.0510    3.1620 C   0  0  0  0  0  0  0  0  0  0  0  0
    9.3430   -2.4780    1.8550 C   0  0  0  0  0  3  0  0  0  0  0  0
    9.6920   -1.5830    0.8340 C   0  0  0  0  0  3  0  0  0  0  0  0
    9.7550   -0.2230    1.1610 C   0  0  0  0  0  0  0  0  0  0  0  0
    9.4810    0.2380    2.4460 C   0  0  0  0  0  0  0  0  0  0  0  0
    9.1360   -0.6750    3.4550 C   0  0  0  0  0  3  0  0  0  0  0  0
    9.6030    1.6040    2.5130 N   0  0  0  0  0  0  0  0  0  0  0  0
    9.9140    2.0060    1.2950 C   0  0  0  0  0  0  0  0  0  0  0  0
   10.0670    0.9180    0.4480 N   0  0  0  0  0  0  0  0  0  0  0  0
   10.0880    3.4100    0.9270 C   0  0  0  0  0  0  0  0  0  0  0  0
    9.2210    4.0330    0.0190 C   0  0  0  0  0  3  0  0  0  0  0  0
    9.3740    5.3870   -0.2860 C   0  0  0  0  0  3  0  0  0  0  0  0
   10.3650    6.1340    0.3480 C   0  0  0  0  0  0  0  0  0  0  0  0
   11.2480    5.5240    1.2360 C   0  0  0  0  0  3  0  0  0  0  0  0
   11.1010    4.1650    1.5310 C   0  0  0  0  0  3  0  0  0  0  0  0
   10.4360    7.4640    0.0330 O   0  0  0  0  0  0  0  0  0  0  0  0
   11.1110    7.7290   -1.2130 C   0  0  0  0  0  2  0  0  0  0  0  0
   10.5630    8.9760   -1.9210 C   0  0  0  0  0  2  0  0  0  0  0  0
   10.5010    8.7160   -3.3280 O   0  0  0  0  0  0  0  0  0  0  0  0
    9.5100    9.3580   -4.0140 C   0  0  0  0  0  0  0  0  0  0  0  0
    8.6530    8.7490   -4.9300 C   0  0  0  0  0  3  0  0  0  0  0  0
    7.6610    9.5020   -5.5650 C   0  0  0  0  0  3  0  0  0  0  0  0
    7.5330   10.8640   -5.2930 C   0  0  0  0  0  3  0  0  0  0  0  0
    8.4070   11.4800   -4.4000 C   0  0  0  0  0  3  0  0  0  0  0  0
    9.4030   10.7290   -3.7760 C   0  0  0  0  0  3  0  0  0  0  0  0
   10.5260    0.9790   -0.9380 C   0  0  0  0  0  3  0  0  0  0  0  0
   11.9290    1.5920   -1.0830 C   0  0  0  0  0  2  0  0  0  0  0  0
   12.3400    1.6900   -2.5520 C   0  0  0  0  0  2  0  0  0  0  0  0
   12.2330    0.3400   -3.2570 C   0  0  0  0  0  2  0  0  0  0  0  0
   10.8360   -0.2610   -3.1220 C   0  0  0  0  0  2  0  0  0  0  0  0
   10.4100   -0.3730   -1.6590 C   0  0  0  0  0  2  0  0  0  0  0  0
    9.6440   -3.5930    4.8800 O   0  0  0  0  0  1  0  0  0  0  0  0
    8.6890   -3.0530    4.2360 C   0  0  0  0  0  0  0  0  0  0  0  0
    7.4520   -3.2830    4.4150 O   0  0  0  0  0  0  0  0  0  0  0  0
  1  6  1  0  0  0  0
  1 33  1  0  0  0  0
  2  1  2  0  0  0  0
  3  4  2  0  0  0  0
  3  2  1  0  0  0  0
  4  5  1  0  0  0  0
  5  7  1  0  0  0  0
  5  6  2  0  0  0  0
  8  7  2  0  0  0  0
  9  4  1  0  0  0  0
  9  8  1  0  0  0  0
 10  8  1  0  0  0  0
 10 15  1  0  0  0  0
 11 10  2  0  0  0  0
 12 11  1  0  0  0  0
 12 13  2  0  0  0  0
 13 14  1  0  0  0  0
 14 15  2  0  0  0  0
 16 13  1  0  0  0  0
 17 16  1  0  0  0  0
 18 17  1  0  0  0  0
 19 18  1  0  0  0  0
 20 25  1  0  0  0  0
 20 19  1  0  0  0  0
 21 20  2  0  0  0  0
 22 23  2  0  0  0  0
 22 21  1  0  0  0  0
 23 24  1  0  0  0  0
 24 25  2  0  0  0  0
 26  9  1  0  0  0  0
 27 26  1  0  0  0  0
 28 27  1  0  0  0  0
 29 30  1  0  0  0  0
 29 28  1  0  0  0  0
 30 31  1  0  0  0  0
 31 26  1  0  0  0  0
 33 34  2  0  0  0  0
 33 32  1  0  0  0  0
M  END
>  <minimizedAffinity>
-6.78245878

$$$$

 OpenBabel09132200203D

 34 38  0  0  0  0  0  0  0  0999 V2000
    9.6620    0.6750    2.5940 C   0  0  0  0  0  0  0  0  0  0  0  0
   10.3520    1.2810    3.6560 C   0  0  0  0  0  3  0  0  0  0  0  0
   10.7850    2.6120    3.6040 C   0  0  0  0  0  3  0  0  0  0  0  0
   10.5060    3.3380    2.4390 C   0  0  0  0  0  0  0  0  0  0  0  0
    9.8250    2.7710    1.3650 C   0  0  0  0  0  0  0  0  0  0  0  0
    9.3970    1.4360    1.4380 C   0  0  0  0  0  3  0  0  0  0  0  0
    9.6790    3.6770    0.3440 N   0  0  0  0  0  0  0  0  0  0  0  0
   10.2790    4.7820    0.7440 C   0  0  0  0  0  0  0  0  0  0  0  0
   10.7540    4.6370    2.0390 N   0  0  0  0  0  0  0  0  0  0  0  0
   10.3910    5.9850   -0.0800 C   0  0  0  0  0  0  0  0  0  0  0  0
   11.6390    6.5650   -0.3460 C   0  0  0  0  0  3  0  0  0  0  0  0
   11.7320    7.6870   -1.1730 C   0  0  0  0  0  3  0  0  0  0  0  0
   10.5850    8.2060   -1.7720 C   0  0  0  0  0  0  0  0  0  0  0  0
    9.3360    7.6530   -1.4990 C   0  0  0  0  0  3  0  0  0  0  0  0
    9.2430    6.5370   -0.6620 C   0  0  0  0  0  3  0  0  0  0  0  0
   10.7510    9.2820   -2.6010 O   0  0  0  0  0  0  0  0  0  0  0  0
    9.6630   10.2270   -2.5500 C   0  0  0  0  0  2  0  0  0  0  0  0
   10.0390   11.5090   -1.7950 C   0  0  0  0  0  2  0  0  0  0  0  0
    9.2800   11.5680   -0.5820 O   0  0  0  0  0  0  0  0  0  0  0  0
    9.7170   10.7730    0.4400 C   0  0  0  0  0  0  0  0  0  0  0  0
    8.9080    9.9110    1.1790 C   0  0  0  0  0  3  0  0  0  0  0  0
    9.4670    9.1300    2.1960 C   0  0  0  0  0  3  0  0  0  0  0  0
   10.8300    9.2200    2.4800 C   0  0  0  0  0  3  0  0  0  0  0  0
   11.6330   10.1030    1.7620 C   0  0  0  0  0  3  0  0  0  0  0  0
   11.0710   10.8890    0.7550 C   0  0  0  0  0  3  0  0  0  0  0  0
   11.3630    5.6930    2.8440 C   0  0  0  0  0  3  0  0  0  0  0  0
   10.7870    5.7760    4.2670 C   0  0  0  0  0  2  0  0  0  0  0  0
   11.4100    6.9320    5.0490 C   0  0  0  0  0  2  0  0  0  0  0  0
   12.9340    6.8490    5.0570 C   0  0  0  0  0  2  0  0  0  0  0  0
   13.5050    6.7780    3.6430 C   0  0  0  0  0  2  0  0  0  0  0  0
   12.8980    5.6240    2.8470 C   0  0  0  0  0  2  0  0  0  0  0  0
    8.6580   -1.2720    1.6620 O   0  0  0  0  0  0  0  0  0  0  0  0
    9.2110   -0.7680    2.6920 C   0  0  0  0  0  0  0  0  0  0  0  0
    9.4140   -1.3700    3.7920 O   0  0  0  0  0  1  0  0  0  0  0  0
  1 33  1  0  0  0  0
  1  2  1  0  0  0  0
  3  2  2  0  0  0  0
  4  3  1  0  0  0  0
  5  6  1  0  0  0  0
  5  4  2  0  0  0  0
  6  1  2  0  0  0  0
  7  8  2  0  0  0  0
  7  5  1  0  0  0  0
  8  9  1  0  0  0  0
  9  4  1  0  0  0  0
  9 26  1  0  0  0  0
 10  8  1  0  0  0  0
 11 10  1  0  0  0  0
 12 11  2  0  0  0  0
 13 14  2  0  0  0  0
 13 12  1  0  0  0  0
 14 15  1  0  0  0  0
 15 10  2  0  0  0  0
 16 17  1  0  0  0  0
 16 13  1  0  0  0  0
 17 18  1  0  0  0  0
 18 19  1  0  0  0  0
 19 20  1  0  0  0  0
 20 25  2  0  0  0  0
 20 21  1  0  0  0  0
 21 22  2  0  0  0  0
 22 23  1  0  0  0  0
 24 23  2  0  0  0  0
 25 24  1  0  0  0  0
 26 31  1  0  0  0  0
 26 27  1  0  0  0  0
 27 28  1  0  0  0  0
 28 29  1  0  0  0  0
 30 29  1  0  0  0  0
 31 30  1  0  0  0  0
 32 33  2  0  0  0  0
 33 34  1  0  0  0  0
M  END
>  <minimizedAffinity>
-6.69590425

$$$$

 OpenBabel09132200203D

 34 38  0  0  0  0  0  0  0  0999 V2000
    9.1080   -1.4470    3.0890 C   0  0  0  0  0  0  0  0  0  0  0  0
    9.6390   -0.9920    4.3060 C   0  0  0  0  0  3  0  0  0  0  0  0
   10.1890    0.2880    4.4500 C   0  0  0  0  0  3  0  0  0  0  0  0
   10.1950    1.1200    3.3230 C   0  0  0  0  0  0  0  0  0  0  0  0
    9.6790    0.7020    2.0990 C   0  0  0  0  0  0  0  0  0  0  0  0
    9.1300   -0.5830    1.9760 C   0  0  0  0  0  3  0  0  0  0  0  0
    9.8050    1.6890    1.1530 N   0  0  0  0  0  0  0  0  0  0  0  0
   10.4150    2.6960    1.7490 C   0  0  0  0  0  0  0  0  0  0  0  0
   10.6260    2.4110    3.0910 N   0  0  0  0  0  0  0  0  0  0  0  0
   10.7830    3.9370    1.0680 C   0  0  0  0  0  0  0  0  0  0  0  0
   12.1160    4.2090    0.7330 C   0  0  0  0  0  3  0  0  0  0  0  0
   12.4440    5.3770    0.0420 C   0  0  0  0  0  3  0  0  0  0  0  0
   11.4360    6.2550   -0.3560 C   0  0  0  0  0  0  0  0  0  0  0  0
   10.1100    6.0080   -0.0110 C   0  0  0  0  0  3  0  0  0  0  0  0
    9.7840    4.8440    0.6920 C   0  0  0  0  0  3  0  0  0  0  0  0
   11.8220    7.3610   -1.0630 O   0  0  0  0  0  0  0  0  0  0  0  0
   10.8880    8.4560   -0.9820 C   0  0  0  0  0  2  0  0  0  0  0  0
   10.9690    9.3860   -2.2000 C   0  0  0  0  0  2  0  0  0  0  0  0
   10.4540    8.6920   -3.3430 O   0  0  0  0  0  0  0  0  0  0  0  0
    9.4780    9.3370   -4.0470 C   0  0  0  0  0  0  0  0  0  0  0  0
    8.6250    8.7270   -4.9660 C   0  0  0  0  0  3  0  0  0  0  0  0
    7.6480    9.4840   -5.6210 C   0  0  0  0  0  3  0  0  0  0  0  0
    7.5320   10.8500   -5.3660 C   0  0  0  0  0  3  0  0  0  0  0  0
    8.4030   11.4670   -4.4700 C   0  0  0  0  0  3  0  0  0  0  0  0
    9.3830   10.7120   -3.8260 C   0  0  0  0  0  3  0  0  0  0  0  0
   11.1640    3.3400    4.0810 C   0  0  0  0  0  3  0  0  0  0  0  0
   12.6960    3.4640    4.0240 C   0  0  0  0  0  2  0  0  0  0  0  0
   13.2170    4.3980    5.1160 C   0  0  0  0  0  2  0  0  0  0  0  0
   12.5330    5.7610    5.0640 C   0  0  0  0  0  2  0  0  0  0  0  0
   11.0130    5.6360    5.1340 C   0  0  0  0  0  2  0  0  0  0  0  0
   10.4720    4.7110    4.0440 C   0  0  0  0  0  2  0  0  0  0  0  0
    8.4860   -3.3600    1.8160 O   0  0  0  0  0  0  0  0  0  0  0  0
    8.5220   -2.8400    2.9770 C   0  0  0  0  0  0  0  0  0  0  0  0
    8.1080   -3.3880    4.0470 O   0  0  0  0  0  1  0  0  0  0  0  0
  1  2  1  0  0  0  0
  2  3  2  0  0  0  0
  4  3  1  0  0  0  0
  5  4  2  0  0  0  0
  6  5  1  0  0  0  0
  6  1  2  0  0  0  0
  7  8  2  0  0  0  0
  7  5  1  0  0  0  0
  8  9  1  0  0  0  0
  9  4  1  0  0  0  0
  9 26  1  0  0  0  0
 10  8  1  0  0  0  0
 11 10  1  0  0  0  0
 12 11  2  0  0  0  0
 13 14  2  0  0  0  0
 13 12  1  0  0  0  0
 14 15  1  0  0  0  0
 15 10  2  0  0  0  0
 16 17  1  0  0  0  0
 16 13  1  0  0  0  0
 18 17  1  0  0  0  0
 19 18  1  0  0  0  0
 20 25  1  0  0  0  0
 20 19  1  0  0  0  0
 21 20  2  0  0  0  0
 22 23  2  0  0  0  0
 22 21  1  0  0  0  0
 23 24  1  0  0  0  0
 24 25  2  0  0  0  0
 27 26  1  0  0  0  0
 27 28  1  0  0  0  0
 29 28  1  0  0  0  0
 29 30  1  0  0  0  0
 31 26  1  0  0  0  0
 31 30  1  0  0  0  0
 32 33  2  0  0  0  0
 33  1  1  0  0  0  0
 33 34  1  0  0  0  0
M  END
>  <minimizedAffinity>
-6.40775681

$$$$

 OpenBabel09132200203D

 34 38  0  0  0  0  0  0  0  0999 V2000
   10.1450   10.3950    2.7400 C   0  0  0  0  0  0  0  0  0  0  0  0
   11.1320   10.7860    1.8210 C   0  0  0  0  0  3  0  0  0  0  0  0
   11.7040    9.8870    0.9100 C   0  0  0  0  0  3  0  0  0  0  0  0
   11.2560    8.5610    0.9430 C   0  0  0  0  0  0  0  0  0  0  0  0
   10.2810    8.1360    1.8420 C   0  0  0  0  0  0  0  0  0  0  0  0
    9.7180    9.0520    2.7440 C   0  0  0  0  0  3  0  0  0  0  0  0
   10.0180    6.7990    1.6820 N   0  0  0  0  0  0  0  0  0  0  0  0
   10.8270    6.3750    0.7300 C   0  0  0  0  0  0  0  0  0  0  0  0
   11.5660    7.4290    0.2140 N   0  0  0  0  0  0  0  0  0  0  0  0
   10.8950    4.9830    0.2870 C   0  0  0  0  0  0  0  0  0  0  0  0
   12.1180    4.3940   -0.0620 C   0  0  0  0  0  3  0  0  0  0  0  0
   12.1700    3.0500   -0.4390 C   0  0  0  0  0  3  0  0  0  0  0  0
   11.0090    2.2790   -0.4260 C   0  0  0  0  0  0  0  0  0  0  0  0
    9.7840    2.8560   -0.1030 C   0  0  0  0  0  3  0  0  0  0  0  0
    9.7300    4.2040    0.2630 C   0  0  0  0  0  3  0  0  0  0  0  0
   11.1380    0.9600   -0.7690 O   0  0  0  0  0  0  0  0  0  0  0  0
   10.3670    0.5860   -1.9290 C   0  0  0  0  0  2  0  0  0  0  0  0
   11.0830   -0.4620   -2.7920 C   0  0  0  0  0  2  0  0  0  0  0  0
   10.8820   -1.7540   -2.2070 O   0  0  0  0  0  0  0  0  0  0  0  0
   11.9350   -2.2650   -1.5020 C   0  0  0  0  0  0  0  0  0  0  0  0
   13.2730   -2.1520   -1.8780 C   0  0  0  0  0  3  0  0  0  0  0  0
   14.2730   -2.7010   -1.0700 C   0  0  0  0  0  3  0  0  0  0  0  0
   13.9350   -3.3720    0.1060 C   0  0  0  0  0  3  0  0  0  0  0  0
   12.5970   -3.5120    0.4670 C   0  0  0  0  0  3  0  0  0  0  0  0
   11.6010   -2.9720   -0.3460 C   0  0  0  0  0  3  0  0  0  0  0  0
   12.4700    7.3530   -0.9300 C   0  0  0  0  0  3  0  0  0  0  0  0
   12.0600    8.2780   -2.0880 C   0  0  0  0  0  2  0  0  0  0  0  0
   12.9990    8.1180   -3.2830 C   0  0  0  0  0  2  0  0  0  0  0  0
   14.4580    8.3210   -2.8820 C   0  0  0  0  0  2  0  0  0  0  0  0
   14.8670    7.3940   -1.7410 C   0  0  0  0  0  2  0  0  0  0  0  0
   13.9420    7.5430   -0.5340 C   0  0  0  0  0  2  0  0  0  0  0  0
   10.2880   11.7700    4.6780 O   0  0  0  0  0  1  0  0  0  0  0  0
    9.5530   11.4000    3.7080 C   0  0  0  0  0  0  0  0  0  0  0  0
    8.3670   11.7980    3.4830 O   0  0  0  0  0  0  0  0  0  0  0  0
  1  6  1  0  0  0  0
  1 33  1  0  0  0  0
  2  1  2  0  0  0  0
  3  4  2  0  0  0  0
  3  2  1  0  0  0  0
  4  5  1  0  0  0  0
  5  6  2  0  0  0  0
  7  5  1  0  0  0  0
  8  7  2  0  0  0  0
  9  8  1  0  0  0  0
  9  4  1  0  0  0  0
 10  8  1  0  0  0  0
 11 10  2  0  0  0  0
 12 13  2  0  0  0  0
 12 11  1  0  0  0  0
 13 14  1  0  0  0  0
 14 15  2  0  0  0  0
 15 10  1  0  0  0  0
 16 13  1  0  0  0  0
 17 16  1  0  0  0  0
 18 19  1  0  0  0  0
 18 17  1  0  0  0  0
 19 20  1  0  0  0  0
 20 25  1  0  0  0  0
 21 20  2  0  0  0  0
 21 22  1  0  0  0  0
 22 23  2  0  0  0  0
 23 24  1  0  0  0  0
 25 24  2  0  0  0  0
 26 31  1  0  0  0  0
 26  9  1  0  0  0  0
 27 26  1  0  0  0  0
 28 29  1  0  0  0  0
 28 27  1  0  0  0  0
 29 30  1  0  0  0  0
 30 31  1  0  0  0  0
 33 32  1  0  0  0  0
 34 33  2  0  0  0  0
M  END
>  <minimizedAffinity>
-6.38562918

$$$$

 OpenBabel09132200203D

 34 38  0  0  0  0  0  0  0  0999 V2000
   13.8940    8.8870   -3.9560 C   0  0  0  0  0  0  0  0  0  0  0  0
   13.1460    9.8310   -3.2320 C   0  0  0  0  0  3  0  0  0  0  0  0
   12.3940    9.4820   -2.1020 C   0  0  0  0  0  3  0  0  0  0  0  0
   12.4080    8.1380   -1.7060 C   0  0  0  0  0  0  0  0  0  0  0  0
   13.1350    7.1750   -2.4000 C   0  0  0  0  0  0  0  0  0  0  0  0
   13.8840    7.5450   -3.5280 C   0  0  0  0  0  3  0  0  0  0  0  0
   12.9850    5.9380   -1.8230 N   0  0  0  0  0  0  0  0  0  0  0  0
   12.1570    6.1030   -0.8090 C   0  0  0  0  0  0  0  0  0  0  0  0
   11.8200    7.4420   -0.6690 N   0  0  0  0  0  0  0  0  0  0  0  0
   11.6960    5.0090    0.0450 C   0  0  0  0  0  0  0  0  0  0  0  0
   12.5370    4.4450    1.0140 C   0  0  0  0  0  3  0  0  0  0  0  0
   12.0670    3.4330    1.8520 C   0  0  0  0  0  3  0  0  0  0  0  0
   10.7410    3.0110    1.7550 C   0  0  0  0  0  0  0  0  0  0  0  0
    9.9010    3.5460    0.7830 C   0  0  0  0  0  3  0  0  0  0  0  0
   10.3770    4.5520   -0.0640 C   0  0  0  0  0  3  0  0  0  0  0  0
   10.3340    2.0420    2.6320 O   0  0  0  0  0  0  0  0  0  0  0  0
    9.2370    1.2440    2.1450 C   0  0  0  0  0  2  0  0  0  0  0  0
    9.7010   -0.1140    1.5990 C   0  0  0  0  0  2  0  0  0  0  0  0
    9.2820   -0.2280    0.2340 O   0  0  0  0  0  0  0  0  0  0  0  0
   10.2760   -0.3990   -0.6870 C   0  0  0  0  0  0  0  0  0  0  0  0
   10.8130   -1.6310   -1.0580 C   0  0  0  0  0  3  0  0  0  0  0  0
   11.8200   -1.6890   -2.0260 C   0  0  0  0  0  3  0  0  0  0  0  0
   12.2970   -0.5170   -2.6140 C   0  0  0  0  0  3  0  0  0  0  0  0
   11.7810    0.7160   -2.2230 C   0  0  0  0  0  3  0  0  0  0  0  0
   10.7840    0.7730   -1.2490 C   0  0  0  0  0  3  0  0  0  0  0  0
   11.0230    8.0080    0.4170 C   0  0  0  0  0  3  0  0  0  0  0  0
   11.8130    8.9900    1.2980 C   0  0  0  0  0  2  0  0  0  0  0  0
   10.9570    9.5070    2.4530 C   0  0  0  0  0  2  0  0  0  0  0  0
    9.6490   10.1160    1.9550 C   0  0  0  0  0  2  0  0  0  0  0  0
    8.8600    9.1360    1.0900 C   0  0  0  0  0  2  0  0  0  0  0  0
    9.6980    8.6110   -0.0750 C   0  0  0  0  0  2  0  0  0  0  0  0
   14.7110   10.5490   -5.4510 O   0  0  0  0  0  1  0  0  0  0  0  0
   14.6940    9.3080   -5.1720 C   0  0  0  0  0  0  0  0  0  0  0  0
   15.2860    8.3930   -5.8270 O   0  0  0  0  0  0  0  0  0  0  0  0
  1  6  2  0  0  0  0
  1  2  1  0  0  0  0
  2  3  2  0  0  0  0
  3  4  1  0  0  0  0
  4  9  1  0  0  0  0
  5  7  1  0  0  0  0
  5  4  2  0  0  0  0
  6  5  1  0  0  0  0
  7  8  2  0  0  0  0
  8  9  1  0  0  0  0
  8 10  1  0  0  0  0
  9 26  1  0  0  0  0
 10 11  1  0  0  0  0
 11 12  2  0  0  0  0
 13 12  1  0  0  0  0
 13 16  1  0  0  0  0
 14 13  2  0  0  0  0
 15 10  2  0  0  0  0
 15 14  1  0  0  0  0
 17 16  1  0  0  0  0
 18 17  1  0  0  0  0
 19 18  1  0  0  0  0
 20 19  1  0  0  0  0
 21 20  1  0  0  0  0
 22 21  2  0  0  0  0
 23 24  2  0  0  0  0
 23 22  1  0  0  0  0
 24 25  1  0  0  0  0
 25 20  2  0  0  0  0
 26 27  1  0  0  0  0
 27 28  1  0  0  0  0
 29 28  1  0  0  0  0
 30 29  1  0  0  0  0
 31 26  1  0  0  0  0
 31 30  1  0  0  0  0
 32 33  1  0  0  0  0
 33  1  1  0  0  0  0
 34 33  2  0  0  0  0
M  END
>  <minimizedAffinity>
-6.27342319

$$$$

 OpenBabel09132200203D

 34 38  0  0  0  0  0  0  0  0999 V2000
   13.4200    8.1260   -4.9740 C   0  0  0  0  0  0  0  0  0  0  0  0
   12.7700    9.3660   -4.8740 C   0  0  0  0  0  3  0  0  0  0  0  0
   12.1210    9.7780   -3.7030 C   0  0  0  0  0  3  0  0  0  0  0  0
   12.1370    8.9000   -2.6120 C   0  0  0  0  0  0  0  0  0  0  0  0
   12.7680    7.6610   -2.6750 C   0  0  0  0  0  0  0  0  0  0  0  0
   13.4160    7.2680   -3.8560 C   0  0  0  0  0  3  0  0  0  0  0  0
   12.6410    6.9860   -1.4860 N   0  0  0  0  0  0  0  0  0  0  0  0
   11.9190    7.7590   -0.6990 C   0  0  0  0  0  0  0  0  0  0  0  0
   11.6320    8.9620   -1.3280 N   0  0  0  0  0  0  0  0  0  0  0  0
   11.5130    7.3820    0.6550 C   0  0  0  0  0  0  0  0  0  0  0  0
   10.2040    6.9620    0.9260 C   0  0  0  0  0  3  0  0  0  0  0  0
    9.8460    6.5610    2.2150 C   0  0  0  0  0  3  0  0  0  0  0  0
   10.8050    6.5360    3.2270 C   0  0  0  0  0  0  0  0  0  0  0  0
   12.1050    6.9710    2.9760 C   0  0  0  0  0  3  0  0  0  0  0  0
   12.4590    7.3830    1.6880 C   0  0  0  0  0  3  0  0  0  0  0  0
   10.3970    6.0960    4.4560 O   0  0  0  0  0  0  0  0  0  0  0  0
   11.2080    5.0300    4.9890 C   0  0  0  0  0  2  0  0  0  0  0  0
   10.6650    3.6430    4.6200 C   0  0  0  0  0  2  0  0  0  0  0  0
   11.6260    2.9790    3.7900 O   0  0  0  0  0  0  0  0  0  0  0  0
   11.4930    3.1720    2.4450 C   0  0  0  0  0  0  0  0  0  0  0  0
   10.3180    2.9620    1.7230 C   0  0  0  0  0  3  0  0  0  0  0  0
   10.2910    3.2070    0.3470 C   0  0  0  0  0  3  0  0  0  0  0  0
   11.4400    3.6500   -0.3080 C   0  0  0  0  0  3  0  0  0  0  0  0
   12.6230    3.8310    0.4060 C   0  0  0  0  0  3  0  0  0  0  0  0
   12.6490    3.5750    1.7770 C   0  0  0  0  0  3  0  0  0  0  0  0
   10.9570   10.1030   -0.7130 C   0  0  0  0  0  3  0  0  0  0  0  0
    9.4470    9.8810   -0.5230 C   0  0  0  0  0  2  0  0  0  0  0  0
    8.7770   11.1220    0.0660 C   0  0  0  0  0  2  0  0  0  0  0  0
    9.4540   11.5670    1.3600 C   0  0  0  0  0  2  0  0  0  0  0  0
   10.9500   11.7980    1.1650 C   0  0  0  0  0  2  0  0  0  0  0  0
   11.6400   10.5650    0.5830 C   0  0  0  0  0  2  0  0  0  0  0  0
   15.2860    8.1690   -6.4520 O   0  0  0  0  0  1  0  0  0  0  0  0
   14.1110    7.7200   -6.2600 C   0  0  0  0  0  0  0  0  0  0  0  0
   13.4680    6.9630   -7.0550 O   0  0  0  0  0  0  0  0  0  0  0  0
  1  2  2  0  0  0  0
  1  6  1  0  0  0  0
  2  3  1  0  0  0  0
  3  4  2  0  0  0  0
  4  9  1  0  0  0  0
  5  4  1  0  0  0  0
  5  7  1  0  0  0  0
  6  5  2  0  0  0  0
  7  8  2  0  0  0  0
  8 10  1  0  0  0  0
  9 26  1  0  0  0  0
  9  8  1  0  0  0  0
 10 11  2  0  0  0  0
 10 15  1  0  0  0  0
 11 12  1  0  0  0  0
 12 13  2  0  0  0  0
 13 16  1  0  0  0  0
 14 13  1  0  0  0  0
 15 14  2  0  0  0  0
 16 17  1  0  0  0  0
 18 17  1  0  0  0  0
 19 18  1  0  0  0  0
 20 19  1  0  0  0  0
 21 20  2  0  0  0  0
 22 21  1  0  0  0  0
 23 22  2  0  0  0  0
 23 24  1  0  0  0  0
 24 25  2  0  0  0  0
 25 20  1  0  0  0  0
 26 27  1  0  0  0  0
 26 31  1  0  0  0  0
 27 28  1  0  0  0  0
 28 29  1  0  0  0  0
 30 29  1  0  0  0  0
 31 30  1  0  0  0  0
 32 33  1  0  0  0  0
 33  1  1  0  0  0  0
 34 33  2  0  0  0  0
M  END
>  <minimizedAffinity>
-6.23403978

$$$$

 OpenBabel09132200203D

 34 38  0  0  0  0  0  0  0  0999 V2000
    9.7150    0.9680    2.6030 C   0  0  0  0  0  0  0  0  0  0  0  0
   10.2750    1.6430    3.6990 C   0  0  0  0  0  3  0  0  0  0  0  0
   10.6960    2.9770    3.6200 C   0  0  0  0  0  3  0  0  0  0  0  0
   10.5390    3.6330    2.3930 C   0  0  0  0  0  0  0  0  0  0  0  0
    9.9900    2.9960    1.2840 C   0  0  0  0  0  0  0  0  0  0  0  0
    9.5720    1.6600    1.3840 C   0  0  0  0  0  3  0  0  0  0  0  0
    9.9480    3.8420    0.2040 N   0  0  0  0  0  0  0  0  0  0  0  0
   10.4870    4.9780    0.6050 C   0  0  0  0  0  0  0  0  0  0  0  0
   10.8160    4.9120    1.9510 N   0  0  0  0  0  0  0  0  0  0  0  0
   10.6760    6.1360   -0.2680 C   0  0  0  0  0  0  0  0  0  0  0  0
   11.9490    6.4900   -0.7340 C   0  0  0  0  0  3  0  0  0  0  0  0
   12.1060    7.5710   -1.6040 C   0  0  0  0  0  3  0  0  0  0  0  0
   10.9870    8.2750   -2.0470 C   0  0  0  0  0  0  0  0  0  0  0  0
    9.7170    7.9480   -1.5750 C   0  0  0  0  0  3  0  0  0  0  0  0
    9.5640    6.8730   -0.6940 C   0  0  0  0  0  3  0  0  0  0  0  0
   11.2060    9.2980   -2.9280 O   0  0  0  0  0  0  0  0  0  0  0  0
    9.9970    9.8650   -3.4710 C   0  0  0  0  0  2  0  0  0  0  0  0
    9.8110   11.3350   -3.0700 C   0  0  0  0  0  2  0  0  0  0  0  0
    8.8210   11.4080   -2.0380 O   0  0  0  0  0  0  0  0  0  0  0  0
    9.2900   11.4200   -0.7550 C   0  0  0  0  0  0  0  0  0  0  0  0
    8.5230   11.1370    0.3750 C   0  0  0  0  0  3  0  0  0  0  0  0
    9.1130   11.1630    1.6420 C   0  0  0  0  0  3  0  0  0  0  0  0
   10.4640   11.4840    1.7800 C   0  0  0  0  0  3  0  0  0  0  0  0
   11.2230   11.7970    0.6550 C   0  0  0  0  0  3  0  0  0  0  0  0
   10.6300   11.7800   -0.6070 C   0  0  0  0  0  3  0  0  0  0  0  0
   11.3190    6.0210    2.7580 C   0  0  0  0  0  3  0  0  0  0  0  0
   12.8280    6.2610    2.5810 C   0  0  0  0  0  2  0  0  0  0  0  0
   13.3180    7.3890    3.4890 C   0  0  0  0  0  2  0  0  0  0  0  0
   12.5100    8.6680    3.2830 C   0  0  0  0  0  2  0  0  0  0  0  0
   11.0140    8.4300    3.4700 C   0  0  0  0  0  2  0  0  0  0  0  0
   10.5040    7.3090    2.5660 C   0  0  0  0  0  2  0  0  0  0  0  0
    9.3430   -1.0010    3.8880 O   0  0  0  0  0  1  0  0  0  0  0  0
    9.2720   -0.4760    2.7310 C   0  0  0  0  0  0  0  0  0  0  0  0
    8.8660   -1.0580    1.6770 O   0  0  0  0  0  0  0  0  0  0  0  0
  1 33  1  0  0  0  0
  1  2  1  0  0  0  0
  3  2  2  0  0  0  0
  4  3  1  0  0  0  0
  5  6  1  0  0  0  0
  5  4  2  0  0  0  0
  6  1  2  0  0  0  0
  7  8  2  0  0  0  0
  7  5  1  0  0  0  0
  8  9  1  0  0  0  0
  9  4  1  0  0  0  0
  9 26  1  0  0  0  0
 10  8  1  0  0  0  0
 11 10  2  0  0  0  0
 12 11  1  0  0  0  0
 13 12  2  0  0  0  0
 13 14  1  0  0  0  0
 14 15  2  0  0  0  0
 15 10  1  0  0  0  0
 16 13  1  0  0  0  0
 17 18  1  0  0  0  0
 17 16  1  0  0  0  0
 18 19  1  0  0  0  0
 19 20  1  0  0  0  0
 20 25  2  0  0  0  0
 20 21  1  0  0  0  0
 21 22  2  0  0  0  0
 22 23  1  0  0  0  0
 24 23  2  0  0  0  0
 25 24  1  0  0  0  0
 27 26  1  0  0  0  0
 27 28  1  0  0  0  0
 29 30  1  0  0  0  0
 29 28  1  0  0  0  0
 31 26  1  0  0  0  0
 31 30  1  0  0  0  0
 33 32  1  0  0  0  0
 34 33  2  0  0  0  0
M  END
>  <minimizedAffinity>
-6.22311068

$$$$

 OpenBabel09132200203D

 34 38  0  0  0  0  0  0  0  0999 V2000
    9.8010    7.9700    0.1750 C   0  0  0  0  0  0  0  0  0  0  0  0
   10.5890    7.9350    1.3370 C   0  0  0  0  0  3  0  0  0  0  0  0
   10.9610    6.7320    1.9520 C   0  0  0  0  0  3  0  0  0  0  0  0
   10.5150    5.5410    1.3650 C   0  0  0  0  0  0  0  0  0  0  0  0
    9.7310    5.5370    0.2150 C   0  0  0  0  0  0  0  0  0  0  0  0
    9.3710    6.7520   -0.3880 C   0  0  0  0  0  3  0  0  0  0  0  0
    9.4190    4.2540   -0.1600 N   0  0  0  0  0  0  0  0  0  0  0  0
    9.9620    3.4630    0.7450 C   0  0  0  0  0  0  0  0  0  0  0  0
   10.6850    4.2040    1.6680 N   0  0  0  0  0  0  0  0  0  0  0  0
    9.8220    2.0070    0.7360 C   0  0  0  0  0  0  0  0  0  0  0  0
   10.2940    1.2420   -0.3390 C   0  0  0  0  0  3  0  0  0  0  0  0
   10.1940   -0.1500   -0.3100 C   0  0  0  0  0  3  0  0  0  0  0  0
    9.6620   -0.7860    0.8110 C   0  0  0  0  0  0  0  0  0  0  0  0
    9.1680   -0.0380    1.8770 C   0  0  0  0  0  3  0  0  0  0  0  0
    9.2580    1.3570    1.8420 C   0  0  0  0  0  3  0  0  0  0  0  0
    9.6280   -2.1540    0.7890 O   0  0  0  0  0  0  0  0  0  0  0  0
    8.3500   -2.7070    1.1640 C   0  0  0  0  0  2  0  0  0  0  0  0
    8.4040   -3.4400    2.5120 C   0  0  0  0  0  2  0  0  0  0  0  0
    7.6240   -4.6380    2.4150 O   0  0  0  0  0  0  0  0  0  0  0  0
    6.3450   -4.5620    2.8880 C   0  0  0  0  0  0  0  0  0  0  0  0
    5.9490   -3.8060    3.9910 C   0  0  0  0  0  3  0  0  0  0  0  0
    4.6050   -3.7900    4.3790 C   0  0  0  0  0  3  0  0  0  0  0  0
    3.6630   -4.5370    3.6730 C   0  0  0  0  0  3  0  0  0  0  0  0
    4.0630   -5.3160    2.5890 C   0  0  0  0  0  3  0  0  0  0  0  0
    5.4050   -5.3390    2.2110 C   0  0  0  0  0  3  0  0  0  0  0  0
   11.5150    3.6540    2.7370 C   0  0  0  0  0  3  0  0  0  0  0  0
   13.0210    3.7240    2.4300 C   0  0  0  0  0  2  0  0  0  0  0  0
   13.8430    3.0820    3.5460 C   0  0  0  0  0  2  0  0  0  0  0  0
   13.5120    3.6880    4.9080 C   0  0  0  0  0  2  0  0  0  0  0  0
   12.0190    3.6070    5.2160 C   0  0  0  0  0  2  0  0  0  0  0  0
   11.1790    4.2490    4.1130 C   0  0  0  0  0  2  0  0  0  0  0  0
    9.0860   10.2360    0.3280 O   0  0  0  0  0  1  0  0  0  0  0  0
    9.4220    9.2940   -0.4580 C   0  0  0  0  0  0  0  0  0  0  0  0
    9.4650    9.3680   -1.7270 O   0  0  0  0  0  0  0  0  0  0  0  0
  1  2  1  0  0  0  0
  2  3  2  0  0  0  0
  4  9  1  0  0  0  0
  4  3  1  0  0  0  0
  5  4  2  0  0  0  0
  6  1  2  0  0  0  0
  6  5  1  0  0  0  0
  7  5  1  0  0  0  0
  7  8  2  0  0  0  0
  8  9  1  0  0  0  0
  9 26  1  0  0  0  0
 10  8  1  0  0  0  0
 10 15  1  0  0  0  0
 11 12  1  0  0  0  0
 11 10  2  0  0  0  0
 12 13  2  0  0  0  0
 13 14  1  0  0  0  0
 15 14  2  0  0  0  0
 16 13  1  0  0  0  0
 16 17  1  0  0  0  0
 17 18  1  0  0  0  0
 19 18  1  0  0  0  0
 19 20  1  0  0  0  0
 20 21  1  0  0  0  0
 21 22  2  0  0  0  0
 23 22  1  0  0  0  0
 24 23  2  0  0  0  0
 25 24  1  0  0  0  0
 25 20  2  0  0  0  0
 26 31  1  0  0  0  0
 27 26  1  0  0  0  0
 27 28  1  0  0  0  0
 28 29  1  0  0  0  0
 29 30  1  0  0  0  0
 31 30  1  0  0  0  0
 33  1  1  0  0  0  0
 33 32  1  0  0  0  0
 34 33  2  0  0  0  0
M  END
>  <minimizedAffinity>
-6.03363991

$$$$
