
 OpenBabel09132204463D

 34 38  0  0  0  0  0  0  0  0999 V2000
    9.1080   -1.4470    3.0890 C   0  0  0  0  0  0  0  0  0  0  0  0
    9.6390   -0.9920    4.3060 C   0  0  0  0  0  3  0  0  0  0  0  0
   10.1890    0.2880    4.4500 C   0  0  0  0  0  3  0  0  0  0  0  0
   10.1950    1.1200    3.3230 C   0  0  0  0  0  0  0  0  0  0  0  0
    9.6790    0.7020    2.0990 C   0  0  0  0  0  0  0  0  0  0  0  0
    9.1300   -0.5830    1.9760 C   0  0  0  0  0  3  0  0  0  0  0  0
    9.8050    1.6890    1.1530 N   0  0  0  0  0  0  0  0  0  0  0  0
   10.4150    2.6960    1.7490 C   0  0  0  0  0  0  0  0  0  0  0  0
   10.6260    2.4110    3.0910 N   0  0  0  0  0  0  0  0  0  0  0  0
   10.7830    3.9370    1.0680 C   0  0  0  0  0  0  0  0  0  0  0  0
   12.1160    4.2090    0.7330 C   0  0  0  0  0  3  0  0  0  0  0  0
   12.4440    5.3770    0.0420 C   0  0  0  0  0  3  0  0  0  0  0  0
   11.4360    6.2550   -0.3560 C   0  0  0  0  0  0  0  0  0  0  0  0
   10.1100    6.0080   -0.0110 C   0  0  0  0  0  3  0  0  0  0  0  0
    9.7840    4.8440    0.6920 C   0  0  0  0  0  3  0  0  0  0  0  0
   11.8220    7.3610   -1.0630 O   0  0  0  0  0  0  0  0  0  0  0  0
   10.8880    8.4560   -0.9820 C   0  0  0  0  0  2  0  0  0  0  0  0
   10.9690    9.3860   -2.2000 C   0  0  0  0  0  2  0  0  0  0  0  0
   10.4540    8.6920   -3.3430 O   0  0  0  0  0  0  0  0  0  0  0  0
    9.4780    9.3370   -4.0470 C   0  0  0  0  0  0  0  0  0  0  0  0
    8.6250    8.7270   -4.9660 C   0  0  0  0  0  3  0  0  0  0  0  0
    7.6480    9.4840   -5.6210 C   0  0  0  0  0  3  0  0  0  0  0  0
    7.5320   10.8500   -5.3660 C   0  0  0  0  0  3  0  0  0  0  0  0
    8.4030   11.4670   -4.4700 C   0  0  0  0  0  3  0  0  0  0  0  0
    9.3830   10.7120   -3.8260 C   0  0  0  0  0  3  0  0  0  0  0  0
   11.1640    3.3400    4.0810 C   0  0  0  0  0  3  0  0  0  0  0  0
   12.6960    3.4640    4.0240 C   0  0  0  0  0  2  0  0  0  0  0  0
   13.2170    4.3980    5.1160 C   0  0  0  0  0  2  0  0  0  0  0  0
   12.5330    5.7610    5.0640 C   0  0  0  0  0  2  0  0  0  0  0  0
   11.0130    5.6360    5.1340 C   0  0  0  0  0  2  0  0  0  0  0  0
   10.4720    4.7110    4.0440 C   0  0  0  0  0  2  0  0  0  0  0  0
    8.4860   -3.3600    1.8160 O   0  0  0  0  0  0  0  0  0  0  0  0
    8.5220   -2.8400    2.9770 C   0  0  0  0  0  0  0  0  0  0  0  0
    8.1080   -3.3880    4.0470 O   0  0  0  0  0  1  0  0  0  0  0  0
  1  2  1  0  0  0  0
  2  3  2  0  0  0  0
  4  3  1  0  0  0  0
  5  4  2  0  0  0  0
  6  5  1  0  0  0  0
  6  1  2  0  0  0  0
  7  8  2  0  0  0  0
  7  5  1  0  0  0  0
  8  9  1  0  0  0  0
  9  4  1  0  0  0  0
  9 26  1  0  0  0  0
 10  8  1  0  0  0  0
 11 10  1  0  0  0  0
 12 11  2  0  0  0  0
 13 14  2  0  0  0  0
 13 12  1  0  0  0  0
 14 15  1  0  0  0  0
 15 10  2  0  0  0  0
 16 17  1  0  0  0  0
 16 13  1  0  0  0  0
 18 17  1  0  0  0  0
 19 18  1  0  0  0  0
 20 25  1  0  0  0  0
 20 19  1  0  0  0  0
 21 20  2  0  0  0  0
 22 23  2  0  0  0  0
 22 21  1  0  0  0  0
 23 24  1  0  0  0  0
 24 25  2  0  0  0  0
 27 26  1  0  0  0  0
 27 28  1  0  0  0  0
 29 28  1  0  0  0  0
 29 30  1  0  0  0  0
 31 26  1  0  0  0  0
 31 30  1  0  0  0  0
 32 33  2  0  0  0  0
 33  1  1  0  0  0  0
 33 34  1  0  0  0  0
M  END
>  <minimizedAffinity>
-6.40775681

$$$$
