MODEL 1
REMARK VINA RESULT:      -8.2      0.000      0.000
REMARK  Name = 338298
REMARK  5 active torsions:
REMARK  status: ('A' for Active; 'I' for Inactive)
REMARK    1  A    between atoms: C_6  and  C_10
REMARK    2  A    between atoms: C_14  and  O_18
REMARK    3  A    between atoms: N_17  and  C_21
REMARK    4  A    between atoms: C_21  and  C_24
REMARK    5  A    between atoms: C_24  and  C_27
REMARK                            x       y       z     vdW  Elec       q    Type
REMARK                         _______ _______ _______ _____ _____    ______ ____
ROOT
ATOM      1  C   UNL     1     -10.105  54.402  52.301  0.00  0.00    +0.000 A 
ATOM      2  C   UNL     1      -8.728  54.951  52.158  0.00  0.00    +0.000 A 
ATOM      3  C   UNL     1     -10.320  53.305  53.041  0.00  0.00    +0.000 A 
ATOM      4  O   UNL     1      -8.607  55.953  51.450  0.00  0.00    +0.000 OA
ATOM      5  N   UNL     1      -7.670  54.348  52.829  0.00  0.00    +0.000 N 
ATOM      6  C   UNL     1      -9.205  52.657  53.746  0.00  0.00    +0.000 A 
ATOM      7  C   UNL     1      -7.894  53.164  53.619  0.00  0.00    +0.000 A 
ATOM      8  C   UNL     1      -9.447  51.534  54.559  0.00  0.00    +0.000 A 
ATOM      9  C   UNL     1      -6.860  52.493  54.295  0.00  0.00    +0.000 A 
ATOM     10  C   UNL     1      -8.414  50.910  55.250  0.00  0.00    +0.000 A 
ATOM     11  C   UNL     1      -7.119  51.388  55.113  0.00  0.00    +0.000 A 
ENDROOT
BRANCH   1  17
ATOM     12  S   UNL     1     -12.399  55.960  49.517  0.00  0.00    +0.000 S 
ATOM     13  O   UNL     1     -13.301  55.000  48.918  0.00  0.00    +0.000 OA
ATOM     14  O   UNL     1     -11.717  56.938  48.691  0.00  0.00    +0.000 OA
ATOM     15  N   UNL     1     -11.271  55.130  50.334  0.00  0.00    +0.000 N 
ATOM     16  C   UNL     1     -13.358  56.882  50.660  0.00  0.00    +0.000 A 
ATOM     17  C   UNL     1     -11.248  55.143  51.631  0.00  0.00    +0.000 C 
ATOM     18  C   UNL     1     -13.109  56.696  52.008  0.00  0.00    +0.000 A 
ATOM     19  C   UNL     1     -14.327  57.780  50.202  0.00  0.00    +0.000 A 
ATOM     20  N   UNL     1     -12.158  55.780  52.450  0.00  0.00    +0.000 N 
ATOM     21  C   UNL     1     -13.902  57.386  52.932  0.00  0.00    +0.000 A 
ATOM     22  C   UNL     1     -15.088  58.485  51.131  0.00  0.00    +0.000 A 
ATOM     23  C   UNL     1     -14.881  58.280  52.496  0.00  0.00    +0.000 A 
ATOM     24  H   UNL     1     -10.596  54.610  49.841  0.00  0.00    +0.000 HD
ATOM     25  H   UNL     1     -12.132  55.573  53.412  0.00  0.00    +0.000 HD
ENDBRANCH   1  17
BRANCH   3  26
ATOM     26  O   UNL     1     -11.561  52.719  53.220  0.00  0.00    +0.000 OA
ATOM     27  H   UNL     1     -12.296  53.245  53.469  0.00  0.00    +0.000 HD
ENDBRANCH   3  26
BRANCH   5  28
ATOM     28  C   UNL     1      -6.296  54.846  52.585  0.00  0.00    +0.000 C 
BRANCH  28  29
ATOM     29  C   UNL     1      -5.515  54.172  51.440  0.00  0.00    +0.000 C 
BRANCH  29  30
ATOM     30  C   UNL     1      -5.531  54.956  50.159  0.00  0.00    +0.000 C 
ATOM     31  C   UNL     1      -6.364  54.572  48.966  0.00  0.00    +0.000 C 
ATOM     32  C   UNL     1      -4.880  54.347  48.944  0.00  0.00    +0.000 C 
ENDBRANCH  29  30
ENDBRANCH  28  29
ENDBRANCH   5  28
TORSDOF 5
ENDMDL
MODEL 2
REMARK VINA RESULT:      -8.1      2.585      7.812
REMARK  Name = 338298
REMARK  5 active torsions:
REMARK  status: ('A' for Active; 'I' for Inactive)
REMARK    1  A    between atoms: C_6  and  C_10
REMARK    2  A    between atoms: C_14  and  O_18
REMARK    3  A    between atoms: N_17  and  C_21
REMARK    4  A    between atoms: C_21  and  C_24
REMARK    5  A    between atoms: C_24  and  C_27
REMARK                            x       y       z     vdW  Elec       q    Type
REMARK                         _______ _______ _______ _____ _____    ______ ____
ROOT
ATOM      1  C   UNL     1     -10.046  54.810  50.898  0.00  0.00    +0.000 A 
ATOM      2  C   UNL     1     -11.369  55.341  51.327  0.00  0.00    +0.000 A 
ATOM      3  C   UNL     1      -9.744  54.726  49.594  0.00  0.00    +0.000 A 
ATOM      4  O   UNL     1     -11.580  55.374  52.542  0.00  0.00    +0.000 OA
ATOM      5  N   UNL     1     -12.276  55.790  50.374  0.00  0.00    +0.000 N 
ATOM      6  C   UNL     1     -10.701  55.191  48.581  0.00  0.00    +0.000 A 
ATOM      7  C   UNL     1     -11.960  55.695  48.972  0.00  0.00    +0.000 A 
ATOM      8  C   UNL     1     -10.357  55.143  47.217  0.00  0.00    +0.000 A 
ATOM      9  C   UNL     1     -12.848  56.105  47.962  0.00  0.00    +0.000 A 
ATOM     10  C   UNL     1     -11.237  55.591  46.238  0.00  0.00    +0.000 A 
ATOM     11  C   UNL     1     -12.485  56.067  46.611  0.00  0.00    +0.000 A 
ENDROOT
BRANCH   1  17
ATOM     12  S   UNL     1      -6.773  54.716  53.071  0.00  0.00    +0.000 S 
ATOM     13  O   UNL     1      -6.729  55.753  54.079  0.00  0.00    +0.000 OA
ATOM     14  O   UNL     1      -5.585  54.386  52.307  0.00  0.00    +0.000 OA
ATOM     15  N   UNL     1      -7.946  55.105  52.020  0.00  0.00    +0.000 N 
ATOM     16  C   UNL     1      -7.231  53.243  53.907  0.00  0.00    +0.000 A 
ATOM     17  C   UNL     1      -9.045  54.418  51.971  0.00  0.00    +0.000 C 
ATOM     18  C   UNL     1      -8.487  52.722  53.652  0.00  0.00    +0.000 A 
ATOM     19  C   UNL     1      -6.336  52.626  54.785  0.00  0.00    +0.000 A 
ATOM     20  N   UNL     1      -9.377  53.361  52.793  0.00  0.00    +0.000 N 
ATOM     21  C   UNL     1      -8.885  51.577  54.351  0.00  0.00    +0.000 A 
ATOM     22  C   UNL     1      -6.733  51.468  55.450  0.00  0.00    +0.000 A 
ATOM     23  C   UNL     1      -8.011  50.950  55.240  0.00  0.00    +0.000 A 
ATOM     24  H   UNL     1      -7.822  55.869  51.412  0.00  0.00    +0.000 HD
ATOM     25  H   UNL     1     -10.307  53.037  52.770  0.00  0.00    +0.000 HD
ENDBRANCH   1  17
BRANCH   3  26
ATOM     26  O   UNL     1      -8.545  54.236  49.104  0.00  0.00    +0.000 OA
ATOM     27  H   UNL     1      -8.080  54.710  48.443  0.00  0.00    +0.000 HD
ENDBRANCH   3  26
BRANCH   5  28
ATOM     28  C   UNL     1     -13.626  56.212  50.819  0.00  0.00    +0.000 C 
BRANCH  28  29
ATOM     29  C   UNL     1     -13.836  57.724  51.033  0.00  0.00    +0.000 C 
BRANCH  29  30
ATOM     30  C   UNL     1     -14.090  58.097  52.465  0.00  0.00    +0.000 C 
ATOM     31  C   UNL     1     -15.350  57.732  53.204  0.00  0.00    +0.000 C 
ATOM     32  C   UNL     1     -15.132  59.147  52.753  0.00  0.00    +0.000 C 
ENDBRANCH  29  30
ENDBRANCH  28  29
ENDBRANCH   5  28
TORSDOF 5
ENDMDL
MODEL 3
REMARK VINA RESULT:      -8.0      3.178      7.130
REMARK  Name = 338298
REMARK  5 active torsions:
REMARK  status: ('A' for Active; 'I' for Inactive)
REMARK    1  A    between atoms: C_6  and  C_10
REMARK    2  A    between atoms: C_14  and  O_18
REMARK    3  A    between atoms: N_17  and  C_21
REMARK    4  A    between atoms: C_21  and  C_24
REMARK    5  A    between atoms: C_24  and  C_27
REMARK                            x       y       z     vdW  Elec       q    Type
REMARK                         _______ _______ _______ _____ _____    ______ ____
ROOT
ATOM      1  C   UNL     1     -10.255  55.215  50.824  0.00  0.00    +0.000 A 
ATOM      2  C   UNL     1      -9.793  55.191  49.408  0.00  0.00    +0.000 A 
ATOM      3  C   UNL     1     -11.485  55.657  51.124  0.00  0.00    +0.000 A 
ATOM      4  O   UNL     1      -8.645  54.786  49.213  0.00  0.00    +0.000 OA
ATOM      5  N   UNL     1     -10.655  55.588  48.393  0.00  0.00    +0.000 N 
ATOM      6  C   UNL     1     -12.398  56.086  50.056  0.00  0.00    +0.000 A 
ATOM      7  C   UNL     1     -11.974  56.072  48.710  0.00  0.00    +0.000 A 
ATOM      8  C   UNL     1     -13.704  56.505  50.376  0.00  0.00    +0.000 A 
ATOM      9  C   UNL     1     -12.879  56.515  47.729  0.00  0.00    +0.000 A 
ATOM     10  C   UNL     1     -14.594  56.902  49.384  0.00  0.00    +0.000 A 
ATOM     11  C   UNL     1     -14.179  56.911  48.061  0.00  0.00    +0.000 A 
ENDROOT
BRANCH   1  17
ATOM     12  S   UNL     1      -7.082  54.768  53.099  0.00  0.00    +0.000 S 
ATOM     13  O   UNL     1      -7.026  55.716  54.191  0.00  0.00    +0.000 OA
ATOM     14  O   UNL     1      -5.882  54.438  52.354  0.00  0.00    +0.000 OA
ATOM     15  N   UNL     1      -8.190  55.304  52.042  0.00  0.00    +0.000 N 
ATOM     16  C   UNL     1      -7.647  53.259  53.791  0.00  0.00    +0.000 A 
ATOM     17  C   UNL     1      -9.320  54.684  51.896  0.00  0.00    +0.000 C 
ATOM     18  C   UNL     1      -8.917  52.829  53.449  0.00  0.00    +0.000 A 
ATOM     19  C   UNL     1      -6.822  52.525  54.647  0.00  0.00    +0.000 A 
ATOM     20  N   UNL     1      -9.738  53.583  52.614  0.00  0.00    +0.000 N 
ATOM     21  C   UNL     1      -9.401  51.654  54.035  0.00  0.00    +0.000 A 
ATOM     22  C   UNL     1      -7.303  51.340  55.198  0.00  0.00    +0.000 A 
ATOM     23  C   UNL     1      -8.596  50.911  54.899  0.00  0.00    +0.000 A 
ATOM     24  H   UNL     1      -8.002  56.108  51.505  0.00  0.00    +0.000 HD
ATOM     25  H   UNL     1     -10.681  53.312  52.531  0.00  0.00    +0.000 HD
ENDBRANCH   1  17
BRANCH   3  26
ATOM     26  O   UNL     1     -11.994  55.726  52.410  0.00  0.00    +0.000 OA
ATOM     27  H   UNL     1     -12.720  55.187  52.656  0.00  0.00    +0.000 HD
ENDBRANCH   3  26
BRANCH   5  28
ATOM     28  C   UNL     1     -10.136  55.658  47.006  0.00  0.00    +0.000 C 
BRANCH  28  29
ATOM     29  C   UNL     1     -10.045  54.325  46.240  0.00  0.00    +0.000 C 
BRANCH  29  30
ATOM     30  C   UNL     1     -11.311  53.960  45.519  0.00  0.00    +0.000 C 
ATOM     31  C   UNL     1     -11.961  52.605  45.623  0.00  0.00    +0.000 C 
ATOM     32  C   UNL     1     -11.222  52.986  44.372  0.00  0.00    +0.000 C 
ENDBRANCH  29  30
ENDBRANCH  28  29
ENDBRANCH   5  28
TORSDOF 5
ENDMDL
MODEL 4
REMARK VINA RESULT:      -7.9      3.376      4.376
REMARK  Name = 338298
REMARK  5 active torsions:
REMARK  status: ('A' for Active; 'I' for Inactive)
REMARK    1  A    between atoms: C_6  and  C_10
REMARK    2  A    between atoms: C_14  and  O_18
REMARK    3  A    between atoms: N_17  and  C_21
REMARK    4  A    between atoms: C_21  and  C_24
REMARK    5  A    between atoms: C_24  and  C_27
REMARK                            x       y       z     vdW  Elec       q    Type
REMARK                         _______ _______ _______ _____ _____    ______ ____
ROOT
ATOM      1  C   UNL     1     -12.372  54.220  49.975  0.00  0.00    +0.000 A 
ATOM      2  C   UNL     1     -12.056  53.968  48.542  0.00  0.00    +0.000 A 
ATOM      3  C   UNL     1     -11.900  53.399  50.925  0.00  0.00    +0.000 A 
ATOM      4  O   UNL     1     -12.537  54.757  47.726  0.00  0.00    +0.000 OA
ATOM      5  N   UNL     1     -11.236  52.901  48.192  0.00  0.00    +0.000 N 
ATOM      6  C   UNL     1     -11.039  52.265  50.561  0.00  0.00    +0.000 A 
ATOM      7  C   UNL     1     -10.733  52.011  49.207  0.00  0.00    +0.000 A 
ATOM      8  C   UNL     1     -10.510  51.435  51.568  0.00  0.00    +0.000 A 
ATOM      9  C   UNL     1      -9.925  50.899  48.912  0.00  0.00    +0.000 A 
ATOM     10  C   UNL     1      -9.680  50.364  51.254  0.00  0.00    +0.000 A 
ATOM     11  C   UNL     1      -9.392  50.094  49.925  0.00  0.00    +0.000 A 
ENDROOT
BRANCH   1  17
ATOM     12  S   UNL     1     -15.316  56.479  51.271  0.00  0.00    +0.000 S 
ATOM     13  O   UNL     1     -15.303  56.663  52.706  0.00  0.00    +0.000 OA
ATOM     14  O   UNL     1     -16.566  56.249  50.573  0.00  0.00    +0.000 OA
ATOM     15  N   UNL     1     -14.322  55.243  50.927  0.00  0.00    +0.000 N 
ATOM     16  C   UNL     1     -14.646  57.947  50.584  0.00  0.00    +0.000 A 
ATOM     17  C   UNL     1     -13.192  55.449  50.326  0.00  0.00    +0.000 C 
ATOM     18  C   UNL     1     -13.399  57.870  49.988  0.00  0.00    +0.000 A 
ATOM     19  C   UNL     1     -15.370  59.141  50.636  0.00  0.00    +0.000 A 
ATOM     20  N   UNL     1     -12.679  56.679  49.967  0.00  0.00    +0.000 N 
ATOM     21  C   UNL     1     -12.830  59.044  49.484  0.00  0.00    +0.000 A 
ATOM     22  C   UNL     1     -14.806  60.297  50.100  0.00  0.00    +0.000 A 
ATOM     23  C   UNL     1     -13.532  60.249  49.533  0.00  0.00    +0.000 A 
ATOM     24  H   UNL     1     -14.581  54.326  51.177  0.00  0.00    +0.000 HD
ATOM     25  H   UNL     1     -11.739  56.716  49.674  0.00  0.00    +0.000 HD
ENDBRANCH   1  17
BRANCH   3  26
ATOM     26  O   UNL     1     -12.151  53.550  52.277  0.00  0.00    +0.000 OA
ATOM     27  H   UNL     1     -11.833  52.914  52.887  0.00  0.00    +0.000 HD
ENDBRANCH   3  26
BRANCH   5  28
ATOM     28  C   UNL     1     -11.026  52.607  46.755  0.00  0.00    +0.000 C 
BRANCH  28  29
ATOM     29  C   UNL     1      -9.636  52.943  46.182  0.00  0.00    +0.000 C 
BRANCH  29  30
ATOM     30  C   UNL     1      -9.361  54.417  46.099  0.00  0.00    +0.000 C 
ATOM     31  C   UNL     1      -8.040  54.988  45.658  0.00  0.00    +0.000 C 
ATOM     32  C   UNL     1      -8.422  55.024  47.110  0.00  0.00    +0.000 C 
ENDBRANCH  29  30
ENDBRANCH  28  29
ENDBRANCH   5  28
TORSDOF 5
ENDMDL
MODEL 5
REMARK VINA RESULT:      -7.9      2.225      3.166
REMARK  Name = 338298
REMARK  5 active torsions:
REMARK  status: ('A' for Active; 'I' for Inactive)
REMARK    1  A    between atoms: C_6  and  C_10
REMARK    2  A    between atoms: C_14  and  O_18
REMARK    3  A    between atoms: N_17  and  C_21
REMARK    4  A    between atoms: C_21  and  C_24
REMARK    5  A    between atoms: C_24  and  C_27
REMARK                            x       y       z     vdW  Elec       q    Type
REMARK                         _______ _______ _______ _____ _____    ______ ____
ROOT
ATOM      1  C   UNL     1     -11.704  53.994  51.090  0.00  0.00    +0.000 A 
ATOM      2  C   UNL     1     -10.805  54.000  52.277  0.00  0.00    +0.000 A 
ATOM      3  C   UNL     1     -11.777  52.910  50.304  0.00  0.00    +0.000 A 
ATOM      4  O   UNL     1     -10.781  55.038  52.942  0.00  0.00    +0.000 OA
ATOM      5  N   UNL     1     -10.072  52.862  52.595  0.00  0.00    +0.000 N 
ATOM      6  C   UNL     1     -10.997  51.707  50.630  0.00  0.00    +0.000 A 
ATOM      7  C   UNL     1     -10.139  51.698  51.750  0.00  0.00    +0.000 A 
ATOM      8  C   UNL     1     -11.115  50.557  49.826  0.00  0.00    +0.000 A 
ATOM      9  C   UNL     1      -9.398  50.530  52.003  0.00  0.00    +0.000 A 
ATOM     10  C   UNL     1     -10.402  49.399  50.119  0.00  0.00    +0.000 A 
ATOM     11  C   UNL     1      -9.540  49.389  51.205  0.00  0.00    +0.000 A 
ENDROOT
BRANCH   1  17
ATOM     12  S   UNL     1     -13.340  57.066  49.264  0.00  0.00    +0.000 S 
ATOM     13  O   UNL     1     -14.448  56.697  48.410  0.00  0.00    +0.000 OA
ATOM     14  O   UNL     1     -12.374  58.055  48.824  0.00  0.00    +0.000 OA
ATOM     15  N   UNL     1     -12.529  55.709  49.629  0.00  0.00    +0.000 N 
ATOM     16  C   UNL     1     -14.049  57.709  50.734  0.00  0.00    +0.000 A 
ATOM     17  C   UNL     1     -12.561  55.220  50.829  0.00  0.00    +0.000 C 
ATOM     18  C   UNL     1     -13.923  56.962  51.892  0.00  0.00    +0.000 A 
ATOM     19  C   UNL     1     -14.704  58.944  50.716  0.00  0.00    +0.000 A 
ATOM     20  N   UNL     1     -13.289  55.722  51.888  0.00  0.00    +0.000 N 
ATOM     21  C   UNL     1     -14.529  57.438  53.059  0.00  0.00    +0.000 A 
ATOM     22  C   UNL     1     -15.275  59.422  51.893  0.00  0.00    +0.000 A 
ATOM     23  C   UNL     1     -15.196  58.664  53.062  0.00  0.00    +0.000 A 
ATOM     24  H   UNL     1     -12.007  55.252  48.930  0.00  0.00    +0.000 HD
ATOM     25  H   UNL     1     -13.366  55.166  52.697  0.00  0.00    +0.000 HD
ENDBRANCH   1  17
BRANCH   3  26
ATOM     26  O   UNL     1     -12.574  52.819  49.176  0.00  0.00    +0.000 OA
ATOM     27  H   UNL     1     -13.090  53.553  48.907  0.00  0.00    +0.000 HD
ENDBRANCH   3  26
BRANCH   5  28
ATOM     28  C   UNL     1      -9.104  52.930  53.715  0.00  0.00    +0.000 C 
BRANCH  28  29
ATOM     29  C   UNL     1      -7.710  53.496  53.384  0.00  0.00    +0.000 C 
BRANCH  29  30
ATOM     30  C   UNL     1      -7.363  54.731  54.165  0.00  0.00    +0.000 C 
ATOM     31  C   UNL     1      -7.029  56.050  53.519  0.00  0.00    +0.000 C 
ATOM     32  C   UNL     1      -5.937  55.219  54.129  0.00  0.00    +0.000 C 
ENDBRANCH  29  30
ENDBRANCH  28  29
ENDBRANCH   5  28
TORSDOF 5
ENDMDL
MODEL 6
REMARK VINA RESULT:      -7.8      3.073      4.902
REMARK  Name = 338298
REMARK  5 active torsions:
REMARK  status: ('A' for Active; 'I' for Inactive)
REMARK    1  A    between atoms: C_6  and  C_10
REMARK    2  A    between atoms: C_14  and  O_18
REMARK    3  A    between atoms: N_17  and  C_21
REMARK    4  A    between atoms: C_21  and  C_24
REMARK    5  A    between atoms: C_24  and  C_27
REMARK                            x       y       z     vdW  Elec       q    Type
REMARK                         _______ _______ _______ _____ _____    ______ ____
ROOT
ATOM      1  C   UNL     1     -11.548  55.923  48.770  0.00  0.00    +0.000 A 
ATOM      2  C   UNL     1     -10.504  55.312  49.638  0.00  0.00    +0.000 A 
ATOM      3  C   UNL     1     -11.647  55.567  47.481  0.00  0.00    +0.000 A 
ATOM      4  O   UNL     1     -10.466  55.700  50.808  0.00  0.00    +0.000 OA
ATOM      5  N   UNL     1      -9.656  54.339  49.120  0.00  0.00    +0.000 N 
ATOM      6  C   UNL     1     -10.748  54.545  46.925  0.00  0.00    +0.000 A 
ATOM      7  C   UNL     1      -9.752  53.959  47.734  0.00  0.00    +0.000 A 
ATOM      8  C   UNL     1     -10.889  54.144  45.583  0.00  0.00    +0.000 A 
ATOM      9  C   UNL     1      -8.904  53.003  47.146  0.00  0.00    +0.000 A 
ATOM     10  C   UNL     1     -10.064  53.168  45.034  0.00  0.00    +0.000 A 
ATOM     11  C   UNL     1      -9.068  52.602  45.816  0.00  0.00    +0.000 A 
ENDROOT
BRANCH   1  17
ATOM     12  S   UNL     1     -13.560  59.228  49.455  0.00  0.00    +0.000 S 
ATOM     13  O   UNL     1     -14.702  59.392  48.581  0.00  0.00    +0.000 OA
ATOM     14  O   UNL     1     -12.713  60.362  49.772  0.00  0.00    +0.000 OA
ATOM     15  N   UNL     1     -12.620  58.069  48.820  0.00  0.00    +0.000 N 
ATOM     16  C   UNL     1     -14.197  58.661  50.987  0.00  0.00    +0.000 A 
ATOM     17  C   UNL     1     -12.516  56.911  49.396  0.00  0.00    +0.000 C 
ATOM     18  C   UNL     1     -13.920  57.357  51.357  0.00  0.00    +0.000 A 
ATOM     19  C   UNL     1     -14.945  59.518  51.798  0.00  0.00    +0.000 A 
ATOM     20  N   UNL     1     -13.194  56.507  50.528  0.00  0.00    +0.000 N 
ATOM     21  C   UNL     1     -14.465  56.875  52.552  0.00  0.00    +0.000 A 
ATOM     22  C   UNL     1     -15.456  59.036  53.001  0.00  0.00    +0.000 A 
ATOM     23  C   UNL     1     -15.223  57.712  53.373  0.00  0.00    +0.000 A 
ATOM     24  H   UNL     1     -12.121  58.246  47.990  0.00  0.00    +0.000 HD
ATOM     25  H   UNL     1     -13.161  55.551  50.765  0.00  0.00    +0.000 HD
ENDBRANCH   1  17
BRANCH   3  26
ATOM     26  O   UNL     1     -12.577  56.089  46.599  0.00  0.00    +0.000 OA
ATOM     27  H   UNL     1     -13.128  56.798  46.866  0.00  0.00    +0.000 HD
ENDBRANCH   3  26
BRANCH   5  28
ATOM     28  C   UNL     1      -8.557  53.826  49.972  0.00  0.00    +0.000 C 
BRANCH  28  29
ATOM     29  C   UNL     1      -7.391  54.795  50.243  0.00  0.00    +0.000 C 
BRANCH  29  30
ATOM     30  C   UNL     1      -6.465  54.962  49.073  0.00  0.00    +0.000 C 
ATOM     31  C   UNL     1      -5.601  53.851  48.538  0.00  0.00    +0.000 C 
ATOM     32  C   UNL     1      -4.980  54.963  49.334  0.00  0.00    +0.000 C 
ENDBRANCH  29  30
ENDBRANCH  28  29
ENDBRANCH   5  28
TORSDOF 5
ENDMDL
MODEL 7
REMARK VINA RESULT:      -7.6      2.881      5.185
REMARK  Name = 338298
REMARK  5 active torsions:
REMARK  status: ('A' for Active; 'I' for Inactive)
REMARK    1  A    between atoms: C_6  and  C_10
REMARK    2  A    between atoms: C_14  and  O_18
REMARK    3  A    between atoms: N_17  and  C_21
REMARK    4  A    between atoms: C_21  and  C_24
REMARK    5  A    between atoms: C_24  and  C_27
REMARK                            x       y       z     vdW  Elec       q    Type
REMARK                         _______ _______ _______ _____ _____    ______ ____
ROOT
ATOM      1  C   UNL     1     -11.450  55.904  48.855  0.00  0.00    +0.000 A 
ATOM      2  C   UNL     1     -10.438  55.297  49.764  0.00  0.00    +0.000 A 
ATOM      3  C   UNL     1     -11.497  55.544  47.563  0.00  0.00    +0.000 A 
ATOM      4  O   UNL     1     -10.447  55.688  50.933  0.00  0.00    +0.000 OA
ATOM      5  N   UNL     1      -9.569  54.326  49.281  0.00  0.00    +0.000 N 
ATOM      6  C   UNL     1     -10.575  54.524  47.045  0.00  0.00    +0.000 A 
ATOM      7  C   UNL     1      -9.610  53.942  47.893  0.00  0.00    +0.000 A 
ATOM      8  C   UNL     1     -10.663  54.119  45.700  0.00  0.00    +0.000 A 
ATOM      9  C   UNL     1      -8.737  52.988  47.342  0.00  0.00    +0.000 A 
ATOM     10  C   UNL     1      -9.814  53.145  45.186  0.00  0.00    +0.000 A 
ATOM     11  C   UNL     1      -8.848  52.583  46.006  0.00  0.00    +0.000 A 
ENDROOT
BRANCH   1  17
ATOM     12  S   UNL     1     -13.525  59.192  49.427  0.00  0.00    +0.000 S 
ATOM     13  O   UNL     1     -14.653  59.317  48.529  0.00  0.00    +0.000 OA
ATOM     14  O   UNL     1     -12.702  60.345  49.732  0.00  0.00    +0.000 OA
ATOM     15  N   UNL     1     -12.555  58.033  48.836  0.00  0.00    +0.000 N 
ATOM     16  C   UNL     1     -14.180  58.650  50.961  0.00  0.00    +0.000 A 
ATOM     17  C   UNL     1     -12.444  56.891  49.440  0.00  0.00    +0.000 C 
ATOM     18  C   UNL     1     -13.889  57.359  51.366  0.00  0.00    +0.000 A 
ATOM     19  C   UNL     1     -14.956  59.513  51.738  0.00  0.00    +0.000 A 
ATOM     20  N   UNL     1     -13.136  56.502  50.569  0.00  0.00    +0.000 N 
ATOM     21  C   UNL     1     -14.449  56.896  52.562  0.00  0.00    +0.000 A 
ATOM     22  C   UNL     1     -15.480  59.051  52.943  0.00  0.00    +0.000 A 
ATOM     23  C   UNL     1     -15.234  57.739  53.349  0.00  0.00    +0.000 A 
ATOM     24  H   UNL     1     -12.045  58.199  48.011  0.00  0.00    +0.000 HD
ATOM     25  H   UNL     1     -13.092  55.552  50.829  0.00  0.00    +0.000 HD
ENDBRANCH   1  17
BRANCH   3  26
ATOM     26  O   UNL     1     -12.394  56.063  46.645  0.00  0.00    +0.000 OA
ATOM     27  H   UNL     1     -13.123  56.573  46.939  0.00  0.00    +0.000 HD
ENDBRANCH   3  26
BRANCH   5  28
ATOM     28  C   UNL     1      -8.502  53.818  50.177  0.00  0.00    +0.000 C 
BRANCH  28  29
ATOM     29  C   UNL     1      -8.878  52.634  51.088  0.00  0.00    +0.000 C 
BRANCH  29  30
ATOM     30  C   UNL     1      -8.970  53.001  52.541  0.00  0.00    +0.000 C 
ATOM     31  C   UNL     1      -9.214  51.995  53.635  0.00  0.00    +0.000 C 
ATOM     32  C   UNL     1     -10.317  52.921  53.212  0.00  0.00    +0.000 C 
ENDBRANCH  29  30
ENDBRANCH  28  29
ENDBRANCH   5  28
TORSDOF 5
ENDMDL
MODEL 8
REMARK VINA RESULT:      -7.6      3.221      7.152
REMARK  Name = 338298
REMARK  5 active torsions:
REMARK  status: ('A' for Active; 'I' for Inactive)
REMARK    1  A    between atoms: C_6  and  C_10
REMARK    2  A    between atoms: C_14  and  O_18
REMARK    3  A    between atoms: N_17  and  C_21
REMARK    4  A    between atoms: C_21  and  C_24
REMARK    5  A    between atoms: C_24  and  C_27
REMARK                            x       y       z     vdW  Elec       q    Type
REMARK                         _______ _______ _______ _____ _____    ______ ____
ROOT
ATOM      1  C   UNL     1     -10.431  54.925  50.409  0.00  0.00    +0.000 A 
ATOM      2  C   UNL     1     -10.143  54.808  48.953  0.00  0.00    +0.000 A 
ATOM      3  C   UNL     1     -11.514  55.594  50.831  0.00  0.00    +0.000 A 
ATOM      4  O   UNL     1      -9.122  54.191  48.643  0.00  0.00    +0.000 OA
ATOM      5  N   UNL     1     -11.024  55.358  48.028  0.00  0.00    +0.000 N 
ATOM      6  C   UNL     1     -12.444  56.184  49.859  0.00  0.00    +0.000 A 
ATOM      7  C   UNL     1     -12.185  56.084  48.476  0.00  0.00    +0.000 A 
ATOM      8  C   UNL     1     -13.604  56.844  50.309  0.00  0.00    +0.000 A 
ATOM      9  C   UNL     1     -13.094  56.687  47.589  0.00  0.00    +0.000 A 
ATOM     10  C   UNL     1     -14.510  57.398  49.411  0.00  0.00    +0.000 A 
ATOM     11  C   UNL     1     -14.251  57.323  48.051  0.00  0.00    +0.000 A 
ENDROOT
BRANCH   1  17
ATOM     12  S   UNL     1      -8.947  52.232  52.857  0.00  0.00    +0.000 S 
ATOM     13  O   UNL     1      -8.259  51.158  52.173  0.00  0.00    +0.000 OA
ATOM     14  O   UNL     1      -9.809  51.946  53.988  0.00  0.00    +0.000 OA
ATOM     15  N   UNL     1      -9.827  53.031  51.753  0.00  0.00    +0.000 N 
ATOM     16  C   UNL     1      -7.697  53.302  53.463  0.00  0.00    +0.000 A 
ATOM     17  C   UNL     1      -9.498  54.231  51.385  0.00  0.00    +0.000 C 
ATOM     18  C   UNL     1      -7.576  54.549  52.875  0.00  0.00    +0.000 A 
ATOM     19  C   UNL     1      -6.872  52.895  54.515  0.00  0.00    +0.000 A 
ATOM     20  N   UNL     1      -8.388  54.932  51.812  0.00  0.00    +0.000 N 
ATOM     21  C   UNL     1      -6.549  55.393  53.314  0.00  0.00    +0.000 A 
ATOM     22  C   UNL     1      -5.875  53.758  54.965  0.00  0.00    +0.000 A 
ATOM     23  C   UNL     1      -5.708  55.002  54.357  0.00  0.00    +0.000 A 
ATOM     24  H   UNL     1     -10.620  52.602  51.358  0.00  0.00    +0.000 HD
ATOM     25  H   UNL     1      -8.156  55.760  51.331  0.00  0.00    +0.000 HD
ENDBRANCH   1  17
BRANCH   3  26
ATOM     26  O   UNL     1     -11.853  55.762  52.163  0.00  0.00    +0.000 OA
ATOM     27  H   UNL     1     -12.573  56.315  52.397  0.00  0.00    +0.000 HD
ENDBRANCH   3  26
BRANCH   5  28
ATOM     28  C   UNL     1     -10.660  55.322  46.591  0.00  0.00    +0.000 C 
BRANCH  28  29
ATOM     29  C   UNL     1     -11.352  54.244  45.735  0.00  0.00    +0.000 C 
BRANCH  29  30
ATOM     30  C   UNL     1     -10.457  53.089  45.387  0.00  0.00    +0.000 C 
ATOM     31  C   UNL     1      -9.095  53.257  44.766  0.00  0.00    +0.000 C 
ATOM     32  C   UNL     1     -10.244  52.769  43.929  0.00  0.00    +0.000 C 
ENDBRANCH  29  30
ENDBRANCH  28  29
ENDBRANCH   5  28
TORSDOF 5
ENDMDL
MODEL 9
REMARK VINA RESULT:      -7.5      2.810      8.060
REMARK  Name = 338298
REMARK  5 active torsions:
REMARK  status: ('A' for Active; 'I' for Inactive)
REMARK    1  A    between atoms: C_6  and  C_10
REMARK    2  A    between atoms: C_14  and  O_18
REMARK    3  A    between atoms: N_17  and  C_21
REMARK    4  A    between atoms: C_21  and  C_24
REMARK    5  A    between atoms: C_24  and  C_27
REMARK                            x       y       z     vdW  Elec       q    Type
REMARK                         _______ _______ _______ _____ _____    ______ ____
ROOT
ATOM      1  C   UNL     1      -9.729  54.029  50.585  0.00  0.00    +0.000 A 
ATOM      2  C   UNL     1     -10.930  54.444  51.362  0.00  0.00    +0.000 A 
ATOM      3  C   UNL     1      -9.670  54.252  49.264  0.00  0.00    +0.000 A 
ATOM      4  O   UNL     1     -10.917  54.193  52.569  0.00  0.00    +0.000 OA
ATOM      5  N   UNL     1     -11.975  55.101  50.721  0.00  0.00    +0.000 N 
ATOM      6  C   UNL     1     -10.774  54.938  48.579  0.00  0.00    +0.000 A 
ATOM      7  C   UNL     1     -11.920  55.335  49.300  0.00  0.00    +0.000 A 
ATOM      8  C   UNL     1     -10.683  55.209  47.201  0.00  0.00    +0.000 A 
ATOM      9  C   UNL     1     -12.958  55.967  48.593  0.00  0.00    +0.000 A 
ATOM     10  C   UNL     1     -11.706  55.871  46.530  0.00  0.00    +0.000 A 
ATOM     11  C   UNL     1     -12.845  56.245  47.226  0.00  0.00    +0.000 A 
ENDROOT
BRANCH   1  17
ATOM     12  S   UNL     1      -7.697  51.693  53.006  0.00  0.00    +0.000 S 
ATOM     13  O   UNL     1      -7.414  50.393  52.438  0.00  0.00    +0.000 OA
ATOM     14  O   UNL     1      -8.101  51.813  54.394  0.00  0.00    +0.000 OA
ATOM     15  N   UNL     1      -8.846  52.386  52.094  0.00  0.00    +0.000 N 
ATOM     16  C   UNL     1      -6.219  52.625  52.853  0.00  0.00    +0.000 A 
ATOM     17  C   UNL     1      -8.569  53.401  51.336  0.00  0.00    +0.000 C 
ATOM     18  C   UNL     1      -6.211  53.676  51.953  0.00  0.00    +0.000 A 
ATOM     19  C   UNL     1      -5.104  52.308  53.633  0.00  0.00    +0.000 A 
ATOM     20  N   UNL     1      -7.321  53.965  51.165  0.00  0.00    +0.000 N 
ATOM     21  C   UNL     1      -5.022  54.395  51.783  0.00  0.00    +0.000 A 
ATOM     22  C   UNL     1      -3.937  53.052  53.478  0.00  0.00    +0.000 A 
ATOM     23  C   UNL     1      -3.894  54.089  52.546  0.00  0.00    +0.000 A 
ATOM     24  H   UNL     1      -9.765  52.032  52.117  0.00  0.00    +0.000 HD
ATOM     25  H   UNL     1      -7.209  54.616  50.435  0.00  0.00    +0.000 HD
ENDBRANCH   1  17
BRANCH   3  26
ATOM     26  O   UNL     1      -8.600  53.891  48.463  0.00  0.00    +0.000 OA
ATOM     27  H   UNL     1      -8.084  54.551  48.045  0.00  0.00    +0.000 HD
ENDBRANCH   3  26
BRANCH   5  28
ATOM     28  C   UNL     1     -13.203  55.406  51.492  0.00  0.00    +0.000 C 
BRANCH  28  29
ATOM     29  C   UNL     1     -13.244  56.771  52.206  0.00  0.00    +0.000 C 
BRANCH  29  30
ATOM     30  C   UNL     1     -14.559  57.483  52.062  0.00  0.00    +0.000 C 
ATOM     31  C   UNL     1     -14.711  58.974  52.206  0.00  0.00    +0.000 C 
ATOM     32  C   UNL     1     -15.192  58.064  53.300  0.00  0.00    +0.000 C 
ENDBRANCH  29  30
ENDBRANCH  28  29
ENDBRANCH   5  28
TORSDOF 5
ENDMDL
