MODEL 1
REMARK VINA RESULT:      -8.6      0.000      0.000
REMARK  Name = 338063
REMARK  8 active torsions:
REMARK  status: ('A' for Active; 'I' for Inactive)
REMARK    1  A    between atoms: C_6  and  C_10
REMARK    2  A    between atoms: C_14  and  O_18
REMARK    3  A    between atoms: N_17  and  C_21
REMARK    4  A    between atoms: C_21  and  C_24
REMARK    5  A    between atoms: C_24  and  C_27
REMARK    6  A    between atoms: C_25  and  C_28
REMARK    7  A    between atoms: C_27  and  C_29
REMARK    8  A    between atoms: C_27  and  C_30
REMARK                            x       y       z     vdW  Elec       q    Type
REMARK                         _______ _______ _______ _____ _____    ______ ____
ROOT
ATOM      1  C   UNL     1     -10.140  54.393  52.202  0.00  0.00    +0.000 A 
ATOM      2  C   UNL     1      -8.771  54.992  52.146  0.00  0.00    +0.000 A 
ATOM      3  C   UNL     1     -10.357  53.281  52.925  0.00  0.00    +0.000 A 
ATOM      4  O   UNL     1      -8.634  56.075  51.569  0.00  0.00    +0.000 OA
ATOM      5  N   UNL     1      -7.718  54.320  52.758  0.00  0.00    +0.000 N 
ATOM      6  C   UNL     1      -9.258  52.653  53.675  0.00  0.00    +0.000 A 
ATOM      7  C   UNL     1      -7.963  53.191  53.602  0.00  0.00    +0.000 A 
ATOM      8  C   UNL     1      -9.498  51.526  54.486  0.00  0.00    +0.000 A 
ATOM      9  C   UNL     1      -6.953  52.617  54.389  0.00  0.00    +0.000 A 
ATOM     10  C   UNL     1      -8.473  50.935  55.231  0.00  0.00    +0.000 A 
ATOM     11  C   UNL     1      -7.200  51.495  55.182  0.00  0.00    +0.000 A 
ATOM     12  C   UNL     1      -8.736  49.746  56.104  0.00  0.00    +0.000 C 
ENDROOT
BRANCH   1  18
ATOM     13  S   UNL     1     -12.377  55.862  49.324  0.00  0.00    +0.000 S 
ATOM     14  O   UNL     1     -13.218  54.857  48.699  0.00  0.00    +0.000 OA
ATOM     15  O   UNL     1     -11.709  56.863  48.515  0.00  0.00    +0.000 OA
ATOM     16  N   UNL     1     -11.251  55.089  50.194  0.00  0.00    +0.000 N 
ATOM     17  C   UNL     1     -13.418  56.749  50.428  0.00  0.00    +0.000 A 
ATOM     18  C   UNL     1     -11.282  55.098  51.495  0.00  0.00    +0.000 C 
ATOM     19  C   UNL     1     -13.223  56.566  51.785  0.00  0.00    +0.000 A 
ATOM     20  C   UNL     1     -14.393  57.614  49.923  0.00  0.00    +0.000 A 
ATOM     21  N   UNL     1     -12.252  55.694  52.270  0.00  0.00    +0.000 N 
ATOM     22  C   UNL     1     -14.087  57.223  52.667  0.00  0.00    +0.000 A 
ATOM     23  C   UNL     1     -15.222  58.292  50.816  0.00  0.00    +0.000 A 
ATOM     24  C   UNL     1     -15.075  58.088  52.186  0.00  0.00    +0.000 A 
ATOM     25  H   UNL     1     -10.531  54.603  49.730  0.00  0.00    +0.000 HD
ATOM     26  H   UNL     1     -12.260  55.490  53.233  0.00  0.00    +0.000 HD
ENDBRANCH   1  18
BRANCH   3  27
ATOM     27  O   UNL     1     -11.592  52.672  53.071  0.00  0.00    +0.000 OA
ATOM     28  H   UNL     1     -12.042  52.716  53.892  0.00  0.00    +0.000 HD
ENDBRANCH   3  27
BRANCH   5  29
ATOM     29  C   UNL     1      -6.371  54.886  52.618  0.00  0.00    +0.000 C 
BRANCH  29  30
ATOM     30  C   UNL     1      -5.494  54.277  51.511  0.00  0.00    +0.000 C 
BRANCH  30  31
ATOM     31  C   UNL     1      -4.116  53.741  51.933  0.00  0.00    +0.000 C 
ATOM     32  C   UNL     1      -3.847  53.932  53.424  0.00  0.00    +0.000 C 
ATOM     33  C   UNL     1      -4.039  52.250  51.582  0.00  0.00    +0.000 C 
ENDBRANCH  30  31
ENDBRANCH  29  30
ENDBRANCH   5  29
TORSDOF 5
ENDMDL
MODEL 2
REMARK VINA RESULT:      -8.3      3.667      5.437
REMARK  Name = 338063
REMARK  8 active torsions:
REMARK  status: ('A' for Active; 'I' for Inactive)
REMARK    1  A    between atoms: C_6  and  C_10
REMARK    2  A    between atoms: C_14  and  O_18
REMARK    3  A    between atoms: N_17  and  C_21
REMARK    4  A    between atoms: C_21  and  C_24
REMARK    5  A    between atoms: C_24  and  C_27
REMARK    6  A    between atoms: C_25  and  C_28
REMARK    7  A    between atoms: C_27  and  C_29
REMARK    8  A    between atoms: C_27  and  C_30
REMARK                            x       y       z     vdW  Elec       q    Type
REMARK                         _______ _______ _______ _____ _____    ______ ____
ROOT
ATOM      1  C   UNL     1     -11.342  56.142  48.731  0.00  0.00    +0.000 A 
ATOM      2  C   UNL     1     -10.151  55.707  49.524  0.00  0.00    +0.000 A 
ATOM      3  C   UNL     1     -11.525  55.675  47.485  0.00  0.00    +0.000 A 
ATOM      4  O   UNL     1     -10.077  56.064  50.704  0.00  0.00    +0.000 OA
ATOM      5  N   UNL     1      -9.192  54.908  48.911  0.00  0.00    +0.000 N 
ATOM      6  C   UNL     1     -10.568  54.726  46.896  0.00  0.00    +0.000 A 
ATOM      7  C   UNL     1      -9.430  54.337  47.621  0.00  0.00    +0.000 A 
ATOM      8  C   UNL     1     -10.793  54.185  45.615  0.00  0.00    +0.000 A 
ATOM      9  C   UNL     1      -8.577  53.372  47.065  0.00  0.00    +0.000 A 
ATOM     10  C   UNL     1      -9.912  53.257  45.051  0.00  0.00    +0.000 A 
ATOM     11  C   UNL     1      -8.806  52.850  45.791  0.00  0.00    +0.000 A 
ATOM     12  C   UNL     1     -10.164  52.673  43.695  0.00  0.00    +0.000 C 
ENDROOT
BRANCH   1  18
ATOM     13  S   UNL     1     -13.554  59.307  49.466  0.00  0.00    +0.000 S 
ATOM     14  O   UNL     1     -14.703  59.404  48.585  0.00  0.00    +0.000 OA
ATOM     15  O   UNL     1     -12.789  60.491  49.805  0.00  0.00    +0.000 OA
ATOM     16  N   UNL     1     -12.537  58.220  48.829  0.00  0.00    +0.000 N 
ATOM     17  C   UNL     1     -14.161  58.673  50.988  0.00  0.00    +0.000 A 
ATOM     18  C   UNL     1     -12.367  57.053  49.381  0.00  0.00    +0.000 C 
ATOM     19  C   UNL     1     -13.814  57.379  51.332  0.00  0.00    +0.000 A 
ATOM     20  C   UNL     1     -14.956  59.476  51.811  0.00  0.00    +0.000 A 
ATOM     21  N   UNL     1     -13.029  56.589  50.496  0.00  0.00    +0.000 N 
ATOM     22  C   UNL     1     -14.343  56.848  52.513  0.00  0.00    +0.000 A 
ATOM     23  C   UNL     1     -15.444  58.946  53.005  0.00  0.00    +0.000 A 
ATOM     24  C   UNL     1     -15.146  57.630  53.350  0.00  0.00    +0.000 A 
ATOM     25  H   UNL     1     -12.040  58.445  48.009  0.00  0.00    +0.000 HD
ATOM     26  H   UNL     1     -12.940  55.634  50.719  0.00  0.00    +0.000 HD
ENDBRANCH   1  18
BRANCH   3  27
ATOM     27  O   UNL     1     -12.612  55.987  46.685  0.00  0.00    +0.000 OA
ATOM     28  H   UNL     1     -13.431  56.217  47.076  0.00  0.00    +0.000 HD
ENDBRANCH   3  27
BRANCH   5  29
ATOM     29  C   UNL     1      -7.993  54.563  49.685  0.00  0.00    +0.000 C 
BRANCH  29  30
ATOM     30  C   UNL     1      -6.818  55.551  49.585  0.00  0.00    +0.000 C 
BRANCH  30  31
ATOM     31  C   UNL     1      -5.403  54.959  49.697  0.00  0.00    +0.000 C 
ATOM     32  C   UNL     1      -5.174  54.239  51.024  0.00  0.00    +0.000 C 
ATOM     33  C   UNL     1      -5.186  53.981  48.535  0.00  0.00    +0.000 C 
ENDBRANCH  30  31
ENDBRANCH  29  30
ENDBRANCH   5  29
TORSDOF 5
ENDMDL
MODEL 3
REMARK VINA RESULT:      -8.1      1.637      2.429
REMARK  Name = 338063
REMARK  8 active torsions:
REMARK  status: ('A' for Active; 'I' for Inactive)
REMARK    1  A    between atoms: C_6  and  C_10
REMARK    2  A    between atoms: C_14  and  O_18
REMARK    3  A    between atoms: N_17  and  C_21
REMARK    4  A    between atoms: C_21  and  C_24
REMARK    5  A    between atoms: C_24  and  C_27
REMARK    6  A    between atoms: C_25  and  C_28
REMARK    7  A    between atoms: C_27  and  C_29
REMARK    8  A    between atoms: C_27  and  C_30
REMARK                            x       y       z     vdW  Elec       q    Type
REMARK                         _______ _______ _______ _____ _____    ______ ____
ROOT
ATOM      1  C   UNL     1     -10.087  54.565  52.143  0.00  0.00    +0.000 A 
ATOM      2  C   UNL     1      -8.692  55.105  52.119  0.00  0.00    +0.000 A 
ATOM      3  C   UNL     1     -10.362  53.449  52.837  0.00  0.00    +0.000 A 
ATOM      4  O   UNL     1      -8.500  56.194  51.569  0.00  0.00    +0.000 OA
ATOM      5  N   UNL     1      -7.678  54.374  52.730  0.00  0.00    +0.000 N 
ATOM      6  C   UNL     1      -9.303  52.757  53.588  0.00  0.00    +0.000 A 
ATOM      7  C   UNL     1      -7.984  53.239  53.545  0.00  0.00    +0.000 A 
ATOM      8  C   UNL     1      -9.603  51.624  54.370  0.00  0.00    +0.000 A 
ATOM      9  C   UNL     1      -7.012  52.604  54.333  0.00  0.00    +0.000 A 
ATOM     10  C   UNL     1      -8.616  50.972  55.115  0.00  0.00    +0.000 A 
ATOM     11  C   UNL     1      -7.320  51.477  55.096  0.00  0.00    +0.000 A 
ATOM     12  C   UNL     1      -8.944  49.777  55.958  0.00  0.00    +0.000 C 
ENDROOT
BRANCH   1  18
ATOM     13  S   UNL     1     -13.454  56.494  51.522  0.00  0.00    +0.000 S 
ATOM     14  O   UNL     1     -13.396  57.878  51.956  0.00  0.00    +0.000 OA
ATOM     15  O   UNL     1     -14.640  55.698  51.772  0.00  0.00    +0.000 OA
ATOM     16  N   UNL     1     -12.188  55.722  52.171  0.00  0.00    +0.000 N 
ATOM     17  C   UNL     1     -13.251  56.523  49.777  0.00  0.00    +0.000 A 
ATOM     18  C   UNL     1     -11.186  55.335  51.435  0.00  0.00    +0.000 C 
ATOM     19  C   UNL     1     -12.065  56.038  49.258  0.00  0.00    +0.000 A 
ATOM     20  C   UNL     1     -14.276  57.014  48.963  0.00  0.00    +0.000 A 
ATOM     21  N   UNL     1     -11.050  55.560  50.083  0.00  0.00    +0.000 N 
ATOM     22  C   UNL     1     -11.873  56.113  47.874  0.00  0.00    +0.000 A 
ATOM     23  C   UNL     1     -14.086  57.047  47.582  0.00  0.00    +0.000 A 
ATOM     24  C   UNL     1     -12.881  56.607  47.040  0.00  0.00    +0.000 A 
ATOM     25  H   UNL     1     -12.175  55.542  53.139  0.00  0.00    +0.000 HD
ATOM     26  H   UNL     1     -10.176  55.370  49.672  0.00  0.00    +0.000 HD
ENDBRANCH   1  18
BRANCH   3  27
ATOM     27  O   UNL     1     -11.624  52.891  52.952  0.00  0.00    +0.000 OA
ATOM     28  H   UNL     1     -12.381  53.390  52.713  0.00  0.00    +0.000 HD
ENDBRANCH   3  27
BRANCH   5  29
ATOM     29  C   UNL     1      -6.306  54.884  52.622  0.00  0.00    +0.000 C 
BRANCH  29  30
ATOM     30  C   UNL     1      -5.370  54.107  51.681  0.00  0.00    +0.000 C 
BRANCH  30  31
ATOM     31  C   UNL     1      -5.808  53.984  50.213  0.00  0.00    +0.000 C 
ATOM     32  C   UNL     1      -5.746  55.317  49.471  0.00  0.00    +0.000 C 
ATOM     33  C   UNL     1      -4.902  52.962  49.513  0.00  0.00    +0.000 C 
ENDBRANCH  30  31
ENDBRANCH  29  30
ENDBRANCH   5  29
TORSDOF 5
ENDMDL
MODEL 4
REMARK VINA RESULT:      -8.1      3.752      4.786
REMARK  Name = 338063
REMARK  8 active torsions:
REMARK  status: ('A' for Active; 'I' for Inactive)
REMARK    1  A    between atoms: C_6  and  C_10
REMARK    2  A    between atoms: C_14  and  O_18
REMARK    3  A    between atoms: N_17  and  C_21
REMARK    4  A    between atoms: C_21  and  C_24
REMARK    5  A    between atoms: C_24  and  C_27
REMARK    6  A    between atoms: C_25  and  C_28
REMARK    7  A    between atoms: C_27  and  C_29
REMARK    8  A    between atoms: C_27  and  C_30
REMARK                            x       y       z     vdW  Elec       q    Type
REMARK                         _______ _______ _______ _____ _____    ______ ____
ROOT
ATOM      1  C   UNL     1     -12.360  54.303  49.850  0.00  0.00    +0.000 A 
ATOM      2  C   UNL     1     -11.892  54.153  48.438  0.00  0.00    +0.000 A 
ATOM      3  C   UNL     1     -11.987  53.407  50.779  0.00  0.00    +0.000 A 
ATOM      4  O   UNL     1     -12.159  55.056  47.639  0.00  0.00    +0.000 OA
ATOM      5  N   UNL     1     -11.164  53.021  48.088  0.00  0.00    +0.000 N 
ATOM      6  C   UNL     1     -11.107  52.284  50.421  0.00  0.00    +0.000 A 
ATOM      7  C   UNL     1     -10.689  52.118  49.090  0.00  0.00    +0.000 A 
ATOM      8  C   UNL     1     -10.661  51.382  51.407  0.00  0.00    +0.000 A 
ATOM      9  C   UNL     1      -9.789  51.083  48.795  0.00  0.00    +0.000 A 
ATOM     10  C   UNL     1      -9.799  50.327  51.092  0.00  0.00    +0.000 A 
ATOM     11  C   UNL     1      -9.361  50.190  49.778  0.00  0.00    +0.000 A 
ATOM     12  C   UNL     1      -9.315  49.379  52.147  0.00  0.00    +0.000 C 
ENDROOT
BRANCH   1  18
ATOM     13  S   UNL     1     -15.332  56.475  51.227  0.00  0.00    +0.000 S 
ATOM     14  O   UNL     1     -15.292  56.630  52.670  0.00  0.00    +0.000 OA
ATOM     15  O   UNL     1     -16.593  56.239  50.552  0.00  0.00    +0.000 OA
ATOM     16  N   UNL     1     -14.321  55.273  50.834  0.00  0.00    +0.000 N 
ATOM     17  C   UNL     1     -14.700  57.973  50.560  0.00  0.00    +0.000 A 
ATOM     18  C   UNL     1     -13.196  55.513  50.225  0.00  0.00    +0.000 C 
ATOM     19  C   UNL     1     -13.457  57.935  49.956  0.00  0.00    +0.000 A 
ATOM     20  C   UNL     1     -15.456  59.146  50.640  0.00  0.00    +0.000 A 
ATOM     21  N   UNL     1     -12.713  56.759  49.892  0.00  0.00    +0.000 N 
ATOM     22  C   UNL     1     -12.922  59.135  49.476  0.00  0.00    +0.000 A 
ATOM     23  C   UNL     1     -14.926  60.328  50.123  0.00  0.00    +0.000 A 
ATOM     24  C   UNL     1     -13.656  60.323  49.551  0.00  0.00    +0.000 A 
ATOM     25  H   UNL     1     -14.562  54.345  51.059  0.00  0.00    +0.000 HD
ATOM     26  H   UNL     1     -11.779  56.824  49.588  0.00  0.00    +0.000 HD
ENDBRANCH   1  18
BRANCH   3  27
ATOM     27  O   UNL     1     -12.334  53.478  52.118  0.00  0.00    +0.000 OA
ATOM     28  H   UNL     1     -13.232  53.588  52.364  0.00  0.00    +0.000 HD
ENDBRANCH   3  27
BRANCH   5  29
ATOM     29  C   UNL     1     -10.788  52.858  46.678  0.00  0.00    +0.000 C 
BRANCH  29  30
ATOM     30  C   UNL     1      -9.328  53.192  46.327  0.00  0.00    +0.000 C 
BRANCH  30  31
ATOM     31  C   UNL     1      -8.967  54.682  46.208  0.00  0.00    +0.000 C 
ATOM     32  C   UNL     1      -8.522  55.283  47.540  0.00  0.00    +0.000 C 
ATOM     33  C   UNL     1      -7.845  54.835  45.173  0.00  0.00    +0.000 C 
ENDBRANCH  30  31
ENDBRANCH  29  30
ENDBRANCH   5  29
TORSDOF 5
ENDMDL
MODEL 5
REMARK VINA RESULT:      -8.1      3.879      5.576
REMARK  Name = 338063
REMARK  8 active torsions:
REMARK  status: ('A' for Active; 'I' for Inactive)
REMARK    1  A    between atoms: C_6  and  C_10
REMARK    2  A    between atoms: C_14  and  O_18
REMARK    3  A    between atoms: N_17  and  C_21
REMARK    4  A    between atoms: C_21  and  C_24
REMARK    5  A    between atoms: C_24  and  C_27
REMARK    6  A    between atoms: C_25  and  C_28
REMARK    7  A    between atoms: C_27  and  C_29
REMARK    8  A    between atoms: C_27  and  C_30
REMARK                            x       y       z     vdW  Elec       q    Type
REMARK                         _______ _______ _______ _____ _____    ______ ____
ROOT
ATOM      1  C   UNL     1     -10.878  55.512  48.698  0.00  0.00    +0.000 A 
ATOM      2  C   UNL     1      -9.605  55.069  49.347  0.00  0.00    +0.000 A 
ATOM      3  C   UNL     1     -11.134  55.173  47.424  0.00  0.00    +0.000 A 
ATOM      4  O   UNL     1      -9.456  55.299  50.551  0.00  0.00    +0.000 OA
ATOM      5  N   UNL     1      -8.655  54.405  48.578  0.00  0.00    +0.000 N 
ATOM      6  C   UNL     1     -10.177  54.356  46.662  0.00  0.00    +0.000 A 
ATOM      7  C   UNL     1      -8.965  53.964  47.253  0.00  0.00    +0.000 A 
ATOM      8  C   UNL     1     -10.474  53.945  45.348  0.00  0.00    +0.000 A 
ATOM      9  C   UNL     1      -8.107  53.122  46.529  0.00  0.00    +0.000 A 
ATOM     10  C   UNL     1      -9.591  53.142  44.619  0.00  0.00    +0.000 A 
ATOM     11  C   UNL     1      -8.409  52.727  45.225  0.00  0.00    +0.000 A 
ATOM     12  C   UNL     1      -9.919  52.694  43.227  0.00  0.00    +0.000 C 
ENDROOT
BRANCH   1  18
ATOM     13  S   UNL     1     -13.557  56.339  51.452  0.00  0.00    +0.000 S 
ATOM     14  O   UNL     1     -12.961  56.656  52.737  0.00  0.00    +0.000 OA
ATOM     15  O   UNL     1     -14.745  55.512  51.381  0.00  0.00    +0.000 OA
ATOM     16  N   UNL     1     -12.413  55.651  50.536  0.00  0.00    +0.000 N 
ATOM     17  C   UNL     1     -13.996  57.879  50.727  0.00  0.00    +0.000 A 
ATOM     18  C   UNL     1     -11.895  56.280  49.521  0.00  0.00    +0.000 C 
ATOM     19  C   UNL     1     -13.264  58.310  49.636  0.00  0.00    +0.000 A 
ATOM     20  C   UNL     1     -15.064  58.615  51.248  0.00  0.00    +0.000 A 
ATOM     21  N   UNL     1     -12.198  57.568  49.136  0.00  0.00    +0.000 N 
ATOM     22  C   UNL     1     -13.570  59.561  49.092  0.00  0.00    +0.000 A 
ATOM     23  C   UNL     1     -15.383  59.844  50.670  0.00  0.00    +0.000 A 
ATOM     24  C   UNL     1     -14.629  60.321  49.600  0.00  0.00    +0.000 A 
ATOM     25  H   UNL     1     -12.103  54.741  50.751  0.00  0.00    +0.000 HD
ATOM     26  H   UNL     1     -11.621  57.992  48.459  0.00  0.00    +0.000 HD
ENDBRANCH   1  18
BRANCH   3  27
ATOM     27  O   UNL     1     -12.297  55.500  46.746  0.00  0.00    +0.000 OA
ATOM     28  H   UNL     1     -12.418  56.369  46.416  0.00  0.00    +0.000 HD
ENDBRANCH   3  27
BRANCH   5  29
ATOM     29  C   UNL     1      -7.381  54.054  49.217  0.00  0.00    +0.000 C 
BRANCH  29  30
ATOM     30  C   UNL     1      -6.267  55.111  49.126  0.00  0.00    +0.000 C 
BRANCH  30  31
ATOM     31  C   UNL     1      -4.823  54.614  49.306  0.00  0.00    +0.000 C 
ATOM     32  C   UNL     1      -4.591  53.978  50.675  0.00  0.00    +0.000 C 
ATOM     33  C   UNL     1      -4.513  53.593  48.204  0.00  0.00    +0.000 C 
ENDBRANCH  30  31
ENDBRANCH  29  30
ENDBRANCH   5  29
TORSDOF 5
ENDMDL
MODEL 6
REMARK VINA RESULT:      -8.0      3.859      5.424
REMARK  Name = 338063
REMARK  8 active torsions:
REMARK  status: ('A' for Active; 'I' for Inactive)
REMARK    1  A    between atoms: C_6  and  C_10
REMARK    2  A    between atoms: C_14  and  O_18
REMARK    3  A    between atoms: N_17  and  C_21
REMARK    4  A    between atoms: C_21  and  C_24
REMARK    5  A    between atoms: C_24  and  C_27
REMARK    6  A    between atoms: C_25  and  C_28
REMARK    7  A    between atoms: C_27  and  C_29
REMARK    8  A    between atoms: C_27  and  C_30
REMARK                            x       y       z     vdW  Elec       q    Type
REMARK                         _______ _______ _______ _____ _____    ______ ____
ROOT
ATOM      1  C   UNL     1     -12.409  54.288  49.946  0.00  0.00    +0.000 A 
ATOM      2  C   UNL     1     -12.073  54.030  48.512  0.00  0.00    +0.000 A 
ATOM      3  C   UNL     1     -11.928  53.479  50.905  0.00  0.00    +0.000 A 
ATOM      4  O   UNL     1     -12.435  54.859  47.672  0.00  0.00    +0.000 OA
ATOM      5  N   UNL     1     -11.354  52.884  48.187  0.00  0.00    +0.000 N 
ATOM      6  C   UNL     1     -11.060  52.344  50.556  0.00  0.00    +0.000 A 
ATOM      7  C   UNL     1     -10.765  52.074  49.209  0.00  0.00    +0.000 A 
ATOM      8  C   UNL     1     -10.501  51.534  51.564  0.00  0.00    +0.000 A 
ATOM      9  C   UNL     1      -9.873  51.033  48.913  0.00  0.00    +0.000 A 
ATOM     10  C   UNL     1      -9.648  50.470  51.254  0.00  0.00    +0.000 A 
ATOM     11  C   UNL     1      -9.332  50.232  49.919  0.00  0.00    +0.000 A 
ATOM     12  C   UNL     1      -9.044  49.621  52.330  0.00  0.00    +0.000 C 
ENDROOT
BRANCH   1  18
ATOM     13  S   UNL     1     -15.366  56.508  51.278  0.00  0.00    +0.000 S 
ATOM     14  O   UNL     1     -15.332  56.681  52.719  0.00  0.00    +0.000 OA
ATOM     15  O   UNL     1     -16.625  56.277  50.598  0.00  0.00    +0.000 OA
ATOM     16  N   UNL     1     -14.365  55.291  50.906  0.00  0.00    +0.000 N 
ATOM     17  C   UNL     1     -14.714  57.991  50.596  0.00  0.00    +0.000 A 
ATOM     18  C   UNL     1     -13.234  55.511  50.300  0.00  0.00    +0.000 C 
ATOM     19  C   UNL     1     -13.468  57.932  49.999  0.00  0.00    +0.000 A 
ATOM     20  C   UNL     1     -15.458  59.172  50.656  0.00  0.00    +0.000 A 
ATOM     21  N   UNL     1     -12.736  56.748  49.955  0.00  0.00    +0.000 N 
ATOM     22  C   UNL     1     -12.919  59.120  49.507  0.00  0.00    +0.000 A 
ATOM     23  C   UNL     1     -14.914  60.342  50.126  0.00  0.00    +0.000 A 
ATOM     24  C   UNL     1     -13.640  60.317  49.562  0.00  0.00    +0.000 A 
ATOM     25  H   UNL     1     -14.617  54.369  51.142  0.00  0.00    +0.000 HD
ATOM     26  H   UNL     1     -11.800  56.799  49.655  0.00  0.00    +0.000 HD
ENDBRANCH   1  18
BRANCH   3  27
ATOM     27  O   UNL     1     -12.149  53.654  52.261  0.00  0.00    +0.000 OA
ATOM     28  H   UNL     1     -11.462  53.482  52.874  0.00  0.00    +0.000 HD
ENDBRANCH   3  27
BRANCH   5  29
ATOM     29  C   UNL     1     -11.109  52.611  46.766  0.00  0.00    +0.000 C 
BRANCH  29  30
ATOM     30  C   UNL     1     -12.232  51.874  46.016  0.00  0.00    +0.000 C 
BRANCH  30  31
ATOM     31  C   UNL     1     -12.000  50.386  45.707  0.00  0.00    +0.000 C 
ATOM     32  C   UNL     1     -10.541  50.078  45.376  0.00  0.00    +0.000 C 
ATOM     33  C   UNL     1     -12.439  49.557  46.922  0.00  0.00    +0.000 C 
ENDBRANCH  30  31
ENDBRANCH  29  30
ENDBRANCH   5  29
TORSDOF 5
ENDMDL
MODEL 7
REMARK VINA RESULT:      -7.8      4.497      7.093
REMARK  Name = 338063
REMARK  8 active torsions:
REMARK  status: ('A' for Active; 'I' for Inactive)
REMARK    1  A    between atoms: C_6  and  C_10
REMARK    2  A    between atoms: C_14  and  O_18
REMARK    3  A    between atoms: N_17  and  C_21
REMARK    4  A    between atoms: C_21  and  C_24
REMARK    5  A    between atoms: C_24  and  C_27
REMARK    6  A    between atoms: C_25  and  C_28
REMARK    7  A    between atoms: C_27  and  C_29
REMARK    8  A    between atoms: C_27  and  C_30
REMARK                            x       y       z     vdW  Elec       q    Type
REMARK                         _______ _______ _______ _____ _____    ______ ____
ROOT
ATOM      1  C   UNL     1     -10.768  54.492  48.667  0.00  0.00    +0.000 A 
ATOM      2  C   UNL     1     -10.282  54.048  50.010  0.00  0.00    +0.000 A 
ATOM      3  C   UNL     1     -11.775  55.377  48.576  0.00  0.00    +0.000 A 
ATOM      4  O   UNL     1      -9.282  53.326  50.056  0.00  0.00    +0.000 OA
ATOM      5  N   UNL     1     -10.960  54.479  51.145  0.00  0.00    +0.000 N 
ATOM      6  C   UNL     1     -12.398  55.925  49.791  0.00  0.00    +0.000 A 
ATOM      7  C   UNL     1     -11.969  55.489  51.056  0.00  0.00    +0.000 A 
ATOM      8  C   UNL     1     -13.409  56.902  49.699  0.00  0.00    +0.000 A 
ATOM      9  C   UNL     1     -12.528  56.086  52.196  0.00  0.00    +0.000 A 
ATOM     10  C   UNL     1     -13.990  57.457  50.843  0.00  0.00    +0.000 A 
ATOM     11  C   UNL     1     -13.535  57.047  52.092  0.00  0.00    +0.000 A 
ATOM     12  C   UNL     1     -15.054  58.508  50.740  0.00  0.00    +0.000 C 
ENDROOT
BRANCH   1  18
ATOM     13  S   UNL     1      -8.013  54.002  45.907  0.00  0.00    +0.000 S 
ATOM     14  O   UNL     1      -6.965  53.085  46.318  0.00  0.00    +0.000 OA
ATOM     15  O   UNL     1      -7.682  55.216  45.187  0.00  0.00    +0.000 OA
ATOM     16  N   UNL     1      -8.848  54.417  47.230  0.00  0.00    +0.000 N 
ATOM     17  C   UNL     1      -9.072  53.085  44.847  0.00  0.00    +0.000 A 
ATOM     18  C   UNL     1     -10.061  53.986  47.423  0.00  0.00    +0.000 C 
ATOM     19  C   UNL     1     -10.332  52.760  45.318  0.00  0.00    +0.000 A 
ATOM     20  C   UNL     1      -8.636  52.720  43.570  0.00  0.00    +0.000 A 
ATOM     21  N   UNL     1     -10.747  53.123  46.597  0.00  0.00    +0.000 N 
ATOM     22  C   UNL     1     -11.157  51.980  44.503  0.00  0.00    +0.000 A 
ATOM     23  C   UNL     1      -9.486  51.975  42.753  0.00  0.00    +0.000 A 
ATOM     24  C   UNL     1     -10.741  51.596  43.224  0.00  0.00    +0.000 A 
ATOM     25  H   UNL     1      -8.432  55.006  47.901  0.00  0.00    +0.000 HD
ATOM     26  H   UNL     1     -11.589  52.738  46.932  0.00  0.00    +0.000 HD
ENDBRANCH   1  18
BRANCH   3  27
ATOM     27  O   UNL     1     -12.271  55.878  47.384  0.00  0.00    +0.000 OA
ATOM     28  H   UNL     1     -12.544  55.291  46.706  0.00  0.00    +0.000 HD
ENDBRANCH   3  27
BRANCH   5  29
ATOM     29  C   UNL     1     -10.514  53.963  52.445  0.00  0.00    +0.000 C 
BRANCH  29  30
ATOM     30  C   UNL     1      -9.628  54.906  53.277  0.00  0.00    +0.000 C 
BRANCH  30  31
ATOM     31  C   UNL     1      -8.124  54.907  52.956  0.00  0.00    +0.000 C 
ATOM     32  C   UNL     1      -7.750  55.955  51.911  0.00  0.00    +0.000 C 
ATOM     33  C   UNL     1      -7.345  55.169  54.252  0.00  0.00    +0.000 C 
ENDBRANCH  30  31
ENDBRANCH  29  30
ENDBRANCH   5  29
TORSDOF 5
ENDMDL
MODEL 8
REMARK VINA RESULT:      -7.7      3.096      7.440
REMARK  Name = 338063
REMARK  8 active torsions:
REMARK  status: ('A' for Active; 'I' for Inactive)
REMARK    1  A    between atoms: C_6  and  C_10
REMARK    2  A    between atoms: C_14  and  O_18
REMARK    3  A    between atoms: N_17  and  C_21
REMARK    4  A    between atoms: C_21  and  C_24
REMARK    5  A    between atoms: C_24  and  C_27
REMARK    6  A    between atoms: C_25  and  C_28
REMARK    7  A    between atoms: C_27  and  C_29
REMARK    8  A    between atoms: C_27  and  C_30
REMARK                            x       y       z     vdW  Elec       q    Type
REMARK                         _______ _______ _______ _____ _____    ______ ____
ROOT
ATOM      1  C   UNL     1     -10.032  55.164  51.012  0.00  0.00    +0.000 A 
ATOM      2  C   UNL     1      -9.749  55.171  49.543  0.00  0.00    +0.000 A 
ATOM      3  C   UNL     1     -11.248  55.519  51.462  0.00  0.00    +0.000 A 
ATOM      4  O   UNL     1      -8.662  54.729  49.159  0.00  0.00    +0.000 OA
ATOM      5  N   UNL     1     -10.722  55.653  48.673  0.00  0.00    +0.000 N 
ATOM      6  C   UNL     1     -12.310  55.902  50.519  0.00  0.00    +0.000 A 
ATOM      7  C   UNL     1     -12.043  55.942  49.141  0.00  0.00    +0.000 A 
ATOM      8  C   UNL     1     -13.603  56.210  50.985  0.00  0.00    +0.000 A 
ATOM      9  C   UNL     1     -13.096  56.236  48.262  0.00  0.00    +0.000 A 
ATOM     10  C   UNL     1     -14.634  56.546  50.102  0.00  0.00    +0.000 A 
ATOM     11  C   UNL     1     -14.371  56.548  48.735  0.00  0.00    +0.000 A 
ATOM     12  C   UNL     1     -16.012  56.858  50.601  0.00  0.00    +0.000 C 
ENDROOT
BRANCH   1  18
ATOM     13  S   UNL     1      -6.565  54.845  52.833  0.00  0.00    +0.000 S 
ATOM     14  O   UNL     1      -6.370  55.862  53.850  0.00  0.00    +0.000 OA
ATOM     15  O   UNL     1      -5.473  54.470  51.955  0.00  0.00    +0.000 OA
ATOM     16  N   UNL     1      -7.813  55.305  51.911  0.00  0.00    +0.000 N 
ATOM     17  C   UNL     1      -7.019  53.381  53.691  0.00  0.00    +0.000 A 
ATOM     18  C   UNL     1      -8.956  54.685  51.967  0.00  0.00    +0.000 C 
ATOM     19  C   UNL     1      -8.324  52.939  53.568  0.00  0.00    +0.000 A 
ATOM     20  C   UNL     1      -6.069  52.697  54.455  0.00  0.00    +0.000 A 
ATOM     21  N   UNL     1      -9.260  53.638  52.810  0.00  0.00    +0.000 N 
ATOM     22  C   UNL     1      -8.707  51.808  54.295  0.00  0.00    +0.000 A 
ATOM     23  C   UNL     1      -6.456  51.548  55.145  0.00  0.00    +0.000 A 
ATOM     24  C   UNL     1      -7.777  51.111  55.073  0.00  0.00    +0.000 A 
ATOM     25  H   UNL     1      -7.706  56.068  51.297  0.00  0.00    +0.000 HD
ATOM     26  H   UNL     1     -10.203  53.364  52.879  0.00  0.00    +0.000 HD
ENDBRANCH   1  18
BRANCH   3  27
ATOM     27  O   UNL     1     -11.621  55.510  52.796  0.00  0.00    +0.000 OA
ATOM     28  H   UNL     1     -11.103  55.967  53.430  0.00  0.00    +0.000 HD
ENDBRANCH   3  27
BRANCH   5  29
ATOM     29  C   UNL     1     -10.388  55.725  47.246  0.00  0.00    +0.000 C 
BRANCH  29  30
ATOM     30  C   UNL     1     -10.630  54.443  46.431  0.00  0.00    +0.000 C 
BRANCH  30  31
ATOM     31  C   UNL     1      -9.416  53.847  45.700  0.00  0.00    +0.000 C 
ATOM     32  C   UNL     1      -8.219  54.796  45.684  0.00  0.00    +0.000 C 
ATOM     33  C   UNL     1      -9.023  52.533  46.389  0.00  0.00    +0.000 C 
ENDBRANCH  30  31
ENDBRANCH  29  30
ENDBRANCH   5  29
TORSDOF 5
ENDMDL
MODEL 9
REMARK VINA RESULT:      -7.7      3.184      8.073
REMARK  Name = 338063
REMARK  8 active torsions:
REMARK  status: ('A' for Active; 'I' for Inactive)
REMARK    1  A    between atoms: C_6  and  C_10
REMARK    2  A    between atoms: C_14  and  O_18
REMARK    3  A    between atoms: N_17  and  C_21
REMARK    4  A    between atoms: C_21  and  C_24
REMARK    5  A    between atoms: C_24  and  C_27
REMARK    6  A    between atoms: C_25  and  C_28
REMARK    7  A    between atoms: C_27  and  C_29
REMARK    8  A    between atoms: C_27  and  C_30
REMARK                            x       y       z     vdW  Elec       q    Type
REMARK                         _______ _______ _______ _____ _____    ______ ____
ROOT
ATOM      1  C   UNL     1      -9.732  53.923  50.819  0.00  0.00    +0.000 A 
ATOM      2  C   UNL     1     -10.729  55.016  51.045  0.00  0.00    +0.000 A 
ATOM      3  C   UNL     1      -9.560  53.416  49.587  0.00  0.00    +0.000 A 
ATOM      4  O   UNL     1     -10.777  55.535  52.164  0.00  0.00    +0.000 OA
ATOM      5  N   UNL     1     -11.542  55.412  49.988  0.00  0.00    +0.000 N 
ATOM      6  C   UNL     1     -10.336  53.937  48.451  0.00  0.00    +0.000 A 
ATOM      7  C   UNL     1     -11.297  54.941  48.659  0.00  0.00    +0.000 A 
ATOM      8  C   UNL     1     -10.109  53.453  47.147  0.00  0.00    +0.000 A 
ATOM      9  C   UNL     1     -11.965  55.471  47.546  0.00  0.00    +0.000 A 
ATOM     10  C   UNL     1     -10.814  53.958  46.051  0.00  0.00    +0.000 A 
ATOM     11  C   UNL     1     -11.738  54.978  46.260  0.00  0.00    +0.000 A 
ATOM     12  C   UNL     1     -10.559  53.451  44.664  0.00  0.00    +0.000 C 
ENDROOT
BRANCH   1  18
ATOM     13  S   UNL     1      -6.594  53.305  53.102  0.00  0.00    +0.000 S 
ATOM     14  O   UNL     1      -6.258  54.459  53.917  0.00  0.00    +0.000 OA
ATOM     15  O   UNL     1      -5.547  52.531  52.463  0.00  0.00    +0.000 OA
ATOM     16  N   UNL     1      -7.623  53.798  51.954  0.00  0.00    +0.000 N 
ATOM     17  C   UNL     1      -7.440  52.190  54.164  0.00  0.00    +0.000 A 
ATOM     18  C   UNL     1      -8.878  53.454  51.981  0.00  0.00    +0.000 C 
ATOM     19  C   UNL     1      -8.797  52.010  53.961  0.00  0.00    +0.000 A 
ATOM     20  C   UNL     1      -6.739  51.510  55.163  0.00  0.00    +0.000 A 
ATOM     21  N   UNL     1      -9.482  52.703  52.965  0.00  0.00    +0.000 N 
ATOM     22  C   UNL     1      -9.487  51.170  54.839  0.00  0.00    +0.000 A 
ATOM     23  C   UNL     1      -7.434  50.645  56.008  0.00  0.00    +0.000 A 
ATOM     24  C   UNL     1      -8.809  50.484  55.852  0.00  0.00    +0.000 A 
ATOM     25  H   UNL     1      -7.294  54.369  51.222  0.00  0.00    +0.000 HD
ATOM     26  H   UNL     1     -10.465  52.650  52.965  0.00  0.00    +0.000 HD
ENDBRANCH   1  18
BRANCH   3  27
ATOM     27  O   UNL     1      -8.639  52.432  49.267  0.00  0.00    +0.000 OA
ATOM     28  H   UNL     1      -7.977  52.601  48.626  0.00  0.00    +0.000 HD
ENDBRANCH   3  27
BRANCH   5  29
ATOM     29  C   UNL     1     -12.567  56.428  50.257  0.00  0.00    +0.000 C 
BRANCH  29  30
ATOM     30  C   UNL     1     -13.977  55.898  50.567  0.00  0.00    +0.000 C 
BRANCH  30  31
ATOM     31  C   UNL     1     -14.598  56.324  51.908  0.00  0.00    +0.000 C 
ATOM     32  C   UNL     1     -13.767  57.385  52.626  0.00  0.00    +0.000 C 
ATOM     33  C   UNL     1     -16.010  56.865  51.645  0.00  0.00    +0.000 C 
ENDBRANCH  30  31
ENDBRANCH  29  30
ENDBRANCH   5  29
TORSDOF 5
ENDMDL
