MODEL 1
REMARK VINA RESULT:      -7.8      0.000      0.000
REMARK  Name = 338576
REMARK  9 active torsions:
REMARK  status: ('A' for Active; 'I' for Inactive)
REMARK    1  A    between atoms: C_6  and  C_10
REMARK    2  A    between atoms: C_14  and  O_18
REMARK    3  A    between atoms: N_17  and  C_21
REMARK    4  A    between atoms: C_21  and  C_24
REMARK    5  A    between atoms: C_24  and  C_27
REMARK    6  A    between atoms: C_25  and  N_28
REMARK    7  A    between atoms: C_27  and  C_29
REMARK    8  A    between atoms: C_27  and  C_30
REMARK    9  A    between atoms: C_31  and  C_33
REMARK                            x       y       z     vdW  Elec       q    Type
REMARK                         _______ _______ _______ _____ _____    ______ ____
ROOT
ATOM      1  C   UNL     1     -11.939  55.898  48.957  0.00  0.00    +0.000 A 
ATOM      2  C   UNL     1     -11.978  55.650  47.483  0.00  0.00    +0.000 A 
ATOM      3  C   UNL     1     -11.057  55.232  49.723  0.00  0.00    +0.000 A 
ATOM      4  O   UNL     1     -12.720  56.359  46.794  0.00  0.00    +0.000 OA
ATOM      5  N   UNL     1     -11.167  54.658  46.944  0.00  0.00    +0.000 N 
ATOM      6  C   UNL     1     -10.128  54.267  49.118  0.00  0.00    +0.000 A 
ATOM      7  C   UNL     1     -10.169  54.016  47.739  0.00  0.00    +0.000 A 
ATOM      8  C   UNL     1      -9.182  53.598  49.915  0.00  0.00    +0.000 A 
ATOM      9  C   UNL     1      -9.205  53.160  47.187  0.00  0.00    +0.000 A 
ATOM     10  C   UNL     1      -8.268  52.701  49.367  0.00  0.00    +0.000 A 
ATOM     11  C   UNL     1      -8.266  52.507  47.990  0.00  0.00    +0.000 A 
ENDROOT
BRANCH   1  17
ATOM     12  S   UNL     1     -13.737  59.345  49.547  0.00  0.00    +0.000 S 
ATOM     13  O   UNL     1     -14.876  59.548  48.671  0.00  0.00    +0.000 OA
ATOM     14  O   UNL     1     -12.828  60.438  49.830  0.00  0.00    +0.000 OA
ATOM     15  N   UNL     1     -12.866  58.112  48.955  0.00  0.00    +0.000 N 
ATOM     16  C   UNL     1     -14.399  58.858  51.099  0.00  0.00    +0.000 A 
ATOM     17  C   UNL     1     -12.844  56.957  49.553  0.00  0.00    +0.000 C 
ATOM     18  C   UNL     1     -14.219  57.543  51.493  0.00  0.00    +0.000 A 
ATOM     19  C   UNL     1     -15.066  59.787  51.902  0.00  0.00    +0.000 A 
ATOM     20  N   UNL     1     -13.559  56.624  50.684  0.00  0.00    +0.000 N 
ATOM     21  C   UNL     1     -14.792  57.130  52.700  0.00  0.00    +0.000 A 
ATOM     22  C   UNL     1     -15.599  59.371  53.120  0.00  0.00    +0.000 A 
ATOM     23  C   UNL     1     -15.470  58.040  53.515  0.00  0.00    +0.000 A 
ATOM     24  H   UNL     1     -12.346  58.239  48.129  0.00  0.00    +0.000 HD
ATOM     25  H   UNL     1     -13.604  55.673  50.934  0.00  0.00    +0.000 HD
ENDBRANCH   1  17
BRANCH  10  26
ATOM     26  N   UNL     1      -7.330  51.986  50.139  0.00  0.00    +0.000 N 
ATOM     27  C   UNL     1      -6.324  52.561  50.898  0.00  0.00    +0.000 C 
ATOM     28  O   UNL     1      -6.142  53.761  51.069  0.00  0.00    +0.000 OA
ATOM     29  H   UNL     1      -7.395  51.005  50.139  0.00  0.00    +0.000 HD
BRANCH  27  30
ATOM     30  C   UNL     1      -5.432  51.621  51.625  0.00  0.00    +0.000 A 
ATOM     31  C   UNL     1      -4.911  51.900  52.894  0.00  0.00    +0.000 A 
ATOM     32  C   UNL     1      -5.163  50.387  51.017  0.00  0.00    +0.000 A 
ATOM     33  C   UNL     1      -4.115  50.948  53.537  0.00  0.00    +0.000 A 
ATOM     34  C   UNL     1      -4.371  49.441  51.663  0.00  0.00    +0.000 A 
ATOM     35  C   UNL     1      -3.847  49.724  52.921  0.00  0.00    +0.000 A 
ENDBRANCH  27  30
ENDBRANCH  10  26
BRANCH   3  36
ATOM     36  O   UNL     1     -10.906  55.427  51.083  0.00  0.00    +0.000 OA
ATOM     37  H   UNL     1     -10.095  55.748  51.424  0.00  0.00    +0.000 HD
ENDBRANCH   3  36
BRANCH   5  38
ATOM     38  C   UNL     1     -11.280  54.385  45.507  0.00  0.00    +0.000 C 
BRANCH  38  39
ATOM     39  C   UNL     1     -11.883  53.022  45.127  0.00  0.00    +0.000 C 
BRANCH  39  40
ATOM     40  C   UNL     1     -11.104  52.181  44.102  0.00  0.00    +0.000 C 
ATOM     41  C   UNL     1      -9.781  52.828  43.701  0.00  0.00    +0.000 C 
ATOM     42  C   UNL     1     -10.843  50.794  44.703  0.00  0.00    +0.000 C 
ENDBRANCH  39  40
ENDBRANCH  38  39
ENDBRANCH   5  38
TORSDOF 7
ENDMDL
MODEL 2
REMARK VINA RESULT:      -7.5      2.832      5.980
REMARK  Name = 338576
REMARK  9 active torsions:
REMARK  status: ('A' for Active; 'I' for Inactive)
REMARK    1  A    between atoms: C_6  and  C_10
REMARK    2  A    between atoms: C_14  and  O_18
REMARK    3  A    between atoms: N_17  and  C_21
REMARK    4  A    between atoms: C_21  and  C_24
REMARK    5  A    between atoms: C_24  and  C_27
REMARK    6  A    between atoms: C_25  and  N_28
REMARK    7  A    between atoms: C_27  and  C_29
REMARK    8  A    between atoms: C_27  and  C_30
REMARK    9  A    between atoms: C_31  and  C_33
REMARK                            x       y       z     vdW  Elec       q    Type
REMARK                         _______ _______ _______ _____ _____    ______ ____
ROOT
ATOM      1  C   UNL     1     -11.675  55.263  50.818  0.00  0.00    +0.000 A 
ATOM      2  C   UNL     1     -10.883  54.761  51.983  0.00  0.00    +0.000 A 
ATOM      3  C   UNL     1     -11.509  54.703  49.607  0.00  0.00    +0.000 A 
ATOM      4  O   UNL     1     -11.141  55.219  53.102  0.00  0.00    +0.000 OA
ATOM      5  N   UNL     1      -9.914  53.788  51.770  0.00  0.00    +0.000 N 
ATOM      6  C   UNL     1     -10.559  53.596  49.424  0.00  0.00    +0.000 A 
ATOM      7  C   UNL     1      -9.800  53.130  50.507  0.00  0.00    +0.000 A 
ATOM      8  C   UNL     1     -10.414  52.988  48.165  0.00  0.00    +0.000 A 
ATOM      9  C   UNL     1      -8.975  52.013  50.313  0.00  0.00    +0.000 A 
ATOM     10  C   UNL     1      -9.544  51.918  47.966  0.00  0.00    +0.000 A 
ATOM     11  C   UNL     1      -8.845  51.414  49.057  0.00  0.00    +0.000 A 
ENDROOT
BRANCH   1  17
ATOM     12  S   UNL     1     -14.874  57.129  52.140  0.00  0.00    +0.000 S 
ATOM     13  O   UNL     1     -14.692  57.701  53.461  0.00  0.00    +0.000 OA
ATOM     14  O   UNL     1     -16.119  56.474  51.792  0.00  0.00    +0.000 OA
ATOM     15  N   UNL     1     -13.667  56.078  51.881  0.00  0.00    +0.000 N 
ATOM     16  C   UNL     1     -14.699  58.460  51.008  0.00  0.00    +0.000 A 
ATOM     17  C   UNL     1     -12.712  56.346  51.040  0.00  0.00    +0.000 C 
ATOM     18  C   UNL     1     -13.562  58.491  50.219  0.00  0.00    +0.000 A 
ATOM     19  C   UNL     1     -15.696  59.434  50.909  0.00  0.00    +0.000 A 
ATOM     20  N   UNL     1     -12.573  57.519  50.329  0.00  0.00    +0.000 N 
ATOM     21  C   UNL     1     -13.385  59.576  49.355  0.00  0.00    +0.000 A 
ATOM     22  C   UNL     1     -15.525  60.490  50.017  0.00  0.00    +0.000 A 
ATOM     23  C   UNL     1     -14.365  60.566  49.246  0.00  0.00    +0.000 A 
ATOM     24  H   UNL     1     -13.656  55.223  52.368  0.00  0.00    +0.000 HD
ATOM     25  H   UNL     1     -11.717  57.677  49.869  0.00  0.00    +0.000 HD
ENDBRANCH   1  17
BRANCH  10  26
ATOM     26  N   UNL     1      -9.346  51.307  46.712  0.00  0.00    +0.000 N 
ATOM     27  C   UNL     1      -8.342  51.637  45.817  0.00  0.00    +0.000 C 
ATOM     28  O   UNL     1      -7.442  52.447  46.006  0.00  0.00    +0.000 OA
ATOM     29  H   UNL     1      -9.971  50.592  46.451  0.00  0.00    +0.000 HD
BRANCH  27  30
ATOM     30  C   UNL     1      -8.324  50.876  44.540  0.00  0.00    +0.000 A 
ATOM     31  C   UNL     1      -9.313  51.017  43.560  0.00  0.00    +0.000 A 
ATOM     32  C   UNL     1      -7.227  50.033  44.309  0.00  0.00    +0.000 A 
ATOM     33  C   UNL     1      -9.204  50.301  42.365  0.00  0.00    +0.000 A 
ATOM     34  C   UNL     1      -7.123  49.325  43.115  0.00  0.00    +0.000 A 
ATOM     35  C   UNL     1      -8.113  49.459  42.145  0.00  0.00    +0.000 A 
ENDBRANCH  27  30
ENDBRANCH  10  26
BRANCH   3  36
ATOM     36  O   UNL     1     -12.229  55.059  48.482  0.00  0.00    +0.000 OA
ATOM     37  H   UNL     1     -12.077  54.617  47.669  0.00  0.00    +0.000 HD
ENDBRANCH   3  36
BRANCH   5  38
ATOM     38  C   UNL     1      -9.100  53.367  52.917  0.00  0.00    +0.000 C 
BRANCH  38  39
ATOM     39  C   UNL     1      -7.898  54.266  53.254  0.00  0.00    +0.000 C 
BRANCH  39  40
ATOM     40  C   UNL     1      -6.795  54.375  52.188  0.00  0.00    +0.000 C 
ATOM     41  C   UNL     1      -6.956  55.610  51.305  0.00  0.00    +0.000 C 
ATOM     42  C   UNL     1      -5.433  54.415  52.895  0.00  0.00    +0.000 C 
ENDBRANCH  39  40
ENDBRANCH  38  39
ENDBRANCH   5  38
TORSDOF 7
ENDMDL
MODEL 3
REMARK VINA RESULT:      -7.3      2.767      9.056
REMARK  Name = 338576
REMARK  9 active torsions:
REMARK  status: ('A' for Active; 'I' for Inactive)
REMARK    1  A    between atoms: C_6  and  C_10
REMARK    2  A    between atoms: C_14  and  O_18
REMARK    3  A    between atoms: N_17  and  C_21
REMARK    4  A    between atoms: C_21  and  C_24
REMARK    5  A    between atoms: C_24  and  C_27
REMARK    6  A    between atoms: C_25  and  N_28
REMARK    7  A    between atoms: C_27  and  C_29
REMARK    8  A    between atoms: C_27  and  C_30
REMARK    9  A    between atoms: C_31  and  C_33
REMARK                            x       y       z     vdW  Elec       q    Type
REMARK                         _______ _______ _______ _____ _____    ______ ____
ROOT
ATOM      1  C   UNL     1      -8.386  53.331  47.789  0.00  0.00    +0.000 A 
ATOM      2  C   UNL     1      -8.939  53.083  46.422  0.00  0.00    +0.000 A 
ATOM      3  C   UNL     1      -9.045  54.138  48.639  0.00  0.00    +0.000 A 
ATOM      4  O   UNL     1      -8.371  52.249  45.708  0.00  0.00    +0.000 OA
ATOM      5  N   UNL     1     -10.075  53.774  46.019  0.00  0.00    +0.000 N 
ATOM      6  C   UNL     1     -10.307  54.773  48.234  0.00  0.00    +0.000 A 
ATOM      7  C   UNL     1     -10.824  54.560  46.948  0.00  0.00    +0.000 A 
ATOM      8  C   UNL     1     -11.012  55.588  49.137  0.00  0.00    +0.000 A 
ATOM      9  C   UNL     1     -12.076  55.107  46.632  0.00  0.00    +0.000 A 
ATOM     10  C   UNL     1     -12.226  56.180  48.793  0.00  0.00    +0.000 A 
ATOM     11  C   UNL     1     -12.769  55.909  47.542  0.00  0.00    +0.000 A 
ENDROOT
BRANCH   1  17
ATOM     12  S   UNL     1      -4.997  51.345  47.619  0.00  0.00    +0.000 S 
ATOM     13  O   UNL     1      -3.847  52.202  47.398  0.00  0.00    +0.000 OA
ATOM     14  O   UNL     1      -5.100  50.069  46.937  0.00  0.00    +0.000 OA
ATOM     15  N   UNL     1      -6.330  52.201  47.279  0.00  0.00    +0.000 N 
ATOM     16  C   UNL     1      -5.002  50.972  49.335  0.00  0.00    +0.000 A 
ATOM     17  C   UNL     1      -7.130  52.602  48.223  0.00  0.00    +0.000 C 
ATOM     18  C   UNL     1      -5.991  51.545  50.116  0.00  0.00    +0.000 A 
ATOM     19  C   UNL     1      -4.042  50.109  49.870  0.00  0.00    +0.000 A 
ATOM     20  N   UNL     1      -6.938  52.408  49.574  0.00  0.00    +0.000 N 
ATOM     21  C   UNL     1      -5.971  51.302  51.493  0.00  0.00    +0.000 A 
ATOM     22  C   UNL     1      -4.056  49.845  51.238  0.00  0.00    +0.000 A 
ATOM     23  C   UNL     1      -5.015  50.449  52.051  0.00  0.00    +0.000 A 
ATOM     24  H   UNL     1      -6.539  52.423  46.343  0.00  0.00    +0.000 HD
ATOM     25  H   UNL     1      -7.510  52.914  50.196  0.00  0.00    +0.000 HD
ENDBRANCH   1  17
BRANCH  10  26
ATOM     26  N   UNL     1     -12.942  57.030  49.658  0.00  0.00    +0.000 N 
ATOM     27  C   UNL     1     -13.700  56.608  50.739  0.00  0.00    +0.000 C 
ATOM     28  O   UNL     1     -13.802  55.457  51.145  0.00  0.00    +0.000 OA
ATOM     29  H   UNL     1     -12.903  57.997  49.481  0.00  0.00    +0.000 HD
BRANCH  27  30
ATOM     30  C   UNL     1     -14.389  57.673  51.513  0.00  0.00    +0.000 A 
ATOM     31  C   UNL     1     -14.918  58.822  50.916  0.00  0.00    +0.000 A 
ATOM     32  C   UNL     1     -14.553  57.463  52.890  0.00  0.00    +0.000 A 
ATOM     33  C   UNL     1     -15.593  59.759  51.704  0.00  0.00    +0.000 A 
ATOM     34  C   UNL     1     -15.229  58.398  53.669  0.00  0.00    +0.000 A 
ATOM     35  C   UNL     1     -15.747  59.546  53.075  0.00  0.00    +0.000 A 
ENDBRANCH  27  30
ENDBRANCH  10  26
BRANCH   3  36
ATOM     36  O   UNL     1      -8.646  54.389  49.939  0.00  0.00    +0.000 OA
ATOM     37  H   UNL     1      -8.583  55.271  50.248  0.00  0.00    +0.000 HD
ENDBRANCH   3  36
BRANCH   5  38
ATOM     38  C   UNL     1     -10.553  53.568  44.646  0.00  0.00    +0.000 C 
BRANCH  38  39
ATOM     39  C   UNL     1     -11.547  52.412  44.447  0.00  0.00    +0.000 C 
BRANCH  39  40
ATOM     40  C   UNL     1     -11.047  51.199  43.645  0.00  0.00    +0.000 C 
ATOM     41  C   UNL     1      -9.888  51.551  42.717  0.00  0.00    +0.000 C 
ATOM     42  C   UNL     1     -10.610  50.106  44.630  0.00  0.00    +0.000 C 
ENDBRANCH  39  40
ENDBRANCH  38  39
ENDBRANCH   5  38
TORSDOF 7
ENDMDL
MODEL 4
REMARK VINA RESULT:      -6.8      3.603      9.794
REMARK  Name = 338576
REMARK  9 active torsions:
REMARK  status: ('A' for Active; 'I' for Inactive)
REMARK    1  A    between atoms: C_6  and  C_10
REMARK    2  A    between atoms: C_14  and  O_18
REMARK    3  A    between atoms: N_17  and  C_21
REMARK    4  A    between atoms: C_21  and  C_24
REMARK    5  A    between atoms: C_24  and  C_27
REMARK    6  A    between atoms: C_25  and  N_28
REMARK    7  A    between atoms: C_27  and  C_29
REMARK    8  A    between atoms: C_27  and  C_30
REMARK    9  A    between atoms: C_31  and  C_33
REMARK                            x       y       z     vdW  Elec       q    Type
REMARK                         _______ _______ _______ _____ _____    ______ ____
ROOT
ATOM      1  C   UNL     1      -9.803  51.655  47.469  0.00  0.00    +0.000 A 
ATOM      2  C   UNL     1      -9.496  50.569  48.450  0.00  0.00    +0.000 A 
ATOM      3  C   UNL     1     -10.494  52.738  47.867  0.00  0.00    +0.000 A 
ATOM      4  O   UNL     1      -8.763  49.644  48.081  0.00  0.00    +0.000 OA
ATOM      5  N   UNL     1     -10.018  50.653  49.735  0.00  0.00    +0.000 N 
ATOM      6  C   UNL     1     -10.942  52.862  49.261  0.00  0.00    +0.000 A 
ATOM      7  C   UNL     1     -10.673  51.840  50.184  0.00  0.00    +0.000 A 
ATOM      8  C   UNL     1     -11.633  54.011  49.684  0.00  0.00    +0.000 A 
ATOM      9  C   UNL     1     -11.035  52.038  51.524  0.00  0.00    +0.000 A 
ATOM     10  C   UNL     1     -12.045  54.172  51.006  0.00  0.00    +0.000 A 
ATOM     11  C   UNL     1     -11.715  53.188  51.932  0.00  0.00    +0.000 A 
ENDROOT
BRANCH   1  17
ATOM     12  S   UNL     1      -9.544  51.958  43.557  0.00  0.00    +0.000 S 
ATOM     13  O   UNL     1      -9.109  53.271  43.117  0.00  0.00    +0.000 OA
ATOM     14  O   UNL     1     -10.596  51.260  42.845  0.00  0.00    +0.000 OA
ATOM     15  N   UNL     1      -9.986  52.075  45.112  0.00  0.00    +0.000 N 
ATOM     16  C   UNL     1      -8.131  50.921  43.461  0.00  0.00    +0.000 A 
ATOM     17  C   UNL     1      -9.261  51.554  46.058  0.00  0.00    +0.000 C 
ATOM     18  C   UNL     1      -7.554  50.505  44.648  0.00  0.00    +0.000 A 
ATOM     19  C   UNL     1      -7.632  50.525  42.217  0.00  0.00    +0.000 A 
ATOM     20  N   UNL     1      -8.054  50.909  45.882  0.00  0.00    +0.000 N 
ATOM     21  C   UNL     1      -6.394  49.726  44.584  0.00  0.00    +0.000 A 
ATOM     22  C   UNL     1      -6.497  49.718  42.167  0.00  0.00    +0.000 A 
ATOM     23  C   UNL     1      -5.873  49.325  43.351  0.00  0.00    +0.000 A 
ATOM     24  H   UNL     1     -10.817  52.548  45.346  0.00  0.00    +0.000 HD
ATOM     25  H   UNL     1      -7.513  50.723  46.683  0.00  0.00    +0.000 HD
ENDBRANCH   1  17
BRANCH  10  26
ATOM     26  N   UNL     1     -12.769  55.293  51.457  0.00  0.00    +0.000 N 
ATOM     27  C   UNL     1     -13.734  55.963  50.724  0.00  0.00    +0.000 C 
ATOM     28  O   UNL     1     -14.152  55.646  49.617  0.00  0.00    +0.000 OA
ATOM     29  H   UNL     1     -12.573  55.626  52.362  0.00  0.00    +0.000 HD
BRANCH  27  30
ATOM     30  C   UNL     1     -14.367  57.134  51.386  0.00  0.00    +0.000 A 
ATOM     31  C   UNL     1     -14.673  57.158  52.751  0.00  0.00    +0.000 A 
ATOM     32  C   UNL     1     -14.604  58.268  50.597  0.00  0.00    +0.000 A 
ATOM     33  C   UNL     1     -15.226  58.312  53.312  0.00  0.00    +0.000 A 
ATOM     34  C   UNL     1     -15.153  59.417  51.162  0.00  0.00    +0.000 A 
ATOM     35  C   UNL     1     -15.465  59.436  52.519  0.00  0.00    +0.000 A 
ENDBRANCH  27  30
ENDBRANCH  10  26
BRANCH   3  36
ATOM     36  O   UNL     1     -10.783  53.818  47.054  0.00  0.00    +0.000 OA
ATOM     37  H   UNL     1     -11.643  54.189  47.056  0.00  0.00    +0.000 HD
ENDBRANCH   3  36
BRANCH   5  38
ATOM     38  C   UNL     1      -9.763  49.537  50.653  0.00  0.00    +0.000 C 
BRANCH  38  39
ATOM     39  C   UNL     1      -8.310  49.381  51.133  0.00  0.00    +0.000 C 
BRANCH  39  40
ATOM     40  C   UNL     1      -7.895  50.204  52.365  0.00  0.00    +0.000 C 
ATOM     41  C   UNL     1      -7.338  51.575  51.989  0.00  0.00    +0.000 C 
ATOM     42  C   UNL     1      -9.118  50.372  53.276  0.00  0.00    +0.000 C 
ENDBRANCH  39  40
ENDBRANCH  38  39
ENDBRANCH   5  38
TORSDOF 7
ENDMDL
MODEL 5
REMARK VINA RESULT:      -6.6      2.696      9.370
REMARK  Name = 338576
REMARK  9 active torsions:
REMARK  status: ('A' for Active; 'I' for Inactive)
REMARK    1  A    between atoms: C_6  and  C_10
REMARK    2  A    between atoms: C_14  and  O_18
REMARK    3  A    between atoms: N_17  and  C_21
REMARK    4  A    between atoms: C_21  and  C_24
REMARK    5  A    between atoms: C_24  and  C_27
REMARK    6  A    between atoms: C_25  and  N_28
REMARK    7  A    between atoms: C_27  and  C_29
REMARK    8  A    between atoms: C_27  and  C_30
REMARK    9  A    between atoms: C_31  and  C_33
REMARK                            x       y       z     vdW  Elec       q    Type
REMARK                         _______ _______ _______ _____ _____    ______ ____
ROOT
ATOM      1  C   UNL     1     -10.026  54.179  50.904  0.00  0.00    +0.000 A 
ATOM      2  C   UNL     1     -10.645  53.889  49.573  0.00  0.00    +0.000 A 
ATOM      3  C   UNL     1     -10.672  54.963  51.784  0.00  0.00    +0.000 A 
ATOM      4  O   UNL     1     -10.080  53.076  48.834  0.00  0.00    +0.000 OA
ATOM      5  N   UNL     1     -11.836  54.520  49.232  0.00  0.00    +0.000 N 
ATOM      6  C   UNL     1     -11.985  55.531  51.449  0.00  0.00    +0.000 A 
ATOM      7  C   UNL     1     -12.566  55.279  50.198  0.00  0.00    +0.000 A 
ATOM      8  C   UNL     1     -12.676  56.321  52.385  0.00  0.00    +0.000 A 
ATOM      9  C   UNL     1     -13.859  55.761  49.952  0.00  0.00    +0.000 A 
ATOM     10  C   UNL     1     -13.935  56.849  52.109  0.00  0.00    +0.000 A 
ATOM     11  C   UNL     1     -14.537  56.539  50.894  0.00  0.00    +0.000 A 
ENDROOT
BRANCH   1  17
ATOM     12  S   UNL     1      -7.318  51.402  51.548  0.00  0.00    +0.000 S 
ATOM     13  O   UNL     1      -6.649  50.969  50.336  0.00  0.00    +0.000 OA
ATOM     14  O   UNL     1      -7.701  50.434  52.558  0.00  0.00    +0.000 OA
ATOM     15  N   UNL     1      -8.645  52.226  51.118  0.00  0.00    +0.000 N 
ATOM     16  C   UNL     1      -6.212  52.510  52.343  0.00  0.00    +0.000 A 
ATOM     17  C   UNL     1      -8.712  53.517  51.268  0.00  0.00    +0.000 C 
ATOM     18  C   UNL     1      -6.543  53.854  52.355  0.00  0.00    +0.000 A 
ATOM     19  C   UNL     1      -5.051  52.028  52.954  0.00  0.00    +0.000 A 
ATOM     20  N   UNL     1      -7.699  54.325  51.739  0.00  0.00    +0.000 N 
ATOM     21  C   UNL     1      -5.642  54.753  52.935  0.00  0.00    +0.000 A 
ATOM     22  C   UNL     1      -4.180  52.930  53.561  0.00  0.00    +0.000 A 
ATOM     23  C   UNL     1      -4.472  54.294  53.543  0.00  0.00    +0.000 A 
ATOM     24  H   UNL     1      -9.414  51.744  50.738  0.00  0.00    +0.000 HD
ATOM     25  H   UNL     1      -7.802  55.298  51.633  0.00  0.00    +0.000 HD
ENDBRANCH   1  17
BRANCH  10  26
ATOM     26  N   UNL     1     -14.640  57.674  53.008  0.00  0.00    +0.000 N 
ATOM     27  C   UNL     1     -15.144  58.928  52.708  0.00  0.00    +0.000 C 
ATOM     28  O   UNL     1     -15.118  59.475  51.611  0.00  0.00    +0.000 OA
ATOM     29  H   UNL     1     -14.785  57.332  53.920  0.00  0.00    +0.000 HD
BRANCH  27  30
ATOM     30  C   UNL     1     -15.845  59.637  53.810  0.00  0.00    +0.000 A 
ATOM     31  C   UNL     1     -16.720  60.705  53.588  0.00  0.00    +0.000 A 
ATOM     32  C   UNL     1     -15.646  59.156  55.112  0.00  0.00    +0.000 A 
ATOM     33  C   UNL     1     -17.378  61.293  54.672  0.00  0.00    +0.000 A 
ATOM     34  C   UNL     1     -16.307  59.743  56.188  0.00  0.00    +0.000 A 
ATOM     35  C   UNL     1     -17.170  60.813  55.967  0.00  0.00    +0.000 A 
ENDBRANCH  27  30
ENDBRANCH  10  26
BRANCH   3  36
ATOM     36  O   UNL     1     -10.210  55.248  53.056  0.00  0.00    +0.000 OA
ATOM     37  H   UNL     1     -10.667  55.864  53.594  0.00  0.00    +0.000 HD
ENDBRANCH   3  36
BRANCH   5  38
ATOM     38  C   UNL     1     -12.382  54.276  47.893  0.00  0.00    +0.000 C 
BRANCH  38  39
ATOM     39  C   UNL     1     -11.587  54.880  46.723  0.00  0.00    +0.000 C 
BRANCH  39  40
ATOM     40  C   UNL     1     -11.356  53.974  45.501  0.00  0.00    +0.000 C 
ATOM     41  C   UNL     1      -9.875  53.807  45.172  0.00  0.00    +0.000 C 
ATOM     42  C   UNL     1     -11.983  52.603  45.783  0.00  0.00    +0.000 C 
ENDBRANCH  39  40
ENDBRANCH  38  39
ENDBRANCH   5  38
TORSDOF 7
ENDMDL
MODEL 6
REMARK VINA RESULT:      -5.7      3.001      9.624
REMARK  Name = 338576
REMARK  9 active torsions:
REMARK  status: ('A' for Active; 'I' for Inactive)
REMARK    1  A    between atoms: C_6  and  C_10
REMARK    2  A    between atoms: C_14  and  O_18
REMARK    3  A    between atoms: N_17  and  C_21
REMARK    4  A    between atoms: C_21  and  C_24
REMARK    5  A    between atoms: C_24  and  C_27
REMARK    6  A    between atoms: C_25  and  N_28
REMARK    7  A    between atoms: C_27  and  C_29
REMARK    8  A    between atoms: C_27  and  C_30
REMARK    9  A    between atoms: C_31  and  C_33
REMARK                            x       y       z     vdW  Elec       q    Type
REMARK                         _______ _______ _______ _____ _____    ______ ____
ROOT
ATOM      1  C   UNL     1     -10.242  52.764  48.441  0.00  0.00    +0.000 A 
ATOM      2  C   UNL     1      -9.237  52.196  49.392  0.00  0.00    +0.000 A 
ATOM      3  C   UNL     1     -11.116  53.691  48.869  0.00  0.00    +0.000 A 
ATOM      4  O   UNL     1      -8.376  51.433  48.940  0.00  0.00    +0.000 OA
ATOM      5  N   UNL     1      -9.290  52.566  50.730  0.00  0.00    +0.000 N 
ATOM      6  C   UNL     1     -11.085  54.154  50.264  0.00  0.00    +0.000 A 
ATOM      7  C   UNL     1     -10.157  53.615  51.167  0.00  0.00    +0.000 A 
ATOM      8  C   UNL     1     -11.977  55.150  50.700  0.00  0.00    +0.000 A 
ATOM      9  C   UNL     1     -10.097  54.150  52.461  0.00  0.00    +0.000 A 
ATOM     10  C   UNL     1     -11.952  55.631  52.007  0.00  0.00    +0.000 A 
ATOM     11  C   UNL     1     -10.985  55.144  52.880  0.00  0.00    +0.000 A 
ENDROOT
BRANCH   1  17
ATOM     12  S   UNL     1     -10.708  50.607  45.187  0.00  0.00    +0.000 S 
ATOM     13  O   UNL     1     -12.043  50.703  44.628  0.00  0.00    +0.000 OA
ATOM     14  O   UNL     1     -10.022  49.329  45.229  0.00  0.00    +0.000 OA
ATOM     15  N   UNL     1     -10.754  51.197  46.695  0.00  0.00    +0.000 N 
ATOM     16  C   UNL     1      -9.697  51.660  44.212  0.00  0.00    +0.000 A 
ATOM     17  C   UNL     1     -10.206  52.340  46.986  0.00  0.00    +0.000 C 
ATOM     18  C   UNL     1      -9.242  52.833  44.789  0.00  0.00    +0.000 A 
ATOM     19  C   UNL     1      -9.359  51.299  42.905  0.00  0.00    +0.000 A 
ATOM     20  N   UNL     1      -9.588  53.186  46.090  0.00  0.00    +0.000 N 
ATOM     21  C   UNL     1      -8.484  53.708  44.004  0.00  0.00    +0.000 A 
ATOM     22  C   UNL     1      -8.572  52.162  42.145  0.00  0.00    +0.000 A 
ATOM     23  C   UNL     1      -8.142  53.371  42.692  0.00  0.00    +0.000 A 
ATOM     24  H   UNL     1     -11.205  50.684  47.404  0.00  0.00    +0.000 HD
ATOM     25  H   UNL     1      -9.378  54.099  46.392  0.00  0.00    +0.000 HD
ENDBRANCH   1  17
BRANCH  10  26
ATOM     26  N   UNL     1     -12.852  56.602  52.489  0.00  0.00    +0.000 N 
ATOM     27  C   UNL     1     -14.178  56.718  52.104  0.00  0.00    +0.000 C 
ATOM     28  O   UNL     1     -14.781  55.961  51.352  0.00  0.00    +0.000 OA
ATOM     29  H   UNL     1     -12.513  57.248  53.149  0.00  0.00    +0.000 HD
BRANCH  27  30
ATOM     30  C   UNL     1     -14.949  57.826  52.725  0.00  0.00    +0.000 A 
ATOM     31  C   UNL     1     -15.274  57.852  54.086  0.00  0.00    +0.000 A 
ATOM     32  C   UNL     1     -15.302  58.904  51.902  0.00  0.00    +0.000 A 
ATOM     33  C   UNL     1     -15.963  58.950  54.608  0.00  0.00    +0.000 A 
ATOM     34  C   UNL     1     -15.986  59.997  52.428  0.00  0.00    +0.000 A 
ATOM     35  C   UNL     1     -16.317  60.017  53.781  0.00  0.00    +0.000 A 
ENDBRANCH  27  30
ENDBRANCH  10  26
BRANCH   3  36
ATOM     36  O   UNL     1     -12.047  54.314  48.059  0.00  0.00    +0.000 OA
ATOM     37  H   UNL     1     -11.765  54.828  47.328  0.00  0.00    +0.000 HD
ENDBRANCH   3  36
BRANCH   5  38
ATOM     38  C   UNL     1      -8.340  51.938  51.655  0.00  0.00    +0.000 C 
BRANCH  38  39
ATOM     39  C   UNL     1      -6.961  52.610  51.760  0.00  0.00    +0.000 C 
BRANCH  39  40
ATOM     40  C   UNL     1      -6.457  52.938  53.176  0.00  0.00    +0.000 C 
ATOM     41  C   UNL     1      -7.411  52.450  54.263  0.00  0.00    +0.000 C 
ATOM     42  C   UNL     1      -5.078  52.293  53.367  0.00  0.00    +0.000 C 
ENDBRANCH  39  40
ENDBRANCH  38  39
ENDBRANCH   5  38
TORSDOF 7
ENDMDL
MODEL 7
REMARK VINA RESULT:      -5.6      2.688      9.436
REMARK  Name = 338576
REMARK  9 active torsions:
REMARK  status: ('A' for Active; 'I' for Inactive)
REMARK    1  A    between atoms: C_6  and  C_10
REMARK    2  A    between atoms: C_14  and  O_18
REMARK    3  A    between atoms: N_17  and  C_21
REMARK    4  A    between atoms: C_21  and  C_24
REMARK    5  A    between atoms: C_24  and  C_27
REMARK    6  A    between atoms: C_25  and  N_28
REMARK    7  A    between atoms: C_27  and  C_29
REMARK    8  A    between atoms: C_27  and  C_30
REMARK    9  A    between atoms: C_31  and  C_33
REMARK                            x       y       z     vdW  Elec       q    Type
REMARK                         _______ _______ _______ _____ _____    ______ ____
ROOT
ATOM      1  C   UNL     1      -9.390  54.011  50.781  0.00  0.00    +0.000 A 
ATOM      2  C   UNL     1     -10.080  53.476  49.566  0.00  0.00    +0.000 A 
ATOM      3  C   UNL     1     -10.053  54.824  51.621  0.00  0.00    +0.000 A 
ATOM      4  O   UNL     1      -9.480  52.644  48.877  0.00  0.00    +0.000 OA
ATOM      5  N   UNL     1     -11.367  53.911  49.275  0.00  0.00    +0.000 N 
ATOM      6  C   UNL     1     -11.454  55.184  51.357  0.00  0.00    +0.000 A 
ATOM      7  C   UNL     1     -12.103  54.701  50.211  0.00  0.00    +0.000 A 
ATOM      8  C   UNL     1     -12.157  56.005  52.256  0.00  0.00    +0.000 A 
ATOM      9  C   UNL     1     -13.465  54.990  50.044  0.00  0.00    +0.000 A 
ATOM     10  C   UNL     1     -13.493  56.340  52.049  0.00  0.00    +0.000 A 
ATOM     11  C   UNL     1     -14.153  55.802  50.949  0.00  0.00    +0.000 A 
ENDROOT
BRANCH   1  17
ATOM     12  S   UNL     1      -5.513  54.128  51.425  0.00  0.00    +0.000 S 
ATOM     13  O   UNL     1      -5.174  54.506  52.784  0.00  0.00    +0.000 OA
ATOM     14  O   UNL     1      -4.750  54.651  50.309  0.00  0.00    +0.000 OA
ATOM     15  N   UNL     1      -7.072  54.495  51.179  0.00  0.00    +0.000 N 
ATOM     16  C   UNL     1      -5.337  52.383  51.349  0.00  0.00    +0.000 A 
ATOM     17  C   UNL     1      -7.975  53.563  51.085  0.00  0.00    +0.000 C 
ATOM     18  C   UNL     1      -6.489  51.622  51.246  0.00  0.00    +0.000 A 
ATOM     19  C   UNL     1      -4.066  51.802  51.374  0.00  0.00    +0.000 A 
ATOM     20  N   UNL     1      -7.750  52.210  51.227  0.00  0.00    +0.000 N 
ATOM     21  C   UNL     1      -6.365  50.229  51.243  0.00  0.00    +0.000 A 
ATOM     22  C   UNL     1      -3.955  50.414  51.333  0.00  0.00    +0.000 A 
ATOM     23  C   UNL     1      -5.105  49.627  51.276  0.00  0.00    +0.000 A 
ATOM     24  H   UNL     1      -7.342  55.438  51.099  0.00  0.00    +0.000 HD
ATOM     25  H   UNL     1      -8.534  51.622  51.320  0.00  0.00    +0.000 HD
ENDBRANCH   1  17
BRANCH  10  26
ATOM     26  N   UNL     1     -14.219  57.187  52.909  0.00  0.00    +0.000 N 
ATOM     27  C   UNL     1     -14.894  58.330  52.514  0.00  0.00    +0.000 C 
ATOM     28  O   UNL     1     -15.023  58.734  51.364  0.00  0.00    +0.000 OA
ATOM     29  H   UNL     1     -14.247  56.950  53.864  0.00  0.00    +0.000 HD
BRANCH  27  30
ATOM     30  C   UNL     1     -15.584  59.090  53.589  0.00  0.00    +0.000 A 
ATOM     31  C   UNL     1     -15.474  58.757  54.943  0.00  0.00    +0.000 A 
ATOM     32  C   UNL     1     -16.324  60.218  53.206  0.00  0.00    +0.000 A 
ATOM     33  C   UNL     1     -16.116  59.546  55.901  0.00  0.00    +0.000 A 
ATOM     34  C   UNL     1     -16.960  61.002  54.165  0.00  0.00    +0.000 A 
ATOM     35  C   UNL     1     -16.856  60.663  55.511  0.00  0.00    +0.000 A 
ENDBRANCH  27  30
ENDBRANCH  10  26
BRANCH   3  36
ATOM     36  O   UNL     1      -9.524  55.328  52.795  0.00  0.00    +0.000 OA
ATOM     37  H   UNL     1      -8.647  55.112  53.044  0.00  0.00    +0.000 HD
ENDBRANCH   3  36
BRANCH   5  38
ATOM     38  C   UNL     1     -11.992  53.428  48.038  0.00  0.00    +0.000 C 
BRANCH  38  39
ATOM     39  C   UNL     1     -11.153  53.581  46.758  0.00  0.00    +0.000 C 
BRANCH  39  40
ATOM     40  C   UNL     1     -10.953  55.011  46.227  0.00  0.00    +0.000 C 
ATOM     41  C   UNL     1     -12.046  55.966  46.698  0.00  0.00    +0.000 C 
ATOM     42  C   UNL     1      -9.582  55.519  46.695  0.00  0.00    +0.000 C 
ENDBRANCH  39  40
ENDBRANCH  38  39
ENDBRANCH   5  38
TORSDOF 7
ENDMDL
