MODEL 1
REMARK VINA RESULT:      -8.2      0.000      0.000
REMARK  Name = 338598
REMARK  10 active torsions:
REMARK  status: ('A' for Active; 'I' for Inactive)
REMARK    1  A    between atoms: C_6  and  C_10
REMARK    2  A    between atoms: C_14  and  O_18
REMARK    3  A    between atoms: N_17  and  C_21
REMARK    4  A    between atoms: C_21  and  C_24
REMARK    5  A    between atoms: C_24  and  C_27
REMARK    6  A    between atoms: C_25  and  N_28
REMARK    7  A    between atoms: C_27  and  C_29
REMARK    8  A    between atoms: C_27  and  C_30
REMARK    9  A    between atoms: N_28  and  C_31
REMARK   10  A    between atoms: C_31  and  C_32
REMARK                            x       y       z     vdW  Elec       q    Type
REMARK                         _______ _______ _______ _____ _____    ______ ____
ROOT
ATOM      1  C   UNL     1     -10.748  54.269  48.604  0.00  0.00    +0.000 A 
ATOM      2  C   UNL     1     -10.226  53.908  49.955  0.00  0.00    +0.000 A 
ATOM      3  C   UNL     1     -11.810  55.084  48.494  0.00  0.00    +0.000 A 
ATOM      4  O   UNL     1      -9.178  53.258  50.021  0.00  0.00    +0.000 OA
ATOM      5  N   UNL     1     -10.922  54.336  51.084  0.00  0.00    +0.000 N 
ATOM      6  C   UNL     1     -12.448  55.651  49.694  0.00  0.00    +0.000 A 
ATOM      7  C   UNL     1     -11.992  55.278  50.967  0.00  0.00    +0.000 A 
ATOM      8  C   UNL     1     -13.488  56.592  49.579  0.00  0.00    +0.000 A 
ATOM      9  C   UNL     1     -12.575  55.890  52.085  0.00  0.00    +0.000 A 
ATOM     10  C   UNL     1     -14.106  57.169  50.697  0.00  0.00    +0.000 A 
ATOM     11  C   UNL     1     -13.611  56.828  51.950  0.00  0.00    +0.000 A 
ENDROOT
BRANCH   1  17
ATOM     12  S   UNL     1      -7.928  53.782  45.904  0.00  0.00    +0.000 S 
ATOM     13  O   UNL     1      -6.890  52.867  46.328  0.00  0.00    +0.000 OA
ATOM     14  O   UNL     1      -7.587  55.005  45.201  0.00  0.00    +0.000 OA
ATOM     15  N   UNL     1      -8.793  54.188  47.216  0.00  0.00    +0.000 N 
ATOM     16  C   UNL     1      -8.966  52.876  44.816  0.00  0.00    +0.000 A 
ATOM     17  C   UNL     1     -10.014  53.772  47.371  0.00  0.00    +0.000 C 
ATOM     18  C   UNL     1     -10.242  52.563  45.250  0.00  0.00    +0.000 A 
ATOM     19  C   UNL     1      -8.500  52.509  43.550  0.00  0.00    +0.000 A 
ATOM     20  N   UNL     1     -10.690  52.928  46.515  0.00  0.00    +0.000 N 
ATOM     21  C   UNL     1     -11.054  51.793  44.409  0.00  0.00    +0.000 A 
ATOM     22  C   UNL     1      -9.333  51.775  42.709  0.00  0.00    +0.000 A 
ATOM     23  C   UNL     1     -10.606  51.409  43.143  0.00  0.00    +0.000 A 
ATOM     24  H   UNL     1      -8.385  54.761  47.906  0.00  0.00    +0.000 HD
ATOM     25  H   UNL     1     -11.549  52.557  46.821  0.00  0.00    +0.000 HD
ENDBRANCH   1  17
BRANCH   3  26
ATOM     26  O   UNL     1     -12.353  55.505  47.291  0.00  0.00    +0.000 OA
ATOM     27  H   UNL     1     -11.971  56.228  46.832  0.00  0.00    +0.000 HD
ENDBRANCH   3  26
BRANCH  10  28
ATOM     28  N   UNL     1     -15.081  58.170  50.498  0.00  0.00    +0.000 N 
ATOM     29  H   UNL     1     -15.950  57.978  50.079  0.00  0.00    +0.000 HD
BRANCH  28  30
ATOM     30  C   UNL     1     -14.714  59.522  50.962  0.00  0.00    +0.000 C 
BRANCH  30  31
ATOM     31  C   UNL     1     -13.964  60.252  49.853  0.00  0.00    +0.000 C 
ATOM     32  O   UNL     1     -12.748  60.339  49.774  0.00  0.00    +0.000 OA
ATOM     33  O   UNL     1     -14.805  60.823  48.953  0.00  0.00    +0.000 OA
ENDBRANCH  30  31
ENDBRANCH  28  30
ENDBRANCH  10  28
BRANCH   5  34
ATOM     34  C   UNL     1     -10.413  53.923  52.396  0.00  0.00    +0.000 C 
BRANCH  34  35
ATOM     35  C   UNL     1      -9.591  54.974  53.162  0.00  0.00    +0.000 C 
BRANCH  35  36
ATOM     36  C   UNL     1      -8.081  55.010  52.878  0.00  0.00    +0.000 C 
ATOM     37  C   UNL     1      -7.713  56.010  51.783  0.00  0.00    +0.000 C 
ATOM     38  C   UNL     1      -7.347  55.373  54.176  0.00  0.00    +0.000 C 
ENDBRANCH  35  36
ENDBRANCH  34  35
ENDBRANCH   5  34
TORSDOF 8
ENDMDL
MODEL 2
REMARK VINA RESULT:      -8.2      2.972      8.625
REMARK  Name = 338598
REMARK  10 active torsions:
REMARK  status: ('A' for Active; 'I' for Inactive)
REMARK    1  A    between atoms: C_6  and  C_10
REMARK    2  A    between atoms: C_14  and  O_18
REMARK    3  A    between atoms: N_17  and  C_21
REMARK    4  A    between atoms: C_21  and  C_24
REMARK    5  A    between atoms: C_24  and  C_27
REMARK    6  A    between atoms: C_25  and  N_28
REMARK    7  A    between atoms: C_27  and  C_29
REMARK    8  A    between atoms: C_27  and  C_30
REMARK    9  A    between atoms: N_28  and  C_31
REMARK   10  A    between atoms: C_31  and  C_32
REMARK                            x       y       z     vdW  Elec       q    Type
REMARK                         _______ _______ _______ _____ _____    ______ ____
ROOT
ATOM      1  C   UNL     1     -11.489  56.282  48.471  0.00  0.00    +0.000 A 
ATOM      2  C   UNL     1     -11.905  55.664  47.176  0.00  0.00    +0.000 A 
ATOM      3  C   UNL     1     -10.235  56.115  48.920  0.00  0.00    +0.000 A 
ATOM      4  O   UNL     1     -13.024  55.937  46.733  0.00  0.00    +0.000 OA
ATOM      5  N   UNL     1     -11.010  54.828  46.511  0.00  0.00    +0.000 N 
ATOM      6  C   UNL     1      -9.252  55.351  48.132  0.00  0.00    +0.000 A 
ATOM      7  C   UNL     1      -9.648  54.728  46.940  0.00  0.00    +0.000 A 
ATOM      8  C   UNL     1      -7.909  55.268  48.544  0.00  0.00    +0.000 A 
ATOM      9  C   UNL     1      -8.672  54.069  46.180  0.00  0.00    +0.000 A 
ATOM     10  C   UNL     1      -6.941  54.568  47.811  0.00  0.00    +0.000 A 
ATOM     11  C   UNL     1      -7.337  53.999  46.607  0.00  0.00    +0.000 A 
ENDROOT
BRANCH   1  17
ATOM     12  S   UNL     1     -13.649  59.411  49.485  0.00  0.00    +0.000 S 
ATOM     13  O   UNL     1     -14.831  59.574  48.664  0.00  0.00    +0.000 OA
ATOM     14  O   UNL     1     -12.851  60.563  49.862  0.00  0.00    +0.000 OA
ATOM     15  N   UNL     1     -12.672  58.353  48.737  0.00  0.00    +0.000 N 
ATOM     16  C   UNL     1     -14.194  58.691  50.991  0.00  0.00    +0.000 A 
ATOM     17  C   UNL     1     -12.476  57.162  49.218  0.00  0.00    +0.000 C 
ATOM     18  C   UNL     1     -13.832  57.381  51.250  0.00  0.00    +0.000 A 
ATOM     19  C   UNL     1     -14.954  59.444  51.891  0.00  0.00    +0.000 A 
ATOM     20  N   UNL     1     -13.082  56.641  50.342  0.00  0.00    +0.000 N 
ATOM     21  C   UNL     1     -14.310  56.784  52.422  0.00  0.00    +0.000 A 
ATOM     22  C   UNL     1     -15.392  58.848  53.071  0.00  0.00    +0.000 A 
ATOM     23  C   UNL     1     -15.078  57.516  53.331  0.00  0.00    +0.000 A 
ATOM     24  H   UNL     1     -12.218  58.619  47.904  0.00  0.00    +0.000 HD
ATOM     25  H   UNL     1     -12.976  55.677  50.514  0.00  0.00    +0.000 HD
ENDBRANCH   1  17
BRANCH   3  26
ATOM     26  O   UNL     1      -9.741  56.669  50.089  0.00  0.00    +0.000 OA
ATOM     27  H   UNL     1     -10.247  56.629  50.877  0.00  0.00    +0.000 HD
ENDBRANCH   3  26
BRANCH  10  28
ATOM     28  N   UNL     1      -5.598  54.606  48.243  0.00  0.00    +0.000 N 
ATOM     29  H   UNL     1      -4.857  54.293  47.676  0.00  0.00    +0.000 HD
BRANCH  28  30
ATOM     30  C   UNL     1      -5.375  55.145  49.599  0.00  0.00    +0.000 C 
BRANCH  30  31
ATOM     31  C   UNL     1      -4.692  54.087  50.459  0.00  0.00    +0.000 C 
ATOM     32  O   UNL     1      -4.306  54.263  51.604  0.00  0.00    +0.000 OA
ATOM     33  O   UNL     1      -4.538  52.910  49.801  0.00  0.00    +0.000 OA
ENDBRANCH  30  31
ENDBRANCH  28  30
ENDBRANCH  10  28
BRANCH   5  34
ATOM     34  C   UNL     1     -11.463  54.196  45.268  0.00  0.00    +0.000 C 
BRANCH  34  35
ATOM     35  C   UNL     1     -11.989  52.756  45.397  0.00  0.00    +0.000 C 
BRANCH  35  36
ATOM     36  C   UNL     1     -11.244  51.676  44.596  0.00  0.00    +0.000 C 
ATOM     37  C   UNL     1     -10.356  52.263  43.501  0.00  0.00    +0.000 C 
ATOM     38  C   UNL     1     -10.388  50.850  45.566  0.00  0.00    +0.000 C 
ENDBRANCH  35  36
ENDBRANCH  34  35
ENDBRANCH   5  34
TORSDOF 8
ENDMDL
MODEL 3
REMARK VINA RESULT:      -8.1      3.012      6.661
REMARK  Name = 338598
REMARK  10 active torsions:
REMARK  status: ('A' for Active; 'I' for Inactive)
REMARK    1  A    between atoms: C_6  and  C_10
REMARK    2  A    between atoms: C_14  and  O_18
REMARK    3  A    between atoms: N_17  and  C_21
REMARK    4  A    between atoms: C_21  and  C_24
REMARK    5  A    between atoms: C_24  and  C_27
REMARK    6  A    between atoms: C_25  and  N_28
REMARK    7  A    between atoms: C_27  and  C_29
REMARK    8  A    between atoms: C_27  and  C_30
REMARK    9  A    between atoms: N_28  and  C_31
REMARK   10  A    between atoms: C_31  and  C_32
REMARK                            x       y       z     vdW  Elec       q    Type
REMARK                         _______ _______ _______ _____ _____    ______ ____
ROOT
ATOM      1  C   UNL     1      -9.358  54.752  50.485  0.00  0.00    +0.000 A 
ATOM      2  C   UNL     1      -8.891  54.487  49.091  0.00  0.00    +0.000 A 
ATOM      3  C   UNL     1     -10.534  55.366  50.691  0.00  0.00    +0.000 A 
ATOM      4  O   UNL     1      -7.868  53.814  48.937  0.00  0.00    +0.000 OA
ATOM      5  N   UNL     1      -9.638  54.984  48.024  0.00  0.00    +0.000 N 
ATOM      6  C   UNL     1     -11.386  55.756  49.554  0.00  0.00    +0.000 A 
ATOM      7  C   UNL     1     -10.933  55.553  48.243  0.00  0.00    +0.000 A 
ATOM      8  C   UNL     1     -12.667  56.297  49.768  0.00  0.00    +0.000 A 
ATOM      9  C   UNL     1     -11.797  55.870  47.186  0.00  0.00    +0.000 A 
ATOM     10  C   UNL     1     -13.514  56.661  48.713  0.00  0.00    +0.000 A 
ATOM     11  C   UNL     1     -13.072  56.408  47.419  0.00  0.00    +0.000 A 
ENDROOT
BRANCH   1  17
ATOM     12  S   UNL     1      -6.311  54.197  52.912  0.00  0.00    +0.000 S 
ATOM     13  O   UNL     1      -6.133  55.282  53.854  0.00  0.00    +0.000 OA
ATOM     14  O   UNL     1      -5.163  53.590  52.264  0.00  0.00    +0.000 OA
ATOM     15  N   UNL     1      -7.320  54.714  51.751  0.00  0.00    +0.000 N 
ATOM     16  C   UNL     1      -7.103  52.904  53.797  0.00  0.00    +0.000 A 
ATOM     17  C   UNL     1      -8.527  54.244  51.650  0.00  0.00    +0.000 C 
ATOM     18  C   UNL     1      -8.417  52.611  53.477  0.00  0.00    +0.000 A 
ATOM     19  C   UNL     1      -6.402  52.197  54.778  0.00  0.00    +0.000 A 
ATOM     20  N   UNL     1      -9.105  53.328  52.504  0.00  0.00    +0.000 N 
ATOM     21  C   UNL     1      -9.071  51.619  54.217  0.00  0.00    +0.000 A 
ATOM     22  C   UNL     1      -7.054  51.187  55.481  0.00  0.00    +0.000 A 
ATOM     23  C   UNL     1      -8.391  50.905  55.207  0.00  0.00    +0.000 A 
ATOM     24  H   UNL     1      -7.011  55.397  51.111  0.00  0.00    +0.000 HD
ATOM     25  H   UNL     1     -10.074  53.171  52.419  0.00  0.00    +0.000 HD
ENDBRANCH   1  17
BRANCH   3  26
ATOM     26  O   UNL     1     -11.072  55.631  51.939  0.00  0.00    +0.000 OA
ATOM     27  H   UNL     1     -11.763  55.094  52.275  0.00  0.00    +0.000 HD
ENDBRANCH   3  26
BRANCH  10  28
ATOM     28  N   UNL     1     -14.818  57.115  49.008  0.00  0.00    +0.000 N 
ATOM     29  H   UNL     1     -15.559  57.030  48.366  0.00  0.00    +0.000 HD
BRANCH  28  30
ATOM     30  C   UNL     1     -14.998  57.722  50.341  0.00  0.00    +0.000 C 
BRANCH  30  31
ATOM     31  C   UNL     1     -15.891  56.824  51.190  0.00  0.00    +0.000 C 
ATOM     32  O   UNL     1     -15.899  56.805  52.411  0.00  0.00    +0.000 OA
ATOM     33  O   UNL     1     -16.679  56.019  50.433  0.00  0.00    +0.000 OA
ENDBRANCH  30  31
ENDBRANCH  28  30
ENDBRANCH  10  28
BRANCH   5  34
ATOM     34  C   UNL     1      -9.128  54.752  46.670  0.00  0.00    +0.000 C 
BRANCH  34  35
ATOM     35  C   UNL     1      -9.503  53.404  46.030  0.00  0.00    +0.000 C 
BRANCH  35  36
ATOM     36  C   UNL     1     -10.395  53.458  44.779  0.00  0.00    +0.000 C 
ATOM     37  C   UNL     1      -9.780  52.727  43.587  0.00  0.00    +0.000 C 
ATOM     38  C   UNL     1     -11.756  52.837  45.120  0.00  0.00    +0.000 C 
ENDBRANCH  35  36
ENDBRANCH  34  35
ENDBRANCH   5  34
TORSDOF 8
ENDMDL
MODEL 4
REMARK VINA RESULT:      -8.0      3.462      8.439
REMARK  Name = 338598
REMARK  10 active torsions:
REMARK  status: ('A' for Active; 'I' for Inactive)
REMARK    1  A    between atoms: C_6  and  C_10
REMARK    2  A    between atoms: C_14  and  O_18
REMARK    3  A    between atoms: N_17  and  C_21
REMARK    4  A    between atoms: C_21  and  C_24
REMARK    5  A    between atoms: C_24  and  C_27
REMARK    6  A    between atoms: C_25  and  N_28
REMARK    7  A    between atoms: C_27  and  C_29
REMARK    8  A    between atoms: C_27  and  C_30
REMARK    9  A    between atoms: N_28  and  C_31
REMARK   10  A    between atoms: C_31  and  C_32
REMARK                            x       y       z     vdW  Elec       q    Type
REMARK                         _______ _______ _______ _____ _____    ______ ____
ROOT
ATOM      1  C   UNL     1     -12.233  54.232  50.339  0.00  0.00    +0.000 A 
ATOM      2  C   UNL     1     -11.983  53.770  48.941  0.00  0.00    +0.000 A 
ATOM      3  C   UNL     1     -11.641  53.602  51.367  0.00  0.00    +0.000 A 
ATOM      4  O   UNL     1     -12.443  54.443  48.014  0.00  0.00    +0.000 OA
ATOM      5  N   UNL     1     -11.225  52.618  48.736  0.00  0.00    +0.000 N 
ATOM      6  C   UNL     1     -10.722  52.476  51.128  0.00  0.00    +0.000 A 
ATOM      7  C   UNL     1     -10.520  52.007  49.822  0.00  0.00    +0.000 A 
ATOM      8  C   UNL     1     -10.014  51.887  52.192  0.00  0.00    +0.000 A 
ATOM      9  C   UNL     1      -9.586  50.981  49.622  0.00  0.00    +0.000 A 
ATOM     10  C   UNL     1      -9.116  50.829  52.002  0.00  0.00    +0.000 A 
ATOM     11  C   UNL     1      -8.889  50.407  50.697  0.00  0.00    +0.000 A 
ENDROOT
BRANCH   1  17
ATOM     12  S   UNL     1     -15.281  56.498  51.366  0.00  0.00    +0.000 S 
ATOM     13  O   UNL     1     -15.338  56.760  52.789  0.00  0.00    +0.000 OA
ATOM     14  O   UNL     1     -16.493  56.203  50.624  0.00  0.00    +0.000 OA
ATOM     15  N   UNL     1     -14.245  55.271  51.132  0.00  0.00    +0.000 N 
ATOM     16  C   UNL     1     -14.605  57.941  50.628  0.00  0.00    +0.000 A 
ATOM     17  C   UNL     1     -13.091  55.464  50.567  0.00  0.00    +0.000 C 
ATOM     18  C   UNL     1     -13.331  57.858  50.095  0.00  0.00    +0.000 A 
ATOM     19  C   UNL     1     -15.356  59.119  50.579  0.00  0.00    +0.000 A 
ATOM     20  N   UNL     1     -12.591  56.682  50.157  0.00  0.00    +0.000 N 
ATOM     21  C   UNL     1     -12.765  59.019  49.555  0.00  0.00    +0.000 A 
ATOM     22  C   UNL     1     -14.794  60.257  50.006  0.00  0.00    +0.000 A 
ATOM     23  C   UNL     1     -13.496  60.209  49.504  0.00  0.00    +0.000 A 
ATOM     24  H   UNL     1     -14.496  54.364  51.424  0.00  0.00    +0.000 HD
ATOM     25  H   UNL     1     -11.644  56.722  49.890  0.00  0.00    +0.000 HD
ENDBRANCH   1  17
BRANCH   3  26
ATOM     26  O   UNL     1     -11.781  53.968  52.695  0.00  0.00    +0.000 OA
ATOM     27  H   UNL     1     -12.322  54.698  52.925  0.00  0.00    +0.000 HD
ENDBRANCH   3  26
BRANCH  10  28
ATOM     28  N   UNL     1      -8.379  50.351  53.106  0.00  0.00    +0.000 N 
ATOM     29  H   UNL     1      -8.011  49.438  53.135  0.00  0.00    +0.000 HD
BRANCH  28  30
ATOM     30  C   UNL     1      -8.194  51.307  54.215  0.00  0.00    +0.000 C 
BRANCH  30  31
ATOM     31  C   UNL     1      -8.838  50.748  55.479  0.00  0.00    +0.000 C 
ATOM     32  O   UNL     1      -8.319  49.928  56.221  0.00  0.00    +0.000 OA
ATOM     33  O   UNL     1     -10.081  51.252  55.689  0.00  0.00    +0.000 OA
ENDBRANCH  30  31
ENDBRANCH  28  30
ENDBRANCH  10  28
BRANCH   5  34
ATOM     34  C   UNL     1     -11.039  52.161  47.356  0.00  0.00    +0.000 C 
BRANCH  34  35
ATOM     35  C   UNL     1      -9.777  52.672  46.640  0.00  0.00    +0.000 C 
BRANCH  35  36
ATOM     36  C   UNL     1      -9.995  53.611  45.442  0.00  0.00    +0.000 C 
ATOM     37  C   UNL     1      -8.903  53.474  44.383  0.00  0.00    +0.000 C 
ATOM     38  C   UNL     1     -11.361  53.298  44.818  0.00  0.00    +0.000 C 
ENDBRANCH  35  36
ENDBRANCH  34  35
ENDBRANCH   5  34
TORSDOF 8
ENDMDL
MODEL 5
REMARK VINA RESULT:      -8.0      2.127      6.271
REMARK  Name = 338598
REMARK  10 active torsions:
REMARK  status: ('A' for Active; 'I' for Inactive)
REMARK    1  A    between atoms: C_6  and  C_10
REMARK    2  A    between atoms: C_14  and  O_18
REMARK    3  A    between atoms: N_17  and  C_21
REMARK    4  A    between atoms: C_21  and  C_24
REMARK    5  A    between atoms: C_24  and  C_27
REMARK    6  A    between atoms: C_25  and  N_28
REMARK    7  A    between atoms: C_27  and  C_29
REMARK    8  A    between atoms: C_27  and  C_30
REMARK    9  A    between atoms: N_28  and  C_31
REMARK   10  A    between atoms: C_31  and  C_32
REMARK                            x       y       z     vdW  Elec       q    Type
REMARK                         _______ _______ _______ _____ _____    ______ ____
ROOT
ATOM      1  C   UNL     1     -10.072  54.565  49.991  0.00  0.00    +0.000 A 
ATOM      2  C   UNL     1     -10.004  54.351  48.514  0.00  0.00    +0.000 A 
ATOM      3  C   UNL     1     -11.001  55.387  50.505  0.00  0.00    +0.000 A 
ATOM      4  O   UNL     1      -9.221  53.498  48.085  0.00  0.00    +0.000 OA
ATOM      5  N   UNL     1     -10.837  55.099  47.685  0.00  0.00    +0.000 N 
ATOM      6  C   UNL     1     -11.975  56.060  49.628  0.00  0.00    +0.000 A 
ATOM      7  C   UNL     1     -11.887  55.900  48.238  0.00  0.00    +0.000 A 
ATOM      8  C   UNL     1     -13.018  56.832  50.171  0.00  0.00    +0.000 A 
ATOM      9  C   UNL     1     -12.871  56.496  47.438  0.00  0.00    +0.000 A 
ATOM     10  C   UNL     1     -13.976  57.470  49.371  0.00  0.00    +0.000 A 
ATOM     11  C   UNL     1     -13.905  57.262  47.999  0.00  0.00    +0.000 A 
ENDROOT
BRANCH   1  17
ATOM     12  S   UNL     1      -8.215  51.536  51.682  0.00  0.00    +0.000 S 
ATOM     13  O   UNL     1      -7.130  51.017  50.878  0.00  0.00    +0.000 OA
ATOM     14  O   UNL     1      -9.109  50.632  52.383  0.00  0.00    +0.000 OA
ATOM     15  N   UNL     1      -9.120  52.491  50.732  0.00  0.00    +0.000 N 
ATOM     16  C   UNL     1      -7.473  52.534  52.922  0.00  0.00    +0.000 A 
ATOM     17  C   UNL     1      -9.138  53.780  50.895  0.00  0.00    +0.000 C 
ATOM     18  C   UNL     1      -7.659  53.904  52.847  0.00  0.00    +0.000 A 
ATOM     19  C   UNL     1      -6.736  51.939  53.950  0.00  0.00    +0.000 A 
ATOM     20  N   UNL     1      -8.389  54.483  51.815  0.00  0.00    +0.000 N 
ATOM     21  C   UNL     1      -7.024  54.709  53.800  0.00  0.00    +0.000 A 
ATOM     22  C   UNL     1      -6.140  52.750  54.912  0.00  0.00    +0.000 A 
ATOM     23  C   UNL     1      -6.276  54.134  54.831  0.00  0.00    +0.000 A 
ATOM     24  H   UNL     1      -9.666  52.085  50.019  0.00  0.00    +0.000 HD
ATOM     25  H   UNL     1      -8.368  55.464  51.734  0.00  0.00    +0.000 HD
ENDBRANCH   1  17
BRANCH   3  26
ATOM     26  O   UNL     1     -11.170  55.631  51.857  0.00  0.00    +0.000 OA
ATOM     27  H   UNL     1     -11.577  54.986  52.403  0.00  0.00    +0.000 HD
ENDBRANCH   3  26
BRANCH  10  28
ATOM     28  N   UNL     1     -15.042  58.153  49.994  0.00  0.00    +0.000 N 
ATOM     29  H   UNL     1     -15.970  57.829  49.948  0.00  0.00    +0.000 HD
BRANCH  28  30
ATOM     30  C   UNL     1     -14.675  59.385  50.721  0.00  0.00    +0.000 C 
BRANCH  30  31
ATOM     31  C   UNL     1     -14.000  60.358  49.762  0.00  0.00    +0.000 C 
ATOM     32  O   UNL     1     -12.826  60.690  49.818  0.00  0.00    +0.000 OA
ATOM     33  O   UNL     1     -14.859  60.841  48.829  0.00  0.00    +0.000 OA
ENDBRANCH  30  31
ENDBRANCH  28  30
ENDBRANCH  10  28
BRANCH   5  34
ATOM     34  C   UNL     1     -10.712  54.903  46.238  0.00  0.00    +0.000 C 
BRANCH  34  35
ATOM     35  C   UNL     1     -11.655  53.861  45.614  0.00  0.00    +0.000 C 
BRANCH  35  36
ATOM     36  C   UNL     1     -11.019  52.837  44.660  0.00  0.00    +0.000 C 
ATOM     37  C   UNL     1      -9.532  53.098  44.426  0.00  0.00    +0.000 C 
ATOM     38  C   UNL     1     -11.209  51.433  45.251  0.00  0.00    +0.000 C 
ENDBRANCH  35  36
ENDBRANCH  34  35
ENDBRANCH   5  34
TORSDOF 8
ENDMDL
MODEL 6
REMARK VINA RESULT:      -8.0      2.586      8.089
REMARK  Name = 338598
REMARK  10 active torsions:
REMARK  status: ('A' for Active; 'I' for Inactive)
REMARK    1  A    between atoms: C_6  and  C_10
REMARK    2  A    between atoms: C_14  and  O_18
REMARK    3  A    between atoms: N_17  and  C_21
REMARK    4  A    between atoms: C_21  and  C_24
REMARK    5  A    between atoms: C_24  and  C_27
REMARK    6  A    between atoms: C_25  and  N_28
REMARK    7  A    between atoms: C_27  and  C_29
REMARK    8  A    between atoms: C_27  and  C_30
REMARK    9  A    between atoms: N_28  and  C_31
REMARK   10  A    between atoms: C_31  and  C_32
REMARK                            x       y       z     vdW  Elec       q    Type
REMARK                         _______ _______ _______ _____ _____    ______ ____
ROOT
ATOM      1  C   UNL     1     -11.461  56.083  48.706  0.00  0.00    +0.000 A 
ATOM      2  C   UNL     1     -10.323  55.542  49.508  0.00  0.00    +0.000 A 
ATOM      3  C   UNL     1     -11.636  55.681  47.437  0.00  0.00    +0.000 A 
ATOM      4  O   UNL     1     -10.261  55.837  50.705  0.00  0.00    +0.000 OA
ATOM      5  N   UNL     1      -9.395  54.710  48.885  0.00  0.00    +0.000 N 
ATOM      6  C   UNL     1     -10.732  54.686  46.835  0.00  0.00    +0.000 A 
ATOM      7  C   UNL     1      -9.634  54.209  47.566  0.00  0.00    +0.000 A 
ATOM      8  C   UNL     1     -10.979  54.178  45.546  0.00  0.00    +0.000 A 
ATOM      9  C   UNL     1      -8.836  53.212  46.989  0.00  0.00    +0.000 A 
ATOM     10  C   UNL     1     -10.154  53.216  44.947  0.00  0.00    +0.000 A 
ATOM     11  C   UNL     1      -9.099  52.717  45.702  0.00  0.00    +0.000 A 
ENDROOT
BRANCH   1  17
ATOM     12  S   UNL     1     -13.588  59.302  49.478  0.00  0.00    +0.000 S 
ATOM     13  O   UNL     1     -14.740  59.441  48.613  0.00  0.00    +0.000 OA
ATOM     14  O   UNL     1     -12.779  60.459  49.817  0.00  0.00    +0.000 OA
ATOM     15  N   UNL     1     -12.610  58.187  48.821  0.00  0.00    +0.000 N 
ATOM     16  C   UNL     1     -14.193  58.677  51.004  0.00  0.00    +0.000 A 
ATOM     17  C   UNL     1     -12.452  57.021  49.373  0.00  0.00    +0.000 C 
ATOM     18  C   UNL     1     -13.866  57.376  51.345  0.00  0.00    +0.000 A 
ATOM     19  C   UNL     1     -14.966  59.492  51.836  0.00  0.00    +0.000 A 
ATOM     20  N   UNL     1     -13.103  56.574  50.504  0.00  0.00    +0.000 N 
ATOM     21  C   UNL     1     -14.391  56.854  52.533  0.00  0.00    +0.000 A 
ATOM     22  C   UNL     1     -15.451  58.970  53.033  0.00  0.00    +0.000 A 
ATOM     23  C   UNL     1     -15.172  57.649  53.376  0.00  0.00    +0.000 A 
ATOM     24  H   UNL     1     -12.126  58.398  47.989  0.00  0.00    +0.000 HD
ATOM     25  H   UNL     1     -13.022  55.619  50.731  0.00  0.00    +0.000 HD
ENDBRANCH   1  17
BRANCH   3  26
ATOM     26  O   UNL     1     -12.673  56.096  46.620  0.00  0.00    +0.000 OA
ATOM     27  H   UNL     1     -13.463  56.431  46.998  0.00  0.00    +0.000 HD
ENDBRANCH   3  26
BRANCH  10  28
ATOM     28  N   UNL     1     -10.517  52.693  43.688  0.00  0.00    +0.000 N 
ATOM     29  H   UNL     1     -11.388  52.263  43.531  0.00  0.00    +0.000 HD
BRANCH  28  30
ATOM     30  C   UNL     1      -9.507  52.835  42.620  0.00  0.00    +0.000 C 
BRANCH  30  31
ATOM     31  C   UNL     1      -8.911  51.468  42.303  0.00  0.00    +0.000 C 
ATOM     32  O   UNL     1      -7.717  51.239  42.183  0.00  0.00    +0.000 OA
ATOM     33  O   UNL     1      -9.864  50.514  42.145  0.00  0.00    +0.000 OA
ENDBRANCH  30  31
ENDBRANCH  28  30
ENDBRANCH  10  28
BRANCH   5  34
ATOM     34  C   UNL     1      -8.261  54.236  49.684  0.00  0.00    +0.000 C 
BRANCH  34  35
ATOM     35  C   UNL     1      -7.031  55.158  49.725  0.00  0.00    +0.000 C 
BRANCH  35  36
ATOM     36  C   UNL     1      -6.020  54.910  50.856  0.00  0.00    +0.000 C 
ATOM     37  C   UNL     1      -6.675  54.349  52.117  0.00  0.00    +0.000 C 
ATOM     38  C   UNL     1      -4.950  53.932  50.351  0.00  0.00    +0.000 C 
ENDBRANCH  35  36
ENDBRANCH  34  35
ENDBRANCH   5  34
TORSDOF 8
ENDMDL
MODEL 7
REMARK VINA RESULT:      -7.5      3.047      8.148
REMARK  Name = 338598
REMARK  10 active torsions:
REMARK  status: ('A' for Active; 'I' for Inactive)
REMARK    1  A    between atoms: C_6  and  C_10
REMARK    2  A    between atoms: C_14  and  O_18
REMARK    3  A    between atoms: N_17  and  C_21
REMARK    4  A    between atoms: C_21  and  C_24
REMARK    5  A    between atoms: C_24  and  C_27
REMARK    6  A    between atoms: C_25  and  N_28
REMARK    7  A    between atoms: C_27  and  C_29
REMARK    8  A    between atoms: C_27  and  C_30
REMARK    9  A    between atoms: N_28  and  C_31
REMARK   10  A    between atoms: C_31  and  C_32
REMARK                            x       y       z     vdW  Elec       q    Type
REMARK                         _______ _______ _______ _____ _____    ______ ____
ROOT
ATOM      1  C   UNL     1     -10.620  55.766  48.493  0.00  0.00    +0.000 A 
ATOM      2  C   UNL     1      -9.222  55.636  49.003  0.00  0.00    +0.000 A 
ATOM      3  C   UNL     1     -10.942  55.263  47.290  0.00  0.00    +0.000 A 
ATOM      4  O   UNL     1      -8.987  55.999  50.159  0.00  0.00    +0.000 OA
ATOM      5  N   UNL     1      -8.248  55.091  48.169  0.00  0.00    +0.000 N 
ATOM      6  C   UNL     1      -9.936  54.556  46.479  0.00  0.00    +0.000 A 
ATOM      7  C   UNL     1      -8.611  54.472  46.931  0.00  0.00    +0.000 A 
ATOM      8  C   UNL     1     -10.298  53.931  45.271  0.00  0.00    +0.000 A 
ATOM      9  C   UNL     1      -7.697  53.732  46.168  0.00  0.00    +0.000 A 
ATOM     10  C   UNL     1      -9.374  53.232  44.482  0.00  0.00    +0.000 A 
ATOM     11  C   UNL     1      -8.077  53.114  44.966  0.00  0.00    +0.000 A 
ENDROOT
BRANCH   1  17
ATOM     12  S   UNL     1     -13.276  56.209  51.362  0.00  0.00    +0.000 S 
ATOM     13  O   UNL     1     -12.677  56.492  52.649  0.00  0.00    +0.000 OA
ATOM     14  O   UNL     1     -14.394  55.290  51.257  0.00  0.00    +0.000 OA
ATOM     15  N   UNL     1     -12.101  55.675  50.379  0.00  0.00    +0.000 N 
ATOM     16  C   UNL     1     -13.858  57.746  50.743  0.00  0.00    +0.000 A 
ATOM     17  C   UNL     1     -11.675  56.396  49.385  0.00  0.00    +0.000 C 
ATOM     18  C   UNL     1     -13.202  58.295  49.655  0.00  0.00    +0.000 A 
ATOM     19  C   UNL     1     -14.960  58.366  51.338  0.00  0.00    +0.000 A 
ATOM     20  N   UNL     1     -12.103  57.670  49.077  0.00  0.00    +0.000 N 
ATOM     21  C   UNL     1     -13.627  59.546  49.193  0.00  0.00    +0.000 A 
ATOM     22  C   UNL     1     -15.394  59.594  50.844  0.00  0.00    +0.000 A 
ATOM     23  C   UNL     1     -14.721  60.188  49.778  0.00  0.00    +0.000 A 
ATOM     24  H   UNL     1     -11.703  54.787  50.538  0.00  0.00    +0.000 HD
ATOM     25  H   UNL     1     -11.593  58.174  48.402  0.00  0.00    +0.000 HD
ENDBRANCH   1  17
BRANCH   3  26
ATOM     26  O   UNL     1     -12.212  55.304  46.739  0.00  0.00    +0.000 OA
ATOM     27  H   UNL     1     -12.873  54.711  47.042  0.00  0.00    +0.000 HD
ENDBRANCH   3  26
BRANCH  10  28
ATOM     28  N   UNL     1      -9.832  52.558  43.330  0.00  0.00    +0.000 N 
ATOM     29  H   UNL     1     -10.744  52.194  43.264  0.00  0.00    +0.000 HD
BRANCH  28  30
ATOM     30  C   UNL     1      -8.856  52.436  42.229  0.00  0.00    +0.000 C 
BRANCH  30  31
ATOM     31  C   UNL     1      -8.298  51.018  42.201  0.00  0.00    +0.000 C 
ATOM     32  O   UNL     1      -7.111  50.737  42.146  0.00  0.00    +0.000 OA
ATOM     33  O   UNL     1      -9.278  50.079  42.226  0.00  0.00    +0.000 OA
ENDBRANCH  30  31
ENDBRANCH  28  30
ENDBRANCH  10  28
BRANCH   5  34
ATOM     34  C   UNL     1      -6.875  55.022  48.678  0.00  0.00    +0.000 C 
BRANCH  34  35
ATOM     35  C   UNL     1      -6.486  53.718  49.395  0.00  0.00    +0.000 C 
BRANCH  35  36
ATOM     36  C   UNL     1      -5.127  53.704  50.113  0.00  0.00    +0.000 C 
ATOM     37  C   UNL     1      -5.206  54.259  51.534  0.00  0.00    +0.000 C 
ATOM     38  C   UNL     1      -4.608  52.260  50.151  0.00  0.00    +0.000 C 
ENDBRANCH  35  36
ENDBRANCH  34  35
ENDBRANCH   5  34
TORSDOF 8
ENDMDL
MODEL 8
REMARK VINA RESULT:      -7.5      2.884      7.727
REMARK  Name = 338598
REMARK  10 active torsions:
REMARK  status: ('A' for Active; 'I' for Inactive)
REMARK    1  A    between atoms: C_6  and  C_10
REMARK    2  A    between atoms: C_14  and  O_18
REMARK    3  A    between atoms: N_17  and  C_21
REMARK    4  A    between atoms: C_21  and  C_24
REMARK    5  A    between atoms: C_24  and  C_27
REMARK    6  A    between atoms: C_25  and  N_28
REMARK    7  A    between atoms: C_27  and  C_29
REMARK    8  A    between atoms: C_27  and  C_30
REMARK    9  A    between atoms: N_28  and  C_31
REMARK   10  A    between atoms: C_31  and  C_32
REMARK                            x       y       z     vdW  Elec       q    Type
REMARK                         _______ _______ _______ _____ _____    ______ ____
ROOT
ATOM      1  C   UNL     1      -9.824  53.885  50.952  0.00  0.00    +0.000 A 
ATOM      2  C   UNL     1     -10.842  54.946  51.221  0.00  0.00    +0.000 A 
ATOM      3  C   UNL     1      -9.663  53.416  49.704  0.00  0.00    +0.000 A 
ATOM      4  O   UNL     1     -10.881  55.442  52.351  0.00  0.00    +0.000 OA
ATOM      5  N   UNL     1     -11.684  55.350  50.187  0.00  0.00    +0.000 N 
ATOM      6  C   UNL     1     -10.459  53.957  48.590  0.00  0.00    +0.000 A 
ATOM      7  C   UNL     1     -11.447  54.919  48.843  0.00  0.00    +0.000 A 
ATOM      8  C   UNL     1     -10.213  53.548  47.266  0.00  0.00    +0.000 A 
ATOM      9  C   UNL     1     -12.137  55.464  47.751  0.00  0.00    +0.000 A 
ATOM     10  C   UNL     1     -10.935  54.056  46.177  0.00  0.00    +0.000 A 
ATOM     11  C   UNL     1     -11.878  55.044  46.438  0.00  0.00    +0.000 A 
ENDROOT
BRANCH   1  17
ATOM     12  S   UNL     1      -6.615  53.277  53.145  0.00  0.00    +0.000 S 
ATOM     13  O   UNL     1      -6.252  54.426  53.948  0.00  0.00    +0.000 OA
ATOM     14  O   UNL     1      -5.593  52.501  52.467  0.00  0.00    +0.000 OA
ATOM     15  N   UNL     1      -7.684  53.774  52.030  0.00  0.00    +0.000 N 
ATOM     16  C   UNL     1      -7.427  52.159  54.228  0.00  0.00    +0.000 A 
ATOM     17  C   UNL     1      -8.931  53.415  52.086  0.00  0.00    +0.000 C 
ATOM     18  C   UNL     1      -8.786  51.965  54.059  0.00  0.00    +0.000 A 
ATOM     19  C   UNL     1      -6.697  51.486  55.213  0.00  0.00    +0.000 A 
ATOM     20  N   UNL     1      -9.501  52.647  53.080  0.00  0.00    +0.000 N 
ATOM     21  C   UNL     1      -9.449  51.118  54.954  0.00  0.00    +0.000 A 
ATOM     22  C   UNL     1      -7.363  50.617  56.074  0.00  0.00    +0.000 A 
ATOM     23  C   UNL     1      -8.740  50.441  55.950  0.00  0.00    +0.000 A 
ATOM     24  H   UNL     1      -7.380  54.358  51.296  0.00  0.00    +0.000 HD
ATOM     25  H   UNL     1     -10.483  52.577  53.098  0.00  0.00    +0.000 HD
ENDBRANCH   1  17
BRANCH   3  26
ATOM     26  O   UNL     1      -8.730  52.458  49.343  0.00  0.00    +0.000 OA
ATOM     27  H   UNL     1      -8.571  52.277  48.436  0.00  0.00    +0.000 HD
ENDBRANCH   3  26
BRANCH  10  28
ATOM     28  N   UNL     1     -10.571  53.662  44.872  0.00  0.00    +0.000 N 
ATOM     29  H   UNL     1     -10.634  54.274  44.104  0.00  0.00    +0.000 HD
BRANCH  28  30
ATOM     30  C   UNL     1     -10.087  52.274  44.733  0.00  0.00    +0.000 C 
BRANCH  30  31
ATOM     31  C   UNL     1      -8.724  52.279  44.051  0.00  0.00    +0.000 C 
ATOM     32  O   UNL     1      -7.941  51.341  44.052  0.00  0.00    +0.000 OA
ATOM     33  O   UNL     1      -8.456  53.463  43.444  0.00  0.00    +0.000 OA
ENDBRANCH  30  31
ENDBRANCH  28  30
ENDBRANCH  10  28
BRANCH   5  34
ATOM     34  C   UNL     1     -12.705  56.356  50.494  0.00  0.00    +0.000 C 
BRANCH  34  35
ATOM     35  C   UNL     1     -13.930  55.856  51.279  0.00  0.00    +0.000 C 
BRANCH  35  36
ATOM     36  C   UNL     1     -14.837  56.931  51.900  0.00  0.00    +0.000 C 
ATOM     37  C   UNL     1     -14.168  57.665  53.060  0.00  0.00    +0.000 C 
ATOM     38  C   UNL     1     -15.224  57.937  50.807  0.00  0.00    +0.000 C 
ENDBRANCH  35  36
ENDBRANCH  34  35
ENDBRANCH   5  34
TORSDOF 8
ENDMDL
MODEL 9
REMARK VINA RESULT:      -7.5      2.743      6.262
REMARK  Name = 338598
REMARK  10 active torsions:
REMARK  status: ('A' for Active; 'I' for Inactive)
REMARK    1  A    between atoms: C_6  and  C_10
REMARK    2  A    between atoms: C_14  and  O_18
REMARK    3  A    between atoms: N_17  and  C_21
REMARK    4  A    between atoms: C_21  and  C_24
REMARK    5  A    between atoms: C_24  and  C_27
REMARK    6  A    between atoms: C_25  and  N_28
REMARK    7  A    between atoms: C_27  and  C_29
REMARK    8  A    between atoms: C_27  and  C_30
REMARK    9  A    between atoms: N_28  and  C_31
REMARK   10  A    between atoms: C_31  and  C_32
REMARK                            x       y       z     vdW  Elec       q    Type
REMARK                         _______ _______ _______ _____ _____    ______ ____
ROOT
ATOM      1  C   UNL     1      -9.685  54.538  49.757  0.00  0.00    +0.000 A 
ATOM      2  C   UNL     1      -9.712  54.303  48.282  0.00  0.00    +0.000 A 
ATOM      3  C   UNL     1     -10.613  55.325  50.326  0.00  0.00    +0.000 A 
ATOM      4  O   UNL     1      -8.923  53.481  47.809  0.00  0.00    +0.000 OA
ATOM      5  N   UNL     1     -10.637  54.999  47.506  0.00  0.00    +0.000 N 
ATOM      6  C   UNL     1     -11.677  55.937  49.513  0.00  0.00    +0.000 A 
ATOM      7  C   UNL     1     -11.681  55.760  48.122  0.00  0.00    +0.000 A 
ATOM      8  C   UNL     1     -12.714  56.670  50.121  0.00  0.00    +0.000 A 
ATOM      9  C   UNL     1     -12.746  56.298  47.388  0.00  0.00    +0.000 A 
ATOM     10  C   UNL     1     -13.755  57.250  49.384  0.00  0.00    +0.000 A 
ATOM     11  C   UNL     1     -13.772  57.025  48.012  0.00  0.00    +0.000 A 
ENDROOT
BRANCH   1  17
ATOM     12  S   UNL     1      -8.110  52.154  52.462  0.00  0.00    +0.000 S 
ATOM     13  O   UNL     1      -8.068  50.769  52.042  0.00  0.00    +0.000 OA
ATOM     14  O   UNL     1      -8.486  52.498  53.822  0.00  0.00    +0.000 OA
ATOM     15  N   UNL     1      -9.108  52.944  51.456  0.00  0.00    +0.000 N 
ATOM     16  C   UNL     1      -6.487  52.784  52.239  0.00  0.00    +0.000 A 
ATOM     17  C   UNL     1      -8.653  53.810  50.601  0.00  0.00    +0.000 C 
ATOM     18  C   UNL     1      -6.286  53.712  51.233  0.00  0.00    +0.000 A 
ATOM     19  C   UNL     1      -5.450  52.358  53.075  0.00  0.00    +0.000 A 
ATOM     20  N   UNL     1      -7.324  54.122  50.404  0.00  0.00    +0.000 N 
ATOM     21  C   UNL     1      -4.983  54.176  51.014  0.00  0.00    +0.000 A 
ATOM     22  C   UNL     1      -4.166  52.856  52.869  0.00  0.00    +0.000 A 
ATOM     23  C   UNL     1      -3.931  53.757  51.833  0.00  0.00    +0.000 A 
ATOM     24  H   UNL     1     -10.076  52.764  51.495  0.00  0.00    +0.000 HD
ATOM     25  H   UNL     1      -7.094  54.672  49.620  0.00  0.00    +0.000 HD
ENDBRANCH   1  17
BRANCH   3  26
ATOM     26  O   UNL     1     -10.696  55.582  51.684  0.00  0.00    +0.000 OA
ATOM     27  H   UNL     1     -11.132  56.354  51.989  0.00  0.00    +0.000 HD
ENDBRANCH   3  26
BRANCH  10  28
ATOM     28  N   UNL     1     -14.804  57.894  50.073  0.00  0.00    +0.000 N 
ATOM     29  H   UNL     1     -15.221  58.720  49.738  0.00  0.00    +0.000 HD
BRANCH  28  30
ATOM     30  C   UNL     1     -15.238  57.249  51.328  0.00  0.00    +0.000 C 
BRANCH  30  31
ATOM     31  C   UNL     1     -14.709  58.044  52.516  0.00  0.00    +0.000 C 
ATOM     32  O   UNL     1     -13.894  57.629  53.325  0.00  0.00    +0.000 OA
ATOM     33  O   UNL     1     -15.263  59.281  52.595  0.00  0.00    +0.000 OA
ENDBRANCH  30  31
ENDBRANCH  28  30
ENDBRANCH  10  28
BRANCH   5  34
ATOM     34  C   UNL     1     -10.606  54.786  46.056  0.00  0.00    +0.000 C 
BRANCH  34  35
ATOM     35  C   UNL     1     -11.511  53.664  45.519  0.00  0.00    +0.000 C 
BRANCH  35  36
ATOM     36  C   UNL     1     -10.808  52.398  45.004  0.00  0.00    +0.000 C 
ATOM     37  C   UNL     1     -11.740  51.188  44.954  0.00  0.00    +0.000 C 
ATOM     38  C   UNL     1     -10.254  52.681  43.602  0.00  0.00    +0.000 C 
ENDBRANCH  35  36
ENDBRANCH  34  35
ENDBRANCH   5  34
TORSDOF 8
ENDMDL
