MODEL 1
REMARK VINA RESULT:      -8.4      0.000      0.000
REMARK  Name = 338233
REMARK  7 active torsions:
REMARK  status: ('A' for Active; 'I' for Inactive)
REMARK    1  A    between atoms: C_5  and  O_8
REMARK    2  A    between atoms: C_9  and  C_13
REMARK    3  A    between atoms: N_10  and  C_14
REMARK    4  A    between atoms: C_14  and  C_18
REMARK    5  A    between atoms: C_18  and  C_21
REMARK    6  A    between atoms: C_21  and  C_26
REMARK    7  A    between atoms: C_21  and  C_27
REMARK                            x       y       z     vdW  Elec       q    Type
REMARK                         _______ _______ _______ _____ _____    ______ ____
ROOT
ATOM      1 CL   UNL     1     -11.705  53.883  44.921  0.00  0.00    +0.000 Cl
ATOM      2  C   UNL     1     -11.089  53.422  46.477  0.00  0.00    +0.000 A 
ATOM      3  C   UNL     1     -11.258  54.181  47.659  0.00  0.00    +0.000 A 
ATOM      4  C   UNL     1     -10.441  52.189  46.502  0.00  0.00    +0.000 A 
ATOM      5  C   UNL     1     -12.082  55.397  47.740  0.00  0.00    +0.000 A 
ATOM      6  C   UNL     1     -10.713  53.685  48.866  0.00  0.00    +0.000 A 
ATOM      7  C   UNL     1      -9.961  51.685  47.698  0.00  0.00    +0.000 A 
ATOM      8  C   UNL     1     -12.556  55.830  48.921  0.00  0.00    +0.000 A 
ATOM      9  N   UNL     1     -10.848  54.442  50.073  0.00  0.00    +0.000 N 
ATOM     10  C   UNL     1     -10.098  52.427  48.867  0.00  0.00    +0.000 A 
ATOM     11  C   UNL     1     -11.814  55.441  50.163  0.00  0.00    +0.000 A 
ATOM     12  O   UNL     1     -12.056  56.041  51.215  0.00  0.00    +0.000 OA
ENDROOT
BRANCH   8  13
ATOM     13  C   UNL     1     -13.579  56.951  48.957  0.00  0.00    +0.000 C 
ATOM     14  N   UNL     1     -13.186  58.149  48.641  0.00  0.00    +0.000 N 
ATOM     15  N   UNL     1     -14.847  56.695  49.453  0.00  0.00    +0.000 N 
ATOM     16  S   UNL     1     -13.883  59.415  49.357  0.00  0.00    +0.000 S 
ATOM     17  C   UNL     1     -15.120  57.391  50.643  0.00  0.00    +0.000 A 
ATOM     18  O   UNL     1     -14.900  60.000  48.516  0.00  0.00    +0.000 OA
ATOM     19  O   UNL     1     -12.814  60.242  49.903  0.00  0.00    +0.000 OA
ATOM     20  C   UNL     1     -14.700  58.715  50.768  0.00  0.00    +0.000 A 
ATOM     21  C   UNL     1     -15.620  56.713  51.751  0.00  0.00    +0.000 A 
ATOM     22  C   UNL     1     -14.690  59.354  52.002  0.00  0.00    +0.000 A 
ATOM     23  C   UNL     1     -15.603  57.337  52.995  0.00  0.00    +0.000 A 
ATOM     24  C   UNL     1     -15.134  58.649  53.119  0.00  0.00    +0.000 A 
ATOM     25  H   UNL     1     -12.474  58.283  47.974  0.00  0.00    +0.000 HD
ATOM     26  H   UNL     1     -15.490  56.089  49.018  0.00  0.00    +0.000 HD
ENDBRANCH   8  13
BRANCH   5  27
ATOM     27  O   UNL     1     -12.374  56.069  46.571  0.00  0.00    +0.000 OA
ATOM     28  H   UNL     1     -13.257  56.315  46.379  0.00  0.00    +0.000 HD
ENDBRANCH   5  27
BRANCH   9  29
ATOM     29  C   UNL     1     -10.140  54.063  51.309  0.00  0.00    +0.000 C 
BRANCH  29  30
ATOM     30  C   UNL     1      -8.802  54.766  51.617  0.00  0.00    +0.000 C 
BRANCH  30  31
ATOM     31  C   UNL     1      -8.243  55.721  50.548  0.00  0.00    +0.000 C 
ATOM     32  C   UNL     1      -7.554  56.943  51.154  0.00  0.00    +0.000 C 
ATOM     33  C   UNL     1      -7.242  54.953  49.671  0.00  0.00    +0.000 C 
ENDBRANCH  30  31
ENDBRANCH  29  30
ENDBRANCH   9  29
TORSDOF 5
ENDMDL
MODEL 2
REMARK VINA RESULT:      -8.2      2.351      2.921
REMARK  Name = 338233
REMARK  7 active torsions:
REMARK  status: ('A' for Active; 'I' for Inactive)
REMARK    1  A    between atoms: C_5  and  O_8
REMARK    2  A    between atoms: C_9  and  C_13
REMARK    3  A    between atoms: N_10  and  C_14
REMARK    4  A    between atoms: C_14  and  C_18
REMARK    5  A    between atoms: C_18  and  C_21
REMARK    6  A    between atoms: C_21  and  C_26
REMARK    7  A    between atoms: C_21  and  C_27
REMARK                            x       y       z     vdW  Elec       q    Type
REMARK                         _______ _______ _______ _____ _____    ______ ____
ROOT
ATOM      1 CL   UNL     1     -11.672  50.466  48.507  0.00  0.00    +0.000 Cl
ATOM      2  C   UNL     1     -11.040  50.940  50.053  0.00  0.00    +0.000 A 
ATOM      3  C   UNL     1     -11.150  52.242  50.595  0.00  0.00    +0.000 A 
ATOM      4  C   UNL     1     -10.442  49.910  50.775  0.00  0.00    +0.000 A 
ATOM      5  C   UNL     1     -11.922  53.327  49.969  0.00  0.00    +0.000 A 
ATOM      6  C   UNL     1     -10.598  52.492  51.873  0.00  0.00    +0.000 A 
ATOM      7  C   UNL     1      -9.955  50.151  52.048  0.00  0.00    +0.000 A 
ATOM      8  C   UNL     1     -12.350  54.374  50.695  0.00  0.00    +0.000 A 
ATOM      9  N   UNL     1     -10.674  53.805  52.437  0.00  0.00    +0.000 N 
ATOM     10  C   UNL     1     -10.034  51.429  52.589  0.00  0.00    +0.000 A 
ATOM     11  C   UNL     1     -11.596  54.723  51.941  0.00  0.00    +0.000 A 
ATOM     12  O   UNL     1     -11.789  55.824  52.466  0.00  0.00    +0.000 OA
ENDROOT
BRANCH   8  13
ATOM     13  C   UNL     1     -13.326  55.364  50.085  0.00  0.00    +0.000 C 
ATOM     14  N   UNL     1     -12.883  56.179  49.173  0.00  0.00    +0.000 N 
ATOM     15  N   UNL     1     -14.605  55.465  50.608  0.00  0.00    +0.000 N 
ATOM     16  S   UNL     1     -13.528  57.653  49.061  0.00  0.00    +0.000 S 
ATOM     17  C   UNL     1     -14.852  56.708  51.214  0.00  0.00    +0.000 A 
ATOM     18  O   UNL     1     -14.518  57.713  48.011  0.00  0.00    +0.000 OA
ATOM     19  O   UNL     1     -12.427  58.607  49.091  0.00  0.00    +0.000 OA
ATOM     20  C   UNL     1     -14.377  57.869  50.604  0.00  0.00    +0.000 A 
ATOM     21  C   UNL     1     -15.383  56.766  52.500  0.00  0.00    +0.000 A 
ATOM     22  C   UNL     1     -14.344  59.080  51.285  0.00  0.00    +0.000 A 
ATOM     23  C   UNL     1     -15.343  57.970  53.198  0.00  0.00    +0.000 A 
ATOM     24  C   UNL     1     -14.820  59.119  52.595  0.00  0.00    +0.000 A 
ATOM     25  H   UNL     1     -12.164  55.901  48.561  0.00  0.00    +0.000 HD
ATOM     26  H   UNL     1     -15.272  54.741  50.560  0.00  0.00    +0.000 HD
ENDBRANCH   8  13
BRANCH   5  27
ATOM     27  O   UNL     1     -12.214  53.231  48.624  0.00  0.00    +0.000 OA
ATOM     28  H   UNL     1     -13.094  53.347  48.326  0.00  0.00    +0.000 HD
ENDBRANCH   5  27
BRANCH   9  29
ATOM     29  C   UNL     1      -9.953  54.161  53.673  0.00  0.00    +0.000 C 
BRANCH  29  30
ATOM     30  C   UNL     1      -8.530  54.739  53.535  0.00  0.00    +0.000 C 
BRANCH  30  31
ATOM     31  C   UNL     1      -7.352  53.764  53.706  0.00  0.00    +0.000 C 
ATOM     32  C   UNL     1      -6.761  53.317  52.369  0.00  0.00    +0.000 C 
ATOM     33  C   UNL     1      -6.261  54.446  54.544  0.00  0.00    +0.000 C 
ENDBRANCH  30  31
ENDBRANCH  29  30
ENDBRANCH   9  29
TORSDOF 5
ENDMDL
MODEL 3
REMARK VINA RESULT:      -8.2      1.884      3.789
REMARK  Name = 338233
REMARK  7 active torsions:
REMARK  status: ('A' for Active; 'I' for Inactive)
REMARK    1  A    between atoms: C_5  and  O_8
REMARK    2  A    between atoms: C_9  and  C_13
REMARK    3  A    between atoms: N_10  and  C_14
REMARK    4  A    between atoms: C_14  and  C_18
REMARK    5  A    between atoms: C_18  and  C_21
REMARK    6  A    between atoms: C_21  and  C_26
REMARK    7  A    between atoms: C_21  and  C_27
REMARK                            x       y       z     vdW  Elec       q    Type
REMARK                         _______ _______ _______ _____ _____    ______ ____
ROOT
ATOM      1 CL   UNL     1     -10.630  54.591  52.591  0.00  0.00    +0.000 Cl
ATOM      2  C   UNL     1     -10.136  54.261  50.960  0.00  0.00    +0.000 A 
ATOM      3  C   UNL     1     -10.846  54.682  49.811  0.00  0.00    +0.000 A 
ATOM      4  C   UNL     1      -8.928  53.576  50.846  0.00  0.00    +0.000 A 
ATOM      5  C   UNL     1     -12.027  55.559  49.854  0.00  0.00    +0.000 A 
ATOM      6  C   UNL     1     -10.328  54.354  48.537  0.00  0.00    +0.000 A 
ATOM      7  C   UNL     1      -8.400  53.309  49.596  0.00  0.00    +0.000 A 
ATOM      8  C   UNL     1     -12.399  56.265  48.773  0.00  0.00    +0.000 A 
ATOM      9  N   UNL     1     -11.036  54.746  47.357  0.00  0.00    +0.000 N 
ATOM     10  C   UNL     1      -9.094  53.696  48.454  0.00  0.00    +0.000 A 
ATOM     11  C   UNL     1     -11.994  55.755  47.424  0.00  0.00    +0.000 A 
ATOM     12  O   UNL     1     -12.547  56.216  46.421  0.00  0.00    +0.000 OA
ENDROOT
BRANCH   8  13
ATOM     13  C   UNL     1     -13.479  57.324  48.900  0.00  0.00    +0.000 C 
ATOM     14  N   UNL     1     -13.139  58.569  48.740  0.00  0.00    +0.000 N 
ATOM     15  N   UNL     1     -14.747  56.952  49.317  0.00  0.00    +0.000 N 
ATOM     16  S   UNL     1     -13.921  59.708  49.572  0.00  0.00    +0.000 S 
ATOM     17  C   UNL     1     -15.092  57.490  50.568  0.00  0.00    +0.000 A 
ATOM     18  O   UNL     1     -14.941  60.338  48.767  0.00  0.00    +0.000 OA
ATOM     19  O   UNL     1     -12.914  60.514  50.249  0.00  0.00    +0.000 OA
ATOM     20  C   UNL     1     -14.745  58.808  50.862  0.00  0.00    +0.000 A 
ATOM     21  C   UNL     1     -15.591  56.663  51.570  0.00  0.00    +0.000 A 
ATOM     22  C   UNL     1     -14.806  59.298  52.160  0.00  0.00    +0.000 A 
ATOM     23  C   UNL     1     -15.644  57.137  52.878  0.00  0.00    +0.000 A 
ATOM     24  C   UNL     1     -15.248  58.446  53.171  0.00  0.00    +0.000 A 
ATOM     25  H   UNL     1     -12.414  58.814  48.120  0.00  0.00    +0.000 HD
ATOM     26  H   UNL     1     -15.344  56.372  48.791  0.00  0.00    +0.000 HD
ENDBRANCH   8  13
BRANCH   5  27
ATOM     27  O   UNL     1     -12.729  55.654  51.038  0.00  0.00    +0.000 OA
ATOM     28  H   UNL     1     -13.357  54.998  51.265  0.00  0.00    +0.000 HD
ENDBRANCH   5  27
BRANCH   9  29
ATOM     29  C   UNL     1     -10.640  54.269  46.020  0.00  0.00    +0.000 C 
BRANCH  29  30
ATOM     30  C   UNL     1     -11.631  53.368  45.254  0.00  0.00    +0.000 C 
BRANCH  30  31
ATOM     31  C   UNL     1     -11.583  51.858  45.544  0.00  0.00    +0.000 C 
ATOM     32  C   UNL     1     -10.163  51.354  45.799  0.00  0.00    +0.000 C 
ATOM     33  C   UNL     1     -12.459  51.560  46.770  0.00  0.00    +0.000 C 
ENDBRANCH  30  31
ENDBRANCH  29  30
ENDBRANCH   9  29
TORSDOF 5
ENDMDL
MODEL 4
REMARK VINA RESULT:      -8.1      3.258      6.618
REMARK  Name = 338233
REMARK  7 active torsions:
REMARK  status: ('A' for Active; 'I' for Inactive)
REMARK    1  A    between atoms: C_5  and  O_8
REMARK    2  A    between atoms: C_9  and  C_13
REMARK    3  A    between atoms: N_10  and  C_14
REMARK    4  A    between atoms: C_14  and  C_18
REMARK    5  A    between atoms: C_18  and  C_21
REMARK    6  A    between atoms: C_21  and  C_26
REMARK    7  A    between atoms: C_21  and  C_27
REMARK                            x       y       z     vdW  Elec       q    Type
REMARK                         _______ _______ _______ _____ _____    ______ ____
ROOT
ATOM      1 CL   UNL     1      -8.547  54.090  47.048  0.00  0.00    +0.000 Cl
ATOM      2  C   UNL     1     -10.118  54.758  47.370  0.00  0.00    +0.000 A 
ATOM      3  C   UNL     1     -10.658  54.934  48.666  0.00  0.00    +0.000 A 
ATOM      4  C   UNL     1     -10.816  55.171  46.238  0.00  0.00    +0.000 A 
ATOM      5  C   UNL     1      -9.908  54.688  49.907  0.00  0.00    +0.000 A 
ATOM      6  C   UNL     1     -11.949  55.500  48.789  0.00  0.00    +0.000 A 
ATOM      7  C   UNL     1     -12.053  55.776  46.372  0.00  0.00    +0.000 A 
ATOM      8  C   UNL     1     -10.286  55.258  51.065  0.00  0.00    +0.000 A 
ATOM      9  N   UNL     1     -12.532  55.670  50.085  0.00  0.00    +0.000 N 
ATOM     10  C   UNL     1     -12.611  55.938  47.636  0.00  0.00    +0.000 A 
ATOM     11  C   UNL     1     -11.723  55.652  51.219  0.00  0.00    +0.000 A 
ATOM     12  O   UNL     1     -12.152  55.914  52.347  0.00  0.00    +0.000 OA
ENDROOT
BRANCH   8  13
ATOM     13  C   UNL     1      -9.379  55.170  52.278  0.00  0.00    +0.000 C 
ATOM     14  N   UNL     1      -8.161  55.612  52.167  0.00  0.00    +0.000 N 
ATOM     15  N   UNL     1      -9.823  54.505  53.410  0.00  0.00    +0.000 N 
ATOM     16  S   UNL     1      -6.990  54.901  53.017  0.00  0.00    +0.000 S 
ATOM     17  C   UNL     1      -9.087  53.340  53.683  0.00  0.00    +0.000 A 
ATOM     18  O   UNL     1      -6.685  55.647  54.215  0.00  0.00    +0.000 OA
ATOM     19  O   UNL     1      -5.932  54.548  52.079  0.00  0.00    +0.000 OA
ATOM     20  C   UNL     1      -7.702  53.356  53.522  0.00  0.00    +0.000 A 
ATOM     21  C   UNL     1      -9.745  52.136  53.917  0.00  0.00    +0.000 A 
ATOM     22  C   UNL     1      -6.965  52.179  53.504  0.00  0.00    +0.000 A 
ATOM     23  C   UNL     1      -9.020  50.948  53.888  0.00  0.00    +0.000 A 
ATOM     24  C   UNL     1      -7.638  50.970  53.677  0.00  0.00    +0.000 A 
ATOM     25  H   UNL     1      -7.957  56.370  51.571  0.00  0.00    +0.000 HD
ATOM     26  H   UNL     1     -10.576  54.815  53.964  0.00  0.00    +0.000 HD
ENDBRANCH   8  13
BRANCH   5  27
ATOM     27  O   UNL     1      -8.794  53.876  49.848  0.00  0.00    +0.000 OA
ATOM     28  H   UNL     1      -8.541  53.485  49.036  0.00  0.00    +0.000 HD
ENDBRANCH   5  27
BRANCH   9  29
ATOM     29  C   UNL     1     -13.938  56.076  50.256  0.00  0.00    +0.000 C 
BRANCH  29  30
ATOM     30  C   UNL     1     -14.245  57.584  50.355  0.00  0.00    +0.000 C 
BRANCH  30  31
ATOM     31  C   UNL     1     -15.146  58.047  51.513  0.00  0.00    +0.000 C 
ATOM     32  C   UNL     1     -15.617  56.888  52.391  0.00  0.00    +0.000 C 
ATOM     33  C   UNL     1     -14.371  59.057  52.372  0.00  0.00    +0.000 C 
ENDBRANCH  30  31
ENDBRANCH  29  30
ENDBRANCH   9  29
TORSDOF 5
ENDMDL
MODEL 5
REMARK VINA RESULT:      -8.0      2.721      4.297
REMARK  Name = 338233
REMARK  7 active torsions:
REMARK  status: ('A' for Active; 'I' for Inactive)
REMARK    1  A    between atoms: C_5  and  O_8
REMARK    2  A    between atoms: C_9  and  C_13
REMARK    3  A    between atoms: N_10  and  C_14
REMARK    4  A    between atoms: C_14  and  C_18
REMARK    5  A    between atoms: C_18  and  C_21
REMARK    6  A    between atoms: C_21  and  C_26
REMARK    7  A    between atoms: C_21  and  C_27
REMARK                            x       y       z     vdW  Elec       q    Type
REMARK                         _______ _______ _______ _____ _____    ______ ____
ROOT
ATOM      1 CL   UNL     1     -10.293  52.173  54.320  0.00  0.00    +0.000 Cl
ATOM      2  C   UNL     1      -9.295  53.118  53.260  0.00  0.00    +0.000 A 
ATOM      3  C   UNL     1      -9.779  53.851  52.151  0.00  0.00    +0.000 A 
ATOM      4  C   UNL     1      -7.947  53.153  53.610  0.00  0.00    +0.000 A 
ATOM      5  C   UNL     1     -11.207  54.003  51.831  0.00  0.00    +0.000 A 
ATOM      6  C   UNL     1      -8.858  54.589  51.372  0.00  0.00    +0.000 A 
ATOM      7  C   UNL     1      -7.062  53.923  52.876  0.00  0.00    +0.000 A 
ATOM      8  C   UNL     1     -11.636  55.020  51.064  0.00  0.00    +0.000 A 
ATOM      9  N   UNL     1      -9.315  55.321  50.231  0.00  0.00    +0.000 N 
ATOM     10  C   UNL     1      -7.516  54.633  51.769  0.00  0.00    +0.000 A 
ATOM     11  C   UNL     1     -10.666  55.634  50.101  0.00  0.00    +0.000 A 
ATOM     12  O   UNL     1     -11.098  56.365  49.204  0.00  0.00    +0.000 OA
ENDROOT
BRANCH   8  13
ATOM     13  C   UNL     1     -13.124  55.286  50.929  0.00  0.00    +0.000 C 
ATOM     14  N   UNL     1     -13.637  55.308  49.734  0.00  0.00    +0.000 N 
ATOM     15  N   UNL     1     -13.856  55.632  52.054  0.00  0.00    +0.000 N 
ATOM     16  S   UNL     1     -14.885  56.285  49.435  0.00  0.00    +0.000 S 
ATOM     17  C   UNL     1     -14.357  56.944  51.998  0.00  0.00    +0.000 A 
ATOM     18  O   UNL     1     -16.137  55.568  49.485  0.00  0.00    +0.000 OA
ATOM     19  O   UNL     1     -14.538  57.081  48.265  0.00  0.00    +0.000 OA
ATOM     20  C   UNL     1     -14.873  57.425  50.796  0.00  0.00    +0.000 A 
ATOM     21  C   UNL     1     -14.158  57.813  53.067  0.00  0.00    +0.000 A 
ATOM     22  C   UNL     1     -15.118  58.780  50.607  0.00  0.00    +0.000 A 
ATOM     23  C   UNL     1     -14.387  59.174  52.887  0.00  0.00    +0.000 A 
ATOM     24  C   UNL     1     -14.859  59.655  51.661  0.00  0.00    +0.000 A 
ATOM     25  H   UNL     1     -13.270  54.736  49.021  0.00  0.00    +0.000 HD
ATOM     26  H   UNL     1     -14.009  55.023  52.812  0.00  0.00    +0.000 HD
ENDBRANCH   8  13
BRANCH   5  27
ATOM     27  O   UNL     1     -12.097  53.089  52.357  0.00  0.00    +0.000 OA
ATOM     28  H   UNL     1     -13.019  53.241  52.292  0.00  0.00    +0.000 HD
ENDBRANCH   5  27
BRANCH   9  29
ATOM     29  C   UNL     1      -8.376  55.947  49.284  0.00  0.00    +0.000 C 
BRANCH  29  30
ATOM     30  C   UNL     1      -7.884  55.101  48.092  0.00  0.00    +0.000 C 
BRANCH  30  31
ATOM     31  C   UNL     1      -8.767  55.075  46.832  0.00  0.00    +0.000 C 
ATOM     32  C   UNL     1      -7.953  54.927  45.547  0.00  0.00    +0.000 C 
ATOM     33  C   UNL     1      -9.760  53.908  46.947  0.00  0.00    +0.000 C 
ENDBRANCH  30  31
ENDBRANCH  29  30
ENDBRANCH   9  29
TORSDOF 5
ENDMDL
MODEL 6
REMARK VINA RESULT:      -7.5      3.139      6.798
REMARK  Name = 338233
REMARK  7 active torsions:
REMARK  status: ('A' for Active; 'I' for Inactive)
REMARK    1  A    between atoms: C_5  and  O_8
REMARK    2  A    between atoms: C_9  and  C_13
REMARK    3  A    between atoms: N_10  and  C_14
REMARK    4  A    between atoms: C_14  and  C_18
REMARK    5  A    between atoms: C_18  and  C_21
REMARK    6  A    between atoms: C_21  and  C_26
REMARK    7  A    between atoms: C_21  and  C_27
REMARK                            x       y       z     vdW  Elec       q    Type
REMARK                         _______ _______ _______ _____ _____    ______ ____
ROOT
ATOM      1 CL   UNL     1     -14.089  57.871  47.433  0.00  0.00    +0.000 Cl
ATOM      2  C   UNL     1     -13.641  57.189  48.966  0.00  0.00    +0.000 A 
ATOM      3  C   UNL     1     -12.604  56.244  49.146  0.00  0.00    +0.000 A 
ATOM      4  C   UNL     1     -14.355  57.686  50.053  0.00  0.00    +0.000 A 
ATOM      5  C   UNL     1     -11.694  55.812  48.072  0.00  0.00    +0.000 A 
ATOM      6  C   UNL     1     -12.334  55.774  50.452  0.00  0.00    +0.000 A 
ATOM      7  C   UNL     1     -14.047  57.263  51.334  0.00  0.00    +0.000 A 
ATOM      8  C   UNL     1     -10.498  55.271  48.361  0.00  0.00    +0.000 A 
ATOM      9  N   UNL     1     -11.307  54.801  50.662  0.00  0.00    +0.000 N 
ATOM     10  C   UNL     1     -13.045  56.318  51.529  0.00  0.00    +0.000 A 
ATOM     11  C   UNL     1     -10.330  54.600  49.690  0.00  0.00    +0.000 A 
ATOM     12  O   UNL     1      -9.355  53.864  49.867  0.00  0.00    +0.000 OA
ENDROOT
BRANCH   8  13
ATOM     13  C   UNL     1      -9.489  55.038  47.250  0.00  0.00    +0.000 C 
ATOM     14  N   UNL     1      -9.816  54.231  46.285  0.00  0.00    +0.000 N 
ATOM     15  N   UNL     1      -8.216  55.574  47.368  0.00  0.00    +0.000 N 
ATOM     16  S   UNL     1      -8.664  53.357  45.572  0.00  0.00    +0.000 S 
ATOM     17  C   UNL     1      -7.219  54.592  47.487  0.00  0.00    +0.000 A 
ATOM     18  O   UNL     1      -8.236  53.963  44.333  0.00  0.00    +0.000 OA
ATOM     19  O   UNL     1      -9.099  51.966  45.600  0.00  0.00    +0.000 OA
ATOM     20  C   UNL     1      -7.298  53.441  46.702  0.00  0.00    +0.000 A 
ATOM     21  C   UNL     1      -6.280  54.671  48.512  0.00  0.00    +0.000 A 
ATOM     22  C   UNL     1      -6.512  52.328  46.974  0.00  0.00    +0.000 A 
ATOM     23  C   UNL     1      -5.496  53.558  48.802  0.00  0.00    +0.000 A 
ATOM     24  C   UNL     1      -5.617  52.391  48.040  0.00  0.00    +0.000 A 
ATOM     25  H   UNL     1     -10.753  54.154  45.992  0.00  0.00    +0.000 HD
ATOM     26  H   UNL     1      -8.031  56.541  47.368  0.00  0.00    +0.000 HD
ENDBRANCH   8  13
BRANCH   5  27
ATOM     27  O   UNL     1     -12.090  55.999  46.764  0.00  0.00    +0.000 OA
ATOM     28  H   UNL     1     -11.986  56.836  46.357  0.00  0.00    +0.000 HD
ENDBRANCH   5  27
BRANCH   9  29
ATOM     29  C   UNL     1     -11.115  54.144  51.968  0.00  0.00    +0.000 C 
BRANCH  29  30
ATOM     30  C   UNL     1     -10.278  54.885  53.030  0.00  0.00    +0.000 C 
BRANCH  30  31
ATOM     31  C   UNL     1      -8.782  54.540  53.118  0.00  0.00    +0.000 C 
ATOM     32  C   UNL     1      -8.038  55.403  54.137  0.00  0.00    +0.000 C 
ATOM     33  C   UNL     1      -8.636  53.059  53.500  0.00  0.00    +0.000 C 
ENDBRANCH  30  31
ENDBRANCH  29  30
ENDBRANCH   9  29
TORSDOF 5
ENDMDL
MODEL 7
REMARK VINA RESULT:      -7.3      3.585      7.127
REMARK  Name = 338233
REMARK  7 active torsions:
REMARK  status: ('A' for Active; 'I' for Inactive)
REMARK    1  A    between atoms: C_5  and  O_8
REMARK    2  A    between atoms: C_9  and  C_13
REMARK    3  A    between atoms: N_10  and  C_14
REMARK    4  A    between atoms: C_14  and  C_18
REMARK    5  A    between atoms: C_18  and  C_21
REMARK    6  A    between atoms: C_21  and  C_26
REMARK    7  A    between atoms: C_21  and  C_27
REMARK                            x       y       z     vdW  Elec       q    Type
REMARK                         _______ _______ _______ _____ _____    ______ ____
ROOT
ATOM      1 CL   UNL     1     -13.345  56.822  52.269  0.00  0.00    +0.000 Cl
ATOM      2  C   UNL     1     -13.139  56.662  50.552  0.00  0.00    +0.000 A 
ATOM      3  C   UNL     1     -12.121  55.896  49.939  0.00  0.00    +0.000 A 
ATOM      4  C   UNL     1     -14.104  57.316  49.789  0.00  0.00    +0.000 A 
ATOM      5  C   UNL     1     -11.183  55.039  50.681  0.00  0.00    +0.000 A 
ATOM      6  C   UNL     1     -12.071  55.842  48.527  0.00  0.00    +0.000 A 
ATOM      7  C   UNL     1     -14.081  57.211  48.409  0.00  0.00    +0.000 A 
ATOM      8  C   UNL     1     -10.540  54.029  50.067  0.00  0.00    +0.000 A 
ATOM      9  N   UNL     1     -11.039  55.093  47.878  0.00  0.00    +0.000 N 
ATOM     10  C   UNL     1     -13.074  56.480  47.787  0.00  0.00    +0.000 A 
ATOM     11  C   UNL     1     -10.332  54.124  48.586  0.00  0.00    +0.000 A 
ATOM     12  O   UNL     1      -9.518  53.367  48.049  0.00  0.00    +0.000 OA
ENDROOT
BRANCH   8  13
ATOM     13  C   UNL     1      -9.753  53.027  50.890  0.00  0.00    +0.000 C 
ATOM     14  N   UNL     1     -10.378  52.379  51.829  0.00  0.00    +0.000 N 
ATOM     15  N   UNL     1      -8.381  52.934  50.716  0.00  0.00    +0.000 N 
ATOM     16  S   UNL     1      -9.570  51.954  53.158  0.00  0.00    +0.000 S 
ATOM     17  C   UNL     1      -7.657  53.336  51.850  0.00  0.00    +0.000 A 
ATOM     18  O   UNL     1      -9.143  50.576  53.095  0.00  0.00    +0.000 OA
ATOM     19  O   UNL     1     -10.336  52.436  54.300  0.00  0.00    +0.000 OA
ATOM     20  C   UNL     1      -8.110  52.963  53.115  0.00  0.00    +0.000 A 
ATOM     21  C   UNL     1      -6.620  54.257  51.727  0.00  0.00    +0.000 A 
ATOM     22  C   UNL     1      -7.606  53.556  54.266  0.00  0.00    +0.000 A 
ATOM     23  C   UNL     1      -6.115  54.869  52.871  0.00  0.00    +0.000 A 
ATOM     24  C   UNL     1      -6.610  54.523  54.133  0.00  0.00    +0.000 A 
ATOM     25  H   UNL     1     -11.331  52.150  51.730  0.00  0.00    +0.000 HD
ATOM     26  H   UNL     1      -7.958  52.620  49.883  0.00  0.00    +0.000 HD
ENDBRANCH   8  13
BRANCH   5  27
ATOM     27  O   UNL     1     -10.996  55.282  52.026  0.00  0.00    +0.000 OA
ATOM     28  H   UNL     1     -10.892  54.567  52.622  0.00  0.00    +0.000 HD
ENDBRANCH   5  27
BRANCH   9  29
ATOM     29  C   UNL     1     -10.832  55.159  46.420  0.00  0.00    +0.000 C 
BRANCH  29  30
ATOM     30  C   UNL     1     -11.682  54.230  45.529  0.00  0.00    +0.000 C 
BRANCH  30  31
ATOM     31  C   UNL     1     -10.938  53.161  44.711  0.00  0.00    +0.000 C 
ATOM     32  C   UNL     1      -9.434  53.422  44.632  0.00  0.00    +0.000 C 
ATOM     33  C   UNL     1     -11.185  51.786  45.350  0.00  0.00    +0.000 C 
ENDBRANCH  30  31
ENDBRANCH  29  30
ENDBRANCH   9  29
TORSDOF 5
ENDMDL
MODEL 8
REMARK VINA RESULT:      -7.1      3.644      7.223
REMARK  Name = 338233
REMARK  7 active torsions:
REMARK  status: ('A' for Active; 'I' for Inactive)
REMARK    1  A    between atoms: C_5  and  O_8
REMARK    2  A    between atoms: C_9  and  C_13
REMARK    3  A    between atoms: N_10  and  C_14
REMARK    4  A    between atoms: C_14  and  C_18
REMARK    5  A    between atoms: C_18  and  C_21
REMARK    6  A    between atoms: C_21  and  C_26
REMARK    7  A    between atoms: C_21  and  C_27
REMARK                            x       y       z     vdW  Elec       q    Type
REMARK                         _______ _______ _______ _____ _____    ______ ____
ROOT
ATOM      1 CL   UNL     1     -14.118  57.672  52.423  0.00  0.00    +0.000 Cl
ATOM      2  C   UNL     1     -13.621  57.412  50.779  0.00  0.00    +0.000 A 
ATOM      3  C   UNL     1     -12.666  56.448  50.378  0.00  0.00    +0.000 A 
ATOM      4  C   UNL     1     -14.281  58.202  49.842  0.00  0.00    +0.000 A 
ATOM      5  C   UNL     1     -12.065  55.463  51.290  0.00  0.00    +0.000 A 
ATOM      6  C   UNL     1     -12.358  56.332  49.003  0.00  0.00    +0.000 A 
ATOM      7  C   UNL     1     -14.015  58.042  48.493  0.00  0.00    +0.000 A 
ATOM      8  C   UNL     1     -11.517  54.330  50.815  0.00  0.00    +0.000 A 
ATOM      9  N   UNL     1     -11.379  55.383  48.569  0.00  0.00    +0.000 N 
ATOM     10  C   UNL     1     -13.063  57.116  48.080  0.00  0.00    +0.000 A 
ATOM     11  C   UNL     1     -11.016  54.328  49.403  0.00  0.00    +0.000 A 
ATOM     12  O   UNL     1     -10.271  53.415  49.036  0.00  0.00    +0.000 OA
ENDROOT
BRANCH   8  13
ATOM     13  C   UNL     1     -11.104  53.232  51.778  0.00  0.00    +0.000 C 
ATOM     14  N   UNL     1     -10.193  53.505  52.665  0.00  0.00    +0.000 N 
ATOM     15  N   UNL     1     -11.599  51.950  51.597  0.00  0.00    +0.000 N 
ATOM     16  S   UNL     1      -9.189  52.336  53.141  0.00  0.00    +0.000 S 
ATOM     17  C   UNL     1     -10.602  51.022  51.254  0.00  0.00    +0.000 A 
ATOM     18  O   UNL     1      -9.614  51.758  54.395  0.00  0.00    +0.000 OA
ATOM     19  O   UNL     1      -7.833  52.845  52.986  0.00  0.00    +0.000 OA
ATOM     20  C   UNL     1      -9.365  51.084  51.895  0.00  0.00    +0.000 A 
ATOM     21  C   UNL     1     -10.774  50.184  50.156  0.00  0.00    +0.000 A 
ATOM     22  C   UNL     1      -8.265  50.389  51.408  0.00  0.00    +0.000 A 
ATOM     23  C   UNL     1      -9.678  49.492  49.651  0.00  0.00    +0.000 A 
ATOM     24  C   UNL     1      -8.429  49.599  50.271  0.00  0.00    +0.000 A 
ATOM     25  H   UNL     1     -10.117  54.412  53.040  0.00  0.00    +0.000 HD
ATOM     26  H   UNL     1     -12.550  51.715  51.697  0.00  0.00    +0.000 HD
ENDBRANCH   8  13
BRANCH   5  27
ATOM     27  O   UNL     1     -12.097  55.719  52.645  0.00  0.00    +0.000 OA
ATOM     28  H   UNL     1     -11.770  56.531  52.977  0.00  0.00    +0.000 HD
ENDBRANCH   5  27
BRANCH   9  29
ATOM     29  C   UNL     1     -10.889  55.354  47.180  0.00  0.00    +0.000 C 
BRANCH  29  30
ATOM     30  C   UNL     1     -11.721  54.579  46.138  0.00  0.00    +0.000 C 
BRANCH  30  31
ATOM     31  C   UNL     1     -10.955  53.704  45.131  0.00  0.00    +0.000 C 
ATOM     32  C   UNL     1      -9.504  53.464  45.546  0.00  0.00    +0.000 C 
ATOM     33  C   UNL     1     -11.678  52.355  44.995  0.00  0.00    +0.000 C 
ENDBRANCH  30  31
ENDBRANCH  29  30
ENDBRANCH   9  29
TORSDOF 5
ENDMDL
MODEL 9
REMARK VINA RESULT:      -7.0      3.629      5.761
REMARK  Name = 338233
REMARK  7 active torsions:
REMARK  status: ('A' for Active; 'I' for Inactive)
REMARK    1  A    between atoms: C_5  and  O_8
REMARK    2  A    between atoms: C_9  and  C_13
REMARK    3  A    between atoms: N_10  and  C_14
REMARK    4  A    between atoms: C_14  and  C_18
REMARK    5  A    between atoms: C_18  and  C_21
REMARK    6  A    between atoms: C_21  and  C_26
REMARK    7  A    between atoms: C_21  and  C_27
REMARK                            x       y       z     vdW  Elec       q    Type
REMARK                         _______ _______ _______ _____ _____    ______ ____
ROOT
ATOM      1 CL   UNL     1     -10.976  50.765  52.148  0.00  0.00    +0.000 Cl
ATOM      2  C   UNL     1      -9.576  51.488  52.877  0.00  0.00    +0.000 A 
ATOM      3  C   UNL     1      -9.002  52.712  52.459  0.00  0.00    +0.000 A 
ATOM      4  C   UNL     1      -9.065  50.792  53.969  0.00  0.00    +0.000 A 
ATOM      5  C   UNL     1      -9.594  53.586  51.434  0.00  0.00    +0.000 A 
ATOM      6  C   UNL     1      -7.865  53.196  53.147  0.00  0.00    +0.000 A 
ATOM      7  C   UNL     1      -7.987  51.301  54.671  0.00  0.00    +0.000 A 
ATOM      8  C   UNL     1      -9.275  54.891  51.375  0.00  0.00    +0.000 A 
ATOM      9  N   UNL     1      -7.249  54.419  52.732  0.00  0.00    +0.000 N 
ATOM     10  C   UNL     1      -7.395  52.492  54.263  0.00  0.00    +0.000 A 
ATOM     11  C   UNL     1      -7.955  55.320  51.939  0.00  0.00    +0.000 A 
ATOM     12  O   UNL     1      -7.520  56.440  51.654  0.00  0.00    +0.000 OA
ENDROOT
BRANCH   8  13
ATOM     13  C   UNL     1     -10.056  55.816  50.460  0.00  0.00    +0.000 C 
ATOM     14  N   UNL     1     -11.316  56.009  50.714  0.00  0.00    +0.000 N 
ATOM     15  N   UNL     1      -9.448  56.310  49.316  0.00  0.00    +0.000 N 
ATOM     16  S   UNL     1     -12.331  56.271  49.488  0.00  0.00    +0.000 S 
ATOM     17  C   UNL     1     -10.038  55.833  48.134  0.00  0.00    +0.000 A 
ATOM     18  O   UNL     1     -12.599  57.680  49.321  0.00  0.00    +0.000 OA
ATOM     19  O   UNL     1     -13.429  55.324  49.629  0.00  0.00    +0.000 OA
ATOM     20  C   UNL     1     -11.427  55.731  48.059  0.00  0.00    +0.000 A 
ATOM     21  C   UNL     1      -9.246  55.283  47.130  0.00  0.00    +0.000 A 
ATOM     22  C   UNL     1     -12.043  55.014  47.041  0.00  0.00    +0.000 A 
ATOM     23  C   UNL     1      -9.850  54.551  46.112  0.00  0.00    +0.000 A 
ATOM     24  C   UNL     1     -11.241  54.413  46.072  0.00  0.00    +0.000 A 
ATOM     25  H   UNL     1     -11.648  55.995  51.641  0.00  0.00    +0.000 HD
ATOM     26  H   UNL     1      -8.683  56.930  49.331  0.00  0.00    +0.000 HD
ENDBRANCH   8  13
BRANCH   5  27
ATOM     27  O   UNL     1     -10.500  53.038  50.550  0.00  0.00    +0.000 OA
ATOM     28  H   UNL     1     -11.099  52.379  50.840  0.00  0.00    +0.000 HD
ENDBRANCH   5  27
BRANCH   9  29
ATOM     29  C   UNL     1      -5.959  54.866  53.290  0.00  0.00    +0.000 C 
BRANCH  29  30
ATOM     30  C   UNL     1      -4.669  54.291  52.671  0.00  0.00    +0.000 C 
BRANCH  30  31
ATOM     31  C   UNL     1      -4.820  53.382  51.439  0.00  0.00    +0.000 C 
ATOM     32  C   UNL     1      -4.549  54.120  50.128  0.00  0.00    +0.000 C 
ATOM     33  C   UNL     1      -3.847  52.201  51.572  0.00  0.00    +0.000 C 
ENDBRANCH  30  31
ENDBRANCH  29  30
ENDBRANCH   9  29
TORSDOF 5
ENDMDL
