MODEL 1
REMARK VINA RESULT:      -8.9      0.000      0.000
REMARK  Name = 338214
REMARK  8 active torsions:
REMARK  status: ('A' for Active; 'I' for Inactive)
REMARK    1  A    between atoms: C_6  and  C_10
REMARK    2  A    between atoms: C_14  and  O_18
REMARK    3  A    between atoms: N_17  and  C_21
REMARK    4  A    between atoms: C_21  and  C_24
REMARK    5  A    between atoms: C_31  and  C_32
REMARK    6  A    between atoms: C_32  and  C_33
REMARK    7  A    between atoms: C_32  and  C_34
REMARK    8  A    between atoms: C_32  and  C_35
REMARK                            x       y       z     vdW  Elec       q    Type
REMARK                         _______ _______ _______ _____ _____    ______ ____
ROOT
ATOM      1  C   UNL     1     -10.205  55.271  50.717  0.00  0.00    +0.000 A 
ATOM      2  C   UNL     1      -9.830  55.361  49.269  0.00  0.00    +0.000 A 
ATOM      3  C   UNL     1     -11.438  55.660  51.097  0.00  0.00    +0.000 A 
ATOM      4  O   UNL     1      -8.656  55.136  48.949  0.00  0.00    +0.000 OA
ATOM      5  N   UNL     1     -10.808  55.676  48.338  0.00  0.00    +0.000 N 
ATOM      6  C   UNL     1     -12.425  56.124  50.112  0.00  0.00    +0.000 A 
ATOM      7  C   UNL     1     -12.112  56.104  48.743  0.00  0.00    +0.000 A 
ATOM      8  C   UNL     1     -13.698  56.559  50.528  0.00  0.00    +0.000 A 
ATOM      9  C   UNL     1     -13.088  56.522  47.824  0.00  0.00    +0.000 A 
ATOM     10  C   UNL     1     -14.655  56.967  49.604  0.00  0.00    +0.000 A 
ATOM     11  C   UNL     1     -14.350  56.947  48.252  0.00  0.00    +0.000 A 
ENDROOT
BRANCH   1  17
ATOM     12  S   UNL     1      -6.932  54.913  52.888  0.00  0.00    +0.000 S 
ATOM     13  O   UNL     1      -6.907  55.910  53.939  0.00  0.00    +0.000 OA
ATOM     14  O   UNL     1      -5.722  54.594  52.152  0.00  0.00    +0.000 OA
ATOM     15  N   UNL     1      -8.060  55.347  51.814  0.00  0.00    +0.000 N 
ATOM     16  C   UNL     1      -7.444  53.417  53.651  0.00  0.00    +0.000 A 
ATOM     17  C   UNL     1      -9.196  54.721  51.722  0.00  0.00    +0.000 C 
ATOM     18  C   UNL     1      -8.712  52.946  53.357  0.00  0.00    +0.000 A 
ATOM     19  C   UNL     1      -6.583  52.753  54.527  0.00  0.00    +0.000 A 
ATOM     20  N   UNL     1      -9.547  53.618  52.474  0.00  0.00    +0.000 N 
ATOM     21  C   UNL     1      -9.142  51.778  53.996  0.00  0.00    +0.000 A 
ATOM     22  C   UNL     1      -7.017  51.582  55.142  0.00  0.00    +0.000 A 
ATOM     23  C   UNL     1      -8.297  51.098  54.880  0.00  0.00    +0.000 A 
ATOM     24  H   UNL     1      -7.882  56.106  51.214  0.00  0.00    +0.000 HD
ATOM     25  H   UNL     1     -10.465  53.277  52.374  0.00  0.00    +0.000 HD
ENDBRANCH   1  17
BRANCH   3  26
ATOM     26  O   UNL     1     -11.902  55.636  52.401  0.00  0.00    +0.000 OA
ATOM     27  H   UNL     1     -11.536  56.215  53.040  0.00  0.00    +0.000 HD
ENDBRANCH   3  26
BRANCH   5  28
ATOM     28  C   UNL     1     -10.427  55.638  46.917  0.00  0.00    +0.000 C 
BRANCH  28  29
ATOM     29  C   UNL     1     -10.483  54.253  46.314  0.00  0.00    +0.000 A 
ATOM     30  C   UNL     1     -11.696  53.573  46.185  0.00  0.00    +0.000 A 
ATOM     31  C   UNL     1      -9.313  53.610  45.899  0.00  0.00    +0.000 A 
ATOM     32  C   UNL     1     -11.722  52.227  45.820  0.00  0.00    +0.000 A 
ATOM     33  C   UNL     1      -9.343  52.261  45.527  0.00  0.00    +0.000 A 
ATOM     34  C   UNL     1     -10.540  51.522  45.552  0.00  0.00    +0.000 A 
BRANCH  34  35
ATOM     35  C   UNL     1     -10.526  49.997  45.361  0.00  0.00    +0.000 C 
ATOM     36  C   UNL     1     -11.942  49.386  45.243  0.00  0.00    +0.000 C 
ATOM     37  C   UNL     1      -9.742  49.619  44.090  0.00  0.00    +0.000 C 
ATOM     38  C   UNL     1      -9.857  49.333  46.586  0.00  0.00    +0.000 C 
ENDBRANCH  34  35
ENDBRANCH  28  29
ENDBRANCH   5  28
TORSDOF 5
ENDMDL
MODEL 2
REMARK VINA RESULT:      -8.8      2.889      7.371
REMARK  Name = 338214
REMARK  8 active torsions:
REMARK  status: ('A' for Active; 'I' for Inactive)
REMARK    1  A    between atoms: C_6  and  C_10
REMARK    2  A    between atoms: C_14  and  O_18
REMARK    3  A    between atoms: N_17  and  C_21
REMARK    4  A    between atoms: C_21  and  C_24
REMARK    5  A    between atoms: C_31  and  C_32
REMARK    6  A    between atoms: C_32  and  C_33
REMARK    7  A    between atoms: C_32  and  C_34
REMARK    8  A    between atoms: C_32  and  C_35
REMARK                            x       y       z     vdW  Elec       q    Type
REMARK                         _______ _______ _______ _____ _____    ______ ____
ROOT
ATOM      1  C   UNL     1     -11.416  54.371  47.951  0.00  0.00    +0.000 A 
ATOM      2  C   UNL     1     -11.562  53.531  49.183  0.00  0.00    +0.000 A 
ATOM      3  C   UNL     1     -12.080  55.541  47.877  0.00  0.00    +0.000 A 
ATOM      4  O   UNL     1     -11.063  52.398  49.186  0.00  0.00    +0.000 OA
ATOM      5  N   UNL     1     -12.234  54.051  50.278  0.00  0.00    +0.000 N 
ATOM      6  C   UNL     1     -12.903  56.019  48.997  0.00  0.00    +0.000 A 
ATOM      7  C   UNL     1     -12.951  55.286  50.194  0.00  0.00    +0.000 A 
ATOM      8  C   UNL     1     -13.618  57.227  48.891  0.00  0.00    +0.000 A 
ATOM      9  C   UNL     1     -13.720  55.786  51.257  0.00  0.00    +0.000 A 
ATOM     10  C   UNL     1     -14.372  57.711  49.956  0.00  0.00    +0.000 A 
ATOM     11  C   UNL     1     -14.422  56.990  51.140  0.00  0.00    +0.000 A 
ENDROOT
BRANCH   1  17
ATOM     12  S   UNL     1      -8.215  53.935  45.688  0.00  0.00    +0.000 S 
ATOM     13  O   UNL     1      -7.226  53.116  46.359  0.00  0.00    +0.000 OA
ATOM     14  O   UNL     1      -7.808  55.112  44.943  0.00  0.00    +0.000 OA
ATOM     15  N   UNL     1      -9.305  54.403  46.787  0.00  0.00    +0.000 N 
ATOM     16  C   UNL     1      -9.014  52.881  44.533  0.00  0.00    +0.000 A 
ATOM     17  C   UNL     1     -10.503  53.898  46.822  0.00  0.00    +0.000 C 
ATOM     18  C   UNL     1     -10.320  52.510  44.798  0.00  0.00    +0.000 A 
ATOM     19  C   UNL     1      -8.325  52.443  43.400  0.00  0.00    +0.000 A 
ATOM     20  N   UNL     1     -10.989  52.967  45.926  0.00  0.00    +0.000 N 
ATOM     21  C   UNL     1     -10.947  51.635  43.904  0.00  0.00    +0.000 A 
ATOM     22  C   UNL     1      -8.968  51.588  42.509  0.00  0.00    +0.000 A 
ATOM     23  C   UNL     1     -10.276  51.179  42.764  0.00  0.00    +0.000 A 
ATOM     24  H   UNL     1      -9.055  55.087  47.448  0.00  0.00    +0.000 HD
ATOM     25  H   UNL     1     -11.884  52.597  46.100  0.00  0.00    +0.000 HD
ENDBRANCH   1  17
BRANCH   3  26
ATOM     26  O   UNL     1     -12.037  56.401  46.793  0.00  0.00    +0.000 OA
ATOM     27  H   UNL     1     -11.931  56.060  45.927  0.00  0.00    +0.000 HD
ENDBRANCH   3  26
BRANCH   5  28
ATOM     28  C   UNL     1     -12.253  53.242  51.507  0.00  0.00    +0.000 C 
BRANCH  28  29
ATOM     29  C   UNL     1     -10.976  53.335  52.311  0.00  0.00    +0.000 A 
ATOM     30  C   UNL     1     -10.429  54.574  52.653  0.00  0.00    +0.000 A 
ATOM     31  C   UNL     1     -10.297  52.178  52.704  0.00  0.00    +0.000 A 
ATOM     32  C   UNL     1      -9.155  54.660  53.214  0.00  0.00    +0.000 A 
ATOM     33  C   UNL     1      -9.021  52.267  53.273  0.00  0.00    +0.000 A 
ATOM     34  C   UNL     1      -8.394  53.511  53.470  0.00  0.00    +0.000 A 
BRANCH  34  35
ATOM     35  C   UNL     1      -6.915  53.588  53.883  0.00  0.00    +0.000 C 
ATOM     36  C   UNL     1      -6.565  54.887  54.647  0.00  0.00    +0.000 C 
ATOM     37  C   UNL     1      -6.542  52.397  54.784  0.00  0.00    +0.000 C 
ATOM     38  C   UNL     1      -6.028  53.565  52.617  0.00  0.00    +0.000 C 
ENDBRANCH  34  35
ENDBRANCH  28  29
ENDBRANCH   5  28
TORSDOF 5
ENDMDL
MODEL 3
REMARK VINA RESULT:      -8.6      3.305      6.137
REMARK  Name = 338214
REMARK  8 active torsions:
REMARK  status: ('A' for Active; 'I' for Inactive)
REMARK    1  A    between atoms: C_6  and  C_10
REMARK    2  A    between atoms: C_14  and  O_18
REMARK    3  A    between atoms: N_17  and  C_21
REMARK    4  A    between atoms: C_21  and  C_24
REMARK    5  A    between atoms: C_31  and  C_32
REMARK    6  A    between atoms: C_32  and  C_33
REMARK    7  A    between atoms: C_32  and  C_34
REMARK    8  A    between atoms: C_32  and  C_35
REMARK                            x       y       z     vdW  Elec       q    Type
REMARK                         _______ _______ _______ _____ _____    ______ ____
ROOT
ATOM      1  C   UNL     1     -11.328  54.416  50.247  0.00  0.00    +0.000 A 
ATOM      2  C   UNL     1     -10.072  54.610  49.455  0.00  0.00    +0.000 A 
ATOM      3  C   UNL     1     -11.515  53.252  50.900  0.00  0.00    +0.000 A 
ATOM      4  O   UNL     1      -9.971  55.621  48.748  0.00  0.00    +0.000 OA
ATOM      5  N   UNL     1      -9.062  53.665  49.551  0.00  0.00    +0.000 N 
ATOM      6  C   UNL     1     -10.491  52.198  50.881  0.00  0.00    +0.000 A 
ATOM      7  C   UNL     1      -9.266  52.423  50.231  0.00  0.00    +0.000 A 
ATOM      8  C   UNL     1     -10.715  50.974  51.540  0.00  0.00    +0.000 A 
ATOM      9  C   UNL     1      -8.295  51.409  50.260  0.00  0.00    +0.000 A 
ATOM     10  C   UNL     1      -9.740  49.981  51.562  0.00  0.00    +0.000 A 
ATOM     11  C   UNL     1      -8.529  50.200  50.922  0.00  0.00    +0.000 A 
ENDROOT
BRANCH   1  17
ATOM     12  S   UNL     1     -13.915  57.170  49.116  0.00  0.00    +0.000 S 
ATOM     13  O   UNL     1     -15.143  56.555  48.654  0.00  0.00    +0.000 OA
ATOM     14  O   UNL     1     -13.354  58.306  48.409  0.00  0.00    +0.000 OA
ATOM     15  N   UNL     1     -12.778  56.023  49.185  0.00  0.00    +0.000 N 
ATOM     16  C   UNL     1     -14.238  57.726  50.750  0.00  0.00    +0.000 A 
ATOM     17  C   UNL     1     -12.355  55.545  50.318  0.00  0.00    +0.000 C 
ATOM     18  C   UNL     1     -13.630  57.047  51.792  0.00  0.00    +0.000 A 
ATOM     19  C   UNL     1     -15.090  58.812  50.959  0.00  0.00    +0.000 A 
ATOM     20  N   UNL     1     -12.778  55.975  51.559  0.00  0.00    +0.000 N 
ATOM     21  C   UNL     1     -13.919  57.458  53.098  0.00  0.00    +0.000 A 
ATOM     22  C   UNL     1     -15.352  59.222  52.263  0.00  0.00    +0.000 A 
ATOM     23  C   UNL     1     -14.771  58.542  53.332  0.00  0.00    +0.000 A 
ATOM     24  H   UNL     1     -12.395  55.678  48.347  0.00  0.00    +0.000 HD
ATOM     25  H   UNL     1     -12.448  55.483  52.345  0.00  0.00    +0.000 HD
ENDBRANCH   1  17
BRANCH   3  26
ATOM     26  O   UNL     1     -12.634  52.945  51.655  0.00  0.00    +0.000 OA
ATOM     27  H   UNL     1     -12.540  52.698  52.554  0.00  0.00    +0.000 HD
ENDBRANCH   3  26
BRANCH   5  28
ATOM     28  C   UNL     1      -7.799  53.951  48.852  0.00  0.00    +0.000 C 
BRANCH  28  29
ATOM     29  C   UNL     1      -7.825  53.589  47.385  0.00  0.00    +0.000 A 
ATOM     30  C   UNL     1      -8.018  54.566  46.406  0.00  0.00    +0.000 A 
ATOM     31  C   UNL     1      -7.687  52.259  46.978  0.00  0.00    +0.000 A 
ATOM     32  C   UNL     1      -8.244  54.207  45.077  0.00  0.00    +0.000 A 
ATOM     33  C   UNL     1      -7.908  51.902  45.642  0.00  0.00    +0.000 A 
ATOM     34  C   UNL     1      -8.265  52.863  44.679  0.00  0.00    +0.000 A 
BRANCH  34  35
ATOM     35  C   UNL     1      -8.722  52.436  43.275  0.00  0.00    +0.000 C 
ATOM     36  C   UNL     1      -8.280  53.419  42.166  0.00  0.00    +0.000 C 
ATOM     37  C   UNL     1      -8.161  51.046  42.923  0.00  0.00    +0.000 C 
ATOM     38  C   UNL     1     -10.267  52.385  43.233  0.00  0.00    +0.000 C 
ENDBRANCH  34  35
ENDBRANCH  28  29
ENDBRANCH   5  28
TORSDOF 5
ENDMDL
MODEL 4
REMARK VINA RESULT:      -8.6      2.448      6.009
REMARK  Name = 338214
REMARK  8 active torsions:
REMARK  status: ('A' for Active; 'I' for Inactive)
REMARK    1  A    between atoms: C_6  and  C_10
REMARK    2  A    between atoms: C_14  and  O_18
REMARK    3  A    between atoms: N_17  and  C_21
REMARK    4  A    between atoms: C_21  and  C_24
REMARK    5  A    between atoms: C_31  and  C_32
REMARK    6  A    between atoms: C_32  and  C_33
REMARK    7  A    between atoms: C_32  and  C_34
REMARK    8  A    between atoms: C_32  and  C_35
REMARK                            x       y       z     vdW  Elec       q    Type
REMARK                         _______ _______ _______ _____ _____    ______ ____
ROOT
ATOM      1  C   UNL     1      -8.850  54.166  49.678  0.00  0.00    +0.000 A 
ATOM      2  C   UNL     1     -10.328  54.008  49.860  0.00  0.00    +0.000 A 
ATOM      3  C   UNL     1      -8.333  54.091  48.436  0.00  0.00    +0.000 A 
ATOM      4  O   UNL     1     -10.777  53.938  51.011  0.00  0.00    +0.000 OA
ATOM      5  N   UNL     1     -11.144  53.961  48.739  0.00  0.00    +0.000 N 
ATOM      6  C   UNL     1      -9.200  53.902  47.264  0.00  0.00    +0.000 A 
ATOM      7  C   UNL     1     -10.594  53.866  47.421  0.00  0.00    +0.000 A 
ATOM      8  C   UNL     1      -8.642  53.792  45.975  0.00  0.00    +0.000 A 
ATOM      9  C   UNL     1     -11.396  53.719  46.278  0.00  0.00    +0.000 A 
ATOM     10  C   UNL     1      -9.451  53.650  44.852  0.00  0.00    +0.000 A 
ATOM     11  C   UNL     1     -10.829  53.614  45.004  0.00  0.00    +0.000 A 
ENDROOT
BRANCH   1  17
ATOM     12  S   UNL     1      -7.507  55.764  53.025  0.00  0.00    +0.000 S 
ATOM     13  O   UNL     1      -8.329  55.358  54.147  0.00  0.00    +0.000 OA
ATOM     14  O   UNL     1      -7.033  57.131  52.921  0.00  0.00    +0.000 OA
ATOM     15  N   UNL     1      -8.313  55.420  51.666  0.00  0.00    +0.000 N 
ATOM     16  C   UNL     1      -6.072  54.755  53.085  0.00  0.00    +0.000 A 
ATOM     17  C   UNL     1      -7.967  54.431  50.895  0.00  0.00    +0.000 C 
ATOM     18  C   UNL     1      -5.931  53.778  52.115  0.00  0.00    +0.000 A 
ATOM     19  C   UNL     1      -5.129  54.948  54.097  0.00  0.00    +0.000 A 
ATOM     20  N   UNL     1      -6.878  53.611  51.112  0.00  0.00    +0.000 N 
ATOM     21  C   UNL     1      -4.812  52.942  52.184  0.00  0.00    +0.000 A 
ATOM     22  C   UNL     1      -4.010  54.121  54.142  0.00  0.00    +0.000 A 
ATOM     23  C   UNL     1      -3.854  53.115  53.190  0.00  0.00    +0.000 A 
ATOM     24  H   UNL     1      -9.087  55.974  51.415  0.00  0.00    +0.000 HD
ATOM     25  H   UNL     1      -6.761  52.845  50.505  0.00  0.00    +0.000 HD
ENDBRANCH   1  17
BRANCH   3  26
ATOM     26  O   UNL     1      -6.987  54.209  48.136  0.00  0.00    +0.000 OA
ATOM     27  H   UNL     1      -6.573  53.579  47.580  0.00  0.00    +0.000 HD
ENDBRANCH   3  26
BRANCH   5  28
ATOM     28  C   UNL     1     -12.598  53.925  48.961  0.00  0.00    +0.000 C 
BRANCH  28  29
ATOM     29  C   UNL     1     -13.190  55.274  49.300  0.00  0.00    +0.000 A 
ATOM     30  C   UNL     1     -12.991  56.377  48.467  0.00  0.00    +0.000 A 
ATOM     31  C   UNL     1     -13.928  55.453  50.474  0.00  0.00    +0.000 A 
ATOM     32  C   UNL     1     -13.363  57.657  48.879  0.00  0.00    +0.000 A 
ATOM     33  C   UNL     1     -14.305  56.737  50.882  0.00  0.00    +0.000 A 
ATOM     34  C   UNL     1     -13.963  57.874  50.128  0.00  0.00    +0.000 A 
BRANCH  34  35
ATOM     35  C   UNL     1     -14.183  59.287  50.691  0.00  0.00    +0.000 C 
ATOM     36  C   UNL     1     -15.609  59.829  50.434  0.00  0.00    +0.000 C 
ATOM     37  C   UNL     1     -13.938  59.307  52.211  0.00  0.00    +0.000 C 
ATOM     38  C   UNL     1     -13.205  60.269  50.006  0.00  0.00    +0.000 C 
ENDBRANCH  34  35
ENDBRANCH  28  29
ENDBRANCH   5  28
TORSDOF 5
ENDMDL
MODEL 5
REMARK VINA RESULT:      -8.5      3.303      6.250
REMARK  Name = 338214
REMARK  8 active torsions:
REMARK  status: ('A' for Active; 'I' for Inactive)
REMARK    1  A    between atoms: C_6  and  C_10
REMARK    2  A    between atoms: C_14  and  O_18
REMARK    3  A    between atoms: N_17  and  C_21
REMARK    4  A    between atoms: C_21  and  C_24
REMARK    5  A    between atoms: C_31  and  C_32
REMARK    6  A    between atoms: C_32  and  C_33
REMARK    7  A    between atoms: C_32  and  C_34
REMARK    8  A    between atoms: C_32  and  C_35
REMARK                            x       y       z     vdW  Elec       q    Type
REMARK                         _______ _______ _______ _____ _____    ______ ____
ROOT
ATOM      1  C   UNL     1     -11.620  54.703  50.530  0.00  0.00    +0.000 A 
ATOM      2  C   UNL     1     -10.361  54.948  49.757  0.00  0.00    +0.000 A 
ATOM      3  C   UNL     1     -11.882  53.459  50.974  0.00  0.00    +0.000 A 
ATOM      4  O   UNL     1     -10.197  56.058  49.233  0.00  0.00    +0.000 OA
ATOM      5  N   UNL     1      -9.419  53.935  49.664  0.00  0.00    +0.000 N 
ATOM      6  C   UNL     1     -10.934  52.358  50.750  0.00  0.00    +0.000 A 
ATOM      7  C   UNL     1      -9.703  52.610  50.123  0.00  0.00    +0.000 A 
ATOM      8  C   UNL     1     -11.237  51.056  51.191  0.00  0.00    +0.000 A 
ATOM      9  C   UNL     1      -8.805  51.544  49.954  0.00  0.00    +0.000 A 
ATOM     10  C   UNL     1     -10.334  50.011  51.019  0.00  0.00    +0.000 A 
ATOM     11  C   UNL     1      -9.117  50.256  50.401  0.00  0.00    +0.000 A 
ENDROOT
BRANCH   1  17
ATOM     12  S   UNL     1     -14.262  56.989  52.361  0.00  0.00    +0.000 S 
ATOM     13  O   UNL     1     -13.657  57.657  53.496  0.00  0.00    +0.000 OA
ATOM     14  O   UNL     1     -15.602  56.441  52.464  0.00  0.00    +0.000 OA
ATOM     15  N   UNL     1     -13.276  55.792  51.903  0.00  0.00    +0.000 N 
ATOM     16  C   UNL     1     -14.322  58.179  51.073  0.00  0.00    +0.000 A 
ATOM     17  C   UNL     1     -12.565  55.869  50.817  0.00  0.00    +0.000 C 
ATOM     18  C   UNL     1     -13.464  58.009  50.000  0.00  0.00    +0.000 A 
ATOM     19  C   UNL     1     -15.209  59.255  51.160  0.00  0.00    +0.000 A 
ATOM     20  N   UNL     1     -12.598  56.926  49.930  0.00  0.00    +0.000 N 
ATOM     21  C   UNL     1     -13.476  58.979  48.992  0.00  0.00    +0.000 A 
ATOM     22  C   UNL     1     -15.223  60.201  50.140  0.00  0.00    +0.000 A 
ATOM     23  C   UNL     1     -14.353  60.067  49.059  0.00  0.00    +0.000 A 
ATOM     24  H   UNL     1     -13.213  54.984  52.460  0.00  0.00    +0.000 HD
ATOM     25  H   UNL     1     -11.955  56.911  49.185  0.00  0.00    +0.000 HD
ENDBRANCH   1  17
BRANCH   3  26
ATOM     26  O   UNL     1     -13.012  53.101  51.689  0.00  0.00    +0.000 OA
ATOM     27  H   UNL     1     -12.941  52.514  52.416  0.00  0.00    +0.000 HD
ENDBRANCH   3  26
BRANCH   5  28
ATOM     28  C   UNL     1      -8.146  54.253  48.999  0.00  0.00    +0.000 C 
BRANCH  28  29
ATOM     29  C   UNL     1      -8.113  53.860  47.540  0.00  0.00    +0.000 A 
ATOM     30  C   UNL     1      -8.590  54.723  46.551  0.00  0.00    +0.000 A 
ATOM     31  C   UNL     1      -7.630  52.607  47.151  0.00  0.00    +0.000 A 
ATOM     32  C   UNL     1      -8.746  54.283  45.236  0.00  0.00    +0.000 A 
ATOM     33  C   UNL     1      -7.782  52.170  45.830  0.00  0.00    +0.000 A 
ATOM     34  C   UNL     1      -8.413  52.973  44.863  0.00  0.00    +0.000 A 
BRANCH  34  35
ATOM     35  C   UNL     1      -8.775  52.403  43.482  0.00  0.00    +0.000 C 
ATOM     36  C   UNL     1     -10.290  52.147  43.308  0.00  0.00    +0.000 C 
ATOM     37  C   UNL     1      -8.328  53.365  42.366  0.00  0.00    +0.000 C 
ATOM     38  C   UNL     1      -8.069  51.041  43.290  0.00  0.00    +0.000 C 
ENDBRANCH  34  35
ENDBRANCH  28  29
ENDBRANCH   5  28
TORSDOF 5
ENDMDL
MODEL 6
REMARK VINA RESULT:      -8.4      2.736      6.291
REMARK  Name = 338214
REMARK  8 active torsions:
REMARK  status: ('A' for Active; 'I' for Inactive)
REMARK    1  A    between atoms: C_6  and  C_10
REMARK    2  A    between atoms: C_14  and  O_18
REMARK    3  A    between atoms: N_17  and  C_21
REMARK    4  A    between atoms: C_21  and  C_24
REMARK    5  A    between atoms: C_31  and  C_32
REMARK    6  A    between atoms: C_32  and  C_33
REMARK    7  A    between atoms: C_32  and  C_34
REMARK    8  A    between atoms: C_32  and  C_35
REMARK                            x       y       z     vdW  Elec       q    Type
REMARK                         _______ _______ _______ _____ _____    ______ ____
ROOT
ATOM      1  C   UNL     1     -11.468  54.025  51.349  0.00  0.00    +0.000 A 
ATOM      2  C   UNL     1     -11.623  52.806  50.492  0.00  0.00    +0.000 A 
ATOM      3  C   UNL     1     -10.582  54.003  52.363  0.00  0.00    +0.000 A 
ATOM      4  O   UNL     1     -12.534  52.785  49.655  0.00  0.00    +0.000 OA
ATOM      5  N   UNL     1     -10.737  51.752  50.654  0.00  0.00    +0.000 N 
ATOM      6  C   UNL     1      -9.742  52.822  52.610  0.00  0.00    +0.000 A 
ATOM      7  C   UNL     1      -9.806  51.721  51.741  0.00  0.00    +0.000 A 
ATOM      8  C   UNL     1      -8.844  52.800  53.695  0.00  0.00    +0.000 A 
ATOM      9  C   UNL     1      -8.966  50.623  51.985  0.00  0.00    +0.000 A 
ATOM     10  C   UNL     1      -8.016  51.705  53.920  0.00  0.00    +0.000 A 
ATOM     11  C   UNL     1      -8.077  50.616  53.064  0.00  0.00    +0.000 A 
ENDROOT
BRANCH   1  17
ATOM     12  S   UNL     1     -13.123  56.992  49.344  0.00  0.00    +0.000 S 
ATOM     13  O   UNL     1     -14.192  56.499  48.498  0.00  0.00    +0.000 OA
ATOM     14  O   UNL     1     -12.208  58.005  48.853  0.00  0.00    +0.000 OA
ATOM     15  N   UNL     1     -12.241  55.724  49.822  0.00  0.00    +0.000 N 
ATOM     16  C   UNL     1     -13.903  57.685  50.756  0.00  0.00    +0.000 A 
ATOM     17  C   UNL     1     -12.296  55.271  51.040  0.00  0.00    +0.000 C 
ATOM     18  C   UNL     1     -13.782  57.006  51.956  0.00  0.00    +0.000 A 
ATOM     19  C   UNL     1     -14.621  58.877  50.638  0.00  0.00    +0.000 A 
ATOM     20  N   UNL     1     -13.054  55.828  52.051  0.00  0.00    +0.000 N 
ATOM     21  C   UNL     1     -14.438  57.531  53.074  0.00  0.00    +0.000 A 
ATOM     22  C   UNL     1     -15.253  59.397  51.764  0.00  0.00    +0.000 A 
ATOM     23  C   UNL     1     -15.166  58.722  52.980  0.00  0.00    +0.000 A 
ATOM     24  H   UNL     1     -11.647  55.283  49.174  0.00  0.00    +0.000 HD
ATOM     25  H   UNL     1     -13.078  55.350  52.912  0.00  0.00    +0.000 HD
ENDBRANCH   1  17
BRANCH   3  26
ATOM     26  O   UNL     1     -10.353  55.057  53.231  0.00  0.00    +0.000 OA
ATOM     27  H   UNL     1     -10.251  54.896  54.148  0.00  0.00    +0.000 HD
ENDBRANCH   3  26
BRANCH   5  28
ATOM     28  C   UNL     1     -10.848  50.624  49.716  0.00  0.00    +0.000 C 
BRANCH  28  29
ATOM     29  C   UNL     1     -10.296  50.926  48.342  0.00  0.00    +0.000 A 
ATOM     30  C   UNL     1      -9.095  51.621  48.185  0.00  0.00    +0.000 A 
ATOM     31  C   UNL     1     -10.995  50.541  47.194  0.00  0.00    +0.000 A 
ATOM     32  C   UNL     1      -8.693  52.073  46.928  0.00  0.00    +0.000 A 
ATOM     33  C   UNL     1     -10.586  50.991  45.933  0.00  0.00    +0.000 A 
ATOM     34  C   UNL     1      -9.466  51.830  45.784  0.00  0.00    +0.000 A 
BRANCH  34  35
ATOM     35  C   UNL     1      -9.158  52.497  44.435  0.00  0.00    +0.000 C 
ATOM     36  C   UNL     1      -8.227  51.649  43.536  0.00  0.00    +0.000 C 
ATOM     37  C   UNL     1     -10.457  52.760  43.652  0.00  0.00    +0.000 C 
ATOM     38  C   UNL     1      -8.433  53.840  44.682  0.00  0.00    +0.000 C 
ENDBRANCH  34  35
ENDBRANCH  28  29
ENDBRANCH   5  28
TORSDOF 5
ENDMDL
MODEL 7
REMARK VINA RESULT:      -8.4      2.635      6.101
REMARK  Name = 338214
REMARK  8 active torsions:
REMARK  status: ('A' for Active; 'I' for Inactive)
REMARK    1  A    between atoms: C_6  and  C_10
REMARK    2  A    between atoms: C_14  and  O_18
REMARK    3  A    between atoms: N_17  and  C_21
REMARK    4  A    between atoms: C_21  and  C_24
REMARK    5  A    between atoms: C_31  and  C_32
REMARK    6  A    between atoms: C_32  and  C_33
REMARK    7  A    between atoms: C_32  and  C_34
REMARK    8  A    between atoms: C_32  and  C_35
REMARK                            x       y       z     vdW  Elec       q    Type
REMARK                         _______ _______ _______ _____ _____    ______ ____
ROOT
ATOM      1  C   UNL     1      -8.610  53.327  49.056  0.00  0.00    +0.000 A 
ATOM      2  C   UNL     1     -10.044  53.378  49.486  0.00  0.00    +0.000 A 
ATOM      3  C   UNL     1      -8.324  53.260  47.741  0.00  0.00    +0.000 A 
ATOM      4  O   UNL     1     -10.301  53.297  50.694  0.00  0.00    +0.000 OA
ATOM      5  N   UNL     1     -11.031  53.528  48.524  0.00  0.00    +0.000 N 
ATOM      6  C   UNL     1      -9.392  53.282  46.731  0.00  0.00    +0.000 A 
ATOM      7  C   UNL     1     -10.729  53.442  47.128  0.00  0.00    +0.000 A 
ATOM      8  C   UNL     1      -9.080  53.178  45.362  0.00  0.00    +0.000 A 
ATOM      9  C   UNL     1     -11.722  53.493  46.136  0.00  0.00    +0.000 A 
ATOM     10  C   UNL     1     -10.076  53.234  44.392  0.00  0.00    +0.000 A 
ATOM     11  C   UNL     1     -11.398  53.393  44.780  0.00  0.00    +0.000 A 
ENDROOT
BRANCH   1  17
ATOM     12  S   UNL     1      -5.210  52.608  50.922  0.00  0.00    +0.000 S 
ATOM     13  O   UNL     1      -4.110  53.269  50.248  0.00  0.00    +0.000 OA
ATOM     14  O   UNL     1      -5.050  51.261  51.438  0.00  0.00    +0.000 OA
ATOM     15  N   UNL     1      -6.479  52.602  49.920  0.00  0.00    +0.000 N 
ATOM     16  C   UNL     1      -5.605  53.615  52.306  0.00  0.00    +0.000 A 
ATOM     17  C   UNL     1      -7.507  53.375  50.111  0.00  0.00    +0.000 C 
ATOM     18  C   UNL     1      -6.792  54.325  52.266  0.00  0.00    +0.000 A 
ATOM     19  C   UNL     1      -4.726  53.683  53.389  0.00  0.00    +0.000 A 
ATOM     20  N   UNL     1      -7.655  54.233  51.183  0.00  0.00    +0.000 N 
ATOM     21  C   UNL     1      -7.090  55.163  53.346  0.00  0.00    +0.000 A 
ATOM     22  C   UNL     1      -5.045  54.506  54.465  0.00  0.00    +0.000 A 
ATOM     23  C   UNL     1      -6.223  55.250  54.441  0.00  0.00    +0.000 A 
ATOM     24  H   UNL     1      -6.473  51.997  49.144  0.00  0.00    +0.000 HD
ATOM     25  H   UNL     1      -8.439  54.829  51.179  0.00  0.00    +0.000 HD
ENDBRANCH   1  17
BRANCH   3  26
ATOM     26  O   UNL     1      -7.045  53.198  47.217  0.00  0.00    +0.000 OA
ATOM     27  H   UNL     1      -6.684  52.374  46.956  0.00  0.00    +0.000 HD
ENDBRANCH   3  26
BRANCH   5  28
ATOM     28  C   UNL     1     -12.416  53.693  48.994  0.00  0.00    +0.000 C 
BRANCH  28  29
ATOM     29  C   UNL     1     -12.697  55.060  49.574  0.00  0.00    +0.000 A 
ATOM     30  C   UNL     1     -13.215  55.203  50.863  0.00  0.00    +0.000 A 
ATOM     31  C   UNL     1     -12.472  56.214  48.817  0.00  0.00    +0.000 A 
ATOM     32  C   UNL     1     -13.662  56.444  51.317  0.00  0.00    +0.000 A 
ATOM     33  C   UNL     1     -12.916  57.459  49.277  0.00  0.00    +0.000 A 
ATOM     34  C   UNL     1     -13.588  57.586  50.507  0.00  0.00    +0.000 A 
BRANCH  34  35
ATOM     35  C   UNL     1     -14.265  58.909  50.899  0.00  0.00    +0.000 C 
ATOM     36  C   UNL     1     -15.764  58.960  50.521  0.00  0.00    +0.000 C 
ATOM     37  C   UNL     1     -14.153  59.144  52.417  0.00  0.00    +0.000 C 
ATOM     38  C   UNL     1     -13.578  60.076  50.153  0.00  0.00    +0.000 C 
ENDBRANCH  34  35
ENDBRANCH  28  29
ENDBRANCH   5  28
TORSDOF 5
ENDMDL
MODEL 8
REMARK VINA RESULT:      -8.3      2.548      5.942
REMARK  Name = 338214
REMARK  8 active torsions:
REMARK  status: ('A' for Active; 'I' for Inactive)
REMARK    1  A    between atoms: C_6  and  C_10
REMARK    2  A    between atoms: C_14  and  O_18
REMARK    3  A    between atoms: N_17  and  C_21
REMARK    4  A    between atoms: C_21  and  C_24
REMARK    5  A    between atoms: C_31  and  C_32
REMARK    6  A    between atoms: C_32  and  C_33
REMARK    7  A    between atoms: C_32  and  C_34
REMARK    8  A    between atoms: C_32  and  C_35
REMARK                            x       y       z     vdW  Elec       q    Type
REMARK                         _______ _______ _______ _____ _____    ______ ____
ROOT
ATOM      1  C   UNL     1      -8.756  53.249  49.219  0.00  0.00    +0.000 A 
ATOM      2  C   UNL     1      -9.614  54.397  48.783  0.00  0.00    +0.000 A 
ATOM      3  C   UNL     1      -9.145  51.994  48.923  0.00  0.00    +0.000 A 
ATOM      4  O   UNL     1      -9.325  55.533  49.178  0.00  0.00    +0.000 OA
ATOM      5  N   UNL     1     -10.690  54.153  47.944  0.00  0.00    +0.000 N 
ATOM      6  C   UNL     1     -10.367  51.742  48.146  0.00  0.00    +0.000 A 
ATOM      7  C   UNL     1     -11.112  52.819  47.642  0.00  0.00    +0.000 A 
ATOM      8  C   UNL     1     -10.778  50.423  47.873  0.00  0.00    +0.000 A 
ATOM      9  C   UNL     1     -12.256  52.545  46.874  0.00  0.00    +0.000 A 
ATOM     10  C   UNL     1     -11.912  50.168  47.108  0.00  0.00    +0.000 A 
ATOM     11  C   UNL     1     -12.651  51.230  46.608  0.00  0.00    +0.000 A 
ENDROOT
BRANCH   1  17
ATOM     12  S   UNL     1      -4.899  53.508  50.004  0.00  0.00    +0.000 S 
ATOM     13  O   UNL     1      -4.304  54.607  49.270  0.00  0.00    +0.000 OA
ATOM     14  O   UNL     1      -4.198  52.244  50.126  0.00  0.00    +0.000 OA
ATOM     15  N   UNL     1      -6.349  53.204  49.357  0.00  0.00    +0.000 N 
ATOM     16  C   UNL     1      -5.138  54.092  51.642  0.00  0.00    +0.000 A 
ATOM     17  C   UNL     1      -7.452  53.526  49.965  0.00  0.00    +0.000 C 
ATOM     18  C   UNL     1      -6.436  54.335  52.056  0.00  0.00    +0.000 A 
ATOM     19  C   UNL     1      -4.035  54.304  52.472  0.00  0.00    +0.000 A 
ATOM     20  N   UNL     1      -7.518  54.107  51.216  0.00  0.00    +0.000 N 
ATOM     21  C   UNL     1      -6.629  54.842  53.345  0.00  0.00    +0.000 A 
ATOM     22  C   UNL     1      -4.243  54.791  53.759  0.00  0.00    +0.000 A 
ATOM     23  C   UNL     1      -5.539  55.065  54.194  0.00  0.00    +0.000 A 
ATOM     24  H   UNL     1      -6.399  52.763  48.479  0.00  0.00    +0.000 HD
ATOM     25  H   UNL     1      -8.406  54.380  51.541  0.00  0.00    +0.000 HD
ENDBRANCH   1  17
BRANCH   3  26
ATOM     26  O   UNL     1      -8.448  50.851  49.277  0.00  0.00    +0.000 OA
ATOM     27  H   UNL     1      -8.694  50.371  50.043  0.00  0.00    +0.000 HD
ENDBRANCH   3  26
BRANCH   5  28
ATOM     28  C   UNL     1     -11.436  55.318  47.443  0.00  0.00    +0.000 C 
BRANCH  28  29
ATOM     29  C   UNL     1     -12.455  55.850  48.425  0.00  0.00    +0.000 A 
ATOM     30  C   UNL     1     -12.986  57.135  48.287  0.00  0.00    +0.000 A 
ATOM     31  C   UNL     1     -12.866  55.075  49.513  0.00  0.00    +0.000 A 
ATOM     32  C   UNL     1     -13.765  57.696  49.299  0.00  0.00    +0.000 A 
ATOM     33  C   UNL     1     -13.654  55.638  50.524  0.00  0.00    +0.000 A 
ATOM     34  C   UNL     1     -14.056  56.985  50.472  0.00  0.00    +0.000 A 
BRANCH  34  35
ATOM     35  C   UNL     1     -14.725  57.653  51.684  0.00  0.00    +0.000 C 
ATOM     36  C   UNL     1     -13.867  57.581  52.969  0.00  0.00    +0.000 C 
ATOM     37  C   UNL     1     -15.014  59.137  51.393  0.00  0.00    +0.000 C 
ATOM     38  C   UNL     1     -16.055  56.930  51.997  0.00  0.00    +0.000 C 
ENDBRANCH  34  35
ENDBRANCH  28  29
ENDBRANCH   5  28
TORSDOF 5
ENDMDL
MODEL 9
REMARK VINA RESULT:      -8.3      3.136      7.303
REMARK  Name = 338214
REMARK  8 active torsions:
REMARK  status: ('A' for Active; 'I' for Inactive)
REMARK    1  A    between atoms: C_6  and  C_10
REMARK    2  A    between atoms: C_14  and  O_18
REMARK    3  A    between atoms: N_17  and  C_21
REMARK    4  A    between atoms: C_21  and  C_24
REMARK    5  A    between atoms: C_31  and  C_32
REMARK    6  A    between atoms: C_32  and  C_33
REMARK    7  A    between atoms: C_32  and  C_34
REMARK    8  A    between atoms: C_32  and  C_35
REMARK                            x       y       z     vdW  Elec       q    Type
REMARK                         _______ _______ _______ _____ _____    ______ ____
ROOT
ATOM      1  C   UNL     1     -11.619  53.840  47.920  0.00  0.00    +0.000 A 
ATOM      2  C   UNL     1     -11.842  53.300  49.300  0.00  0.00    +0.000 A 
ATOM      3  C   UNL     1     -12.047  55.084  47.629  0.00  0.00    +0.000 A 
ATOM      4  O   UNL     1     -11.574  52.112  49.518  0.00  0.00    +0.000 OA
ATOM      5  N   UNL     1     -12.325  54.148  50.285  0.00  0.00    +0.000 N 
ATOM      6  C   UNL     1     -12.684  55.926  48.651  0.00  0.00    +0.000 A 
ATOM      7  C   UNL     1     -12.793  55.463  49.972  0.00  0.00    +0.000 A 
ATOM      8  C   UNL     1     -13.156  57.211  48.322  0.00  0.00    +0.000 A 
ATOM      9  C   UNL     1     -13.376  56.305  50.933  0.00  0.00    +0.000 A 
ATOM     10  C   UNL     1     -13.728  58.035  49.288  0.00  0.00    +0.000 A 
ATOM     11  C   UNL     1     -13.838  57.581  50.593  0.00  0.00    +0.000 A 
ENDROOT
BRANCH   1  17
ATOM     12  S   UNL     1     -10.815  51.962  44.546  0.00  0.00    +0.000 S 
ATOM     13  O   UNL     1     -10.429  52.908  43.518  0.00  0.00    +0.000 OA
ATOM     14  O   UNL     1     -11.686  50.847  44.226  0.00  0.00    +0.000 OA
ATOM     15  N   UNL     1     -11.502  52.790  45.753  0.00  0.00    +0.000 N 
ATOM     16  C   UNL     1      -9.322  51.257  45.141  0.00  0.00    +0.000 A 
ATOM     17  C   UNL     1     -10.893  52.982  46.886  0.00  0.00    +0.000 C 
ATOM     18  C   UNL     1      -8.904  51.612  46.412  0.00  0.00    +0.000 A 
ATOM     19  C   UNL     1      -8.597  50.379  44.332  0.00  0.00    +0.000 A 
ATOM     20  N   UNL     1      -9.647  52.480  47.202  0.00  0.00    +0.000 N 
ATOM     21  C   UNL     1      -7.692  51.088  46.874  0.00  0.00    +0.000 A 
ATOM     22  C   UNL     1      -7.403  49.849  44.813  0.00  0.00    +0.000 A 
ATOM     23  C   UNL     1      -6.948  50.208  46.081  0.00  0.00    +0.000 A 
ATOM     24  H   UNL     1     -12.405  53.160  45.626  0.00  0.00    +0.000 HD
ATOM     25  H   UNL     1      -9.252  52.758  48.060  0.00  0.00    +0.000 HD
ENDBRANCH   1  17
BRANCH   3  26
ATOM     26  O   UNL     1     -11.911  55.692  46.393  0.00  0.00    +0.000 OA
ATOM     27  H   UNL     1     -12.672  55.932  45.902  0.00  0.00    +0.000 HD
ENDBRANCH   3  26
BRANCH   5  28
ATOM     28  C   UNL     1     -12.418  53.612  51.652  0.00  0.00    +0.000 C 
BRANCH  28  29
ATOM     29  C   UNL     1     -11.109  53.650  52.406  0.00  0.00    +0.000 A 
ATOM     30  C   UNL     1     -10.413  54.849  52.580  0.00  0.00    +0.000 A 
ATOM     31  C   UNL     1     -10.549  52.477  52.920  0.00  0.00    +0.000 A 
ATOM     32  C   UNL     1      -9.116  54.851  53.094  0.00  0.00    +0.000 A 
ATOM     33  C   UNL     1      -9.250  52.483  53.441  0.00  0.00    +0.000 A 
ATOM     34  C   UNL     1      -8.479  53.659  53.469  0.00  0.00    +0.000 A 
BRANCH  34  35
ATOM     35  C   UNL     1      -6.987  53.612  53.832  0.00  0.00    +0.000 C 
ATOM     36  C   UNL     1      -6.520  54.842  54.646  0.00  0.00    +0.000 C 
ATOM     37  C   UNL     1      -6.670  52.352  54.658  0.00  0.00    +0.000 C 
ATOM     38  C   UNL     1      -6.145  53.594  52.535  0.00  0.00    +0.000 C 
ENDBRANCH  34  35
ENDBRANCH  28  29
ENDBRANCH   5  28
TORSDOF 5
ENDMDL
