MODEL 1
REMARK VINA RESULT:      -8.7      0.000      0.000
REMARK  Name = 338084
REMARK  4 active torsions:
REMARK  status: ('A' for Active; 'I' for Inactive)
REMARK    1  A    between atoms: C_6  and  C_10
REMARK    2  A    between atoms: C_14  and  O_18
REMARK    3  A    between atoms: N_17  and  C_21
REMARK    4  A    between atoms: C_21  and  C_24
REMARK                            x       y       z     vdW  Elec       q    Type
REMARK                         _______ _______ _______ _____ _____    ______ ____
ROOT
ATOM      1  C   UNL     1     -10.062  54.373  52.320  0.00  0.00    +0.000 A 
ATOM      2  C   UNL     1      -8.667  54.906  52.251  0.00  0.00    +0.000 A 
ATOM      3  C   UNL     1     -10.319  53.268  53.046  0.00  0.00    +0.000 A 
ATOM      4  O   UNL     1      -8.468  55.937  51.600  0.00  0.00    +0.000 OA
ATOM      5  N   UNL     1      -7.662  54.258  52.960  0.00  0.00    +0.000 N 
ATOM      6  C   UNL     1      -9.246  52.586  53.780  0.00  0.00    +0.000 A 
ATOM      7  C   UNL     1      -7.933  53.090  53.739  0.00  0.00    +0.000 A 
ATOM      8  C   UNL     1      -9.532  51.445  54.554  0.00  0.00    +0.000 A 
ATOM      9  C   UNL     1      -6.943  52.438  54.490  0.00  0.00    +0.000 A 
ATOM     10  C   UNL     1      -8.539  50.818  55.300  0.00  0.00    +0.000 A 
ATOM     11  C   UNL     1      -7.245  51.318  55.271  0.00  0.00    +0.000 A 
ENDROOT
BRANCH   1  17
ATOM     12  S   UNL     1     -12.345  55.938  49.525  0.00  0.00    +0.000 S 
ATOM     13  O   UNL     1     -13.223  54.950  48.929  0.00  0.00    +0.000 OA
ATOM     14  O   UNL     1     -11.682  56.925  48.695  0.00  0.00    +0.000 OA
ATOM     15  N   UNL     1     -11.207  55.143  50.357  0.00  0.00    +0.000 N 
ATOM     16  C   UNL     1     -13.329  56.842  50.660  0.00  0.00    +0.000 A 
ATOM     17  C   UNL     1     -11.192  55.145  51.658  0.00  0.00    +0.000 C 
ATOM     18  C   UNL     1     -13.090  56.658  52.013  0.00  0.00    +0.000 A 
ATOM     19  C   UNL     1     -14.308  57.719  50.188  0.00  0.00    +0.000 A 
ATOM     20  N   UNL     1     -12.111  55.778  52.467  0.00  0.00    +0.000 N 
ATOM     21  C   UNL     1     -13.920  57.327  52.921  0.00  0.00    +0.000 A 
ATOM     22  C   UNL     1     -15.098  58.409  51.104  0.00  0.00    +0.000 A 
ATOM     23  C   UNL     1     -14.911  58.205  52.471  0.00  0.00    +0.000 A 
ATOM     24  H   UNL     1     -10.511  54.646  49.869  0.00  0.00    +0.000 HD
ATOM     25  H   UNL     1     -12.073  55.595  53.433  0.00  0.00    +0.000 HD
ENDBRANCH   1  17
BRANCH   3  26
ATOM     26  O   UNL     1     -11.581  52.723  53.218  0.00  0.00    +0.000 OA
ATOM     27  H   UNL     1     -12.259  52.906  52.597  0.00  0.00    +0.000 HD
ENDBRANCH   3  26
BRANCH   5  28
ATOM     28  C   UNL     1      -6.341  54.891  52.974  0.00  0.00    +0.000 C 
BRANCH  28  29
ATOM     29  C   UNL     1      -5.407  54.296  51.973  0.00  0.00    +0.000 A 
ATOM     30  C   UNL     1      -5.427  54.482  50.603  0.00  0.00    +0.000 A 
ATOM     31  C   UNL     1      -4.376  53.335  52.197  0.00  0.00    +0.000 A 
ATOM     32  O   UNL     1      -4.499  53.705  49.989  0.00  0.00    +0.000 OA
ATOM     33  C   UNL     1      -3.866  53.005  50.963  0.00  0.00    +0.000 A 
ENDBRANCH  28  29
ENDBRANCH   5  28
TORSDOF 4
ENDMDL
MODEL 2
REMARK VINA RESULT:      -8.4      3.153      7.422
REMARK  Name = 338084
REMARK  4 active torsions:
REMARK  status: ('A' for Active; 'I' for Inactive)
REMARK    1  A    between atoms: C_6  and  C_10
REMARK    2  A    between atoms: C_14  and  O_18
REMARK    3  A    between atoms: N_17  and  C_21
REMARK    4  A    between atoms: C_21  and  C_24
REMARK                            x       y       z     vdW  Elec       q    Type
REMARK                         _______ _______ _______ _____ _____    ______ ____
ROOT
ATOM      1  C   UNL     1     -10.262  55.211  50.808  0.00  0.00    +0.000 A 
ATOM      2  C   UNL     1      -9.899  55.137  49.360  0.00  0.00    +0.000 A 
ATOM      3  C   UNL     1     -11.461  55.705  51.171  0.00  0.00    +0.000 A 
ATOM      4  O   UNL     1      -8.802  54.653  49.059  0.00  0.00    +0.000 OA
ATOM      5  N   UNL     1     -10.820  55.562  48.411  0.00  0.00    +0.000 N 
ATOM      6  C   UNL     1     -12.422  56.162  50.158  0.00  0.00    +0.000 A 
ATOM      7  C   UNL     1     -12.099  56.078  48.791  0.00  0.00    +0.000 A 
ATOM      8  C   UNL     1     -13.682  56.655  50.548  0.00  0.00    +0.000 A 
ATOM      9  C   UNL     1     -13.059  56.481  47.851  0.00  0.00    +0.000 A 
ATOM     10  C   UNL     1     -14.625  57.041  49.601  0.00  0.00    +0.000 A 
ATOM     11  C   UNL     1     -14.315  56.949  48.252  0.00  0.00    +0.000 A 
ENDROOT
BRANCH   1  17
ATOM     12  S   UNL     1      -7.052  54.682  53.020  0.00  0.00    +0.000 S 
ATOM     13  O   UNL     1      -6.965  55.660  54.087  0.00  0.00    +0.000 OA
ATOM     14  O   UNL     1      -5.868  54.304  52.274  0.00  0.00    +0.000 OA
ATOM     15  N   UNL     1      -8.159  55.210  51.963  0.00  0.00    +0.000 N 
ATOM     16  C   UNL     1      -7.652  53.209  53.758  0.00  0.00    +0.000 A 
ATOM     17  C   UNL     1      -9.318  54.630  51.849  0.00  0.00    +0.000 C 
ATOM     18  C   UNL     1      -8.943  52.809  53.449  0.00  0.00    +0.000 A 
ATOM     19  C   UNL     1      -6.830  52.477  54.618  0.00  0.00    +0.000 A 
ATOM     20  N   UNL     1      -9.749  53.552  52.591  0.00  0.00    +0.000 N 
ATOM     21  C   UNL     1      -9.446  51.670  54.090  0.00  0.00    +0.000 A 
ATOM     22  C   UNL     1      -7.331  51.324  55.216  0.00  0.00    +0.000 A 
ATOM     23  C   UNL     1      -8.644  50.926  54.960  0.00  0.00    +0.000 A 
ATOM     24  H   UNL     1      -7.951  55.986  51.394  0.00  0.00    +0.000 HD
ATOM     25  H   UNL     1     -10.694  53.287  52.508  0.00  0.00    +0.000 HD
ENDBRANCH   1  17
BRANCH   3  26
ATOM     26  O   UNL     1     -11.917  55.770  52.477  0.00  0.00    +0.000 OA
ATOM     27  H   UNL     1     -11.602  56.442  53.050  0.00  0.00    +0.000 HD
ENDBRANCH   3  26
BRANCH   5  28
ATOM     28  C   UNL     1     -10.477  55.345  47.004  0.00  0.00    +0.000 C 
BRANCH  28  29
ATOM     29  C   UNL     1     -11.096  54.108  46.444  0.00  0.00    +0.000 A 
ATOM     30  C   UNL     1     -11.468  53.884  45.131  0.00  0.00    +0.000 A 
ATOM     31  C   UNL     1     -11.532  52.947  47.151  0.00  0.00    +0.000 A 
ATOM     32  O   UNL     1     -12.097  52.690  44.997  0.00  0.00    +0.000 OA
ATOM     33  C   UNL     1     -12.139  52.126  46.229  0.00  0.00    +0.000 A 
ENDBRANCH  28  29
ENDBRANCH   5  28
TORSDOF 4
ENDMDL
MODEL 3
REMARK VINA RESULT:      -8.4      3.405      5.087
REMARK  Name = 338084
REMARK  4 active torsions:
REMARK  status: ('A' for Active; 'I' for Inactive)
REMARK    1  A    between atoms: C_6  and  C_10
REMARK    2  A    between atoms: C_14  and  O_18
REMARK    3  A    between atoms: N_17  and  C_21
REMARK    4  A    between atoms: C_21  and  C_24
REMARK                            x       y       z     vdW  Elec       q    Type
REMARK                         _______ _______ _______ _____ _____    ______ ____
ROOT
ATOM      1  C   UNL     1     -11.592  55.867  48.719  0.00  0.00    +0.000 A 
ATOM      2  C   UNL     1     -10.547  55.166  49.525  0.00  0.00    +0.000 A 
ATOM      3  C   UNL     1     -11.772  55.537  47.426  0.00  0.00    +0.000 A 
ATOM      4  O   UNL     1     -10.425  55.474  50.716  0.00  0.00    +0.000 OA
ATOM      5  N   UNL     1      -9.792  54.165  48.926  0.00  0.00    +0.000 N 
ATOM      6  C   UNL     1     -10.959  54.485  46.801  0.00  0.00    +0.000 A 
ATOM      7  C   UNL     1      -9.986  53.804  47.556  0.00  0.00    +0.000 A 
ATOM      8  C   UNL     1     -11.172  54.131  45.455  0.00  0.00    +0.000 A 
ATOM      9  C   UNL     1      -9.261  52.774  46.937  0.00  0.00    +0.000 A 
ATOM     10  C   UNL     1     -10.450  53.100  44.862  0.00  0.00    +0.000 A 
ATOM     11  C   UNL     1      -9.497  52.419  45.605  0.00  0.00    +0.000 A 
ENDROOT
BRANCH   1  17
ATOM     12  S   UNL     1     -13.535  59.207  49.458  0.00  0.00    +0.000 S 
ATOM     13  O   UNL     1     -14.679  59.372  48.583  0.00  0.00    +0.000 OA
ATOM     14  O   UNL     1     -12.683  60.338  49.771  0.00  0.00    +0.000 OA
ATOM     15  N   UNL     1     -12.604  58.040  48.833  0.00  0.00    +0.000 N 
ATOM     16  C   UNL     1     -14.173  58.642  50.991  0.00  0.00    +0.000 A 
ATOM     17  C   UNL     1     -12.512  56.871  49.396  0.00  0.00    +0.000 C 
ATOM     18  C   UNL     1     -13.913  57.331  51.356  0.00  0.00    +0.000 A 
ATOM     19  C   UNL     1     -14.909  59.511  51.801  0.00  0.00    +0.000 A 
ATOM     20  N   UNL     1     -13.180  56.478  50.536  0.00  0.00    +0.000 N 
ATOM     21  C   UNL     1     -14.479  56.859  52.548  0.00  0.00    +0.000 A 
ATOM     22  C   UNL     1     -15.430  59.039  53.002  0.00  0.00    +0.000 A 
ATOM     23  C   UNL     1     -15.224  57.709  53.370  0.00  0.00    +0.000 A 
ATOM     24  H   UNL     1     -12.095  58.218  48.009  0.00  0.00    +0.000 HD
ATOM     25  H   UNL     1     -13.135  55.528  50.789  0.00  0.00    +0.000 HD
ENDBRANCH   1  17
BRANCH   3  26
ATOM     26  O   UNL     1     -12.744  56.086  46.607  0.00  0.00    +0.000 OA
ATOM     27  H   UNL     1     -13.451  55.554  46.297  0.00  0.00    +0.000 HD
ENDBRANCH   3  26
BRANCH   5  28
ATOM     28  C   UNL     1      -8.876  53.414  49.787  0.00  0.00    +0.000 C 
BRANCH  28  29
ATOM     29  C   UNL     1      -7.528  54.048  49.885  0.00  0.00    +0.000 A 
ATOM     30  C   UNL     1      -6.721  54.117  51.006  0.00  0.00    +0.000 A 
ATOM     31  C   UNL     1      -6.837  54.802  48.889  0.00  0.00    +0.000 A 
ATOM     32  O   UNL     1      -5.610  54.858  50.765  0.00  0.00    +0.000 OA
ATOM     33  C   UNL     1      -5.688  55.277  49.477  0.00  0.00    +0.000 A 
ENDBRANCH  28  29
ENDBRANCH   5  28
TORSDOF 4
ENDMDL
MODEL 4
REMARK VINA RESULT:      -8.3      3.767      4.619
REMARK  Name = 338084
REMARK  4 active torsions:
REMARK  status: ('A' for Active; 'I' for Inactive)
REMARK    1  A    between atoms: C_6  and  C_10
REMARK    2  A    between atoms: C_14  and  O_18
REMARK    3  A    between atoms: N_17  and  C_21
REMARK    4  A    between atoms: C_21  and  C_24
REMARK                            x       y       z     vdW  Elec       q    Type
REMARK                         _______ _______ _______ _____ _____    ______ ____
ROOT
ATOM      1  C   UNL     1     -12.380  54.153  49.838  0.00  0.00    +0.000 A 
ATOM      2  C   UNL     1     -11.926  53.932  48.432  0.00  0.00    +0.000 A 
ATOM      3  C   UNL     1     -11.990  53.303  50.807  0.00  0.00    +0.000 A 
ATOM      4  O   UNL     1     -12.279  54.746  47.571  0.00  0.00    +0.000 OA
ATOM      5  N   UNL     1     -11.088  52.859  48.154  0.00  0.00    +0.000 N 
ATOM      6  C   UNL     1     -11.114  52.165  50.499  0.00  0.00    +0.000 A 
ATOM      7  C   UNL     1     -10.663  51.959  49.182  0.00  0.00    +0.000 A 
ATOM      8  C   UNL     1     -10.693  51.296  51.524  0.00  0.00    +0.000 A 
ATOM      9  C   UNL     1      -9.790  50.889  48.933  0.00  0.00    +0.000 A 
ATOM     10  C   UNL     1      -9.819  50.247  51.260  0.00  0.00    +0.000 A 
ATOM     11  C   UNL     1      -9.364  50.046  49.965  0.00  0.00    +0.000 A 
ENDROOT
BRANCH   1  17
ATOM     12  S   UNL     1     -15.290  56.429  51.190  0.00  0.00    +0.000 S 
ATOM     13  O   UNL     1     -15.240  56.570  52.633  0.00  0.00    +0.000 OA
ATOM     14  O   UNL     1     -16.559  56.239  50.516  0.00  0.00    +0.000 OA
ATOM     15  N   UNL     1     -14.322  55.196  50.786  0.00  0.00    +0.000 N 
ATOM     16  C   UNL     1     -14.608  57.905  50.534  0.00  0.00    +0.000 A 
ATOM     17  C   UNL     1     -13.189  55.395  50.178  0.00  0.00    +0.000 C 
ATOM     18  C   UNL     1     -13.367  57.828  49.921  0.00  0.00    +0.000 A 
ATOM     19  C   UNL     1     -15.319  59.104  50.632  0.00  0.00    +0.000 A 
ATOM     20  N   UNL     1     -12.672  56.625  49.833  0.00  0.00    +0.000 N 
ATOM     21  C   UNL     1     -12.792  59.017  49.456  0.00  0.00    +0.000 A 
ATOM     22  C   UNL     1     -14.750  60.271  50.129  0.00  0.00    +0.000 A 
ATOM     23  C   UNL     1     -13.482  60.229  49.550  0.00  0.00    +0.000 A 
ATOM     24  H   UNL     1     -14.597  54.276  51.002  0.00  0.00    +0.000 HD
ATOM     25  H   UNL     1     -11.746  56.655  49.500  0.00  0.00    +0.000 HD
ENDBRANCH   1  17
BRANCH   3  26
ATOM     26  O   UNL     1     -12.310  53.445  52.147  0.00  0.00    +0.000 OA
ATOM     27  H   UNL     1     -13.040  52.978  52.506  0.00  0.00    +0.000 HD
ENDBRANCH   3  26
BRANCH   5  28
ATOM     28  C   UNL     1     -10.559  52.760  46.792  0.00  0.00    +0.000 C 
BRANCH  28  29
ATOM     29  C   UNL     1      -9.331  53.584  46.589  0.00  0.00    +0.000 A 
ATOM     30  C   UNL     1      -8.826  54.042  45.387  0.00  0.00    +0.000 A 
ATOM     31  C   UNL     1      -8.368  53.980  47.566  0.00  0.00    +0.000 A 
ATOM     32  O   UNL     1      -7.636  54.671  45.563  0.00  0.00    +0.000 OA
ATOM     33  C   UNL     1      -7.359  54.625  46.889  0.00  0.00    +0.000 A 
ENDBRANCH  28  29
ENDBRANCH   5  28
TORSDOF 4
ENDMDL
MODEL 5
REMARK VINA RESULT:      -8.3      2.149      2.376
REMARK  Name = 338084
REMARK  4 active torsions:
REMARK  status: ('A' for Active; 'I' for Inactive)
REMARK    1  A    between atoms: C_6  and  C_10
REMARK    2  A    between atoms: C_14  and  O_18
REMARK    3  A    between atoms: N_17  and  C_21
REMARK    4  A    between atoms: C_21  and  C_24
REMARK                            x       y       z     vdW  Elec       q    Type
REMARK                         _______ _______ _______ _____ _____    ______ ____
ROOT
ATOM      1  C   UNL     1     -11.121  54.624  50.873  0.00  0.00    +0.000 A 
ATOM      2  C   UNL     1      -9.694  55.002  50.646  0.00  0.00    +0.000 A 
ATOM      3  C   UNL     1     -11.429  53.364  51.237  0.00  0.00    +0.000 A 
ATOM      4  O   UNL     1      -9.442  56.173  50.339  0.00  0.00    +0.000 OA
ATOM      5  N   UNL     1      -8.704  54.046  50.839  0.00  0.00    +0.000 N 
ATOM      6  C   UNL     1     -10.375  52.360  51.425  0.00  0.00    +0.000 A 
ATOM      7  C   UNL     1      -9.025  52.710  51.235  0.00  0.00    +0.000 A 
ATOM      8  C   UNL     1     -10.706  51.052  51.829  0.00  0.00    +0.000 A 
ATOM      9  C   UNL     1      -8.042  51.736  51.469  0.00  0.00    +0.000 A 
ATOM     10  C   UNL     1      -9.717  50.103  52.066  0.00  0.00    +0.000 A 
ATOM     11  C   UNL     1      -8.384  50.447  51.890  0.00  0.00    +0.000 A 
ENDROOT
BRANCH   1  17
ATOM     12  S   UNL     1     -13.551  57.339  49.388  0.00  0.00    +0.000 S 
ATOM     13  O   UNL     1     -14.673  56.738  48.694  0.00  0.00    +0.000 OA
ATOM     14  O   UNL     1     -12.883  58.500  48.834  0.00  0.00    +0.000 OA
ATOM     15  N   UNL     1     -12.439  56.184  49.613  0.00  0.00    +0.000 N 
ATOM     16  C   UNL     1     -14.158  57.832  50.958  0.00  0.00    +0.000 A 
ATOM     17  C   UNL     1     -12.201  55.692  50.793  0.00  0.00    +0.000 C 
ATOM     18  C   UNL     1     -13.726  57.128  52.070  0.00  0.00    +0.000 A 
ATOM     19  C   UNL     1     -15.040  58.911  51.054  0.00  0.00    +0.000 A 
ATOM     20  N   UNL     1     -12.848  56.054  51.955  0.00  0.00    +0.000 N 
ATOM     21  C   UNL     1     -14.262  57.478  53.315  0.00  0.00    +0.000 A 
ATOM     22  C   UNL     1     -15.534  59.273  52.305  0.00  0.00    +0.000 A 
ATOM     23  C   UNL     1     -15.152  58.549  53.435  0.00  0.00    +0.000 A 
ATOM     24  H   UNL     1     -11.931  55.847  48.839  0.00  0.00    +0.000 HD
ATOM     25  H   UNL     1     -12.676  55.516  52.761  0.00  0.00    +0.000 HD
ENDBRANCH   1  17
BRANCH   3  26
ATOM     26  O   UNL     1     -12.711  52.924  51.521  0.00  0.00    +0.000 OA
ATOM     27  H   UNL     1     -13.440  53.263  51.040  0.00  0.00    +0.000 HD
ENDBRANCH   3  26
BRANCH   5  28
ATOM     28  C   UNL     1      -7.313  54.495  50.738  0.00  0.00    +0.000 C 
BRANCH  28  29
ATOM     29  C   UNL     1      -6.696  54.759  52.071  0.00  0.00    +0.000 A 
ATOM     30  C   UNL     1      -7.140  55.650  53.031  0.00  0.00    +0.000 A 
ATOM     31  C   UNL     1      -5.473  54.239  52.592  0.00  0.00    +0.000 A 
ATOM     32  O   UNL     1      -6.278  55.711  54.078  0.00  0.00    +0.000 OA
ATOM     33  C   UNL     1      -5.263  54.855  53.803  0.00  0.00    +0.000 A 
ENDBRANCH  28  29
ENDBRANCH   5  28
TORSDOF 4
ENDMDL
MODEL 6
REMARK VINA RESULT:      -8.2      1.524      2.218
REMARK  Name = 338084
REMARK  4 active torsions:
REMARK  status: ('A' for Active; 'I' for Inactive)
REMARK    1  A    between atoms: C_6  and  C_10
REMARK    2  A    between atoms: C_14  and  O_18
REMARK    3  A    between atoms: N_17  and  C_21
REMARK    4  A    between atoms: C_21  and  C_24
REMARK                            x       y       z     vdW  Elec       q    Type
REMARK                         _______ _______ _______ _____ _____    ______ ____
ROOT
ATOM      1  C   UNL     1     -10.145  54.474  52.132  0.00  0.00    +0.000 A 
ATOM      2  C   UNL     1      -8.746  54.998  52.110  0.00  0.00    +0.000 A 
ATOM      3  C   UNL     1     -10.433  53.369  52.845  0.00  0.00    +0.000 A 
ATOM      4  O   UNL     1      -8.520  56.031  51.468  0.00  0.00    +0.000 OA
ATOM      5  N   UNL     1      -7.768  54.343  52.848  0.00  0.00    +0.000 N 
ATOM      6  C   UNL     1      -9.388  52.678  53.612  0.00  0.00    +0.000 A 
ATOM      7  C   UNL     1      -8.072  53.174  53.615  0.00  0.00    +0.000 A 
ATOM      8  C   UNL     1      -9.706  51.536  54.373  0.00  0.00    +0.000 A 
ATOM      9  C   UNL     1      -7.111  52.514  54.396  0.00  0.00    +0.000 A 
ATOM     10  C   UNL     1      -8.741  50.902  55.149  0.00  0.00    +0.000 A 
ATOM     11  C   UNL     1      -7.444  51.394  55.164  0.00  0.00    +0.000 A 
ENDROOT
BRANCH   1  17
ATOM     12  S   UNL     1     -13.476  56.493  51.573  0.00  0.00    +0.000 S 
ATOM     13  O   UNL     1     -13.359  57.864  52.029  0.00  0.00    +0.000 OA
ATOM     14  O   UNL     1     -14.684  55.735  51.832  0.00  0.00    +0.000 OA
ATOM     15  N   UNL     1     -12.228  55.665  52.188  0.00  0.00    +0.000 N 
ATOM     16  C   UNL     1     -13.299  56.543  49.830  0.00  0.00    +0.000 A 
ATOM     17  C   UNL     1     -11.249  55.255  51.436  0.00  0.00    +0.000 C 
ATOM     18  C   UNL     1     -12.139  56.019  49.281  0.00  0.00    +0.000 A 
ATOM     19  C   UNL     1     -14.315  57.091  49.043  0.00  0.00    +0.000 A 
ATOM     20  N   UNL     1     -11.135  55.478  50.080  0.00  0.00    +0.000 N 
ATOM     21  C   UNL     1     -11.967  56.120  47.895  0.00  0.00    +0.000 A 
ATOM     22  C   UNL     1     -14.146  57.148  47.662  0.00  0.00    +0.000 A 
ATOM     23  C   UNL     1     -12.967  56.671  47.089  0.00  0.00    +0.000 A 
ATOM     24  H   UNL     1     -12.209  55.466  53.153  0.00  0.00    +0.000 HD
ATOM     25  H   UNL     1     -10.286  55.237  49.647  0.00  0.00    +0.000 HD
ENDBRANCH   1  17
BRANCH   3  26
ATOM     26  O   UNL     1     -11.703  52.830  52.975  0.00  0.00    +0.000 OA
ATOM     27  H   UNL     1     -12.210  52.638  52.210  0.00  0.00    +0.000 HD
ENDBRANCH   3  26
BRANCH   5  28
ATOM     28  C   UNL     1      -6.445  54.967  52.907  0.00  0.00    +0.000 C 
BRANCH  28  29
ATOM     29  C   UNL     1      -5.480  54.362  51.943  0.00  0.00    +0.000 A 
ATOM     30  C   UNL     1      -5.474  54.508  50.568  0.00  0.00    +0.000 A 
ATOM     31  C   UNL     1      -4.435  53.428  52.216  0.00  0.00    +0.000 A 
ATOM     32  O   UNL     1      -4.519  53.732  49.996  0.00  0.00    +0.000 OA
ATOM     33  C   UNL     1      -3.893  53.073  51.002  0.00  0.00    +0.000 A 
ENDBRANCH  28  29
ENDBRANCH   5  28
TORSDOF 4
ENDMDL
MODEL 7
REMARK VINA RESULT:      -8.1      3.424      5.440
REMARK  Name = 338084
REMARK  4 active torsions:
REMARK  status: ('A' for Active; 'I' for Inactive)
REMARK    1  A    between atoms: C_6  and  C_10
REMARK    2  A    between atoms: C_14  and  O_18
REMARK    3  A    between atoms: N_17  and  C_21
REMARK    4  A    between atoms: C_21  and  C_24
REMARK                            x       y       z     vdW  Elec       q    Type
REMARK                         _______ _______ _______ _____ _____    ______ ____
ROOT
ATOM      1  C   UNL     1     -11.476  55.916  48.787  0.00  0.00    +0.000 A 
ATOM      2  C   UNL     1     -10.434  55.242  49.621  0.00  0.00    +0.000 A 
ATOM      3  C   UNL     1     -11.618  55.575  47.492  0.00  0.00    +0.000 A 
ATOM      4  O   UNL     1     -10.348  55.558  50.813  0.00  0.00    +0.000 OA
ATOM      5  N   UNL     1      -9.643  54.256  49.045  0.00  0.00    +0.000 N 
ATOM      6  C   UNL     1     -10.767  54.539  46.892  0.00  0.00    +0.000 A 
ATOM      7  C   UNL     1      -9.797  53.883  47.673  0.00  0.00    +0.000 A 
ATOM      8  C   UNL     1     -10.940  54.173  45.543  0.00  0.00    +0.000 A 
ATOM      9  C   UNL     1      -9.035  52.867  47.078  0.00  0.00    +0.000 A 
ATOM     10  C   UNL     1     -10.181  53.157  44.973  0.00  0.00    +0.000 A 
ATOM     11  C   UNL     1      -9.231  52.500  45.742  0.00  0.00    +0.000 A 
ENDROOT
BRANCH   1  17
ATOM     12  S   UNL     1     -13.527  59.207  49.450  0.00  0.00    +0.000 S 
ATOM     13  O   UNL     1     -14.663  59.324  48.558  0.00  0.00    +0.000 OA
ATOM     14  O   UNL     1     -12.712  60.367  49.756  0.00  0.00    +0.000 OA
ATOM     15  N   UNL     1     -12.554  58.059  48.855  0.00  0.00    +0.000 N 
ATOM     16  C   UNL     1     -14.167  58.647  50.983  0.00  0.00    +0.000 A 
ATOM     17  C   UNL     1     -12.434  56.902  49.437  0.00  0.00    +0.000 C 
ATOM     18  C   UNL     1     -13.873  57.350  51.373  0.00  0.00    +0.000 A 
ATOM     19  C   UNL     1     -14.938  59.506  51.771  0.00  0.00    +0.000 A 
ATOM     20  N   UNL     1     -13.104  56.507  50.575  0.00  0.00    +0.000 N 
ATOM     21  C   UNL     1     -14.440  56.880  52.564  0.00  0.00    +0.000 A 
ATOM     22  C   UNL     1     -15.461  59.036  52.973  0.00  0.00    +0.000 A 
ATOM     23  C   UNL     1     -15.220  57.719  53.364  0.00  0.00    +0.000 A 
ATOM     24  H   UNL     1     -12.040  58.240  48.034  0.00  0.00    +0.000 HD
ATOM     25  H   UNL     1     -13.034  55.562  50.843  0.00  0.00    +0.000 HD
ENDBRANCH   1  17
BRANCH   3  26
ATOM     26  O   UNL     1     -12.582  56.098  46.647  0.00  0.00    +0.000 OA
ATOM     27  H   UNL     1     -12.430  56.125  45.723  0.00  0.00    +0.000 HD
ENDBRANCH   3  26
BRANCH   5  28
ATOM     28  C   UNL     1      -8.731  53.529  49.932  0.00  0.00    +0.000 C 
BRANCH  28  29
ATOM     29  C   UNL     1      -9.431  52.508  50.766  0.00  0.00    +0.000 A 
ATOM     30  C   UNL     1      -9.200  52.223  52.099  0.00  0.00    +0.000 A 
ATOM     31  C   UNL     1     -10.399  51.546  50.348  0.00  0.00    +0.000 A 
ATOM     32  O   UNL     1      -9.943  51.165  52.510  0.00  0.00    +0.000 OA
ATOM     33  C   UNL     1     -10.667  50.753  51.439  0.00  0.00    +0.000 A 
ENDBRANCH  28  29
ENDBRANCH   5  28
TORSDOF 4
ENDMDL
MODEL 8
REMARK VINA RESULT:      -8.0      3.430      7.566
REMARK  Name = 338084
REMARK  4 active torsions:
REMARK  status: ('A' for Active; 'I' for Inactive)
REMARK    1  A    between atoms: C_6  and  C_10
REMARK    2  A    between atoms: C_14  and  O_18
REMARK    3  A    between atoms: N_17  and  C_21
REMARK    4  A    between atoms: C_21  and  C_24
REMARK                            x       y       z     vdW  Elec       q    Type
REMARK                         _______ _______ _______ _____ _____    ______ ____
ROOT
ATOM      1  C   UNL     1     -10.352  54.972  50.376  0.00  0.00    +0.000 A 
ATOM      2  C   UNL     1     -10.007  54.824  48.930  0.00  0.00    +0.000 A 
ATOM      3  C   UNL     1     -11.467  55.639  50.732  0.00  0.00    +0.000 A 
ATOM      4  O   UNL     1      -8.992  54.183  48.635  0.00  0.00    +0.000 OA
ATOM      5  N   UNL     1     -10.860  55.364  47.974  0.00  0.00    +0.000 N 
ATOM      6  C   UNL     1     -12.354  56.215  49.712  0.00  0.00    +0.000 A 
ATOM      7  C   UNL     1     -12.049  56.064  48.347  0.00  0.00    +0.000 A 
ATOM      8  C   UNL     1     -13.529  56.891  50.095  0.00  0.00    +0.000 A 
ATOM      9  C   UNL     1     -12.944  56.588  47.401  0.00  0.00    +0.000 A 
ATOM     10  C   UNL     1     -14.408  57.394  49.142  0.00  0.00    +0.000 A 
ATOM     11  C   UNL     1     -14.117  57.239  47.794  0.00  0.00    +0.000 A 
ENDROOT
BRANCH   1  17
ATOM     12  S   UNL     1      -9.171  52.325  53.036  0.00  0.00    +0.000 S 
ATOM     13  O   UNL     1      -8.646  51.127  52.410  0.00  0.00    +0.000 OA
ATOM     14  O   UNL     1     -10.026  52.228  54.203  0.00  0.00    +0.000 OA
ATOM     15  N   UNL     1      -9.969  53.160  51.902  0.00  0.00    +0.000 N 
ATOM     16  C   UNL     1      -7.776  53.264  53.534  0.00  0.00    +0.000 A 
ATOM     17  C   UNL     1      -9.499  54.276  51.425  0.00  0.00    +0.000 C 
ATOM     18  C   UNL     1      -7.507  54.437  52.847  0.00  0.00    +0.000 A 
ATOM     19  C   UNL     1      -6.986  52.825  54.598  0.00  0.00    +0.000 A 
ATOM     20  N   UNL     1      -8.304  54.860  51.787  0.00  0.00    +0.000 N 
ATOM     21  C   UNL     1      -6.356  55.153  53.199  0.00  0.00    +0.000 A 
ATOM     22  C   UNL     1      -5.867  53.569  54.964  0.00  0.00    +0.000 A 
ATOM     23  C   UNL     1      -5.546  54.728  54.257  0.00  0.00    +0.000 A 
ATOM     24  H   UNL     1     -10.829  52.818  51.566  0.00  0.00    +0.000 HD
ATOM     25  H   UNL     1      -7.993  55.630  51.259  0.00  0.00    +0.000 HD
ENDBRANCH   1  17
BRANCH   3  26
ATOM     26  O   UNL     1     -11.905  55.789  52.037  0.00  0.00    +0.000 OA
ATOM     27  H   UNL     1     -11.427  56.334  52.632  0.00  0.00    +0.000 HD
ENDBRANCH   3  26
BRANCH   5  28
ATOM     28  C   UNL     1     -10.555  55.079  46.570  0.00  0.00    +0.000 C 
BRANCH  28  29
ATOM     29  C   UNL     1     -11.230  53.844  46.073  0.00  0.00    +0.000 A 
ATOM     30  C   UNL     1     -11.896  52.897  46.831  0.00  0.00    +0.000 A 
ATOM     31  C   UNL     1     -11.243  53.324  44.744  0.00  0.00    +0.000 A 
ATOM     32  O   UNL     1     -12.297  51.851  46.065  0.00  0.00    +0.000 OA
ATOM     33  C   UNL     1     -11.893  52.113  44.798  0.00  0.00    +0.000 A 
ENDBRANCH  28  29
ENDBRANCH   5  28
TORSDOF 4
ENDMDL
MODEL 9
REMARK VINA RESULT:      -8.0      3.592      5.276
REMARK  Name = 338084
REMARK  4 active torsions:
REMARK  status: ('A' for Active; 'I' for Inactive)
REMARK    1  A    between atoms: C_6  and  C_10
REMARK    2  A    between atoms: C_14  and  O_18
REMARK    3  A    between atoms: N_17  and  C_21
REMARK    4  A    between atoms: C_21  and  C_24
REMARK                            x       y       z     vdW  Elec       q    Type
REMARK                         _______ _______ _______ _____ _____    ______ ____
ROOT
ATOM      1  C   UNL     1     -10.710  55.754  48.324  0.00  0.00    +0.000 A 
ATOM      2  C   UNL     1      -9.274  55.725  48.737  0.00  0.00    +0.000 A 
ATOM      3  C   UNL     1     -11.088  55.151  47.181  0.00  0.00    +0.000 A 
ATOM      4  O   UNL     1      -8.964  56.264  49.806  0.00  0.00    +0.000 OA
ATOM      5  N   UNL     1      -8.356  55.055  47.939  0.00  0.00    +0.000 N 
ATOM      6  C   UNL     1     -10.106  54.456  46.339  0.00  0.00    +0.000 A 
ATOM      7  C   UNL     1      -8.755  54.405  46.728  0.00  0.00    +0.000 A 
ATOM      8  C   UNL     1     -10.516  53.809  45.157  0.00  0.00    +0.000 A 
ATOM      9  C   UNL     1      -7.853  53.693  45.923  0.00  0.00    +0.000 A 
ATOM     10  C   UNL     1      -9.610  53.100  44.377  0.00  0.00    +0.000 A 
ATOM     11  C   UNL     1      -8.278  53.038  44.763  0.00  0.00    +0.000 A 
ENDROOT
BRANCH   1  17
ATOM     12  S   UNL     1     -13.249  56.157  51.302  0.00  0.00    +0.000 S 
ATOM     13  O   UNL     1     -12.572  56.415  52.558  0.00  0.00    +0.000 OA
ATOM     14  O   UNL     1     -14.379  55.249  51.252  0.00  0.00    +0.000 OA
ATOM     15  N   UNL     1     -12.140  55.630  50.248  0.00  0.00    +0.000 N 
ATOM     16  C   UNL     1     -13.848  57.708  50.745  0.00  0.00    +0.000 A 
ATOM     17  C   UNL     1     -11.745  56.370  49.253  0.00  0.00    +0.000 C 
ATOM     18  C   UNL     1     -13.240  58.276  49.637  0.00  0.00    +0.000 A 
ATOM     19  C   UNL     1     -14.911  58.323  51.411  0.00  0.00    +0.000 A 
ATOM     20  N   UNL     1     -12.180  57.650  48.986  0.00  0.00    +0.000 N 
ATOM     21  C   UNL     1     -13.672  59.545  49.232  0.00  0.00    +0.000 A 
ATOM     22  C   UNL     1     -15.357  59.567  50.971  0.00  0.00    +0.000 A 
ATOM     23  C   UNL     1     -14.730  60.183  49.888  0.00  0.00    +0.000 A 
ATOM     24  H   UNL     1     -11.756  54.730  50.360  0.00  0.00    +0.000 HD
ATOM     25  H   UNL     1     -11.710  58.158  48.287  0.00  0.00    +0.000 HD
ENDBRANCH   1  17
BRANCH   3  26
ATOM     26  O   UNL     1     -12.397  55.074  46.733  0.00  0.00    +0.000 OA
ATOM     27  H   UNL     1     -12.962  54.399  47.054  0.00  0.00    +0.000 HD
ENDBRANCH   3  26
BRANCH   5  28
ATOM     28  C   UNL     1      -6.988  54.936  48.449  0.00  0.00    +0.000 C 
BRANCH  28  29
ATOM     29  C   UNL     1      -6.861  53.902  49.518  0.00  0.00    +0.000 A 
ATOM     30  C   UNL     1      -6.273  54.057  50.760  0.00  0.00    +0.000 A 
ATOM     31  C   UNL     1      -7.214  52.521  49.451  0.00  0.00    +0.000 A 
ATOM     32  O   UNL     1      -6.238  52.882  51.436  0.00  0.00    +0.000 OA
ATOM     33  C   UNL     1      -6.807  51.949  50.633  0.00  0.00    +0.000 A 
ENDBRANCH  28  29
ENDBRANCH   5  28
TORSDOF 4
ENDMDL
