MODEL 1
REMARK VINA RESULT:      -8.6      0.000      0.000
REMARK  Name = 338063
REMARK  8 active torsions:
REMARK  status: ('A' for Active; 'I' for Inactive)
REMARK    1  A    between atoms: C_6  and  C_10
REMARK    2  A    between atoms: C_14  and  O_18
REMARK    3  A    between atoms: N_17  and  C_21
REMARK    4  A    between atoms: C_21  and  C_24
REMARK    5  A    between atoms: C_24  and  C_27
REMARK    6  A    between atoms: C_25  and  C_28
REMARK    7  A    between atoms: C_27  and  C_29
REMARK    8  A    between atoms: C_27  and  C_30
REMARK                            x       y       z     vdW  Elec       q    Type
REMARK                         _______ _______ _______ _____ _____    ______ ____
ROOT
ATOM      1  C   UNL     1     -10.170  54.419  52.210  0.00  0.00    +0.000 A 
ATOM      2  C   UNL     1      -8.792  54.994  52.123  0.00  0.00    +0.000 A 
ATOM      3  C   UNL     1     -10.394  53.319  52.948  0.00  0.00    +0.000 A 
ATOM      4  O   UNL     1      -8.645  56.068  51.532  0.00  0.00    +0.000 OA
ATOM      5  N   UNL     1      -7.742  54.309  52.725  0.00  0.00    +0.000 N 
ATOM      6  C   UNL     1      -9.296  52.679  53.684  0.00  0.00    +0.000 A 
ATOM      7  C   UNL     1      -7.992  53.195  53.584  0.00  0.00    +0.000 A 
ATOM      8  C   UNL     1      -9.541  51.564  54.508  0.00  0.00    +0.000 A 
ATOM      9  C   UNL     1      -6.980  52.608  54.359  0.00  0.00    +0.000 A 
ATOM     10  C   UNL     1      -8.514  50.961  55.241  0.00  0.00    +0.000 A 
ATOM     11  C   UNL     1      -7.232  51.498  55.166  0.00  0.00    +0.000 A 
ATOM     12  C   UNL     1      -8.784  49.786  56.130  0.00  0.00    +0.000 C 
ENDROOT
BRANCH   1  18
ATOM     13  S   UNL     1     -12.422  55.915  49.356  0.00  0.00    +0.000 S 
ATOM     14  O   UNL     1     -13.291  54.925  48.751  0.00  0.00    +0.000 OA
ATOM     15  O   UNL     1     -11.747  56.900  48.533  0.00  0.00    +0.000 OA
ATOM     16  N   UNL     1     -11.299  55.126  50.214  0.00  0.00    +0.000 N 
ATOM     17  C   UNL     1     -13.428  56.827  50.471  0.00  0.00    +0.000 A 
ATOM     18  C   UNL     1     -11.312  55.138  51.515  0.00  0.00    +0.000 C 
ATOM     19  C   UNL     1     -13.217  56.644  51.826  0.00  0.00    +0.000 A 
ATOM     20  C   UNL     1     -14.393  57.711  49.982  0.00  0.00    +0.000 A 
ATOM     21  N   UNL     1     -12.260  55.753  52.302  0.00  0.00    +0.000 N 
ATOM     22  C   UNL     1     -14.053  57.322  52.722  0.00  0.00    +0.000 A 
ATOM     23  C   UNL     1     -15.194  58.404  50.887  0.00  0.00    +0.000 A 
ATOM     24  C   UNL     1     -15.029  58.206  52.254  0.00  0.00    +0.000 A 
ATOM     25  H   UNL     1     -10.592  54.627  49.744  0.00  0.00    +0.000 HD
ATOM     26  H   UNL     1     -12.260  55.548  53.265  0.00  0.00    +0.000 HD
ENDBRANCH   1  18
BRANCH   3  27
ATOM     27  O   UNL     1     -11.639  52.737  53.124  0.00  0.00    +0.000 OA
ATOM     28  H   UNL     1     -11.741  52.017  53.715  0.00  0.00    +0.000 HD
ENDBRANCH   3  27
BRANCH   5  29
ATOM     29  C   UNL     1      -6.388  54.852  52.558  0.00  0.00    +0.000 C 
BRANCH  29  30
ATOM     30  C   UNL     1      -5.500  54.147  51.516  0.00  0.00    +0.000 C 
BRANCH  30  31
ATOM     31  C   UNL     1      -4.095  53.725  51.978  0.00  0.00    +0.000 C 
ATOM     32  C   UNL     1      -3.847  54.033  53.452  0.00  0.00    +0.000 C 
ATOM     33  C   UNL     1      -3.928  52.221  51.729  0.00  0.00    +0.000 C 
ENDBRANCH  30  31
ENDBRANCH  29  30
ENDBRANCH   5  29
TORSDOF 5
ENDMDL
MODEL 2
REMARK VINA RESULT:      -8.3      3.682      5.446
REMARK  Name = 338063
REMARK  8 active torsions:
REMARK  status: ('A' for Active; 'I' for Inactive)
REMARK    1  A    between atoms: C_6  and  C_10
REMARK    2  A    between atoms: C_14  and  O_18
REMARK    3  A    between atoms: N_17  and  C_21
REMARK    4  A    between atoms: C_21  and  C_24
REMARK    5  A    between atoms: C_24  and  C_27
REMARK    6  A    between atoms: C_25  and  C_28
REMARK    7  A    between atoms: C_27  and  C_29
REMARK    8  A    between atoms: C_27  and  C_30
REMARK                            x       y       z     vdW  Elec       q    Type
REMARK                         _______ _______ _______ _____ _____    ______ ____
ROOT
ATOM      1  C   UNL     1     -11.376  56.136  48.719  0.00  0.00    +0.000 A 
ATOM      2  C   UNL     1     -10.189  55.693  49.513  0.00  0.00    +0.000 A 
ATOM      3  C   UNL     1     -11.561  55.673  47.471  0.00  0.00    +0.000 A 
ATOM      4  O   UNL     1     -10.112  56.047  50.693  0.00  0.00    +0.000 OA
ATOM      5  N   UNL     1      -9.235  54.887  48.899  0.00  0.00    +0.000 N 
ATOM      6  C   UNL     1     -10.611  54.721  46.882  0.00  0.00    +0.000 A 
ATOM      7  C   UNL     1      -9.477  54.321  47.609  0.00  0.00    +0.000 A 
ATOM      8  C   UNL     1     -10.838  54.185  45.599  0.00  0.00    +0.000 A 
ATOM      9  C   UNL     1      -8.630  53.352  47.050  0.00  0.00    +0.000 A 
ATOM     10  C   UNL     1      -9.962  53.254  45.034  0.00  0.00    +0.000 A 
ATOM     11  C   UNL     1      -8.860  52.834  45.774  0.00  0.00    +0.000 A 
ATOM     12  C   UNL     1     -10.217  52.674  43.676  0.00  0.00    +0.000 C 
ENDROOT
BRANCH   1  18
ATOM     13  S   UNL     1     -13.562  59.317  49.466  0.00  0.00    +0.000 S 
ATOM     14  O   UNL     1     -14.711  59.426  48.589  0.00  0.00    +0.000 OA
ATOM     15  O   UNL     1     -12.786  60.494  49.807  0.00  0.00    +0.000 OA
ATOM     16  N   UNL     1     -12.555  58.223  48.824  0.00  0.00    +0.000 N 
ATOM     17  C   UNL     1     -14.169  58.684  50.987  0.00  0.00    +0.000 A 
ATOM     18  C   UNL     1     -12.396  57.053  49.370  0.00  0.00    +0.000 C 
ATOM     19  C   UNL     1     -13.833  57.385  51.324  0.00  0.00    +0.000 A 
ATOM     20  C   UNL     1     -14.953  59.488  51.818  0.00  0.00    +0.000 A 
ATOM     21  N   UNL     1     -13.061  56.589  50.483  0.00  0.00    +0.000 N 
ATOM     22  C   UNL     1     -14.360  56.851  52.507  0.00  0.00    +0.000 A 
ATOM     23  C   UNL     1     -15.442  58.954  53.009  0.00  0.00    +0.000 A 
ATOM     24  C   UNL     1     -15.152  57.637  53.349  0.00  0.00    +0.000 A 
ATOM     25  H   UNL     1     -12.054  58.447  48.007  0.00  0.00    +0.000 HD
ATOM     26  H   UNL     1     -12.984  55.631  50.698  0.00  0.00    +0.000 HD
ENDBRANCH   1  18
BRANCH   3  27
ATOM     27  O   UNL     1     -12.649  55.991  46.674  0.00  0.00    +0.000 OA
ATOM     28  H   UNL     1     -13.505  55.691  46.908  0.00  0.00    +0.000 HD
ENDBRANCH   3  27
BRANCH   5  29
ATOM     29  C   UNL     1      -8.041  54.531  49.674  0.00  0.00    +0.000 C 
BRANCH  29  30
ATOM     30  C   UNL     1      -6.890  55.554  49.652  0.00  0.00    +0.000 C 
BRANCH  30  31
ATOM     31  C   UNL     1      -5.461  54.986  49.643  0.00  0.00    +0.000 C 
ATOM     32  C   UNL     1      -5.098  54.296  50.956  0.00  0.00    +0.000 C 
ATOM     33  C   UNL     1      -5.338  53.988  48.484  0.00  0.00    +0.000 C 
ENDBRANCH  30  31
ENDBRANCH  29  30
ENDBRANCH   5  29
TORSDOF 5
ENDMDL
MODEL 3
REMARK VINA RESULT:      -8.1      3.782      4.771
REMARK  Name = 338063
REMARK  8 active torsions:
REMARK  status: ('A' for Active; 'I' for Inactive)
REMARK    1  A    between atoms: C_6  and  C_10
REMARK    2  A    between atoms: C_14  and  O_18
REMARK    3  A    between atoms: N_17  and  C_21
REMARK    4  A    between atoms: C_21  and  C_24
REMARK    5  A    between atoms: C_24  and  C_27
REMARK    6  A    between atoms: C_25  and  C_28
REMARK    7  A    between atoms: C_27  and  C_29
REMARK    8  A    between atoms: C_27  and  C_30
REMARK                            x       y       z     vdW  Elec       q    Type
REMARK                         _______ _______ _______ _____ _____    ______ ____
ROOT
ATOM      1  C   UNL     1     -12.384  54.281  49.878  0.00  0.00    +0.000 A 
ATOM      2  C   UNL     1     -11.912  54.137  48.466  0.00  0.00    +0.000 A 
ATOM      3  C   UNL     1     -12.021  53.379  50.804  0.00  0.00    +0.000 A 
ATOM      4  O   UNL     1     -12.170  55.044  47.670  0.00  0.00    +0.000 OA
ATOM      5  N   UNL     1     -11.189  53.002  48.115  0.00  0.00    +0.000 N 
ATOM      6  C   UNL     1     -11.149  52.252  50.445  0.00  0.00    +0.000 A 
ATOM      7  C   UNL     1     -10.724  52.092  49.114  0.00  0.00    +0.000 A 
ATOM      8  C   UNL     1     -10.715  51.342  51.427  0.00  0.00    +0.000 A 
ATOM      9  C   UNL     1      -9.830  51.052  48.818  0.00  0.00    +0.000 A 
ATOM     10  C   UNL     1      -9.859  50.283  51.110  0.00  0.00    +0.000 A 
ATOM     11  C   UNL     1      -9.413  50.150  49.798  0.00  0.00    +0.000 A 
ATOM     12  C   UNL     1      -9.387  49.326  52.162  0.00  0.00    +0.000 C 
ENDROOT
BRANCH   1  18
ATOM     13  S   UNL     1     -15.349  56.468  51.249  0.00  0.00    +0.000 S 
ATOM     14  O   UNL     1     -15.311  56.623  52.690  0.00  0.00    +0.000 OA
ATOM     15  O   UNL     1     -16.609  56.239  50.569  0.00  0.00    +0.000 OA
ATOM     16  N   UNL     1     -14.342  55.262  50.857  0.00  0.00    +0.000 N 
ATOM     17  C   UNL     1     -14.707  57.961  50.583  0.00  0.00    +0.000 A 
ATOM     18  C   UNL     1     -13.213  55.496  50.255  0.00  0.00    +0.000 C 
ATOM     19  C   UNL     1     -13.461  57.916  49.983  0.00  0.00    +0.000 A 
ATOM     20  C   UNL     1     -15.455  59.139  50.656  0.00  0.00    +0.000 A 
ATOM     21  N   UNL     1     -12.721  56.739  49.926  0.00  0.00    +0.000 N 
ATOM     22  C   UNL     1     -12.916  59.112  49.501  0.00  0.00    +0.000 A 
ATOM     23  C   UNL     1     -14.913  60.315  50.140  0.00  0.00    +0.000 A 
ATOM     24  C   UNL     1     -13.644  60.304  49.571  0.00  0.00    +0.000 A 
ATOM     25  H   UNL     1     -14.589  54.335  51.078  0.00  0.00    +0.000 HD
ATOM     26  H   UNL     1     -11.783  56.798  49.631  0.00  0.00    +0.000 HD
ENDBRANCH   1  18
BRANCH   3  27
ATOM     27  O   UNL     1     -12.371  53.449  52.143  0.00  0.00    +0.000 OA
ATOM     28  H   UNL     1     -11.772  53.812  52.765  0.00  0.00    +0.000 HD
ENDBRANCH   3  27
BRANCH   5  29
ATOM     29  C   UNL     1     -10.805  52.845  46.707  0.00  0.00    +0.000 C 
BRANCH  29  30
ATOM     30  C   UNL     1      -9.340  53.172  46.364  0.00  0.00    +0.000 C 
BRANCH  30  31
ATOM     31  C   UNL     1      -8.977  54.660  46.229  0.00  0.00    +0.000 C 
ATOM     32  C   UNL     1      -8.532  55.276  47.553  0.00  0.00    +0.000 C 
ATOM     33  C   UNL     1      -7.855  54.799  45.191  0.00  0.00    +0.000 C 
ENDBRANCH  30  31
ENDBRANCH  29  30
ENDBRANCH   5  29
TORSDOF 5
ENDMDL
MODEL 4
REMARK VINA RESULT:      -8.1      3.842      5.533
REMARK  Name = 338063
REMARK  8 active torsions:
REMARK  status: ('A' for Active; 'I' for Inactive)
REMARK    1  A    between atoms: C_6  and  C_10
REMARK    2  A    between atoms: C_14  and  O_18
REMARK    3  A    between atoms: N_17  and  C_21
REMARK    4  A    between atoms: C_21  and  C_24
REMARK    5  A    between atoms: C_24  and  C_27
REMARK    6  A    between atoms: C_25  and  C_28
REMARK    7  A    between atoms: C_27  and  C_29
REMARK    8  A    between atoms: C_27  and  C_30
REMARK                            x       y       z     vdW  Elec       q    Type
REMARK                         _______ _______ _______ _____ _____    ______ ____
ROOT
ATOM      1  C   UNL     1     -10.910  55.539  48.765  0.00  0.00    +0.000 A 
ATOM      2  C   UNL     1      -9.645  55.091  49.427  0.00  0.00    +0.000 A 
ATOM      3  C   UNL     1     -11.160  55.194  47.491  0.00  0.00    +0.000 A 
ATOM      4  O   UNL     1      -9.502  55.330  50.630  0.00  0.00    +0.000 OA
ATOM      5  N   UNL     1      -8.698  54.411  48.670  0.00  0.00    +0.000 N 
ATOM      6  C   UNL     1     -10.206  54.365  46.743  0.00  0.00    +0.000 A 
ATOM      7  C   UNL     1      -9.002  53.964  47.347  0.00  0.00    +0.000 A 
ATOM      8  C   UNL     1     -10.496  53.949  45.430  0.00  0.00    +0.000 A 
ATOM      9  C   UNL     1      -8.147  53.109  46.634  0.00  0.00    +0.000 A 
ATOM     10  C   UNL     1      -9.615  53.133  44.713  0.00  0.00    +0.000 A 
ATOM     11  C   UNL     1      -8.441  52.710  45.330  0.00  0.00    +0.000 A 
ATOM     12  C   UNL     1      -9.937  52.679  43.322  0.00  0.00    +0.000 C 
ENDROOT
BRANCH   1  18
ATOM     13  S   UNL     1     -13.596  56.412  51.499  0.00  0.00    +0.000 S 
ATOM     14  O   UNL     1     -13.004  56.751  52.778  0.00  0.00    +0.000 OA
ATOM     15  O   UNL     1     -14.785  55.583  51.438  0.00  0.00    +0.000 OA
ATOM     16  N   UNL     1     -12.450  55.710  50.597  0.00  0.00    +0.000 N 
ATOM     17  C   UNL     1     -14.033  57.937  50.747  0.00  0.00    +0.000 A 
ATOM     18  C   UNL     1     -11.927  56.323  49.576  0.00  0.00    +0.000 C 
ATOM     19  C   UNL     1     -13.296  58.351  49.652  0.00  0.00    +0.000 A 
ATOM     20  C   UNL     1     -15.103  58.684  51.246  0.00  0.00    +0.000 A 
ATOM     21  N   UNL     1     -12.225  57.604  49.169  0.00  0.00    +0.000 N 
ATOM     22  C   UNL     1     -13.599  59.593  49.081  0.00  0.00    +0.000 A 
ATOM     23  C   UNL     1     -15.415  59.902  50.646  0.00  0.00    +0.000 A 
ATOM     24  C   UNL     1     -14.661  60.359  49.570  0.00  0.00    +0.000 A 
ATOM     25  H   UNL     1     -12.143  54.802  50.824  0.00  0.00    +0.000 HD
ATOM     26  H   UNL     1     -11.642  58.019  48.492  0.00  0.00    +0.000 HD
ENDBRANCH   1  18
BRANCH   3  27
ATOM     27  O   UNL     1     -12.318  55.524  46.806  0.00  0.00    +0.000 OA
ATOM     28  H   UNL     1     -12.696  54.914  46.203  0.00  0.00    +0.000 HD
ENDBRANCH   3  27
BRANCH   5  29
ATOM     29  C   UNL     1      -7.433  54.052  49.322  0.00  0.00    +0.000 C 
BRANCH  29  30
ATOM     30  C   UNL     1      -6.335  55.131  49.309  0.00  0.00    +0.000 C 
BRANCH  30  31
ATOM     31  C   UNL     1      -4.879  54.636  49.299  0.00  0.00    +0.000 C 
ATOM     32  C   UNL     1      -4.473  53.986  50.619  0.00  0.00    +0.000 C 
ATOM     33  C   UNL     1      -4.712  53.628  48.154  0.00  0.00    +0.000 C 
ENDBRANCH  30  31
ENDBRANCH  29  30
ENDBRANCH   5  29
TORSDOF 5
ENDMDL
MODEL 5
REMARK VINA RESULT:      -7.8      3.069      7.681
REMARK  Name = 338063
REMARK  8 active torsions:
REMARK  status: ('A' for Active; 'I' for Inactive)
REMARK    1  A    between atoms: C_6  and  C_10
REMARK    2  A    between atoms: C_14  and  O_18
REMARK    3  A    between atoms: N_17  and  C_21
REMARK    4  A    between atoms: C_21  and  C_24
REMARK    5  A    between atoms: C_24  and  C_27
REMARK    6  A    between atoms: C_25  and  C_28
REMARK    7  A    between atoms: C_27  and  C_29
REMARK    8  A    between atoms: C_27  and  C_30
REMARK                            x       y       z     vdW  Elec       q    Type
REMARK                         _______ _______ _______ _____ _____    ______ ____
ROOT
ATOM      1  C   UNL     1     -10.020  55.155  51.027  0.00  0.00    +0.000 A 
ATOM      2  C   UNL     1      -9.723  55.161  49.561  0.00  0.00    +0.000 A 
ATOM      3  C   UNL     1     -11.238  55.509  51.468  0.00  0.00    +0.000 A 
ATOM      4  O   UNL     1      -8.632  54.720  49.186  0.00  0.00    +0.000 OA
ATOM      5  N   UNL     1     -10.690  55.640  48.684  0.00  0.00    +0.000 N 
ATOM      6  C   UNL     1     -12.292  55.891  50.518  0.00  0.00    +0.000 A 
ATOM      7  C   UNL     1     -12.013  55.928  49.141  0.00  0.00    +0.000 A 
ATOM      8  C   UNL     1     -13.587  56.201  50.974  0.00  0.00    +0.000 A 
ATOM      9  C   UNL     1     -13.061  56.222  48.254  0.00  0.00    +0.000 A 
ATOM     10  C   UNL     1     -14.611  56.536  50.083  0.00  0.00    +0.000 A 
ATOM     11  C   UNL     1     -14.339  56.535  48.717  0.00  0.00    +0.000 A 
ATOM     12  C   UNL     1     -15.993  56.847  50.571  0.00  0.00    +0.000 C 
ENDROOT
BRANCH   1  18
ATOM     13  S   UNL     1      -6.561  54.827  52.868  0.00  0.00    +0.000 S 
ATOM     14  O   UNL     1      -6.370  55.841  53.885  0.00  0.00    +0.000 OA
ATOM     15  O   UNL     1      -5.467  54.448  51.994  0.00  0.00    +0.000 OA
ATOM     16  N   UNL     1      -7.805  55.290  51.939  0.00  0.00    +0.000 N 
ATOM     17  C   UNL     1      -7.025  53.364  53.721  0.00  0.00    +0.000 A 
ATOM     18  C   UNL     1      -8.950  54.675  51.992  0.00  0.00    +0.000 C 
ATOM     19  C   UNL     1      -8.332  52.928  53.592  0.00  0.00    +0.000 A 
ATOM     20  C   UNL     1      -6.084  52.672  54.489  0.00  0.00    +0.000 A 
ATOM     21  N   UNL     1      -9.263  53.631  52.834  0.00  0.00    +0.000 N 
ATOM     22  C   UNL     1      -8.726  51.796  54.315  0.00  0.00    +0.000 A 
ATOM     23  C   UNL     1      -6.482  51.527  55.175  0.00  0.00    +0.000 A 
ATOM     24  C   UNL     1      -7.802  51.094  55.094  0.00  0.00    +0.000 A 
ATOM     25  H   UNL     1      -7.692  56.049  51.323  0.00  0.00    +0.000 HD
ATOM     26  H   UNL     1     -10.209  53.365  52.904  0.00  0.00    +0.000 HD
ENDBRANCH   1  18
BRANCH   3  27
ATOM     27  O   UNL     1     -11.622  55.495  52.799  0.00  0.00    +0.000 OA
ATOM     28  H   UNL     1     -12.499  55.261  53.032  0.00  0.00    +0.000 HD
ENDBRANCH   3  27
BRANCH   5  29
ATOM     29  C   UNL     1     -10.345  55.710  47.259  0.00  0.00    +0.000 C 
BRANCH  29  30
ATOM     30  C   UNL     1     -10.251  54.363  46.520  0.00  0.00    +0.000 C 
BRANCH  30  31
ATOM     31  C   UNL     1     -11.574  53.750  46.030  0.00  0.00    +0.000 C 
ATOM     32  C   UNL     1     -11.445  53.105  44.652  0.00  0.00    +0.000 C 
ATOM     33  C   UNL     1     -12.036  52.702  47.051  0.00  0.00    +0.000 C 
ENDBRANCH  30  31
ENDBRANCH  29  30
ENDBRANCH   5  29
TORSDOF 5
ENDMDL
MODEL 6
REMARK VINA RESULT:      -7.8      4.509      7.098
REMARK  Name = 338063
REMARK  8 active torsions:
REMARK  status: ('A' for Active; 'I' for Inactive)
REMARK    1  A    between atoms: C_6  and  C_10
REMARK    2  A    between atoms: C_14  and  O_18
REMARK    3  A    between atoms: N_17  and  C_21
REMARK    4  A    between atoms: C_21  and  C_24
REMARK    5  A    between atoms: C_24  and  C_27
REMARK    6  A    between atoms: C_25  and  C_28
REMARK    7  A    between atoms: C_27  and  C_29
REMARK    8  A    between atoms: C_27  and  C_30
REMARK                            x       y       z     vdW  Elec       q    Type
REMARK                         _______ _______ _______ _____ _____    ______ ____
ROOT
ATOM      1  C   UNL     1     -10.783  54.460  48.694  0.00  0.00    +0.000 A 
ATOM      2  C   UNL     1     -10.286  54.027  50.037  0.00  0.00    +0.000 A 
ATOM      3  C   UNL     1     -11.798  55.336  48.602  0.00  0.00    +0.000 A 
ATOM      4  O   UNL     1      -9.281  53.312  50.083  0.00  0.00    +0.000 OA
ATOM      5  N   UNL     1     -10.962  54.461  51.172  0.00  0.00    +0.000 N 
ATOM      6  C   UNL     1     -12.418  55.885  49.815  0.00  0.00    +0.000 A 
ATOM      7  C   UNL     1     -11.978  55.462  51.081  0.00  0.00    +0.000 A 
ATOM      8  C   UNL     1     -13.438  56.851  49.722  0.00  0.00    +0.000 A 
ATOM      9  C   UNL     1     -12.538  56.063  52.219  0.00  0.00    +0.000 A 
ATOM     10  C   UNL     1     -14.019  57.409  50.864  0.00  0.00    +0.000 A 
ATOM     11  C   UNL     1     -13.554  57.013  52.115  0.00  0.00    +0.000 A 
ATOM     12  C   UNL     1     -15.092  58.450  50.759  0.00  0.00    +0.000 C 
ENDROOT
BRANCH   1  18
ATOM     13  S   UNL     1      -8.033  53.969  45.927  0.00  0.00    +0.000 S 
ATOM     14  O   UNL     1      -6.988  53.051  46.334  0.00  0.00    +0.000 OA
ATOM     15  O   UNL     1      -7.704  55.185  45.207  0.00  0.00    +0.000 OA
ATOM     16  N   UNL     1      -8.867  54.384  47.253  0.00  0.00    +0.000 N 
ATOM     17  C   UNL     1      -9.097  53.057  44.870  0.00  0.00    +0.000 A 
ATOM     18  C   UNL     1     -10.077  53.951  47.450  0.00  0.00    +0.000 C 
ATOM     19  C   UNL     1     -10.355  52.731  45.345  0.00  0.00    +0.000 A 
ATOM     20  C   UNL     1      -8.671  52.694  43.589  0.00  0.00    +0.000 A 
ATOM     21  N   UNL     1     -10.766  53.088  46.626  0.00  0.00    +0.000 N 
ATOM     22  C   UNL     1     -11.189  51.954  44.532  0.00  0.00    +0.000 A 
ATOM     23  C   UNL     1      -9.525  51.950  42.778  0.00  0.00    +0.000 A 
ATOM     24  C   UNL     1     -10.779  51.574  43.251  0.00  0.00    +0.000 A 
ATOM     25  H   UNL     1      -8.450  54.974  47.921  0.00  0.00    +0.000 HD
ATOM     26  H   UNL     1     -11.603  52.698  46.967  0.00  0.00    +0.000 HD
ENDBRANCH   1  18
BRANCH   3  27
ATOM     27  O   UNL     1     -12.299  55.828  47.409  0.00  0.00    +0.000 OA
ATOM     28  H   UNL     1     -13.078  56.350  47.407  0.00  0.00    +0.000 HD
ENDBRANCH   3  27
BRANCH   5  29
ATOM     29  C   UNL     1     -10.504  53.959  52.473  0.00  0.00    +0.000 C 
BRANCH  29  30
ATOM     30  C   UNL     1      -9.616  54.914  53.292  0.00  0.00    +0.000 C 
BRANCH  30  31
ATOM     31  C   UNL     1      -8.112  54.906  52.969  0.00  0.00    +0.000 C 
ATOM     32  C   UNL     1      -7.735  55.947  51.918  0.00  0.00    +0.000 C 
ATOM     33  C   UNL     1      -7.331  55.171  54.263  0.00  0.00    +0.000 C 
ENDBRANCH  30  31
ENDBRANCH  29  30
ENDBRANCH   5  29
TORSDOF 5
ENDMDL
MODEL 7
REMARK VINA RESULT:      -7.6      3.128      7.778
REMARK  Name = 338063
REMARK  8 active torsions:
REMARK  status: ('A' for Active; 'I' for Inactive)
REMARK    1  A    between atoms: C_6  and  C_10
REMARK    2  A    between atoms: C_14  and  O_18
REMARK    3  A    between atoms: N_17  and  C_21
REMARK    4  A    between atoms: C_21  and  C_24
REMARK    5  A    between atoms: C_24  and  C_27
REMARK    6  A    between atoms: C_25  and  C_28
REMARK    7  A    between atoms: C_27  and  C_29
REMARK    8  A    between atoms: C_27  and  C_30
REMARK                            x       y       z     vdW  Elec       q    Type
REMARK                         _______ _______ _______ _____ _____    ______ ____
ROOT
ATOM      1  C   UNL     1     -10.180  54.179  51.109  0.00  0.00    +0.000 A 
ATOM      2  C   UNL     1     -10.690  53.907  49.730  0.00  0.00    +0.000 A 
ATOM      3  C   UNL     1     -10.871  54.983  51.935  0.00  0.00    +0.000 A 
ATOM      4  O   UNL     1     -10.091  53.075  49.041  0.00  0.00    +0.000 OA
ATOM      5  N   UNL     1     -11.823  54.582  49.289  0.00  0.00    +0.000 N 
ATOM      6  C   UNL     1     -12.136  55.589  51.499  0.00  0.00    +0.000 A 
ATOM      7  C   UNL     1     -12.608  55.362  50.195  0.00  0.00    +0.000 A 
ATOM      8  C   UNL     1     -12.893  56.379  52.384  0.00  0.00    +0.000 A 
ATOM      9  C   UNL     1     -13.857  55.892  49.833  0.00  0.00    +0.000 A 
ATOM     10  C   UNL     1     -14.115  56.938  51.997  0.00  0.00    +0.000 A 
ATOM     11  C   UNL     1     -14.595  56.680  50.716  0.00  0.00    +0.000 A 
ATOM     12  C   UNL     1     -14.926  57.764  52.949  0.00  0.00    +0.000 C 
ENDROOT
BRANCH   1  18
ATOM     13  S   UNL     1      -7.799  51.747  53.076  0.00  0.00    +0.000 S 
ATOM     14  O   UNL     1      -7.779  50.409  52.517  0.00  0.00    +0.000 OA
ATOM     15  O   UNL     1      -7.821  51.941  54.513  0.00  0.00    +0.000 OA
ATOM     16  N   UNL     1      -9.073  52.524  52.447  0.00  0.00    +0.000 N 
ATOM     17  C   UNL     1      -6.336  52.533  52.506  0.00  0.00    +0.000 A 
ATOM     18  C   UNL     1      -8.917  53.479  51.578  0.00  0.00    +0.000 C 
ATOM     19  C   UNL     1      -6.470  53.539  51.565  0.00  0.00    +0.000 A 
ATOM     20  C   UNL     1      -5.091  52.147  53.009  0.00  0.00    +0.000 A 
ATOM     21  N   UNL     1      -7.714  53.907  51.063  0.00  0.00    +0.000 N 
ATOM     22  C   UNL     1      -5.306  54.132  51.061  0.00  0.00    +0.000 A 
ATOM     23  C   UNL     1      -3.944  52.771  52.523  0.00  0.00    +0.000 A 
ATOM     24  C   UNL     1      -4.050  53.756  51.546  0.00  0.00    +0.000 A 
ATOM     25  H   UNL     1      -9.982  52.270  52.728  0.00  0.00    +0.000 HD
ATOM     26  H   UNL     1      -7.737  54.515  50.288  0.00  0.00    +0.000 HD
ENDBRANCH   1  18
BRANCH   3  27
ATOM     27  O   UNL     1     -10.504  55.261  53.241  0.00  0.00    +0.000 OA
ATOM     28  H   UNL     1     -10.896  54.789  53.950  0.00  0.00    +0.000 HD
ENDBRANCH   3  27
BRANCH   5  29
ATOM     29  C   UNL     1     -12.258  54.358  47.905  0.00  0.00    +0.000 C 
BRANCH  29  30
ATOM     30  C   UNL     1     -11.534  55.184  46.827  0.00  0.00    +0.000 C 
BRANCH  30  31
ATOM     31  C   UNL     1     -10.909  54.401  45.660  0.00  0.00    +0.000 C 
ATOM     32  C   UNL     1      -9.405  54.202  45.830  0.00  0.00    +0.000 C 
ATOM     33  C   UNL     1     -11.604  53.037  45.557  0.00  0.00    +0.000 C 
ENDBRANCH  30  31
ENDBRANCH  29  30
ENDBRANCH   5  29
TORSDOF 5
ENDMDL
MODEL 8
REMARK VINA RESULT:      -7.6      3.308      8.223
REMARK  Name = 338063
REMARK  8 active torsions:
REMARK  status: ('A' for Active; 'I' for Inactive)
REMARK    1  A    between atoms: C_6  and  C_10
REMARK    2  A    between atoms: C_14  and  O_18
REMARK    3  A    between atoms: N_17  and  C_21
REMARK    4  A    between atoms: C_21  and  C_24
REMARK    5  A    between atoms: C_24  and  C_27
REMARK    6  A    between atoms: C_25  and  C_28
REMARK    7  A    between atoms: C_27  and  C_29
REMARK    8  A    between atoms: C_27  and  C_30
REMARK                            x       y       z     vdW  Elec       q    Type
REMARK                         _______ _______ _______ _____ _____    ______ ____
ROOT
ATOM      1  C   UNL     1      -9.694  53.987  50.502  0.00  0.00    +0.000 A 
ATOM      2  C   UNL     1     -10.745  55.033  50.703  0.00  0.00    +0.000 A 
ATOM      3  C   UNL     1      -9.506  53.449  49.285  0.00  0.00    +0.000 A 
ATOM      4  O   UNL     1     -10.812  55.586  51.805  0.00  0.00    +0.000 OA
ATOM      5  N   UNL     1     -11.586  55.351  49.642  0.00  0.00    +0.000 N 
ATOM      6  C   UNL     1     -10.318  53.888  48.143  0.00  0.00    +0.000 A 
ATOM      7  C   UNL     1     -11.327  54.849  48.328  0.00  0.00    +0.000 A 
ATOM      8  C   UNL     1     -10.079  53.372  46.855  0.00  0.00    +0.000 A 
ATOM      9  C   UNL     1     -12.033  55.304  47.204  0.00  0.00    +0.000 A 
ATOM     10  C   UNL     1     -10.819  53.801  45.750  0.00  0.00    +0.000 A 
ATOM     11  C   UNL     1     -11.794  54.779  45.934  0.00  0.00    +0.000 A 
ATOM     12  C   UNL     1     -10.550  53.261  44.378  0.00  0.00    +0.000 C 
ENDROOT
BRANCH   1  18
ATOM     13  S   UNL     1      -6.515  53.646  52.788  0.00  0.00    +0.000 S 
ATOM     14  O   UNL     1      -6.272  54.829  53.591  0.00  0.00    +0.000 OA
ATOM     15  O   UNL     1      -5.411  52.949  52.156  0.00  0.00    +0.000 OA
ATOM     16  N   UNL     1      -7.581  54.043  51.636  0.00  0.00    +0.000 N 
ATOM     17  C   UNL     1      -7.270  52.479  53.861  0.00  0.00    +0.000 A 
ATOM     18  C   UNL     1      -8.805  53.604  51.671  0.00  0.00    +0.000 C 
ATOM     19  C   UNL     1      -8.609  52.192  53.662  0.00  0.00    +0.000 A 
ATOM     20  C   UNL     1      -6.521  51.862  54.866  0.00  0.00    +0.000 A 
ATOM     21  N   UNL     1      -9.349  52.821  52.664  0.00  0.00    +0.000 N 
ATOM     22  C   UNL     1      -9.235  51.307  54.548  0.00  0.00    +0.000 A 
ATOM     23  C   UNL     1      -7.149  50.957  55.719  0.00  0.00    +0.000 A 
ATOM     24  C   UNL     1      -8.505  50.685  55.565  0.00  0.00    +0.000 A 
ATOM     25  H   UNL     1      -7.298  54.626  50.895  0.00  0.00    +0.000 HD
ATOM     26  H   UNL     1     -10.326  52.697  52.668  0.00  0.00    +0.000 HD
ENDBRANCH   1  18
BRANCH   3  27
ATOM     27  O   UNL     1      -8.533  52.508  48.990  0.00  0.00    +0.000 OA
ATOM     28  H   UNL     1      -8.345  52.292  48.097  0.00  0.00    +0.000 HD
ENDBRANCH   3  27
BRANCH   5  29
ATOM     29  C   UNL     1     -12.659  56.321  49.887  0.00  0.00    +0.000 C 
BRANCH  29  30
ATOM     30  C   UNL     1     -13.950  55.759  50.508  0.00  0.00    +0.000 C 
BRANCH  30  31
ATOM     31  C   UNL     1     -15.006  56.785  50.953  0.00  0.00    +0.000 C 
ATOM     32  C   UNL     1     -16.428  56.349  50.606  0.00  0.00    +0.000 C 
ATOM     33  C   UNL     1     -14.883  56.988  52.468  0.00  0.00    +0.000 C 
ENDBRANCH  30  31
ENDBRANCH  29  30
ENDBRANCH   5  29
TORSDOF 5
ENDMDL
MODEL 9
REMARK VINA RESULT:      -7.6      3.539      8.357
REMARK  Name = 338063
REMARK  8 active torsions:
REMARK  status: ('A' for Active; 'I' for Inactive)
REMARK    1  A    between atoms: C_6  and  C_10
REMARK    2  A    between atoms: C_14  and  O_18
REMARK    3  A    between atoms: N_17  and  C_21
REMARK    4  A    between atoms: C_21  and  C_24
REMARK    5  A    between atoms: C_24  and  C_27
REMARK    6  A    between atoms: C_25  and  C_28
REMARK    7  A    between atoms: C_27  and  C_29
REMARK    8  A    between atoms: C_27  and  C_30
REMARK                            x       y       z     vdW  Elec       q    Type
REMARK                         _______ _______ _______ _____ _____    ______ ____
ROOT
ATOM      1  C   UNL     1      -9.467  54.284  49.767  0.00  0.00    +0.000 A 
ATOM      2  C   UNL     1     -10.538  55.328  49.818  0.00  0.00    +0.000 A 
ATOM      3  C   UNL     1      -9.296  53.550  48.654  0.00  0.00    +0.000 A 
ATOM      4  O   UNL     1     -10.591  56.059  50.811  0.00  0.00    +0.000 OA
ATOM      5  N   UNL     1     -11.412  55.444  48.742  0.00  0.00    +0.000 N 
ATOM      6  C   UNL     1     -10.146  53.773  47.477  0.00  0.00    +0.000 A 
ATOM      7  C   UNL     1     -11.173  54.731  47.526  0.00  0.00    +0.000 A 
ATOM      8  C   UNL     1      -9.927  53.050  46.289  0.00  0.00    +0.000 A 
ATOM      9  C   UNL     1     -11.917  54.975  46.361  0.00  0.00    +0.000 A 
ATOM     10  C   UNL     1     -10.705  53.271  45.149  0.00  0.00    +0.000 A 
ATOM     11  C   UNL     1     -11.697  54.247  45.192  0.00  0.00    +0.000 A 
ATOM     12  C   UNL     1     -10.456  52.511  43.881  0.00  0.00    +0.000 C 
ENDROOT
BRANCH   1  18
ATOM     13  S   UNL     1      -8.216  54.015  53.484  0.00  0.00    +0.000 S 
ATOM     14  O   UNL     1      -8.416  52.694  54.047  0.00  0.00    +0.000 OA
ATOM     15  O   UNL     1      -8.480  55.199  54.278  0.00  0.00    +0.000 OA
ATOM     16  N   UNL     1      -9.102  54.112  52.131  0.00  0.00    +0.000 N 
ATOM     17  C   UNL     1      -6.519  54.101  53.039  0.00  0.00    +0.000 A 
ATOM     18  C   UNL     1      -8.540  54.123  50.958  0.00  0.00    +0.000 C 
ATOM     19  C   UNL     1      -6.205  54.102  51.692  0.00  0.00    +0.000 A 
ATOM     20  C   UNL     1      -5.538  54.180  54.031  0.00  0.00    +0.000 A 
ATOM     21  N   UNL     1      -7.190  54.012  50.713  0.00  0.00    +0.000 N 
ATOM     22  C   UNL     1      -4.853  54.112  51.328  0.00  0.00    +0.000 A 
ATOM     23  C   UNL     1      -4.198  54.224  53.653  0.00  0.00    +0.000 A 
ATOM     24  C   UNL     1      -3.855  54.183  52.305  0.00  0.00    +0.000 A 
ATOM     25  H   UNL     1     -10.082  54.164  52.198  0.00  0.00    +0.000 HD
ATOM     26  H   UNL     1      -6.903  53.859  49.783  0.00  0.00    +0.000 HD
ENDBRANCH   1  18
BRANCH   3  27
ATOM     27  O   UNL     1      -8.309  52.592  48.495  0.00  0.00    +0.000 OA
ATOM     28  H   UNL     1      -7.859  52.514  47.676  0.00  0.00    +0.000 HD
ENDBRANCH   3  27
BRANCH   5  29
ATOM     29  C   UNL     1     -12.501  56.421  48.850  0.00  0.00    +0.000 C 
BRANCH  29  30
ATOM     30  C   UNL     1     -13.797  55.919  49.512  0.00  0.00    +0.000 C 
BRANCH  30  31
ATOM     31  C   UNL     1     -14.612  56.953  50.308  0.00  0.00    +0.000 C 
ATOM     32  C   UNL     1     -16.030  56.474  50.608  0.00  0.00    +0.000 C 
ATOM     33  C   UNL     1     -13.877  57.251  51.621  0.00  0.00    +0.000 C 
ENDBRANCH  30  31
ENDBRANCH  29  30
ENDBRANCH   5  29
TORSDOF 5
ENDMDL
