MODEL 1
REMARK VINA RESULT:      -8.4      0.000      0.000
REMARK  Name = 338257
REMARK  6 active torsions:
REMARK  status: ('A' for Active; 'I' for Inactive)
REMARK    1  A    between atoms: C_6  and  C_10
REMARK    2  A    between atoms: C_14  and  O_18
REMARK    3  A    between atoms: N_17  and  C_21
REMARK    4  A    between atoms: C_21  and  C_24
REMARK    5  A    between atoms: C_24  and  C_27
REMARK    6  A    between atoms: C_25  and  N_28
REMARK                            x       y       z     vdW  Elec       q    Type
REMARK                         _______ _______ _______ _____ _____    ______ ____
ROOT
ATOM      1  C   UNL     1     -10.093  54.403  52.280  0.00  0.00    +0.000 A 
ATOM      2  C   UNL     1      -8.716  54.950  52.118  0.00  0.00    +0.000 A 
ATOM      3  C   UNL     1     -10.300  53.309  53.028  0.00  0.00    +0.000 A 
ATOM      4  O   UNL     1      -8.605  55.949  51.403  0.00  0.00    +0.000 OA
ATOM      5  N   UNL     1      -7.652  54.350  52.781  0.00  0.00    +0.000 N 
ATOM      6  C   UNL     1      -9.175  52.663  53.721  0.00  0.00    +0.000 A 
ATOM      7  C   UNL     1      -7.869  53.172  53.580  0.00  0.00    +0.000 A 
ATOM      8  C   UNL     1      -9.413  51.549  54.551  0.00  0.00    +0.000 A 
ATOM      9  C   UNL     1      -6.837  52.519  54.272  0.00  0.00    +0.000 A 
ATOM     10  C   UNL     1      -8.380  50.904  55.227  0.00  0.00    +0.000 A 
ATOM     11  C   UNL     1      -7.097  51.427  55.111  0.00  0.00    +0.000 A 
ENDROOT
BRANCH   1  17
ATOM     12  S   UNL     1     -12.420  55.934  49.506  0.00  0.00    +0.000 S 
ATOM     13  O   UNL     1     -13.321  54.962  48.923  0.00  0.00    +0.000 OA
ATOM     14  O   UNL     1     -11.748  56.907  48.663  0.00  0.00    +0.000 OA
ATOM     15  N   UNL     1     -11.280  55.117  50.321  0.00  0.00    +0.000 N 
ATOM     16  C   UNL     1     -13.370  56.862  50.650  0.00  0.00    +0.000 A 
ATOM     17  C   UNL     1     -11.245  55.138  51.620  0.00  0.00    +0.000 C 
ATOM     18  C   UNL     1     -13.110  56.685  51.999  0.00  0.00    +0.000 A 
ATOM     19  C   UNL     1     -14.339  57.758  50.191  0.00  0.00    +0.000 A 
ATOM     20  N   UNL     1     -12.153  55.775  52.441  0.00  0.00    +0.000 N 
ATOM     21  C   UNL     1     -13.901  57.380  52.921  0.00  0.00    +0.000 A 
ATOM     22  C   UNL     1     -15.094  58.468  51.118  0.00  0.00    +0.000 A 
ATOM     23  C   UNL     1     -14.882  58.273  52.483  0.00  0.00    +0.000 A 
ATOM     24  H   UNL     1     -10.605  54.599  49.825  0.00  0.00    +0.000 HD
ATOM     25  H   UNL     1     -12.121  55.574  53.404  0.00  0.00    +0.000 HD
ENDBRANCH   1  17
BRANCH  10  26
ATOM     26  N   UNL     1      -8.663  49.924  56.182  0.00  0.00    +0.000 N 
ATOM     27  H   UNL     1      -9.512  49.951  56.678  0.00  0.00    +0.000 HD
ATOM     28  H   UNL     1      -8.013  49.206  56.358  0.00  0.00    +0.000 HD
ENDBRANCH  10  26
BRANCH   3  29
ATOM     29  O   UNL     1     -11.539  52.727  53.230  0.00  0.00    +0.000 OA
ATOM     30  H   UNL     1     -12.297  53.267  53.340  0.00  0.00    +0.000 HD
ENDBRANCH   3  29
BRANCH   5  31
ATOM     31  C   UNL     1      -6.280  54.850  52.530  0.00  0.00    +0.000 C 
BRANCH  31  32
ATOM     32  C   UNL     1      -5.494  54.158  51.399  0.00  0.00    +0.000 C 
BRANCH  32  33
ATOM     33  C   UNL     1      -5.482  54.935  50.114  0.00  0.00    +0.000 C 
ATOM     34  C   UNL     1      -6.346  54.598  48.930  0.00  0.00    +0.000 C 
ATOM     35  C   UNL     1      -4.877  54.287  48.896  0.00  0.00    +0.000 C 
ENDBRANCH  32  33
ENDBRANCH  31  32
ENDBRANCH   5  31
TORSDOF 6
ENDMDL
MODEL 2
REMARK VINA RESULT:      -8.0      3.344      4.379
REMARK  Name = 338257
REMARK  6 active torsions:
REMARK  status: ('A' for Active; 'I' for Inactive)
REMARK    1  A    between atoms: C_6  and  C_10
REMARK    2  A    between atoms: C_14  and  O_18
REMARK    3  A    between atoms: N_17  and  C_21
REMARK    4  A    between atoms: C_21  and  C_24
REMARK    5  A    between atoms: C_24  and  C_27
REMARK    6  A    between atoms: C_25  and  N_28
REMARK                            x       y       z     vdW  Elec       q    Type
REMARK                         _______ _______ _______ _____ _____    ______ ____
ROOT
ATOM      1  C   UNL     1     -12.417  54.286  49.953  0.00  0.00    +0.000 A 
ATOM      2  C   UNL     1     -12.136  54.020  48.514  0.00  0.00    +0.000 A 
ATOM      3  C   UNL     1     -11.917  53.477  50.898  0.00  0.00    +0.000 A 
ATOM      4  O   UNL     1     -12.643  54.799  47.704  0.00  0.00    +0.000 OA
ATOM      5  N   UNL     1     -11.317  52.955  48.156  0.00  0.00    +0.000 N 
ATOM      6  C   UNL     1     -11.060  52.342  50.524  0.00  0.00    +0.000 A 
ATOM      7  C   UNL     1     -10.783  52.080  49.168  0.00  0.00    +0.000 A 
ATOM      8  C   UNL     1     -10.493  51.533  51.529  0.00  0.00    +0.000 A 
ATOM      9  C   UNL     1      -9.953  50.988  48.871  0.00  0.00    +0.000 A 
ATOM     10  C   UNL     1      -9.676  50.447  51.222  0.00  0.00    +0.000 A 
ATOM     11  C   UNL     1      -9.379  50.210  49.886  0.00  0.00    +0.000 A 
ENDROOT
BRANCH   1  17
ATOM     12  S   UNL     1     -15.355  56.527  51.292  0.00  0.00    +0.000 S 
ATOM     13  O   UNL     1     -15.325  56.703  52.729  0.00  0.00    +0.000 OA
ATOM     14  O   UNL     1     -16.616  56.292  50.611  0.00  0.00    +0.000 OA
ATOM     15  N   UNL     1     -14.361  55.298  50.927  0.00  0.00    +0.000 N 
ATOM     16  C   UNL     1     -14.702  58.000  50.602  0.00  0.00    +0.000 A 
ATOM     17  C   UNL     1     -13.236  55.512  50.314  0.00  0.00    +0.000 C 
ATOM     18  C   UNL     1     -13.460  57.933  49.994  0.00  0.00    +0.000 A 
ATOM     19  C   UNL     1     -15.437  59.187  50.661  0.00  0.00    +0.000 A 
ATOM     20  N   UNL     1     -12.732  56.746  49.958  0.00  0.00    +0.000 N 
ATOM     21  C   UNL     1     -12.906  59.115  49.489  0.00  0.00    +0.000 A 
ATOM     22  C   UNL     1     -14.890  60.347  50.125  0.00  0.00    +0.000 A 
ATOM     23  C   UNL     1     -13.621  60.315  49.548  0.00  0.00    +0.000 A 
ATOM     24  H   UNL     1     -14.614  54.379  51.173  0.00  0.00    +0.000 HD
ATOM     25  H   UNL     1     -11.796  56.791  49.657  0.00  0.00    +0.000 HD
ENDBRANCH   1  17
BRANCH  10  26
ATOM     26  N   UNL     1      -8.982  49.777  52.233  0.00  0.00    +0.000 N 
ATOM     27  H   UNL     1      -8.002  49.698  52.188  0.00  0.00    +0.000 HD
ATOM     28  H   UNL     1      -9.473  49.384  52.990  0.00  0.00    +0.000 HD
ENDBRANCH  10  26
BRANCH   3  29
ATOM     29  O   UNL     1     -12.128  53.642  52.256  0.00  0.00    +0.000 OA
ATOM     30  H   UNL     1     -11.931  54.462  52.664  0.00  0.00    +0.000 HD
ENDBRANCH   3  29
BRANCH   5  31
ATOM     31  C   UNL     1     -11.129  52.649  46.717  0.00  0.00    +0.000 C 
BRANCH  31  32
ATOM     32  C   UNL     1     -10.233  53.619  45.923  0.00  0.00    +0.000 C 
BRANCH  32  33
ATOM     33  C   UNL     1      -8.943  53.951  46.617  0.00  0.00    +0.000 C 
ATOM     34  C   UNL     1      -8.658  55.286  47.249  0.00  0.00    +0.000 C 
ATOM     35  C   UNL     1      -8.002  54.918  45.947  0.00  0.00    +0.000 C 
ENDBRANCH  32  33
ENDBRANCH  31  32
ENDBRANCH   5  31
TORSDOF 6
ENDMDL
MODEL 3
REMARK VINA RESULT:      -7.9      3.233      7.334
REMARK  Name = 338257
REMARK  6 active torsions:
REMARK  status: ('A' for Active; 'I' for Inactive)
REMARK    1  A    between atoms: C_6  and  C_10
REMARK    2  A    between atoms: C_14  and  O_18
REMARK    3  A    between atoms: N_17  and  C_21
REMARK    4  A    between atoms: C_21  and  C_24
REMARK    5  A    between atoms: C_24  and  C_27
REMARK    6  A    between atoms: C_25  and  N_28
REMARK                            x       y       z     vdW  Elec       q    Type
REMARK                         _______ _______ _______ _____ _____    ______ ____
ROOT
ATOM      1  C   UNL     1     -10.104  55.191  50.908  0.00  0.00    +0.000 A 
ATOM      2  C   UNL     1      -9.727  55.203  49.466  0.00  0.00    +0.000 A 
ATOM      3  C   UNL     1     -11.337  55.558  51.286  0.00  0.00    +0.000 A 
ATOM      4  O   UNL     1      -8.571  54.866  49.200  0.00  0.00    +0.000 OA
ATOM      5  N   UNL     1     -10.672  55.554  48.509  0.00  0.00    +0.000 N 
ATOM      6  C   UNL     1     -12.336  55.943  50.278  0.00  0.00    +0.000 A 
ATOM      7  C   UNL     1     -11.995  55.955  48.911  0.00  0.00    +0.000 A 
ATOM      8  C   UNL     1     -13.647  56.271  50.681  0.00  0.00    +0.000 A 
ATOM      9  C   UNL     1     -12.992  56.323  47.993  0.00  0.00    +0.000 A 
ATOM     10  C   UNL     1     -14.626  56.641  49.763  0.00  0.00    +0.000 A 
ATOM     11  C   UNL     1     -14.295  56.622  48.413  0.00  0.00    +0.000 A 
ENDROOT
BRANCH   1  17
ATOM     12  S   UNL     1      -6.743  54.864  52.920  0.00  0.00    +0.000 S 
ATOM     13  O   UNL     1      -6.602  55.867  53.956  0.00  0.00    +0.000 OA
ATOM     14  O   UNL     1      -5.606  54.507  52.090  0.00  0.00    +0.000 OA
ATOM     15  N   UNL     1      -7.941  55.341  51.937  0.00  0.00    +0.000 N 
ATOM     16  C   UNL     1      -7.233  53.388  53.728  0.00  0.00    +0.000 A 
ATOM     17  C   UNL     1      -9.078  54.711  51.919  0.00  0.00    +0.000 C 
ATOM     18  C   UNL     1      -8.526  52.937  53.521  0.00  0.00    +0.000 A 
ATOM     19  C   UNL     1      -6.326  52.698  54.535  0.00  0.00    +0.000 A 
ATOM     20  N   UNL     1      -9.424  53.646  52.726  0.00  0.00    +0.000 N 
ATOM     21  C   UNL     1      -8.944  51.790  54.205  0.00  0.00    +0.000 A 
ATOM     22  C   UNL     1      -6.744  51.540  55.182  0.00  0.00    +0.000 A 
ATOM     23  C   UNL     1      -8.056  51.091  55.025  0.00  0.00    +0.000 A 
ATOM     24  H   UNL     1      -7.806  56.116  51.345  0.00  0.00    +0.000 HD
ATOM     25  H   UNL     1     -10.368  53.369  52.741  0.00  0.00    +0.000 HD
ENDBRANCH   1  17
BRANCH  10  26
ATOM     26  N   UNL     1     -15.956  56.783  50.166  0.00  0.00    +0.000 N 
ATOM     27  H   UNL     1     -16.572  57.342  49.640  0.00  0.00    +0.000 HD
ATOM     28  H   UNL     1     -16.277  56.323  50.975  0.00  0.00    +0.000 HD
ENDBRANCH  10  26
BRANCH   3  29
ATOM     29  O   UNL     1     -11.774  55.584  52.599  0.00  0.00    +0.000 OA
ATOM     30  H   UNL     1     -11.211  55.909  53.273  0.00  0.00    +0.000 HD
ENDBRANCH   3  29
BRANCH   5  31
ATOM     31  C   UNL     1     -10.250  55.653  47.091  0.00  0.00    +0.000 C 
BRANCH  31  32
ATOM     32  C   UNL     1     -10.110  54.324  46.324  0.00  0.00    +0.000 C 
BRANCH  32  33
ATOM     33  C   UNL     1     -11.291  54.006  45.451  0.00  0.00    +0.000 C 
ATOM     34  C   UNL     1     -11.977  52.668  45.437  0.00  0.00    +0.000 C 
ATOM     35  C   UNL     1     -11.087  53.065  44.293  0.00  0.00    +0.000 C 
ENDBRANCH  32  33
ENDBRANCH  31  32
ENDBRANCH   5  31
TORSDOF 6
ENDMDL
MODEL 4
REMARK VINA RESULT:      -7.9      1.538      2.232
REMARK  Name = 338257
REMARK  6 active torsions:
REMARK  status: ('A' for Active; 'I' for Inactive)
REMARK    1  A    between atoms: C_6  and  C_10
REMARK    2  A    between atoms: C_14  and  O_18
REMARK    3  A    between atoms: N_17  and  C_21
REMARK    4  A    between atoms: C_21  and  C_24
REMARK    5  A    between atoms: C_24  and  C_27
REMARK    6  A    between atoms: C_25  and  N_28
REMARK                            x       y       z     vdW  Elec       q    Type
REMARK                         _______ _______ _______ _____ _____    ______ ____
ROOT
ATOM      1  C   UNL     1     -10.149  54.571  52.119  0.00  0.00    +0.000 A 
ATOM      2  C   UNL     1      -8.750  55.078  52.028  0.00  0.00    +0.000 A 
ATOM      3  C   UNL     1     -10.421  53.469  52.832  0.00  0.00    +0.000 A 
ATOM      4  O   UNL     1      -8.578  56.088  51.341  0.00  0.00    +0.000 OA
ATOM      5  N   UNL     1      -7.735  54.431  52.722  0.00  0.00    +0.000 N 
ATOM      6  C   UNL     1      -9.348  52.773  53.557  0.00  0.00    +0.000 A 
ATOM      7  C   UNL     1      -8.022  53.243  53.484  0.00  0.00    +0.000 A 
ATOM      8  C   UNL     1      -9.655  51.649  54.351  0.00  0.00    +0.000 A 
ATOM      9  C   UNL     1      -7.041  52.543  54.204  0.00  0.00    +0.000 A 
ATOM     10  C   UNL     1      -8.672  50.958  55.056  0.00  0.00    +0.000 A 
ATOM     11  C   UNL     1      -7.370  51.443  55.006  0.00  0.00    +0.000 A 
ENDROOT
BRANCH   1  17
ATOM     12  S   UNL     1     -13.508  56.526  51.526  0.00  0.00    +0.000 S 
ATOM     13  O   UNL     1     -13.448  57.903  51.969  0.00  0.00    +0.000 OA
ATOM     14  O   UNL     1     -14.693  55.726  51.782  0.00  0.00    +0.000 OA
ATOM     15  N   UNL     1     -12.239  55.748  52.172  0.00  0.00    +0.000 N 
ATOM     16  C   UNL     1     -13.316  56.561  49.784  0.00  0.00    +0.000 A 
ATOM     17  C   UNL     1     -11.248  55.356  51.427  0.00  0.00    +0.000 C 
ATOM     18  C   UNL     1     -12.137  56.064  49.254  0.00  0.00    +0.000 A 
ATOM     19  C   UNL     1     -14.341  57.061  48.977  0.00  0.00    +0.000 A 
ATOM     20  N   UNL     1     -11.118  55.584  50.072  0.00  0.00    +0.000 N 
ATOM     21  C   UNL     1     -11.953  56.138  47.868  0.00  0.00    +0.000 A 
ATOM     22  C   UNL     1     -14.158  57.098  47.599  0.00  0.00    +0.000 A 
ATOM     23  C   UNL     1     -12.961  56.646  47.045  0.00  0.00    +0.000 A 
ATOM     24  H   UNL     1     -12.219  55.569  53.140  0.00  0.00    +0.000 HD
ATOM     25  H   UNL     1     -10.247  55.393  49.657  0.00  0.00    +0.000 HD
ENDBRANCH   1  17
BRANCH  10  26
ATOM     26  N   UNL     1      -9.026  49.967  55.975  0.00  0.00    +0.000 N 
ATOM     27  H   UNL     1      -8.325  49.468  56.454  0.00  0.00    +0.000 HD
ATOM     28  H   UNL     1      -9.975  49.767  56.142  0.00  0.00    +0.000 HD
ENDBRANCH  10  26
BRANCH   3  29
ATOM     29  O   UNL     1     -11.685  52.922  52.969  0.00  0.00    +0.000 OA
ATOM     30  H   UNL     1     -11.840  52.033  52.716  0.00  0.00    +0.000 HD
ENDBRANCH   3  29
BRANCH   5  31
ATOM     31  C   UNL     1      -6.338  54.893  52.541  0.00  0.00    +0.000 C 
BRANCH  31  32
ATOM     32  C   UNL     1      -5.522  54.194  51.436  0.00  0.00    +0.000 C 
BRANCH  32  33
ATOM     33  C   UNL     1      -5.484  54.958  50.143  0.00  0.00    +0.000 C 
ATOM     34  C   UNL     1      -6.299  54.588  48.934  0.00  0.00    +0.000 C 
ATOM     35  C   UNL     1      -4.822  54.312  48.954  0.00  0.00    +0.000 C 
ENDBRANCH  32  33
ENDBRANCH  31  32
ENDBRANCH   5  31
TORSDOF 6
ENDMDL
MODEL 5
REMARK VINA RESULT:      -7.9      3.453      5.440
REMARK  Name = 338257
REMARK  6 active torsions:
REMARK  status: ('A' for Active; 'I' for Inactive)
REMARK    1  A    between atoms: C_6  and  C_10
REMARK    2  A    between atoms: C_14  and  O_18
REMARK    3  A    between atoms: N_17  and  C_21
REMARK    4  A    between atoms: C_21  and  C_24
REMARK    5  A    between atoms: C_24  and  C_27
REMARK    6  A    between atoms: C_25  and  N_28
REMARK                            x       y       z     vdW  Elec       q    Type
REMARK                         _______ _______ _______ _____ _____    ______ ____
ROOT
ATOM      1  C   UNL     1     -11.635  55.931  48.726  0.00  0.00    +0.000 A 
ATOM      2  C   UNL     1     -10.558  55.319  49.555  0.00  0.00    +0.000 A 
ATOM      3  C   UNL     1     -11.776  55.582  47.439  0.00  0.00    +0.000 A 
ATOM      4  O   UNL     1     -10.483  55.703  50.725  0.00  0.00    +0.000 OA
ATOM      5  N   UNL     1      -9.727  54.352  49.002  0.00  0.00    +0.000 N 
ATOM      6  C   UNL     1     -10.891  54.569  46.846  0.00  0.00    +0.000 A 
ATOM      7  C   UNL     1      -9.870  53.979  47.618  0.00  0.00    +0.000 A 
ATOM      8  C   UNL     1     -11.085  54.167  45.508  0.00  0.00    +0.000 A 
ATOM      9  C   UNL     1      -9.062  53.012  47.001  0.00  0.00    +0.000 A 
ATOM     10  C   UNL     1     -10.272  53.211  44.905  0.00  0.00    +0.000 A 
ATOM     11  C   UNL     1      -9.286  52.609  45.678  0.00  0.00    +0.000 A 
ENDROOT
BRANCH   1  17
ATOM     12  S   UNL     1     -13.597  59.246  49.511  0.00  0.00    +0.000 S 
ATOM     13  O   UNL     1     -14.738  59.448  48.643  0.00  0.00    +0.000 OA
ATOM     14  O   UNL     1     -12.732  60.361  49.853  0.00  0.00    +0.000 OA
ATOM     15  N   UNL     1     -12.673  58.091  48.845  0.00  0.00    +0.000 N 
ATOM     16  C   UNL     1     -14.234  58.647  51.030  0.00  0.00    +0.000 A 
ATOM     17  C   UNL     1     -12.585  56.913  49.387  0.00  0.00    +0.000 C 
ATOM     18  C   UNL     1     -13.978  57.328  51.363  0.00  0.00    +0.000 A 
ATOM     19  C   UNL     1     -14.959  59.497  51.869  0.00  0.00    +0.000 A 
ATOM     20  N   UNL     1     -13.268  56.488  50.508  0.00  0.00    +0.000 N 
ATOM     21  C   UNL     1     -14.529  56.825  52.548  0.00  0.00    +0.000 A 
ATOM     22  C   UNL     1     -15.472  58.994  53.060  0.00  0.00    +0.000 A 
ATOM     23  C   UNL     1     -15.266  57.656  53.395  0.00  0.00    +0.000 A 
ATOM     24  H   UNL     1     -12.172  58.284  48.020  0.00  0.00    +0.000 HD
ATOM     25  H   UNL     1     -13.252  55.526  50.718  0.00  0.00    +0.000 HD
ENDBRANCH   1  17
BRANCH  10  26
ATOM     26  N   UNL     1     -10.597  52.700  43.646  0.00  0.00    +0.000 N 
ATOM     27  H   UNL     1     -11.283  51.999  43.561  0.00  0.00    +0.000 HD
ATOM     28  H   UNL     1     -10.140  53.041  42.843  0.00  0.00    +0.000 HD
ENDBRANCH  10  26
BRANCH   3  29
ATOM     29  O   UNL     1     -12.741  56.100  46.593  0.00  0.00    +0.000 OA
ATOM     30  H   UNL     1     -13.647  56.030  46.819  0.00  0.00    +0.000 HD
ENDBRANCH   3  29
BRANCH   5  31
ATOM     31  C   UNL     1      -8.602  53.827  49.813  0.00  0.00    +0.000 C 
BRANCH  31  32
ATOM     32  C   UNL     1      -7.449  54.809  50.101  0.00  0.00    +0.000 C 
BRANCH  32  33
ATOM     33  C   UNL     1      -6.481  54.950  48.962  0.00  0.00    +0.000 C 
ATOM     34  C   UNL     1      -5.637  53.819  48.443  0.00  0.00    +0.000 C 
ATOM     35  C   UNL     1      -5.007  54.903  49.270  0.00  0.00    +0.000 C 
ENDBRANCH  32  33
ENDBRANCH  31  32
ENDBRANCH   5  31
TORSDOF 6
ENDMDL
MODEL 6
REMARK VINA RESULT:      -7.9      4.370      6.011
REMARK  Name = 338257
REMARK  6 active torsions:
REMARK  status: ('A' for Active; 'I' for Inactive)
REMARK    1  A    between atoms: C_6  and  C_10
REMARK    2  A    between atoms: C_14  and  O_18
REMARK    3  A    between atoms: N_17  and  C_21
REMARK    4  A    between atoms: C_21  and  C_24
REMARK    5  A    between atoms: C_24  and  C_27
REMARK    6  A    between atoms: C_25  and  N_28
REMARK                            x       y       z     vdW  Elec       q    Type
REMARK                         _______ _______ _______ _____ _____    ______ ____
ROOT
ATOM      1  C   UNL     1     -11.420  56.282  48.493  0.00  0.00    +0.000 A 
ATOM      2  C   UNL     1     -11.836  55.616  47.227  0.00  0.00    +0.000 A 
ATOM      3  C   UNL     1     -10.166  56.142  48.948  0.00  0.00    +0.000 A 
ATOM      4  O   UNL     1     -13.009  55.779  46.882  0.00  0.00    +0.000 OA
ATOM      5  N   UNL     1     -10.908  54.885  46.494  0.00  0.00    +0.000 N 
ATOM      6  C   UNL     1      -9.185  55.359  48.182  0.00  0.00    +0.000 A 
ATOM      7  C   UNL     1      -9.563  54.727  46.982  0.00  0.00    +0.000 A 
ATOM      8  C   UNL     1      -7.854  55.267  48.640  0.00  0.00    +0.000 A 
ATOM      9  C   UNL     1      -8.581  54.000  46.290  0.00  0.00    +0.000 A 
ATOM     10  C   UNL     1      -6.890  54.538  47.949  0.00  0.00    +0.000 A 
ATOM     11  C   UNL     1      -7.258  53.941  46.748  0.00  0.00    +0.000 A 
ENDROOT
BRANCH   1  17
ATOM     12  S   UNL     1     -13.633  59.381  49.470  0.00  0.00    +0.000 S 
ATOM     13  O   UNL     1     -14.810  59.521  48.638  0.00  0.00    +0.000 OA
ATOM     14  O   UNL     1     -12.855  60.550  49.840  0.00  0.00    +0.000 OA
ATOM     15  N   UNL     1     -12.633  58.338  48.731  0.00  0.00    +0.000 N 
ATOM     16  C   UNL     1     -14.176  58.666  50.975  0.00  0.00    +0.000 A 
ATOM     17  C   UNL     1     -12.432  57.150  49.219  0.00  0.00    +0.000 C 
ATOM     18  C   UNL     1     -13.801  57.361  51.243  0.00  0.00    +0.000 A 
ATOM     19  C   UNL     1     -14.947  59.416  51.867  0.00  0.00    +0.000 A 
ATOM     20  N   UNL     1     -13.046  56.621  50.335  0.00  0.00    +0.000 N 
ATOM     21  C   UNL     1     -14.276  56.763  52.416  0.00  0.00    +0.000 A 
ATOM     22  C   UNL     1     -15.384  58.821  53.046  0.00  0.00    +0.000 A 
ATOM     23  C   UNL     1     -15.057  57.492  53.317  0.00  0.00    +0.000 A 
ATOM     24  H   UNL     1     -12.172  58.608  47.904  0.00  0.00    +0.000 HD
ATOM     25  H   UNL     1     -12.943  55.656  50.502  0.00  0.00    +0.000 HD
ENDBRANCH   1  17
BRANCH  10  26
ATOM     26  N   UNL     1      -5.545  54.612  48.321  0.00  0.00    +0.000 N 
ATOM     27  H   UNL     1      -4.869  54.903  47.667  0.00  0.00    +0.000 HD
ATOM     28  H   UNL     1      -5.274  54.375  49.237  0.00  0.00    +0.000 HD
ENDBRANCH  10  26
BRANCH   3  29
ATOM     29  O   UNL     1      -9.692  56.717  50.114  0.00  0.00    +0.000 OA
ATOM     30  H   UNL     1      -9.899  56.333  50.943  0.00  0.00    +0.000 HD
ENDBRANCH   3  29
BRANCH   5  31
ATOM     31  C   UNL     1     -11.366  54.151  45.289  0.00  0.00    +0.000 C 
BRANCH  31  32
ATOM     32  C   UNL     1     -11.509  52.624  45.431  0.00  0.00    +0.000 C 
BRANCH  32  33
ATOM     33  C   UNL     1     -12.501  52.208  46.480  0.00  0.00    +0.000 C 
ATOM     34  C   UNL     1     -12.118  51.839  47.886  0.00  0.00    +0.000 C 
ATOM     35  C   UNL     1     -12.516  50.765  46.913  0.00  0.00    +0.000 C 
ENDBRANCH  32  33
ENDBRANCH  31  32
ENDBRANCH   5  31
TORSDOF 6
ENDMDL
MODEL 7
REMARK VINA RESULT:      -7.7      3.323      5.782
REMARK  Name = 338257
REMARK  6 active torsions:
REMARK  status: ('A' for Active; 'I' for Inactive)
REMARK    1  A    between atoms: C_6  and  C_10
REMARK    2  A    between atoms: C_14  and  O_18
REMARK    3  A    between atoms: N_17  and  C_21
REMARK    4  A    between atoms: C_21  and  C_24
REMARK    5  A    between atoms: C_24  and  C_27
REMARK    6  A    between atoms: C_25  and  N_28
REMARK                            x       y       z     vdW  Elec       q    Type
REMARK                         _______ _______ _______ _____ _____    ______ ____
ROOT
ATOM      1  C   UNL     1     -10.787  55.613  48.260  0.00  0.00    +0.000 A 
ATOM      2  C   UNL     1      -9.347  55.534  48.636  0.00  0.00    +0.000 A 
ATOM      3  C   UNL     1     -11.214  55.077  47.107  0.00  0.00    +0.000 A 
ATOM      4  O   UNL     1      -9.030  56.063  49.704  0.00  0.00    +0.000 OA
ATOM      5  N   UNL     1      -8.454  54.863  47.808  0.00  0.00    +0.000 N 
ATOM      6  C   UNL     1     -10.270  54.378  46.223  0.00  0.00    +0.000 A 
ATOM      7  C   UNL     1      -8.907  54.292  46.567  0.00  0.00    +0.000 A 
ATOM      8  C   UNL     1     -10.740  53.767  45.042  0.00  0.00    +0.000 A 
ATOM      9  C   UNL     1      -8.054  53.605  45.688  0.00  0.00    +0.000 A 
ATOM     10  C   UNL     1      -9.884  53.095  44.174  0.00  0.00    +0.000 A 
ATOM     11  C   UNL     1      -8.545  52.984  44.531  0.00  0.00    +0.000 A 
ENDROOT
BRANCH   1  17
ATOM     12  S   UNL     1     -13.226  56.119  51.302  0.00  0.00    +0.000 S 
ATOM     13  O   UNL     1     -12.532  56.376  52.547  0.00  0.00    +0.000 OA
ATOM     14  O   UNL     1     -14.374  55.230  51.274  0.00  0.00    +0.000 OA
ATOM     15  N   UNL     1     -12.136  55.550  50.244  0.00  0.00    +0.000 N 
ATOM     16  C   UNL     1     -13.804  57.672  50.731  0.00  0.00    +0.000 A 
ATOM     17  C   UNL     1     -11.752  56.269  49.231  0.00  0.00    +0.000 C 
ATOM     18  C   UNL     1     -13.204  58.210  49.605  0.00  0.00    +0.000 A 
ATOM     19  C   UNL     1     -14.849  58.317  51.397  0.00  0.00    +0.000 A 
ATOM     20  N   UNL     1     -12.152  57.562  48.962  0.00  0.00    +0.000 N 
ATOM     21  C   UNL     1     -13.621  59.475  49.174  0.00  0.00    +0.000 A 
ATOM     22  C   UNL     1     -15.277  59.558  50.937  0.00  0.00    +0.000 A 
ATOM     23  C   UNL     1     -14.657  60.142  49.832  0.00  0.00    +0.000 A 
ATOM     24  H   UNL     1     -11.761  54.648  50.369  0.00  0.00    +0.000 HD
ATOM     25  H   UNL     1     -11.661  58.059  48.269  0.00  0.00    +0.000 HD
ENDBRANCH   1  17
BRANCH  10  26
ATOM     26  N   UNL     1     -10.399  52.346  43.112  0.00  0.00    +0.000 N 
ATOM     27  H   UNL     1     -11.232  51.835  43.228  0.00  0.00    +0.000 HD
ATOM     28  H   UNL     1      -9.928  52.330  42.247  0.00  0.00    +0.000 HD
ENDBRANCH  10  26
BRANCH   3  29
ATOM     29  O   UNL     1     -12.528  55.107  46.674  0.00  0.00    +0.000 OA
ATOM     30  H   UNL     1     -13.055  55.865  46.830  0.00  0.00    +0.000 HD
ENDBRANCH   3  29
BRANCH   5  31
ATOM     31  C   UNL     1      -7.012  54.879  48.151  0.00  0.00    +0.000 C 
BRANCH  31  32
ATOM     32  C   UNL     1      -6.538  53.823  49.168  0.00  0.00    +0.000 C 
BRANCH  32  33
ATOM     33  C   UNL     1      -5.866  54.410  50.376  0.00  0.00    +0.000 C 
ATOM     34  C   UNL     1      -4.537  53.939  50.901  0.00  0.00    +0.000 C 
ATOM     35  C   UNL     1      -5.801  53.578  51.630  0.00  0.00    +0.000 C 
ENDBRANCH  32  33
ENDBRANCH  31  32
ENDBRANCH   5  31
TORSDOF 6
ENDMDL
MODEL 8
REMARK VINA RESULT:      -7.7      3.231      7.258
REMARK  Name = 338257
REMARK  6 active torsions:
REMARK  status: ('A' for Active; 'I' for Inactive)
REMARK    1  A    between atoms: C_6  and  C_10
REMARK    2  A    between atoms: C_14  and  O_18
REMARK    3  A    between atoms: N_17  and  C_21
REMARK    4  A    between atoms: C_21  and  C_24
REMARK    5  A    between atoms: C_24  and  C_27
REMARK    6  A    between atoms: C_25  and  N_28
REMARK                            x       y       z     vdW  Elec       q    Type
REMARK                         _______ _______ _______ _____ _____    ______ ____
ROOT
ATOM      1  C   UNL     1     -10.116  55.172  50.544  0.00  0.00    +0.000 A 
ATOM      2  C   UNL     1     -10.314  55.345  49.077  0.00  0.00    +0.000 A 
ATOM      3  C   UNL     1     -11.109  55.462  51.397  0.00  0.00    +0.000 A 
ATOM      4  O   UNL     1      -9.350  55.071  48.358  0.00  0.00    +0.000 OA
ATOM      5  N   UNL     1     -11.547  55.766  48.592  0.00  0.00    +0.000 N 
ATOM      6  C   UNL     1     -12.410  55.921  50.889  0.00  0.00    +0.000 A 
ATOM      7  C   UNL     1     -12.613  56.085  49.505  0.00  0.00    +0.000 A 
ATOM      8  C   UNL     1     -13.466  56.167  51.792  0.00  0.00    +0.000 A 
ATOM      9  C   UNL     1     -13.879  56.517  49.078  0.00  0.00    +0.000 A 
ATOM     10  C   UNL     1     -14.715  56.603  51.357  0.00  0.00    +0.000 A 
ATOM     11  C   UNL     1     -14.922  56.734  49.989  0.00  0.00    +0.000 A 
ENDROOT
BRANCH   1  17
ATOM     12  S   UNL     1      -7.045  52.765  51.025  0.00  0.00    +0.000 S 
ATOM     13  O   UNL     1      -6.075  52.864  49.955  0.00  0.00    +0.000 OA
ATOM     14  O   UNL     1      -7.410  51.467  51.564  0.00  0.00    +0.000 OA
ATOM     15  N   UNL     1      -8.407  53.488  50.520  0.00  0.00    +0.000 N 
ATOM     16  C   UNL     1      -6.391  53.679  52.370  0.00  0.00    +0.000 A 
ATOM     17  C   UNL     1      -8.790  54.619  51.033  0.00  0.00    +0.000 C 
ATOM     18  C   UNL     1      -7.014  54.868  52.707  0.00  0.00    +0.000 A 
ATOM     19  C   UNL     1      -5.286  53.193  53.074  0.00  0.00    +0.000 A 
ATOM     20  N   UNL     1      -8.104  55.347  51.984  0.00  0.00    +0.000 N 
ATOM     21  C   UNL     1      -6.465  55.632  53.744  0.00  0.00    +0.000 A 
ATOM     22  C   UNL     1      -4.772  53.946  54.124  0.00  0.00    +0.000 A 
ATOM     23  C   UNL     1      -5.355  55.170  54.454  0.00  0.00    +0.000 A 
ATOM     24  H   UNL     1      -8.950  53.066  49.816  0.00  0.00    +0.000 HD
ATOM     25  H   UNL     1      -8.407  56.267  52.164  0.00  0.00    +0.000 HD
ENDBRANCH   1  17
BRANCH  10  26
ATOM     26  N   UNL     1     -15.791  56.663  52.247  0.00  0.00    +0.000 N 
ATOM     27  H   UNL     1     -16.222  57.527  52.440  0.00  0.00    +0.000 HD
ATOM     28  H   UNL     1     -16.119  55.842  52.680  0.00  0.00    +0.000 HD
ENDBRANCH  10  26
BRANCH   3  29
ATOM     29  O   UNL     1     -11.015  55.338  52.772  0.00  0.00    +0.000 OA
ATOM     30  H   UNL     1     -10.312  55.752  53.233  0.00  0.00    +0.000 HD
ENDBRANCH   3  29
BRANCH   5  31
ATOM     31  C   UNL     1     -11.693  56.025  47.139  0.00  0.00    +0.000 C 
BRANCH  31  32
ATOM     32  C   UNL     1     -12.116  54.825  46.270  0.00  0.00    +0.000 C 
BRANCH  32  33
ATOM     33  C   UNL     1     -10.977  54.195  45.521  0.00  0.00    +0.000 C 
ATOM     34  C   UNL     1     -11.152  53.086  44.520  0.00  0.00    +0.000 C 
ATOM     35  C   UNL     1     -10.583  52.785  45.878  0.00  0.00    +0.000 C 
ENDBRANCH  32  33
ENDBRANCH  31  32
ENDBRANCH   5  31
TORSDOF 6
ENDMDL
MODEL 9
REMARK VINA RESULT:      -7.7      3.976      5.864
REMARK  Name = 338257
REMARK  6 active torsions:
REMARK  status: ('A' for Active; 'I' for Inactive)
REMARK    1  A    between atoms: C_6  and  C_10
REMARK    2  A    between atoms: C_14  and  O_18
REMARK    3  A    between atoms: N_17  and  C_21
REMARK    4  A    between atoms: C_21  and  C_24
REMARK    5  A    between atoms: C_24  and  C_27
REMARK    6  A    between atoms: C_25  and  N_28
REMARK                            x       y       z     vdW  Elec       q    Type
REMARK                         _______ _______ _______ _____ _____    ______ ____
ROOT
ATOM      1  C   UNL     1     -10.678  55.703  48.787  0.00  0.00    +0.000 A 
ATOM      2  C   UNL     1     -11.028  55.174  47.438  0.00  0.00    +0.000 A 
ATOM      3  C   UNL     1      -9.425  55.588  49.251  0.00  0.00    +0.000 A 
ATOM      4  O   UNL     1     -12.204  55.304  47.088  0.00  0.00    +0.000 OA
ATOM      5  N   UNL     1     -10.042  54.599  46.645  0.00  0.00    +0.000 N 
ATOM      6  C   UNL     1      -8.382  54.970  48.420  0.00  0.00    +0.000 A 
ATOM      7  C   UNL     1      -8.697  54.469  47.142  0.00  0.00    +0.000 A 
ATOM      8  C   UNL     1      -7.055  54.907  48.896  0.00  0.00    +0.000 A 
ATOM      9  C   UNL     1      -7.658  53.897  46.391  0.00  0.00    +0.000 A 
ATOM     10  C   UNL     1      -6.034  54.331  48.144  0.00  0.00    +0.000 A 
ATOM     11  C   UNL     1      -6.342  53.866  46.871  0.00  0.00    +0.000 A 
ENDROOT
BRANCH   1  17
ATOM     12  S   UNL     1     -13.494  56.366  51.448  0.00  0.00    +0.000 S 
ATOM     13  O   UNL     1     -12.970  56.680  52.761  0.00  0.00    +0.000 OA
ATOM     14  O   UNL     1     -14.638  55.482  51.310  0.00  0.00    +0.000 OA
ATOM     15  N   UNL     1     -12.279  55.741  50.573  0.00  0.00    +0.000 N 
ATOM     16  C   UNL     1     -13.974  57.892  50.732  0.00  0.00    +0.000 A 
ATOM     17  C   UNL     1     -11.757  56.409  49.588  0.00  0.00    +0.000 C 
ATOM     18  C   UNL     1     -13.224  58.372  49.672  0.00  0.00    +0.000 A 
ATOM     19  C   UNL     1     -15.092  58.573  51.221  0.00  0.00    +0.000 A 
ATOM     20  N   UNL     1     -12.103  57.689  49.207  0.00  0.00    +0.000 N 
ATOM     21  C   UNL     1     -13.567  59.616  49.129  0.00  0.00    +0.000 A 
ATOM     22  C   UNL     1     -15.442  59.792  50.650  0.00  0.00    +0.000 A 
ATOM     23  C   UNL     1     -14.674  60.319  49.611  0.00  0.00    +0.000 A 
ATOM     24  H   UNL     1     -11.934  54.845  50.790  0.00  0.00    +0.000 HD
ATOM     25  H   UNL     1     -11.519  58.150  48.563  0.00  0.00    +0.000 HD
ENDBRANCH   1  17
BRANCH  10  26
ATOM     26  N   UNL     1      -4.703  54.445  48.556  0.00  0.00    +0.000 N 
ATOM     27  H   UNL     1      -4.399  53.982  49.369  0.00  0.00    +0.000 HD
ATOM     28  H   UNL     1      -4.071  54.987  48.031  0.00  0.00    +0.000 HD
ENDBRANCH  10  26
BRANCH   3  29
ATOM     29  O   UNL     1      -9.010  56.043  50.490  0.00  0.00    +0.000 OA
ATOM     30  H   UNL     1      -8.442  55.516  51.017  0.00  0.00    +0.000 HD
ENDBRANCH   3  29
BRANCH   5  31
ATOM     31  C   UNL     1     -10.430  53.993  45.349  0.00  0.00    +0.000 C 
BRANCH  31  32
ATOM     32  C   UNL     1     -10.580  52.460  45.327  0.00  0.00    +0.000 C 
BRANCH  32  33
ATOM     33  C   UNL     1     -11.985  51.989  45.572  0.00  0.00    +0.000 C 
ATOM     34  C   UNL     1     -12.509  51.606  46.929  0.00  0.00    +0.000 C 
ATOM     35  C   UNL     1     -12.200  50.539  45.917  0.00  0.00    +0.000 C 
ENDBRANCH  32  33
ENDBRANCH  31  32
ENDBRANCH   5  31
TORSDOF 6
ENDMDL
