MODEL 1
REMARK VINA RESULT:      -7.9      0.000      0.000
REMARK  Name = 338498
REMARK  9 active torsions:
REMARK  status: ('A' for Active; 'I' for Inactive)
REMARK    1  A    between atoms: C_6  and  C_10
REMARK    2  A    between atoms: C_14  and  O_18
REMARK    3  A    between atoms: N_17  and  C_21
REMARK    4  A    between atoms: C_21  and  C_24
REMARK    5  A    between atoms: C_24  and  C_27
REMARK    6  A    between atoms: C_26  and  C_28
REMARK    7  A    between atoms: C_27  and  C_29
REMARK    8  A    between atoms: C_27  and  C_30
REMARK    9  A    between atoms: C_31  and  C_32
REMARK                            x       y       z     vdW  Elec       q    Type
REMARK                         _______ _______ _______ _____ _____    ______ ____
ROOT
ATOM      1  C   UNL     1     -10.863  54.887  48.343  0.00  0.00    +0.000 A 
ATOM      2  C   UNL     1     -10.321  54.768  49.730  0.00  0.00    +0.000 A 
ATOM      3  C   UNL     1     -11.999  55.569  48.120  0.00  0.00    +0.000 A 
ATOM      4  O   UNL     1      -9.233  54.204  49.889  0.00  0.00    +0.000 OA
ATOM      5  N   UNL     1     -11.052  55.307  50.782  0.00  0.00    +0.000 N 
ATOM      6  C   UNL     1     -12.762  56.124  49.240  0.00  0.00    +0.000 A 
ATOM      7  C   UNL     1     -12.293  55.984  50.557  0.00  0.00    +0.000 A 
ATOM      8  C   UNL     1     -13.991  56.755  49.003  0.00  0.00    +0.000 A 
ATOM      9  C   UNL     1     -13.064  56.515  51.607  0.00  0.00    +0.000 A 
ATOM     10  C   UNL     1     -14.753  57.253  50.054  0.00  0.00    +0.000 A 
ATOM     11  C   UNL     1     -14.285  57.165  51.365  0.00  0.00    +0.000 A 
ENDROOT
BRANCH   1  17
ATOM     12  S   UNL     1      -8.004  54.186  45.747  0.00  0.00    +0.000 S 
ATOM     13  O   UNL     1      -6.962  53.335  46.288  0.00  0.00    +0.000 OA
ATOM     14  O   UNL     1      -7.661  55.332  44.926  0.00  0.00    +0.000 OA
ATOM     15  N   UNL     1      -8.900  54.712  46.987  0.00  0.00    +0.000 N 
ATOM     16  C   UNL     1      -9.010  53.156  44.747  0.00  0.00    +0.000 A 
ATOM     17  C   UNL     1     -10.107  54.265  47.188  0.00  0.00    +0.000 C 
ATOM     18  C   UNL     1     -10.280  52.845  45.208  0.00  0.00    +0.000 A 
ATOM     19  C   UNL     1      -8.530  52.689  43.521  0.00  0.00    +0.000 A 
ATOM     20  N   UNL     1     -10.745  53.308  46.435  0.00  0.00    +0.000 N 
ATOM     21  C   UNL     1     -11.069  51.983  44.441  0.00  0.00    +0.000 A 
ATOM     22  C   UNL     1      -9.339  51.859  42.752  0.00  0.00    +0.000 A 
ATOM     23  C   UNL     1     -10.604  51.499  43.215  0.00  0.00    +0.000 A 
ATOM     24  H   UNL     1      -8.525  55.382  47.603  0.00  0.00    +0.000 HD
ATOM     25  H   UNL     1     -11.581  52.927  46.787  0.00  0.00    +0.000 HD
ENDBRANCH   1  17
BRANCH   3  26
ATOM     26  O   UNL     1     -12.548  55.797  46.870  0.00  0.00    +0.000 OA
ATOM     27  H   UNL     1     -12.669  56.675  46.564  0.00  0.00    +0.000 HD
ENDBRANCH   3  26
BRANCH  11  28
ATOM     28  C   UNL     1     -15.048  57.701  52.500  0.00  0.00    +0.000 C 
ATOM     29  C   UNL     1     -15.146  59.013  52.766  0.00  0.00    +0.000 C 
BRANCH  29  30
ATOM     30  C   UNL     1     -15.901  59.483  53.943  0.00  0.00    +0.000 C 
ATOM     31  O   UNL     1     -16.498  60.548  53.996  0.00  0.00    +0.000 OA
ATOM     32  N   UNL     1     -15.879  58.607  54.984  0.00  0.00    +0.000 N 
ATOM     33  H   UNL     1     -15.387  57.759  54.902  0.00  0.00    +0.000 HD
ATOM     34  H   UNL     1     -16.355  58.823  55.818  0.00  0.00    +0.000 HD
ENDBRANCH  29  30
ENDBRANCH  11  28
BRANCH   5  35
ATOM     35  C   UNL     1     -10.539  55.099  52.143  0.00  0.00    +0.000 C 
BRANCH  35  36
ATOM     36  C   UNL     1     -10.945  53.728  52.704  0.00  0.00    +0.000 C 
BRANCH  36  37
ATOM     37  C   UNL     1      -9.792  52.947  53.365  0.00  0.00    +0.000 C 
ATOM     38  C   UNL     1      -9.468  51.644  52.632  0.00  0.00    +0.000 C 
ATOM     39  C   UNL     1      -8.539  53.826  53.417  0.00  0.00    +0.000 C 
ENDBRANCH  36  37
ENDBRANCH  35  36
ENDBRANCH   5  35
TORSDOF 7
ENDMDL
MODEL 2
REMARK VINA RESULT:      -7.8      2.844      8.815
REMARK  Name = 338498
REMARK  9 active torsions:
REMARK  status: ('A' for Active; 'I' for Inactive)
REMARK    1  A    between atoms: C_6  and  C_10
REMARK    2  A    between atoms: C_14  and  O_18
REMARK    3  A    between atoms: N_17  and  C_21
REMARK    4  A    between atoms: C_21  and  C_24
REMARK    5  A    between atoms: C_24  and  C_27
REMARK    6  A    between atoms: C_26  and  C_28
REMARK    7  A    between atoms: C_27  and  C_29
REMARK    8  A    between atoms: C_27  and  C_30
REMARK    9  A    between atoms: C_31  and  C_32
REMARK                            x       y       z     vdW  Elec       q    Type
REMARK                         _______ _______ _______ _____ _____    ______ ____
ROOT
ATOM      1  C   UNL     1     -11.658  55.902  48.776  0.00  0.00    +0.000 A 
ATOM      2  C   UNL     1     -10.528  55.338  49.575  0.00  0.00    +0.000 A 
ATOM      3  C   UNL     1     -11.851  55.504  47.508  0.00  0.00    +0.000 A 
ATOM      4  O   UNL     1     -10.427  55.664  50.762  0.00  0.00    +0.000 OA
ATOM      5  N   UNL     1      -9.646  54.459  48.957  0.00  0.00    +0.000 N 
ATOM      6  C   UNL     1     -10.908  54.584  46.868  0.00  0.00    +0.000 A 
ATOM      7  C   UNL     1      -9.813  54.077  47.587  0.00  0.00    +0.000 A 
ATOM      8  C   UNL     1     -11.070  54.246  45.517  0.00  0.00    +0.000 A 
ATOM      9  C   UNL     1      -8.919  53.210  46.931  0.00  0.00    +0.000 A 
ATOM     10  C   UNL     1     -10.164  53.408  44.877  0.00  0.00    +0.000 A 
ATOM     11  C   UNL     1      -9.095  52.857  45.584  0.00  0.00    +0.000 A 
ENDROOT
BRANCH   1  17
ATOM     12  S   UNL     1     -13.573  59.255  49.475  0.00  0.00    +0.000 S 
ATOM     13  O   UNL     1     -14.713  59.435  48.597  0.00  0.00    +0.000 OA
ATOM     14  O   UNL     1     -12.705  60.374  49.788  0.00  0.00    +0.000 OA
ATOM     15  N   UNL     1     -12.660  58.072  48.857  0.00  0.00    +0.000 N 
ATOM     16  C   UNL     1     -14.218  58.699  51.009  0.00  0.00    +0.000 A 
ATOM     17  C   UNL     1     -12.601  56.897  49.416  0.00  0.00    +0.000 C 
ATOM     18  C   UNL     1     -13.992  57.379  51.367  0.00  0.00    +0.000 A 
ATOM     19  C   UNL     1     -14.920  59.582  51.832  0.00  0.00    +0.000 A 
ATOM     20  N   UNL     1     -13.299  56.505  50.534  0.00  0.00    +0.000 N 
ATOM     21  C   UNL     1     -14.547  56.914  52.563  0.00  0.00    +0.000 A 
ATOM     22  C   UNL     1     -15.437  59.114  53.036  0.00  0.00    +0.000 A 
ATOM     23  C   UNL     1     -15.259  57.779  53.398  0.00  0.00    +0.000 A 
ATOM     24  H   UNL     1     -12.138  58.244  48.040  0.00  0.00    +0.000 HD
ATOM     25  H   UNL     1     -13.310  55.547  50.757  0.00  0.00    +0.000 HD
ENDBRANCH   1  17
BRANCH   3  26
ATOM     26  O   UNL     1     -12.904  55.911  46.706  0.00  0.00    +0.000 OA
ATOM     27  H   UNL     1     -13.504  55.278  46.363  0.00  0.00    +0.000 HD
ENDBRANCH   3  26
BRANCH  11  28
ATOM     28  C   UNL     1      -8.131  51.947  44.950  0.00  0.00    +0.000 C 
ATOM     29  C   UNL     1      -8.456  51.112  43.951  0.00  0.00    +0.000 C 
BRANCH  29  30
ATOM     30  C   UNL     1      -7.446  50.198  43.382  0.00  0.00    +0.000 C 
ATOM     31  O   UNL     1      -7.401  49.871  42.206  0.00  0.00    +0.000 OA
ATOM     32  N   UNL     1      -6.547  49.748  44.299  0.00  0.00    +0.000 N 
ATOM     33  H   UNL     1      -6.617  50.035  45.238  0.00  0.00    +0.000 HD
ATOM     34  H   UNL     1      -5.828  49.135  44.023  0.00  0.00    +0.000 HD
ENDBRANCH  29  30
ENDBRANCH  11  28
BRANCH   5  35
ATOM     35  C   UNL     1      -8.495  53.988  49.740  0.00  0.00    +0.000 C 
BRANCH  35  36
ATOM     36  C   UNL     1      -8.749  52.605  50.355  0.00  0.00    +0.000 C 
BRANCH  36  37
ATOM     37  C   UNL     1     -10.229  52.173  50.355  0.00  0.00    +0.000 C 
ATOM     38  C   UNL     1     -10.477  50.923  49.509  0.00  0.00    +0.000 C 
ATOM     39  C   UNL     1     -10.690  51.915  51.792  0.00  0.00    +0.000 C 
ENDBRANCH  36  37
ENDBRANCH  35  36
ENDBRANCH   5  35
TORSDOF 7
ENDMDL
MODEL 3
REMARK VINA RESULT:      -7.6      2.186      2.714
REMARK  Name = 338498
REMARK  9 active torsions:
REMARK  status: ('A' for Active; 'I' for Inactive)
REMARK    1  A    between atoms: C_6  and  C_10
REMARK    2  A    between atoms: C_14  and  O_18
REMARK    3  A    between atoms: N_17  and  C_21
REMARK    4  A    between atoms: C_21  and  C_24
REMARK    5  A    between atoms: C_24  and  C_27
REMARK    6  A    between atoms: C_26  and  C_28
REMARK    7  A    between atoms: C_27  and  C_29
REMARK    8  A    between atoms: C_27  and  C_30
REMARK    9  A    between atoms: C_31  and  C_32
REMARK                            x       y       z     vdW  Elec       q    Type
REMARK                         _______ _______ _______ _____ _____    ______ ____
ROOT
ATOM      1  C   UNL     1      -9.954  54.423  46.708  0.00  0.00    +0.000 A 
ATOM      2  C   UNL     1      -9.200  54.877  47.915  0.00  0.00    +0.000 A 
ATOM      3  C   UNL     1     -11.206  54.861  46.491  0.00  0.00    +0.000 A 
ATOM      4  O   UNL     1      -8.024  54.520  48.042  0.00  0.00    +0.000 OA
ATOM      5  N   UNL     1      -9.845  55.693  48.837  0.00  0.00    +0.000 N 
ATOM      6  C   UNL     1     -11.874  55.713  47.477  0.00  0.00    +0.000 A 
ATOM      7  C   UNL     1     -11.198  56.115  48.642  0.00  0.00    +0.000 A 
ATOM      8  C   UNL     1     -13.211  56.090  47.284  0.00  0.00    +0.000 A 
ATOM      9  C   UNL     1     -11.881  56.918  49.573  0.00  0.00    +0.000 A 
ATOM     10  C   UNL     1     -13.878  56.864  48.226  0.00  0.00    +0.000 A 
ATOM     11  C   UNL     1     -13.213  57.311  49.367  0.00  0.00    +0.000 A 
ENDROOT
BRANCH   1  17
ATOM     12  S   UNL     1      -9.025  52.705  43.304  0.00  0.00    +0.000 S 
ATOM     13  O   UNL     1      -8.052  53.468  42.547  0.00  0.00    +0.000 OA
ATOM     14  O   UNL     1     -10.150  52.081  42.634  0.00  0.00    +0.000 OA
ATOM     15  N   UNL     1      -9.608  53.669  44.464  0.00  0.00    +0.000 N 
ATOM     16  C   UNL     1      -8.136  51.403  44.074  0.00  0.00    +0.000 A 
ATOM     17  C   UNL     1      -9.288  53.495  45.715  0.00  0.00    +0.000 C 
ATOM     18  C   UNL     1      -7.951  51.468  45.446  0.00  0.00    +0.000 A 
ATOM     19  C   UNL     1      -7.656  50.339  43.309  0.00  0.00    +0.000 A 
ATOM     20  N   UNL     1      -8.426  52.539  46.197  0.00  0.00    +0.000 N 
ATOM     21  C   UNL     1      -7.199  50.461  46.059  0.00  0.00    +0.000 A 
ATOM     22  C   UNL     1      -6.938  49.326  43.938  0.00  0.00    +0.000 A 
ATOM     23  C   UNL     1      -6.703  49.391  45.311  0.00  0.00    +0.000 A 
ATOM     24  H   UNL     1     -10.217  54.403  44.220  0.00  0.00    +0.000 HD
ATOM     25  H   UNL     1      -8.127  52.617  47.132  0.00  0.00    +0.000 HD
ENDBRANCH   1  17
BRANCH   3  26
ATOM     26  O   UNL     1     -11.964  54.557  45.374  0.00  0.00    +0.000 OA
ATOM     27  H   UNL     1     -12.710  53.995  45.452  0.00  0.00    +0.000 HD
ENDBRANCH   3  26
BRANCH  11  28
ATOM     28  C   UNL     1     -13.876  58.152  50.373  0.00  0.00    +0.000 C 
ATOM     29  C   UNL     1     -14.148  57.731  51.618  0.00  0.00    +0.000 C 
BRANCH  29  30
ATOM     30  C   UNL     1     -14.847  58.616  52.570  0.00  0.00    +0.000 C 
ATOM     31  O   UNL     1     -15.316  59.705  52.277  0.00  0.00    +0.000 OA
ATOM     32  N   UNL     1     -14.931  58.100  53.826  0.00  0.00    +0.000 N 
ATOM     33  H   UNL     1     -14.540  57.218  54.022  0.00  0.00    +0.000 HD
ATOM     34  H   UNL     1     -15.382  58.609  54.538  0.00  0.00    +0.000 HD
ENDBRANCH  29  30
ENDBRANCH  11  28
BRANCH   5  35
ATOM     35  C   UNL     1      -9.108  56.053  50.057  0.00  0.00    +0.000 C 
BRANCH  35  36
ATOM     36  C   UNL     1      -9.388  55.071  51.205  0.00  0.00    +0.000 C 
BRANCH  36  37
ATOM     37  C   UNL     1      -8.154  54.735  52.065  0.00  0.00    +0.000 C 
ATOM     38  C   UNL     1      -7.996  53.233  52.308  0.00  0.00    +0.000 C 
ATOM     39  C   UNL     1      -6.891  55.276  51.388  0.00  0.00    +0.000 C 
ENDBRANCH  36  37
ENDBRANCH  35  36
ENDBRANCH   5  35
TORSDOF 7
ENDMDL
MODEL 4
REMARK VINA RESULT:      -7.5      3.206      9.213
REMARK  Name = 338498
REMARK  9 active torsions:
REMARK  status: ('A' for Active; 'I' for Inactive)
REMARK    1  A    between atoms: C_6  and  C_10
REMARK    2  A    between atoms: C_14  and  O_18
REMARK    3  A    between atoms: N_17  and  C_21
REMARK    4  A    between atoms: C_21  and  C_24
REMARK    5  A    between atoms: C_24  and  C_27
REMARK    6  A    between atoms: C_26  and  C_28
REMARK    7  A    between atoms: C_27  and  C_29
REMARK    8  A    between atoms: C_27  and  C_30
REMARK    9  A    between atoms: C_31  and  C_32
REMARK                            x       y       z     vdW  Elec       q    Type
REMARK                         _______ _______ _______ _____ _____    ______ ____
ROOT
ATOM      1  C   UNL     1     -11.325  55.840  49.132  0.00  0.00    +0.000 A 
ATOM      2  C   UNL     1     -11.286  55.485  47.681  0.00  0.00    +0.000 A 
ATOM      3  C   UNL     1     -10.422  55.316  49.978  0.00  0.00    +0.000 A 
ATOM      4  O   UNL     1     -12.078  56.047  46.918  0.00  0.00    +0.000 OA
ATOM      5  N   UNL     1     -10.352  54.552  47.246  0.00  0.00    +0.000 N 
ATOM      6  C   UNL     1      -9.450  54.327  49.506  0.00  0.00    +0.000 A 
ATOM      7  C   UNL     1      -9.426  53.946  48.154  0.00  0.00    +0.000 A 
ATOM      8  C   UNL     1      -8.572  53.720  50.415  0.00  0.00    +0.000 A 
ATOM      9  C   UNL     1      -8.490  52.979  47.743  0.00  0.00    +0.000 A 
ATOM     10  C   UNL     1      -7.670  52.749  49.998  0.00  0.00    +0.000 A 
ATOM     11  C   UNL     1      -7.598  52.388  48.652  0.00  0.00    +0.000 A 
ENDROOT
BRANCH   1  17
ATOM     12  S   UNL     1     -13.486  59.100  49.443  0.00  0.00    +0.000 S 
ATOM     13  O   UNL     1     -14.584  59.129  48.496  0.00  0.00    +0.000 OA
ATOM     14  O   UNL     1     -12.710  60.298  49.702  0.00  0.00    +0.000 OA
ATOM     15  N   UNL     1     -12.466  57.936  48.975  0.00  0.00    +0.000 N 
ATOM     16  C   UNL     1     -14.180  58.629  50.984  0.00  0.00    +0.000 A 
ATOM     17  C   UNL     1     -12.364  56.817  49.635  0.00  0.00    +0.000 C 
ATOM     18  C   UNL     1     -13.890  57.361  51.464  0.00  0.00    +0.000 A 
ATOM     19  C   UNL     1     -14.981  59.527  51.692  0.00  0.00    +0.000 A 
ATOM     20  N   UNL     1     -13.098  56.471  50.745  0.00  0.00    +0.000 N 
ATOM     21  C   UNL     1     -14.482  56.960  52.666  0.00  0.00    +0.000 A 
ATOM     22  C   UNL     1     -15.535  59.125  52.904  0.00  0.00    +0.000 A 
ATOM     23  C   UNL     1     -15.293  57.840  53.386  0.00  0.00    +0.000 A 
ATOM     24  H   UNL     1     -11.910  58.076  48.174  0.00  0.00    +0.000 HD
ATOM     25  H   UNL     1     -13.060  55.536  51.049  0.00  0.00    +0.000 HD
ENDBRANCH   1  17
BRANCH   3  26
ATOM     26  O   UNL     1     -10.327  55.630  51.323  0.00  0.00    +0.000 OA
ATOM     27  H   UNL     1     -10.946  55.276  51.931  0.00  0.00    +0.000 HD
ENDBRANCH   3  26
BRANCH  11  28
ATOM     28  C   UNL     1      -6.640  51.385  48.167  0.00  0.00    +0.000 C 
ATOM     29  C   UNL     1      -5.318  51.467  48.382  0.00  0.00    +0.000 C 
BRANCH  29  30
ATOM     30  C   UNL     1      -4.407  50.441  47.837  0.00  0.00    +0.000 C 
ATOM     31  O   UNL     1      -3.847  49.591  48.513  0.00  0.00    +0.000 OA
ATOM     32  N   UNL     1      -4.247  50.523  46.489  0.00  0.00    +0.000 N 
ATOM     33  H   UNL     1      -4.715  51.223  45.980  0.00  0.00    +0.000 HD
ATOM     34  H   UNL     1      -3.661  49.883  46.023  0.00  0.00    +0.000 HD
ENDBRANCH  29  30
ENDBRANCH  11  28
BRANCH   5  35
ATOM     35  C   UNL     1     -10.394  54.157  45.831  0.00  0.00    +0.000 C 
BRANCH  35  36
ATOM     36  C   UNL     1     -11.427  53.050  45.576  0.00  0.00    +0.000 C 
BRANCH  36  37
ATOM     37  C   UNL     1     -10.852  51.791  44.899  0.00  0.00    +0.000 C 
ATOM     38  C   UNL     1      -9.476  52.033  44.277  0.00  0.00    +0.000 C 
ATOM     39  C   UNL     1     -10.754  50.656  45.923  0.00  0.00    +0.000 C 
ENDBRANCH  36  37
ENDBRANCH  35  36
ENDBRANCH   5  35
TORSDOF 7
ENDMDL
MODEL 5
REMARK VINA RESULT:      -7.5      1.772      2.343
REMARK  Name = 338498
REMARK  9 active torsions:
REMARK  status: ('A' for Active; 'I' for Inactive)
REMARK    1  A    between atoms: C_6  and  C_10
REMARK    2  A    between atoms: C_14  and  O_18
REMARK    3  A    between atoms: N_17  and  C_21
REMARK    4  A    between atoms: C_21  and  C_24
REMARK    5  A    between atoms: C_24  and  C_27
REMARK    6  A    between atoms: C_26  and  C_28
REMARK    7  A    between atoms: C_27  and  C_29
REMARK    8  A    between atoms: C_27  and  C_30
REMARK    9  A    between atoms: C_31  and  C_32
REMARK                            x       y       z     vdW  Elec       q    Type
REMARK                         _______ _______ _______ _____ _____    ______ ____
ROOT
ATOM      1  C   UNL     1     -11.943  55.072  48.774  0.00  0.00    +0.000 A 
ATOM      2  C   UNL     1     -11.390  54.677  50.104  0.00  0.00    +0.000 A 
ATOM      3  C   UNL     1     -12.884  56.028  48.692  0.00  0.00    +0.000 A 
ATOM      4  O   UNL     1     -10.470  53.854  50.137  0.00  0.00    +0.000 OA
ATOM      5  N   UNL     1     -11.921  55.260  51.248  0.00  0.00    +0.000 N 
ATOM      6  C   UNL     1     -13.439  56.627  49.908  0.00  0.00    +0.000 A 
ATOM      7  C   UNL     1     -12.965  56.237  51.171  0.00  0.00    +0.000 A 
ATOM      8  C   UNL     1     -14.483  57.558  49.813  0.00  0.00    +0.000 A 
ATOM      9  C   UNL     1     -13.538  56.822  52.316  0.00  0.00    +0.000 A 
ATOM     10  C   UNL     1     -15.054  58.108  50.955  0.00  0.00    +0.000 A 
ATOM     11  C   UNL     1     -14.569  57.769  52.218  0.00  0.00    +0.000 A 
ENDROOT
BRANCH   1  17
ATOM     12  S   UNL     1     -11.492  52.464  45.877  0.00  0.00    +0.000 S 
ATOM     13  O   UNL     1     -12.473  52.633  44.822  0.00  0.00    +0.000 OA
ATOM     14  O   UNL     1     -11.129  51.136  46.332  0.00  0.00    +0.000 OA
ATOM     15  N   UNL     1     -12.001  53.309  47.158  0.00  0.00    +0.000 N 
ATOM     16  C   UNL     1     -10.011  53.199  45.293  0.00  0.00    +0.000 A 
ATOM     17  C   UNL     1     -11.412  54.415  47.518  0.00  0.00    +0.000 C 
ATOM     18  C   UNL     1      -9.605  54.390  45.874  0.00  0.00    +0.000 A 
ATOM     19  C   UNL     1      -9.273  52.576  44.284  0.00  0.00    +0.000 A 
ATOM     20  N   UNL     1     -10.353  55.007  46.872  0.00  0.00    +0.000 N 
ATOM     21  C   UNL     1      -8.454  55.008  45.378  0.00  0.00    +0.000 A 
ATOM     22  C   UNL     1      -8.110  53.186  43.824  0.00  0.00    +0.000 A 
ATOM     23  C   UNL     1      -7.705  54.405  44.365  0.00  0.00    +0.000 A 
ATOM     24  H   UNL     1     -12.771  52.982  47.677  0.00  0.00    +0.000 HD
ATOM     25  H   UNL     1     -10.110  55.925  47.132  0.00  0.00    +0.000 HD
ENDBRANCH   1  17
BRANCH   3  26
ATOM     26  O   UNL     1     -13.411  56.515  47.509  0.00  0.00    +0.000 OA
ATOM     27  H   UNL     1     -13.128  57.344  47.175  0.00  0.00    +0.000 HD
ENDBRANCH   3  26
BRANCH  11  28
ATOM     28  C   UNL     1     -15.129  58.348  53.447  0.00  0.00    +0.000 C 
ATOM     29  C   UNL     1     -15.816  59.501  53.469  0.00  0.00    +0.000 C 
BRANCH  29  30
ATOM     30  C   UNL     1     -16.322  60.045  54.745  0.00  0.00    +0.000 C 
ATOM     31  O   UNL     1     -16.956  61.084  54.844  0.00  0.00    +0.000 OA
ATOM     32  N   UNL     1     -16.019  59.269  55.821  0.00  0.00    +0.000 N 
ATOM     33  H   UNL     1     -15.505  58.439  55.699  0.00  0.00    +0.000 HD
ATOM     34  H   UNL     1     -16.313  59.540  56.720  0.00  0.00    +0.000 HD
ENDBRANCH  29  30
ENDBRANCH  11  28
BRANCH   5  35
ATOM     35  C   UNL     1     -11.420  54.789  52.547  0.00  0.00    +0.000 C 
BRANCH  35  36
ATOM     36  C   UNL     1     -10.033  55.365  52.868  0.00  0.00    +0.000 C 
BRANCH  36  37
ATOM     37  C   UNL     1      -8.945  54.300  53.108  0.00  0.00    +0.000 C 
ATOM     38  C   UNL     1      -7.859  54.776  54.074  0.00  0.00    +0.000 C 
ATOM     39  C   UNL     1      -9.588  53.022  53.656  0.00  0.00    +0.000 C 
ENDBRANCH  36  37
ENDBRANCH  35  36
ENDBRANCH   5  35
TORSDOF 7
ENDMDL
MODEL 6
REMARK VINA RESULT:      -7.4      3.225      8.939
REMARK  Name = 338498
REMARK  9 active torsions:
REMARK  status: ('A' for Active; 'I' for Inactive)
REMARK    1  A    between atoms: C_6  and  C_10
REMARK    2  A    between atoms: C_14  and  O_18
REMARK    3  A    between atoms: N_17  and  C_21
REMARK    4  A    between atoms: C_21  and  C_24
REMARK    5  A    between atoms: C_24  and  C_27
REMARK    6  A    between atoms: C_26  and  C_28
REMARK    7  A    between atoms: C_27  and  C_29
REMARK    8  A    between atoms: C_27  and  C_30
REMARK    9  A    between atoms: C_31  and  C_32
REMARK                            x       y       z     vdW  Elec       q    Type
REMARK                         _______ _______ _______ _____ _____    ______ ____
ROOT
ATOM      1  C   UNL     1     -11.690  54.884  48.633  0.00  0.00    +0.000 A 
ATOM      2  C   UNL     1     -10.705  53.970  49.286  0.00  0.00    +0.000 A 
ATOM      3  C   UNL     1     -11.916  54.797  47.311  0.00  0.00    +0.000 A 
ATOM      4  O   UNL     1     -10.581  54.022  50.514  0.00  0.00    +0.000 OA
ATOM      5  N   UNL     1      -9.981  53.090  48.491  0.00  0.00    +0.000 N 
ATOM      6  C   UNL     1     -11.138  53.870  46.486  0.00  0.00    +0.000 A 
ATOM      7  C   UNL     1     -10.175  53.033  47.074  0.00  0.00    +0.000 A 
ATOM      8  C   UNL     1     -11.320  53.851  45.096  0.00  0.00    +0.000 A 
ATOM      9  C   UNL     1      -9.436  52.170  46.245  0.00  0.00    +0.000 A 
ATOM     10  C   UNL     1     -10.564  53.010  44.288  0.00  0.00    +0.000 A 
ATOM     11  C   UNL     1      -9.634  52.139  44.855  0.00  0.00    +0.000 A 
ENDROOT
BRANCH   1  17
ATOM     12  S   UNL     1     -13.881  56.364  51.532  0.00  0.00    +0.000 S 
ATOM     13  O   UNL     1     -13.104  56.650  52.723  0.00  0.00    +0.000 OA
ATOM     14  O   UNL     1     -15.196  55.761  51.643  0.00  0.00    +0.000 OA
ATOM     15  N   UNL     1     -12.980  55.424  50.573  0.00  0.00    +0.000 N 
ATOM     16  C   UNL     1     -14.120  57.900  50.720  0.00  0.00    +0.000 A 
ATOM     17  C   UNL     1     -12.454  55.884  49.473  0.00  0.00    +0.000 C 
ATOM     18  C   UNL     1     -13.432  58.122  49.537  0.00  0.00    +0.000 A 
ATOM     19  C   UNL     1     -14.993  58.847  51.260  0.00  0.00    +0.000 A 
ATOM     20  N   UNL     1     -12.557  57.175  49.014  0.00  0.00    +0.000 N 
ATOM     21  C   UNL     1     -13.577  59.364  48.912  0.00  0.00    +0.000 A 
ATOM     22  C   UNL     1     -15.154  60.066  50.608  0.00  0.00    +0.000 A 
ATOM     23  C   UNL     1     -14.440  60.328  49.439  0.00  0.00    +0.000 A 
ATOM     24  H   UNL     1     -12.825  54.486  50.827  0.00  0.00    +0.000 HD
ATOM     25  H   UNL     1     -11.974  57.446  48.268  0.00  0.00    +0.000 HD
ENDBRANCH   1  17
BRANCH   3  26
ATOM     26  O   UNL     1     -12.853  55.546  46.621  0.00  0.00    +0.000 OA
ATOM     27  H   UNL     1     -12.606  56.003  45.841  0.00  0.00    +0.000 HD
ENDBRANCH   3  26
BRANCH  11  28
ATOM     28  C   UNL     1      -8.834  51.216  44.038  0.00  0.00    +0.000 C 
ATOM     29  C   UNL     1      -7.739  50.589  44.497  0.00  0.00    +0.000 C 
BRANCH  29  30
ATOM     30  C   UNL     1      -6.961  49.701  43.611  0.00  0.00    +0.000 C 
ATOM     31  O   UNL     1      -7.336  49.331  42.509  0.00  0.00    +0.000 OA
ATOM     32  N   UNL     1      -5.765  49.326  44.139  0.00  0.00    +0.000 N 
ATOM     33  H   UNL     1      -5.499  49.646  45.031  0.00  0.00    +0.000 HD
ATOM     34  H   UNL     1      -5.165  48.736  43.627  0.00  0.00    +0.000 HD
ENDBRANCH  29  30
ENDBRANCH  11  28
BRANCH   5  35
ATOM     35  C   UNL     1      -8.958  52.265  49.149  0.00  0.00    +0.000 C 
BRANCH  35  36
ATOM     36  C   UNL     1      -7.731  53.093  49.557  0.00  0.00    +0.000 C 
BRANCH  36  37
ATOM     37  C   UNL     1      -6.847  53.540  48.376  0.00  0.00    +0.000 C 
ATOM     38  C   UNL     1      -7.173  54.956  47.900  0.00  0.00    +0.000 C 
ATOM     39  C   UNL     1      -5.372  53.466  48.780  0.00  0.00    +0.000 C 
ENDBRANCH  36  37
ENDBRANCH  35  36
ENDBRANCH   5  35
TORSDOF 7
ENDMDL
MODEL 7
REMARK VINA RESULT:      -7.3      2.957      8.759
REMARK  Name = 338498
REMARK  9 active torsions:
REMARK  status: ('A' for Active; 'I' for Inactive)
REMARK    1  A    between atoms: C_6  and  C_10
REMARK    2  A    between atoms: C_14  and  O_18
REMARK    3  A    between atoms: N_17  and  C_21
REMARK    4  A    between atoms: C_21  and  C_24
REMARK    5  A    between atoms: C_24  and  C_27
REMARK    6  A    between atoms: C_26  and  C_28
REMARK    7  A    between atoms: C_27  and  C_29
REMARK    8  A    between atoms: C_27  and  C_30
REMARK    9  A    between atoms: C_31  and  C_32
REMARK                            x       y       z     vdW  Elec       q    Type
REMARK                         _______ _______ _______ _____ _____    ______ ____
ROOT
ATOM      1  C   UNL     1     -11.431  55.120  49.244  0.00  0.00    +0.000 A 
ATOM      2  C   UNL     1     -10.416  54.368  50.041  0.00  0.00    +0.000 A 
ATOM      3  C   UNL     1     -11.573  54.876  47.931  0.00  0.00    +0.000 A 
ATOM      4  O   UNL     1     -10.367  54.558  51.261  0.00  0.00    +0.000 OA
ATOM      5  N   UNL     1      -9.579  53.474  49.384  0.00  0.00    +0.000 N 
ATOM      6  C   UNL     1     -10.677  53.937  47.251  0.00  0.00    +0.000 A 
ATOM      7  C   UNL     1      -9.686  53.252  47.974  0.00  0.00    +0.000 A 
ATOM      8  C   UNL     1     -10.776  53.758  45.864  0.00  0.00    +0.000 A 
ATOM      9  C   UNL     1      -8.833  52.374  47.281  0.00  0.00    +0.000 A 
ATOM     10  C   UNL     1      -9.910  52.904  45.191  0.00  0.00    +0.000 A 
ATOM     11  C   UNL     1      -8.948  52.180  45.895  0.00  0.00    +0.000 A 
ENDROOT
BRANCH   1  17
ATOM     12  S   UNL     1     -13.937  56.688  51.826  0.00  0.00    +0.000 S 
ATOM     13  O   UNL     1     -13.279  57.124  53.042  0.00  0.00    +0.000 OA
ATOM     14  O   UNL     1     -15.218  56.010  51.889  0.00  0.00    +0.000 OA
ATOM     15  N   UNL     1     -12.906  55.733  51.025  0.00  0.00    +0.000 N 
ATOM     16  C   UNL     1     -14.200  58.132  50.865  0.00  0.00    +0.000 A 
ATOM     17  C   UNL     1     -12.320  56.133  49.932  0.00  0.00    +0.000 C 
ATOM     18  C   UNL     1     -13.431  58.299  49.723  0.00  0.00    +0.000 A 
ATOM     19  C   UNL     1     -15.169  59.060  51.250  0.00  0.00    +0.000 A 
ATOM     20  N   UNL     1     -12.461  57.372  49.354  0.00  0.00    +0.000 N 
ATOM     21  C   UNL     1     -13.598  59.472  48.981  0.00  0.00    +0.000 A 
ATOM     22  C   UNL     1     -15.349  60.206  50.482  0.00  0.00    +0.000 A 
ATOM     23  C   UNL     1     -14.558  60.417  49.353  0.00  0.00    +0.000 A 
ATOM     24  H   UNL     1     -12.716  54.832  51.372  0.00  0.00    +0.000 HD
ATOM     25  H   UNL     1     -11.837  57.619  48.634  0.00  0.00    +0.000 HD
ENDBRANCH   1  17
BRANCH   3  26
ATOM     26  O   UNL     1     -12.525  55.465  47.118  0.00  0.00    +0.000 OA
ATOM     27  H   UNL     1     -12.975  56.236  47.406  0.00  0.00    +0.000 HD
ENDBRANCH   3  26
BRANCH  11  28
ATOM     28  C   UNL     1      -8.031  51.249  45.223  0.00  0.00    +0.000 C 
ATOM     29  C   UNL     1      -8.076  50.994  43.906  0.00  0.00    +0.000 C 
BRANCH  29  30
ATOM     30  C   UNL     1      -7.147  50.020  43.301  0.00  0.00    +0.000 C 
ATOM     31  O   UNL     1      -7.217  49.631  42.145  0.00  0.00    +0.000 OA
ATOM     32  N   UNL     1      -6.182  49.590  44.158  0.00  0.00    +0.000 N 
ATOM     33  H   UNL     1      -6.159  49.927  45.082  0.00  0.00    +0.000 HD
ATOM     34  H   UNL     1      -5.507  48.941  43.853  0.00  0.00    +0.000 HD
ENDBRANCH  29  30
ENDBRANCH  11  28
BRANCH   5  35
ATOM     35  C   UNL     1      -8.533  52.813  50.177  0.00  0.00    +0.000 C 
BRANCH  35  36
ATOM     36  C   UNL     1      -9.097  51.663  51.023  0.00  0.00    +0.000 C 
BRANCH  36  37
ATOM     37  C   UNL     1      -8.599  51.646  52.482  0.00  0.00    +0.000 C 
ATOM     38  C   UNL     1      -7.590  52.758  52.772  0.00  0.00    +0.000 C 
ATOM     39  C   UNL     1      -9.792  51.780  53.434  0.00  0.00    +0.000 C 
ENDBRANCH  36  37
ENDBRANCH  35  36
ENDBRANCH   5  35
TORSDOF 7
ENDMDL
MODEL 8
REMARK VINA RESULT:      -7.3      2.009      2.628
REMARK  Name = 338498
REMARK  9 active torsions:
REMARK  status: ('A' for Active; 'I' for Inactive)
REMARK    1  A    between atoms: C_6  and  C_10
REMARK    2  A    between atoms: C_14  and  O_18
REMARK    3  A    between atoms: N_17  and  C_21
REMARK    4  A    between atoms: C_21  and  C_24
REMARK    5  A    between atoms: C_24  and  C_27
REMARK    6  A    between atoms: C_26  and  C_28
REMARK    7  A    between atoms: C_27  and  C_29
REMARK    8  A    between atoms: C_27  and  C_30
REMARK    9  A    between atoms: C_31  and  C_32
REMARK                            x       y       z     vdW  Elec       q    Type
REMARK                         _______ _______ _______ _____ _____    ______ ____
ROOT
ATOM      1  C   UNL     1     -10.905  53.521  47.275  0.00  0.00    +0.000 A 
ATOM      2  C   UNL     1     -10.573  53.385  48.726  0.00  0.00    +0.000 A 
ATOM      3  C   UNL     1     -11.680  54.535  46.853  0.00  0.00    +0.000 A 
ATOM      4  O   UNL     1      -9.792  52.491  49.068  0.00  0.00    +0.000 OA
ATOM      5  N   UNL     1     -11.139  54.278  49.627  0.00  0.00    +0.000 N 
ATOM      6  C   UNL     1     -12.277  55.462  47.818  0.00  0.00    +0.000 A 
ATOM      7  C   UNL     1     -12.013  55.325  49.191  0.00  0.00    +0.000 A 
ATOM      8  C   UNL     1     -13.156  56.460  47.374  0.00  0.00    +0.000 A 
ATOM      9  C   UNL     1     -12.621  56.224  50.086  0.00  0.00    +0.000 A 
ATOM     10  C   UNL     1     -13.766  57.325  48.275  0.00  0.00    +0.000 A 
ATOM     11  C   UNL     1     -13.484  57.236  49.638  0.00  0.00    +0.000 A 
ENDROOT
BRANCH   1  17
ATOM     12  S   UNL     1      -9.663  50.132  45.735  0.00  0.00    +0.000 S 
ATOM     13  O   UNL     1     -10.752  49.327  45.217  0.00  0.00    +0.000 OA
ATOM     14  O   UNL     1      -8.581  49.511  46.475  0.00  0.00    +0.000 OA
ATOM     15  N   UNL     1     -10.307  51.286  46.667  0.00  0.00    +0.000 N 
ATOM     16  C   UNL     1      -8.920  50.905  44.347  0.00  0.00    +0.000 A 
ATOM     17  C   UNL     1     -10.337  52.530  46.282  0.00  0.00    +0.000 C 
ATOM     18  C   UNL     1      -9.109  52.269  44.186  0.00  0.00    +0.000 A 
ATOM     19  C   UNL     1      -8.155  50.150  43.455  0.00  0.00    +0.000 A 
ATOM     20  N   UNL     1      -9.881  53.008  45.076  0.00  0.00    +0.000 N 
ATOM     21  C   UNL     1      -8.563  52.882  43.055  0.00  0.00    +0.000 A 
ATOM     22  C   UNL     1      -7.589  50.781  42.351  0.00  0.00    +0.000 A 
ATOM     23  C   UNL     1      -7.800  52.144  42.146  0.00  0.00    +0.000 A 
ATOM     24  H   UNL     1     -10.684  51.043  47.543  0.00  0.00    +0.000 HD
ATOM     25  H   UNL     1     -10.117  53.931  44.828  0.00  0.00    +0.000 HD
ENDBRANCH   1  17
BRANCH   3  26
ATOM     26  O   UNL     1     -11.991  54.790  45.529  0.00  0.00    +0.000 OA
ATOM     27  H   UNL     1     -12.880  54.735  45.238  0.00  0.00    +0.000 HD
ENDBRANCH   3  26
BRANCH  11  28
ATOM     28  C   UNL     1     -14.089  58.148  50.618  0.00  0.00    +0.000 C 
ATOM     29  C   UNL     1     -14.542  57.744  51.816  0.00  0.00    +0.000 C 
BRANCH  29  30
ATOM     30  C   UNL     1     -15.171  58.707  52.741  0.00  0.00    +0.000 C 
ATOM     31  O   UNL     1     -15.624  59.789  52.401  0.00  0.00    +0.000 OA
ATOM     32  N   UNL     1     -15.207  58.273  54.029  0.00  0.00    +0.000 N 
ATOM     33  H   UNL     1     -14.830  57.394  54.263  0.00  0.00    +0.000 HD
ATOM     34  H   UNL     1     -15.609  58.839  54.727  0.00  0.00    +0.000 HD
ENDBRANCH  29  30
ENDBRANCH  11  28
BRANCH   5  35
ATOM     35  C   UNL     1     -10.864  54.068  51.056  0.00  0.00    +0.000 C 
BRANCH  35  36
ATOM     36  C   UNL     1     -10.034  55.213  51.653  0.00  0.00    +0.000 C 
BRANCH  36  37
ATOM     37  C   UNL     1      -8.584  54.827  52.006  0.00  0.00    +0.000 C 
ATOM     38  C   UNL     1      -7.594  55.966  51.756  0.00  0.00    +0.000 C 
ATOM     39  C   UNL     1      -8.509  54.403  53.476  0.00  0.00    +0.000 C 
ENDBRANCH  36  37
ENDBRANCH  35  36
ENDBRANCH   5  35
TORSDOF 7
ENDMDL
MODEL 9
REMARK VINA RESULT:      -7.2      3.672      6.004
REMARK  Name = 338498
REMARK  9 active torsions:
REMARK  status: ('A' for Active; 'I' for Inactive)
REMARK    1  A    between atoms: C_6  and  C_10
REMARK    2  A    between atoms: C_14  and  O_18
REMARK    3  A    between atoms: N_17  and  C_21
REMARK    4  A    between atoms: C_21  and  C_24
REMARK    5  A    between atoms: C_24  and  C_27
REMARK    6  A    between atoms: C_26  and  C_28
REMARK    7  A    between atoms: C_27  and  C_29
REMARK    8  A    between atoms: C_27  and  C_30
REMARK    9  A    between atoms: C_31  and  C_32
REMARK                            x       y       z     vdW  Elec       q    Type
REMARK                         _______ _______ _______ _____ _____    ______ ____
ROOT
ATOM      1  C   UNL     1      -8.765  53.797  50.853  0.00  0.00    +0.000 A 
ATOM      2  C   UNL     1      -8.778  54.343  49.462  0.00  0.00    +0.000 A 
ATOM      3  C   UNL     1      -9.757  54.103  51.706  0.00  0.00    +0.000 A 
ATOM      4  O   UNL     1      -7.895  53.977  48.679  0.00  0.00    +0.000 OA
ATOM      5  N   UNL     1      -9.788  55.226  49.100  0.00  0.00    +0.000 N 
ATOM      6  C   UNL     1     -10.809  55.043  51.312  0.00  0.00    +0.000 A 
ATOM      7  C   UNL     1     -10.815  55.603  50.024  0.00  0.00    +0.000 A 
ATOM      8  C   UNL     1     -11.788  55.424  52.241  0.00  0.00    +0.000 A 
ATOM      9  C   UNL     1     -11.832  56.515  49.690  0.00  0.00    +0.000 A 
ATOM     10  C   UNL     1     -12.773  56.345  51.903  0.00  0.00    +0.000 A 
ATOM     11  C   UNL     1     -12.824  56.879  50.615  0.00  0.00    +0.000 A 
ENDROOT
BRANCH   1  17
ATOM     12  S   UNL     1      -5.813  52.298  52.959  0.00  0.00    +0.000 S 
ATOM     13  O   UNL     1      -6.279  51.507  54.081  0.00  0.00    +0.000 OA
ATOM     14  O   UNL     1      -4.685  53.197  53.116  0.00  0.00    +0.000 OA
ATOM     15  N   UNL     1      -7.067  53.160  52.412  0.00  0.00    +0.000 N 
ATOM     16  C   UNL     1      -5.352  51.155  51.711  0.00  0.00    +0.000 A 
ATOM     17  C   UNL     1      -7.647  52.872  51.282  0.00  0.00    +0.000 C 
ATOM     18  C   UNL     1      -6.160  51.062  50.588  0.00  0.00    +0.000 A 
ATOM     19  C   UNL     1      -4.196  50.387  51.860  0.00  0.00    +0.000 A 
ATOM     20  N   UNL     1      -7.315  51.826  50.454  0.00  0.00    +0.000 N 
ATOM     21  C   UNL     1      -5.828  50.117  49.613  0.00  0.00    +0.000 A 
ATOM     22  C   UNL     1      -3.859  49.475  50.865  0.00  0.00    +0.000 A 
ATOM     23  C   UNL     1      -4.679  49.333  49.746  0.00  0.00    +0.000 A 
ATOM     24  H   UNL     1      -7.399  53.919  52.945  0.00  0.00    +0.000 HD
ATOM     25  H   UNL     1      -7.935  51.604  49.722  0.00  0.00    +0.000 HD
ENDBRANCH   1  17
BRANCH   3  26
ATOM     26  O   UNL     1      -9.876  53.598  52.989  0.00  0.00    +0.000 OA
ATOM     27  H   UNL     1     -10.204  52.731  53.122  0.00  0.00    +0.000 HD
ENDBRANCH   3  26
BRANCH  11  28
ATOM     28  C   UNL     1     -13.864  57.836  50.212  0.00  0.00    +0.000 C 
ATOM     29  C   UNL     1     -13.629  59.147  50.040  0.00  0.00    +0.000 C 
BRANCH  29  30
ATOM     30  C   UNL     1     -14.727  60.059  49.666  0.00  0.00    +0.000 C 
ATOM     31  O   UNL     1     -15.680  60.317  50.386  0.00  0.00    +0.000 OA
ATOM     32  N   UNL     1     -14.580  60.603  48.428  0.00  0.00    +0.000 N 
ATOM     33  H   UNL     1     -13.797  60.370  47.879  0.00  0.00    +0.000 HD
ATOM     34  H   UNL     1     -15.256  61.230  48.083  0.00  0.00    +0.000 HD
ENDBRANCH  29  30
ENDBRANCH  11  28
BRANCH   5  35
ATOM     35  C   UNL     1      -9.727  55.815  47.755  0.00  0.00    +0.000 C 
BRANCH  35  36
ATOM     36  C   UNL     1     -10.814  55.246  46.832  0.00  0.00    +0.000 C 
BRANCH  36  37
ATOM     37  C   UNL     1     -10.378  54.005  46.028  0.00  0.00    +0.000 C 
ATOM     38  C   UNL     1     -11.396  53.609  44.958  0.00  0.00    +0.000 C 
ATOM     39  C   UNL     1      -9.022  54.271  45.367  0.00  0.00    +0.000 C 
ENDBRANCH  36  37
ENDBRANCH  35  36
ENDBRANCH   5  35
TORSDOF 7
ENDMDL
