MODEL 1
REMARK VINA RESULT:      -7.8      0.000      0.000
REMARK  Name = 338550
REMARK  7 active torsions:
REMARK  status: ('A' for Active; 'I' for Inactive)
REMARK    1  A    between atoms: C_6  and  C_10
REMARK    2  A    between atoms: C_14  and  O_18
REMARK    3  A    between atoms: N_17  and  C_21
REMARK    4  A    between atoms: C_21  and  C_24
REMARK    5  A    between atoms: C_24  and  C_27
REMARK    6  A    between atoms: C_27  and  C_28
REMARK    7  A    between atoms: C_28  and  N_29
REMARK                            x       y       z     vdW  Elec       q    Type
REMARK                         _______ _______ _______ _____ _____    ______ ____
ROOT
ATOM      1  C   UNL     1     -10.042  54.369  52.297  0.00  0.00    +0.000 A 
ATOM      2  C   UNL     1      -8.660  54.934  52.209  0.00  0.00    +0.000 A 
ATOM      3  C   UNL     1     -10.271  53.261  53.019  0.00  0.00    +0.000 A 
ATOM      4  O   UNL     1      -8.510  56.018  51.638  0.00  0.00    +0.000 OA
ATOM      5  N   UNL     1      -7.612  54.233  52.792  0.00  0.00    +0.000 N 
ATOM      6  C   UNL     1      -9.174  52.601  53.739  0.00  0.00    +0.000 A 
ATOM      7  C   UNL     1      -7.864  53.104  53.636  0.00  0.00    +0.000 A 
ATOM      8  C   UNL     1      -9.426  51.487  54.560  0.00  0.00    +0.000 A 
ATOM      9  C   UNL     1      -6.853  52.500  54.399  0.00  0.00    +0.000 A 
ATOM     10  C   UNL     1      -8.402  50.886  55.290  0.00  0.00    +0.000 A 
ATOM     11  C   UNL     1      -7.115  51.397  55.211  0.00  0.00    +0.000 A 
ENDROOT
BRANCH   1  17
ATOM     12  S   UNL     1     -12.315  55.928  49.499  0.00  0.00    +0.000 S 
ATOM     13  O   UNL     1     -13.197  54.956  48.884  0.00  0.00    +0.000 OA
ATOM     14  O   UNL     1     -11.637  56.919  48.682  0.00  0.00    +0.000 OA
ATOM     15  N   UNL     1     -11.187  55.116  50.328  0.00  0.00    +0.000 N 
ATOM     16  C   UNL     1     -13.295  56.831  50.640  0.00  0.00    +0.000 A 
ATOM     17  C   UNL     1     -11.181  55.112  51.630  0.00  0.00    +0.000 C 
ATOM     18  C   UNL     1     -13.065  56.634  51.990  0.00  0.00    +0.000 A 
ATOM     19  C   UNL     1     -14.265  57.725  50.177  0.00  0.00    +0.000 A 
ATOM     20  N   UNL     1     -12.109  55.727  52.439  0.00  0.00    +0.000 N 
ATOM     21  C   UNL     1     -13.875  57.313  52.907  0.00  0.00    +0.000 A 
ATOM     22  C   UNL     1     -15.042  58.419  51.100  0.00  0.00    +0.000 A 
ATOM     23  C   UNL     1     -14.852  58.207  52.466  0.00  0.00    +0.000 A 
ATOM     24  H   UNL     1     -10.492  54.615  49.840  0.00  0.00    +0.000 HD
ATOM     25  H   UNL     1     -12.098  55.511  53.399  0.00  0.00    +0.000 HD
ENDBRANCH   1  17
BRANCH   3  26
ATOM     26  O   UNL     1     -11.520  52.688  53.198  0.00  0.00    +0.000 OA
ATOM     27  H   UNL     1     -11.922  52.694  54.045  0.00  0.00    +0.000 HD
ENDBRANCH   3  26
BRANCH   5  28
ATOM     28  C   UNL     1      -6.260  54.784  52.643  0.00  0.00    +0.000 C 
BRANCH  28  29
ATOM     29  C   UNL     1      -5.331  54.041  51.675  0.00  0.00    +0.000 C 
BRANCH  29  30
ATOM     30  C   UNL     1      -5.848  53.910  50.243  0.00  0.00    +0.000 C 
BRANCH  30  31
ATOM     31  C   UNL     1      -5.704  55.264  49.541  0.00  0.00    +0.000 C 
BRANCH  31  32
ATOM     32  N   UNL     1      -6.978  55.737  49.024  0.00  0.00    +0.000 N 
ATOM     33  H   UNL     1      -7.495  56.204  49.769  0.00  0.00    +0.000 HD
ATOM     34  H   UNL     1      -7.520  54.946  48.679  0.00  0.00    +0.000 HD
ATOM     35  H   UNL     1      -6.812  56.394  48.261  0.00  0.00    +0.000 HD
ENDBRANCH  31  32
ENDBRANCH  30  31
ENDBRANCH  29  30
ENDBRANCH  28  29
ENDBRANCH   5  28
TORSDOF 7
ENDMDL
MODEL 2
REMARK VINA RESULT:      -7.5      4.126      5.095
REMARK  Name = 338550
REMARK  7 active torsions:
REMARK  status: ('A' for Active; 'I' for Inactive)
REMARK    1  A    between atoms: C_6  and  C_10
REMARK    2  A    between atoms: C_14  and  O_18
REMARK    3  A    between atoms: N_17  and  C_21
REMARK    4  A    between atoms: C_21  and  C_24
REMARK    5  A    between atoms: C_24  and  C_27
REMARK    6  A    between atoms: C_27  and  C_28
REMARK    7  A    between atoms: C_28  and  N_29
REMARK                            x       y       z     vdW  Elec       q    Type
REMARK                         _______ _______ _______ _____ _____    ______ ____
ROOT
ATOM      1  C   UNL     1     -12.406  54.246  49.778  0.00  0.00    +0.000 A 
ATOM      2  C   UNL     1     -11.751  54.226  48.434  0.00  0.00    +0.000 A 
ATOM      3  C   UNL     1     -12.205  53.236  50.639  0.00  0.00    +0.000 A 
ATOM      4  O   UNL     1     -11.861  55.226  47.718  0.00  0.00    +0.000 OA
ATOM      5  N   UNL     1     -11.029  53.100  48.057  0.00  0.00    +0.000 N 
ATOM      6  C   UNL     1     -11.332  52.111  50.277  0.00  0.00    +0.000 A 
ATOM      7  C   UNL     1     -10.738  52.066  49.003  0.00  0.00    +0.000 A 
ATOM      8  C   UNL     1     -11.057  51.093  51.207  0.00  0.00    +0.000 A 
ATOM      9  C   UNL     1      -9.847  51.020  48.716  0.00  0.00    +0.000 A 
ATOM     10  C   UNL     1     -10.188  50.049  50.894  0.00  0.00    +0.000 A 
ATOM     11  C   UNL     1      -9.581  50.016  49.647  0.00  0.00    +0.000 A 
ENDROOT
BRANCH   1  17
ATOM     12  S   UNL     1     -15.357  56.425  51.180  0.00  0.00    +0.000 S 
ATOM     13  O   UNL     1     -15.338  56.536  52.625  0.00  0.00    +0.000 OA
ATOM     14  O   UNL     1     -16.614  56.225  50.480  0.00  0.00    +0.000 OA
ATOM     15  N   UNL     1     -14.362  55.219  50.764  0.00  0.00    +0.000 N 
ATOM     16  C   UNL     1     -14.693  57.927  50.561  0.00  0.00    +0.000 A 
ATOM     17  C   UNL     1     -13.225  55.456  50.176  0.00  0.00    +0.000 C 
ATOM     18  C   UNL     1     -13.445  57.886  49.965  0.00  0.00    +0.000 A 
ATOM     19  C   UNL     1     -15.424  59.113  50.668  0.00  0.00    +0.000 A 
ATOM     20  N   UNL     1     -12.718  56.702  49.882  0.00  0.00    +0.000 N 
ATOM     21  C   UNL     1     -12.886  59.086  49.514  0.00  0.00    +0.000 A 
ATOM     22  C   UNL     1     -14.870  60.296  50.185  0.00  0.00    +0.000 A 
ATOM     23  C   UNL     1     -13.597  60.283  49.614  0.00  0.00    +0.000 A 
ATOM     24  H   UNL     1     -14.620  54.288  50.959  0.00  0.00    +0.000 HD
ATOM     25  H   UNL     1     -11.779  56.759  49.595  0.00  0.00    +0.000 HD
ENDBRANCH   1  17
BRANCH   3  26
ATOM     26  O   UNL     1     -12.729  53.185  51.921  0.00  0.00    +0.000 OA
ATOM     27  H   UNL     1     -13.251  52.453  52.185  0.00  0.00    +0.000 HD
ENDBRANCH   3  26
BRANCH   5  28
ATOM     28  C   UNL     1     -10.443  53.088  46.712  0.00  0.00    +0.000 C 
BRANCH  28  29
ATOM     29  C   UNL     1     -11.295  52.444  45.611  0.00  0.00    +0.000 C 
BRANCH  29  30
ATOM     30  C   UNL     1     -10.987  52.910  44.188  0.00  0.00    +0.000 C 
BRANCH  30  31
ATOM     31  C   UNL     1     -10.109  51.857  43.504  0.00  0.00    +0.000 C 
BRANCH  31  32
ATOM     32  N   UNL     1     -10.867  51.073  42.542  0.00  0.00    +0.000 N 
ATOM     33  H   UNL     1     -11.841  51.019  42.839  0.00  0.00    +0.000 HD
ATOM     34  H   UNL     1     -10.477  50.133  42.486  0.00  0.00    +0.000 HD
ATOM     35  H   UNL     1     -10.815  51.518  41.625  0.00  0.00    +0.000 HD
ENDBRANCH  31  32
ENDBRANCH  30  31
ENDBRANCH  29  30
ENDBRANCH  28  29
ENDBRANCH   5  28
TORSDOF 7
ENDMDL
MODEL 3
REMARK VINA RESULT:      -7.5      2.634      7.657
REMARK  Name = 338550
REMARK  7 active torsions:
REMARK  status: ('A' for Active; 'I' for Inactive)
REMARK    1  A    between atoms: C_6  and  C_10
REMARK    2  A    between atoms: C_14  and  O_18
REMARK    3  A    between atoms: N_17  and  C_21
REMARK    4  A    between atoms: C_21  and  C_24
REMARK    5  A    between atoms: C_24  and  C_27
REMARK    6  A    between atoms: C_27  and  C_28
REMARK    7  A    between atoms: C_28  and  N_29
REMARK                            x       y       z     vdW  Elec       q    Type
REMARK                         _______ _______ _______ _____ _____    ______ ____
ROOT
ATOM      1  C   UNL     1     -10.750  55.161  51.034  0.00  0.00    +0.000 A 
ATOM      2  C   UNL     1     -11.994  55.778  51.588  0.00  0.00    +0.000 A 
ATOM      3  C   UNL     1     -10.569  55.090  49.706  0.00  0.00    +0.000 A 
ATOM      4  O   UNL     1     -12.070  55.934  52.811  0.00  0.00    +0.000 OA
ATOM      5  N   UNL     1     -12.996  56.172  50.710  0.00  0.00    +0.000 N 
ATOM      6  C   UNL     1     -11.580  55.630  48.787  0.00  0.00    +0.000 A 
ATOM      7  C   UNL     1     -12.768  56.183  49.297  0.00  0.00    +0.000 A 
ATOM      8  C   UNL     1     -11.356  55.629  47.398  0.00  0.00    +0.000 A 
ATOM      9  C   UNL     1     -13.678  56.761  48.398  0.00  0.00    +0.000 A 
ATOM     10  C   UNL     1     -12.283  56.186  46.520  0.00  0.00    +0.000 A 
ATOM     11  C   UNL     1     -13.444  56.756  47.023  0.00  0.00    +0.000 A 
ENDROOT
BRANCH   1  17
ATOM     12  S   UNL     1      -7.313  54.940  52.923  0.00  0.00    +0.000 S 
ATOM     13  O   UNL     1      -7.190  55.919  53.984  0.00  0.00    +0.000 OA
ATOM     14  O   UNL     1      -6.185  54.662  52.051  0.00  0.00    +0.000 OA
ATOM     15  N   UNL     1      -8.563  55.376  51.991  0.00  0.00    +0.000 N 
ATOM     16  C   UNL     1      -7.709  53.417  53.700  0.00  0.00    +0.000 A 
ATOM     17  C   UNL     1      -9.673  54.696  51.991  0.00  0.00    +0.000 C 
ATOM     18  C   UNL     1      -8.985  52.911  53.521  0.00  0.00    +0.000 A 
ATOM     19  C   UNL     1      -6.747  52.748  54.461  0.00  0.00    +0.000 A 
ATOM     20  N   UNL     1      -9.940  53.597  52.776  0.00  0.00    +0.000 N 
ATOM     21  C   UNL     1      -9.325  51.723  54.177  0.00  0.00    +0.000 A 
ATOM     22  C   UNL     1      -7.089  51.549  55.082  0.00  0.00    +0.000 A 
ATOM     23  C   UNL     1      -8.381  51.041  54.946  0.00  0.00    +0.000 A 
ATOM     24  H   UNL     1      -8.483  56.170  51.413  0.00  0.00    +0.000 HD
ATOM     25  H   UNL     1     -10.869  53.274  52.814  0.00  0.00    +0.000 HD
ENDBRANCH   1  17
BRANCH   3  26
ATOM     26  O   UNL     1      -9.434  54.579  49.097  0.00  0.00    +0.000 OA
ATOM     27  H   UNL     1      -8.841  54.043  49.584  0.00  0.00    +0.000 HD
ENDBRANCH   3  26
BRANCH   5  28
ATOM     28  C   UNL     1     -14.226  56.725  51.287  0.00  0.00    +0.000 C 
BRANCH  28  29
ATOM     29  C   UNL     1     -14.152  58.182  51.763  0.00  0.00    +0.000 C 
BRANCH  29  30
ATOM     30  C   UNL     1     -14.904  59.192  50.895  0.00  0.00    +0.000 C 
BRANCH  30  31
ATOM     31  C   UNL     1     -13.882  60.064  50.158  0.00  0.00    +0.000 C 
BRANCH  31  32
ATOM     32  N   UNL     1     -14.380  60.486  48.858  0.00  0.00    +0.000 N 
ATOM     33  H   UNL     1     -14.680  59.668  48.328  0.00  0.00    +0.000 HD
ATOM     34  H   UNL     1     -13.639  60.967  48.351  0.00  0.00    +0.000 HD
ATOM     35  H   UNL     1     -15.170  61.119  48.987  0.00  0.00    +0.000 HD
ENDBRANCH  31  32
ENDBRANCH  30  31
ENDBRANCH  29  30
ENDBRANCH  28  29
ENDBRANCH   5  28
TORSDOF 7
ENDMDL
MODEL 4
REMARK VINA RESULT:      -7.4      3.300      5.061
REMARK  Name = 338550
REMARK  7 active torsions:
REMARK  status: ('A' for Active; 'I' for Inactive)
REMARK    1  A    between atoms: C_6  and  C_10
REMARK    2  A    between atoms: C_14  and  O_18
REMARK    3  A    between atoms: N_17  and  C_21
REMARK    4  A    between atoms: C_21  and  C_24
REMARK    5  A    between atoms: C_24  and  C_27
REMARK    6  A    between atoms: C_27  and  C_28
REMARK    7  A    between atoms: C_28  and  N_29
REMARK                            x       y       z     vdW  Elec       q    Type
REMARK                         _______ _______ _______ _____ _____    ______ ____
ROOT
ATOM      1  C   UNL     1     -11.538  56.011  48.721  0.00  0.00    +0.000 A 
ATOM      2  C   UNL     1     -10.460  55.393  49.552  0.00  0.00    +0.000 A 
ATOM      3  C   UNL     1     -11.684  55.654  47.435  0.00  0.00    +0.000 A 
ATOM      4  O   UNL     1     -10.433  55.656  50.758  0.00  0.00    +0.000 OA
ATOM      5  N   UNL     1      -9.553  54.534  48.944  0.00  0.00    +0.000 N 
ATOM      6  C   UNL     1     -10.799  54.644  46.838  0.00  0.00    +0.000 A 
ATOM      7  C   UNL     1      -9.761  54.081  47.601  0.00  0.00    +0.000 A 
ATOM      8  C   UNL     1     -11.001  54.210  45.516  0.00  0.00    +0.000 A 
ATOM      9  C   UNL     1      -8.983  53.063  47.028  0.00  0.00    +0.000 A 
ATOM     10  C   UNL     1     -10.202  53.215  44.955  0.00  0.00    +0.000 A 
ATOM     11  C   UNL     1      -9.194  52.640  45.715  0.00  0.00    +0.000 A 
ENDROOT
BRANCH   1  17
ATOM     12  S   UNL     1     -13.562  59.294  49.461  0.00  0.00    +0.000 S 
ATOM     13  O   UNL     1     -14.705  59.461  48.586  0.00  0.00    +0.000 OA
ATOM     14  O   UNL     1     -12.725  60.434  49.793  0.00  0.00    +0.000 OA
ATOM     15  N   UNL     1     -12.611  58.152  48.821  0.00  0.00    +0.000 N 
ATOM     16  C   UNL     1     -14.192  58.697  50.986  0.00  0.00    +0.000 A 
ATOM     17  C   UNL     1     -12.503  56.978  49.373  0.00  0.00    +0.000 C 
ATOM     18  C   UNL     1     -13.912  57.387  51.334  0.00  0.00    +0.000 A 
ATOM     19  C   UNL     1     -14.940  59.540  51.813  0.00  0.00    +0.000 A 
ATOM     20  N   UNL     1     -13.182  56.553  50.493  0.00  0.00    +0.000 N 
ATOM     21  C   UNL     1     -14.451  56.888  52.524  0.00  0.00    +0.000 A 
ATOM     22  C   UNL     1     -15.444  59.039  53.011  0.00  0.00    +0.000 A 
ATOM     23  C   UNL     1     -15.205  57.711  53.363  0.00  0.00    +0.000 A 
ATOM     24  H   UNL     1     -12.105  58.347  47.998  0.00  0.00    +0.000 HD
ATOM     25  H   UNL     1     -13.149  55.594  50.714  0.00  0.00    +0.000 HD
ENDBRANCH   1  17
BRANCH   3  26
ATOM     26  O   UNL     1     -12.677  56.134  46.597  0.00  0.00    +0.000 OA
ATOM     27  H   UNL     1     -12.483  56.326  45.701  0.00  0.00    +0.000 HD
ENDBRANCH   3  26
BRANCH   5  28
ATOM     28  C   UNL     1      -8.475  53.985  49.774  0.00  0.00    +0.000 C 
BRANCH  28  29
ATOM     29  C   UNL     1      -7.173  54.795  49.811  0.00  0.00    +0.000 C 
BRANCH  29  30
ATOM     30  C   UNL     1      -6.489  54.872  51.175  0.00  0.00    +0.000 C 
BRANCH  30  31
ATOM     31  C   UNL     1      -7.194  55.938  52.020  0.00  0.00    +0.000 C 
BRANCH  31  32
ATOM     32  N   UNL     1      -7.496  57.126  51.238  0.00  0.00    +0.000 N 
ATOM     33  H   UNL     1      -6.668  57.405  50.712  0.00  0.00    +0.000 HD
ATOM     34  H   UNL     1      -7.773  57.883  51.862  0.00  0.00    +0.000 HD
ATOM     35  H   UNL     1      -8.259  56.923  50.592  0.00  0.00    +0.000 HD
ENDBRANCH  31  32
ENDBRANCH  30  31
ENDBRANCH  29  30
ENDBRANCH  28  29
ENDBRANCH   5  28
TORSDOF 7
ENDMDL
MODEL 5
REMARK VINA RESULT:      -7.4      1.573      2.284
REMARK  Name = 338550
REMARK  7 active torsions:
REMARK  status: ('A' for Active; 'I' for Inactive)
REMARK    1  A    between atoms: C_6  and  C_10
REMARK    2  A    between atoms: C_14  and  O_18
REMARK    3  A    between atoms: N_17  and  C_21
REMARK    4  A    between atoms: C_21  and  C_24
REMARK    5  A    between atoms: C_24  and  C_27
REMARK    6  A    between atoms: C_27  and  C_28
REMARK    7  A    between atoms: C_28  and  N_29
REMARK                            x       y       z     vdW  Elec       q    Type
REMARK                         _______ _______ _______ _____ _____    ______ ____
ROOT
ATOM      1  C   UNL     1     -10.069  54.484  52.116  0.00  0.00    +0.000 A 
ATOM      2  C   UNL     1      -8.669  55.006  52.088  0.00  0.00    +0.000 A 
ATOM      3  C   UNL     1     -10.362  53.381  52.821  0.00  0.00    +0.000 A 
ATOM      4  O   UNL     1      -8.462  56.088  51.530  0.00  0.00    +0.000 OA
ATOM      5  N   UNL     1      -7.667  54.271  52.711  0.00  0.00    +0.000 N 
ATOM      6  C   UNL     1      -9.316  52.685  53.583  0.00  0.00    +0.000 A 
ATOM      7  C   UNL     1      -7.989  53.148  53.538  0.00  0.00    +0.000 A 
ATOM      8  C   UNL     1      -9.636  51.576  54.387  0.00  0.00    +0.000 A 
ATOM      9  C   UNL     1      -7.029  52.510  54.338  0.00  0.00    +0.000 A 
ATOM     10  C   UNL     1      -8.663  50.941  55.156  0.00  0.00    +0.000 A 
ATOM     11  C   UNL     1      -7.359  51.412  55.133  0.00  0.00    +0.000 A 
ENDROOT
BRANCH   1  17
ATOM     12  S   UNL     1     -13.421  56.431  51.477  0.00  0.00    +0.000 S 
ATOM     13  O   UNL     1     -13.368  57.806  51.930  0.00  0.00    +0.000 OA
ATOM     14  O   UNL     1     -14.612  55.631  51.706  0.00  0.00    +0.000 OA
ATOM     15  N   UNL     1     -12.166  55.646  52.133  0.00  0.00    +0.000 N 
ATOM     16  C   UNL     1     -13.196  56.475  49.738  0.00  0.00    +0.000 A 
ATOM     17  C   UNL     1     -11.156  55.264  51.406  0.00  0.00    +0.000 C 
ATOM     18  C   UNL     1     -12.007  55.986  49.226  0.00  0.00    +0.000 A 
ATOM     19  C   UNL     1     -14.204  56.983  48.913  0.00  0.00    +0.000 A 
ATOM     20  N   UNL     1     -11.003  55.501  50.058  0.00  0.00    +0.000 N 
ATOM     21  C   UNL     1     -11.798  56.064  47.844  0.00  0.00    +0.000 A 
ATOM     22  C   UNL     1     -13.997  57.024  47.537  0.00  0.00    +0.000 A 
ATOM     23  C   UNL     1     -12.790  56.570  47.003  0.00  0.00    +0.000 A 
ATOM     24  H   UNL     1     -12.165  55.454  53.100  0.00  0.00    +0.000 HD
ATOM     25  H   UNL     1     -10.123  55.316  49.657  0.00  0.00    +0.000 HD
ENDBRANCH   1  17
BRANCH   3  26
ATOM     26  O   UNL     1     -11.634  52.845  52.946  0.00  0.00    +0.000 OA
ATOM     27  H   UNL     1     -12.317  53.347  53.347  0.00  0.00    +0.000 HD
ENDBRANCH   3  26
BRANCH   5  28
ATOM     28  C   UNL     1      -6.294  54.782  52.621  0.00  0.00    +0.000 C 
BRANCH  28  29
ATOM     29  C   UNL     1      -5.330  53.974  51.744  0.00  0.00    +0.000 C 
BRANCH  29  30
ATOM     30  C   UNL     1      -5.758  53.804  50.286  0.00  0.00    +0.000 C 
BRANCH  30  31
ATOM     31  C   UNL     1      -5.357  55.061  49.506  0.00  0.00    +0.000 C 
BRANCH  31  32
ATOM     32  N   UNL     1      -6.523  55.774  49.007  0.00  0.00    +0.000 N 
ATOM     33  H   UNL     1      -6.298  56.763  48.906  0.00  0.00    +0.000 HD
ATOM     34  H   UNL     1      -7.294  55.666  49.664  0.00  0.00    +0.000 HD
ATOM     35  H   UNL     1      -6.793  55.391  48.101  0.00  0.00    +0.000 HD
ENDBRANCH  31  32
ENDBRANCH  30  31
ENDBRANCH  29  30
ENDBRANCH  28  29
ENDBRANCH   5  28
TORSDOF 7
ENDMDL
MODEL 6
REMARK VINA RESULT:      -7.3      2.084      2.887
REMARK  Name = 338550
REMARK  7 active torsions:
REMARK  status: ('A' for Active; 'I' for Inactive)
REMARK    1  A    between atoms: C_6  and  C_10
REMARK    2  A    between atoms: C_14  and  O_18
REMARK    3  A    between atoms: N_17  and  C_21
REMARK    4  A    between atoms: C_21  and  C_24
REMARK    5  A    between atoms: C_24  and  C_27
REMARK    6  A    between atoms: C_27  and  C_28
REMARK    7  A    between atoms: C_28  and  N_29
REMARK                            x       y       z     vdW  Elec       q    Type
REMARK                         _______ _______ _______ _____ _____    ______ ____
ROOT
ATOM      1  C   UNL     1     -11.533  54.077  51.170  0.00  0.00    +0.000 A 
ATOM      2  C   UNL     1     -10.581  54.129  52.321  0.00  0.00    +0.000 A 
ATOM      3  C   UNL     1     -11.641  52.958  50.437  0.00  0.00    +0.000 A 
ATOM      4  O   UNL     1     -10.597  55.130  53.044  0.00  0.00    +0.000 OA
ATOM      5  N   UNL     1      -9.740  53.046  52.545  0.00  0.00    +0.000 N 
ATOM      6  C   UNL     1     -10.839  51.772  50.766  0.00  0.00    +0.000 A 
ATOM      7  C   UNL     1      -9.916  51.821  51.826  0.00  0.00    +0.000 A 
ATOM      8  C   UNL     1     -11.009  50.573  50.050  0.00  0.00    +0.000 A 
ATOM      9  C   UNL     1      -9.223  50.649  52.165  0.00  0.00    +0.000 A 
ATOM     10  C   UNL     1     -10.293  49.427  50.387  0.00  0.00    +0.000 A 
ATOM     11  C   UNL     1      -9.401  49.466  51.449  0.00  0.00    +0.000 A 
ENDROOT
BRANCH   1  17
ATOM     12  S   UNL     1     -13.260  57.064  49.293  0.00  0.00    +0.000 S 
ATOM     13  O   UNL     1     -14.353  56.638  48.442  0.00  0.00    +0.000 OA
ATOM     14  O   UNL     1     -12.330  58.080  48.833  0.00  0.00    +0.000 OA
ATOM     15  N   UNL     1     -12.402  55.751  49.690  0.00  0.00    +0.000 N 
ATOM     16  C   UNL     1     -13.993  57.706  50.753  0.00  0.00    +0.000 A 
ATOM     17  C   UNL     1     -12.424  55.272  50.900  0.00  0.00    +0.000 C 
ATOM     18  C   UNL     1     -13.851  56.980  51.922  0.00  0.00    +0.000 A 
ATOM     19  C   UNL     1     -14.685  58.920  50.714  0.00  0.00    +0.000 A 
ATOM     20  N   UNL     1     -13.176  55.763  51.944  0.00  0.00    +0.000 N 
ATOM     21  C   UNL     1     -14.474  57.458  53.080  0.00  0.00    +0.000 A 
ATOM     22  C   UNL     1     -15.273  59.401  51.881  0.00  0.00    +0.000 A 
ATOM     23  C   UNL     1     -15.173  58.666  53.063  0.00  0.00    +0.000 A 
ATOM     24  H   UNL     1     -11.852  55.305  49.004  0.00  0.00    +0.000 HD
ATOM     25  H   UNL     1     -13.241  55.216  52.760  0.00  0.00    +0.000 HD
ENDBRANCH   1  17
BRANCH   3  26
ATOM     26  O   UNL     1     -12.525  52.795  49.381  0.00  0.00    +0.000 OA
ATOM     27  H   UNL     1     -12.612  53.467  48.735  0.00  0.00    +0.000 HD
ENDBRANCH   3  26
BRANCH   5  28
ATOM     28  C   UNL     1      -8.780  53.149  53.650  0.00  0.00    +0.000 C 
BRANCH  28  29
ATOM     29  C   UNL     1      -7.414  53.753  53.302  0.00  0.00    +0.000 C 
BRANCH  29  30
ATOM     30  C   UNL     1      -6.905  54.820  54.270  0.00  0.00    +0.000 C 
BRANCH  30  31
ATOM     31  C   UNL     1      -6.945  56.181  53.568  0.00  0.00    +0.000 C 
BRANCH  31  32
ATOM     32  N   UNL     1      -7.018  56.035  52.123  0.00  0.00    +0.000 N 
ATOM     33  H   UNL     1      -6.513  56.802  51.678  0.00  0.00    +0.000 HD
ATOM     34  H   UNL     1      -7.993  56.054  51.828  0.00  0.00    +0.000 HD
ATOM     35  H   UNL     1      -6.598  55.146  51.850  0.00  0.00    +0.000 HD
ENDBRANCH  31  32
ENDBRANCH  30  31
ENDBRANCH  29  30
ENDBRANCH  28  29
ENDBRANCH   5  28
TORSDOF 7
ENDMDL
MODEL 7
REMARK VINA RESULT:      -7.2      2.933      6.910
REMARK  Name = 338550
REMARK  7 active torsions:
REMARK  status: ('A' for Active; 'I' for Inactive)
REMARK    1  A    between atoms: C_6  and  C_10
REMARK    2  A    between atoms: C_14  and  O_18
REMARK    3  A    between atoms: N_17  and  C_21
REMARK    4  A    between atoms: C_21  and  C_24
REMARK    5  A    between atoms: C_24  and  C_27
REMARK    6  A    between atoms: C_27  and  C_28
REMARK    7  A    between atoms: C_28  and  N_29
REMARK                            x       y       z     vdW  Elec       q    Type
REMARK                         _______ _______ _______ _____ _____    ______ ____
ROOT
ATOM      1  C   UNL     1     -10.086  55.210  50.660  0.00  0.00    +0.000 A 
ATOM      2  C   UNL     1      -9.656  55.090  49.233  0.00  0.00    +0.000 A 
ATOM      3  C   UNL     1     -11.295  55.712  50.959  0.00  0.00    +0.000 A 
ATOM      4  O   UNL     1      -8.591  54.514  48.993  0.00  0.00    +0.000 OA
ATOM      5  N   UNL     1     -10.480  55.605  48.240  0.00  0.00    +0.000 N 
ATOM      6  C   UNL     1     -12.210  56.133  49.890  0.00  0.00    +0.000 A 
ATOM      7  C   UNL     1     -11.804  56.056  48.546  0.00  0.00    +0.000 A 
ATOM      8  C   UNL     1     -13.507  56.584  50.197  0.00  0.00    +0.000 A 
ATOM      9  C   UNL     1     -12.729  56.390  47.545  0.00  0.00    +0.000 A 
ATOM     10  C   UNL     1     -14.403  56.936  49.189  0.00  0.00    +0.000 A 
ATOM     11  C   UNL     1     -14.013  56.835  47.862  0.00  0.00    +0.000 A 
ENDROOT
BRANCH   1  17
ATOM     12  S   UNL     1      -6.930  54.764  52.956  0.00  0.00    +0.000 S 
ATOM     13  O   UNL     1      -6.858  55.754  54.012  0.00  0.00    +0.000 OA
ATOM     14  O   UNL     1      -5.732  54.380  52.231  0.00  0.00    +0.000 OA
ATOM     15  N   UNL     1      -8.020  55.275  51.873  0.00  0.00    +0.000 N 
ATOM     16  C   UNL     1      -7.538  53.295  53.698  0.00  0.00    +0.000 A 
ATOM     17  C   UNL     1      -9.173  54.684  51.747  0.00  0.00    +0.000 C 
ATOM     18  C   UNL     1      -8.819  52.886  53.372  0.00  0.00    +0.000 A 
ATOM     19  C   UNL     1      -6.731  52.570  54.580  0.00  0.00    +0.000 A 
ATOM     20  N   UNL     1      -9.619  53.627  52.508  0.00  0.00    +0.000 N 
ATOM     21  C   UNL     1      -9.330  51.743  53.997  0.00  0.00    +0.000 A 
ATOM     22  C   UNL     1      -7.240  51.416  55.170  0.00  0.00    +0.000 A 
ATOM     23  C   UNL     1      -8.543  51.007  54.884  0.00  0.00    +0.000 A 
ATOM     24  H   UNL     1      -7.807  56.048  51.299  0.00  0.00    +0.000 HD
ATOM     25  H   UNL     1     -10.569  53.379  52.436  0.00  0.00    +0.000 HD
ENDBRANCH   1  17
BRANCH   3  26
ATOM     26  O   UNL     1     -11.801  55.822  52.244  0.00  0.00    +0.000 OA
ATOM     27  H   UNL     1     -11.898  55.058  52.777  0.00  0.00    +0.000 HD
ENDBRANCH   3  26
BRANCH   5  28
ATOM     28  C   UNL     1     -10.006  55.520  46.854  0.00  0.00    +0.000 C 
BRANCH  28  29
ATOM     29  C   UNL     1     -10.107  54.140  46.190  0.00  0.00    +0.000 C 
BRANCH  29  30
ATOM     30  C   UNL     1      -8.901  53.732  45.344  0.00  0.00    +0.000 C 
BRANCH  30  31
ATOM     31  C   UNL     1      -7.806  54.791  45.504  0.00  0.00    +0.000 C 
BRANCH  31  32
ATOM     32  N   UNL     1      -6.769  54.353  46.424  0.00  0.00    +0.000 N 
ATOM     33  H   UNL     1      -7.201  53.989  47.274  0.00  0.00    +0.000 HD
ATOM     34  H   UNL     1      -6.168  55.141  46.660  0.00  0.00    +0.000 HD
ATOM     35  H   UNL     1      -6.212  53.620  45.984  0.00  0.00    +0.000 HD
ENDBRANCH  31  32
ENDBRANCH  30  31
ENDBRANCH  29  30
ENDBRANCH  28  29
ENDBRANCH   5  28
TORSDOF 7
ENDMDL
MODEL 8
REMARK VINA RESULT:      -7.1      3.311      4.329
REMARK  Name = 338550
REMARK  7 active torsions:
REMARK  status: ('A' for Active; 'I' for Inactive)
REMARK    1  A    between atoms: C_6  and  C_10
REMARK    2  A    between atoms: C_14  and  O_18
REMARK    3  A    between atoms: N_17  and  C_21
REMARK    4  A    between atoms: C_21  and  C_24
REMARK    5  A    between atoms: C_24  and  C_27
REMARK    6  A    between atoms: C_27  and  C_28
REMARK    7  A    between atoms: C_28  and  N_29
REMARK                            x       y       z     vdW  Elec       q    Type
REMARK                         _______ _______ _______ _____ _____    ______ ____
ROOT
ATOM      1  C   UNL     1     -12.350  54.317  49.933  0.00  0.00    +0.000 A 
ATOM      2  C   UNL     1     -11.964  54.099  48.505  0.00  0.00    +0.000 A 
ATOM      3  C   UNL     1     -11.896  53.488  50.887  0.00  0.00    +0.000 A 
ATOM      4  O   UNL     1     -12.302  54.949  47.676  0.00  0.00    +0.000 OA
ATOM      5  N   UNL     1     -11.225  52.969  48.176  0.00  0.00    +0.000 N 
ATOM      6  C   UNL     1     -11.006  52.371  50.541  0.00  0.00    +0.000 A 
ATOM      7  C   UNL     1     -10.664  52.137  49.197  0.00  0.00    +0.000 A 
ATOM      8  C   UNL     1     -10.465  51.551  51.546  0.00  0.00    +0.000 A 
ATOM      9  C   UNL     1      -9.751  51.112  48.907  0.00  0.00    +0.000 A 
ATOM     10  C   UNL     1      -9.578  50.522  51.236  0.00  0.00    +0.000 A 
ATOM     11  C   UNL     1      -9.219  50.306  49.913  0.00  0.00    +0.000 A 
ENDROOT
BRANCH   1  17
ATOM     12  S   UNL     1     -15.331  56.497  51.270  0.00  0.00    +0.000 S 
ATOM     13  O   UNL     1     -15.306  56.664  52.709  0.00  0.00    +0.000 OA
ATOM     14  O   UNL     1     -16.588  56.249  50.586  0.00  0.00    +0.000 OA
ATOM     15  N   UNL     1     -14.317  55.293  50.894  0.00  0.00    +0.000 N 
ATOM     16  C   UNL     1     -14.696  57.985  50.590  0.00  0.00    +0.000 A 
ATOM     17  C   UNL     1     -13.188  55.527  50.290  0.00  0.00    +0.000 C 
ATOM     18  C   UNL     1     -13.451  57.943  49.987  0.00  0.00    +0.000 A 
ATOM     19  C   UNL     1     -15.448  59.162  50.655  0.00  0.00    +0.000 A 
ATOM     20  N   UNL     1     -12.705  56.769  49.946  0.00  0.00    +0.000 N 
ATOM     21  C   UNL     1     -12.916  59.134  49.487  0.00  0.00    +0.000 A 
ATOM     22  C   UNL     1     -14.917  60.334  50.124  0.00  0.00    +0.000 A 
ATOM     23  C   UNL     1     -13.647  60.322  49.546  0.00  0.00    +0.000 A 
ATOM     24  H   UNL     1     -14.558  54.366  51.127  0.00  0.00    +0.000 HD
ATOM     25  H   UNL     1     -11.768  56.831  49.651  0.00  0.00    +0.000 HD
ENDBRANCH   1  17
BRANCH   3  26
ATOM     26  O   UNL     1     -12.159  53.632  52.240  0.00  0.00    +0.000 OA
ATOM     27  H   UNL     1     -11.970  54.442  52.671  0.00  0.00    +0.000 HD
ENDBRANCH   3  26
BRANCH   5  28
ATOM     28  C   UNL     1     -10.908  52.755  46.759  0.00  0.00    +0.000 C 
BRANCH  28  29
ATOM     29  C   UNL     1      -9.481  53.115  46.326  0.00  0.00    +0.000 C 
BRANCH  29  30
ATOM     30  C   UNL     1      -9.178  54.611  46.251  0.00  0.00    +0.000 C 
BRANCH  30  31
ATOM     31  C   UNL     1      -8.142  54.958  47.325  0.00  0.00    +0.000 C 
BRANCH  31  32
ATOM     32  N   UNL     1      -6.799  54.586  46.912  0.00  0.00    +0.000 N 
ATOM     33  H   UNL     1      -6.573  55.051  46.032  0.00  0.00    +0.000 HD
ATOM     34  H   UNL     1      -6.749  53.576  46.784  0.00  0.00    +0.000 HD
ATOM     35  H   UNL     1      -6.131  54.871  47.629  0.00  0.00    +0.000 HD
ENDBRANCH  31  32
ENDBRANCH  30  31
ENDBRANCH  29  30
ENDBRANCH  28  29
ENDBRANCH   5  28
TORSDOF 7
ENDMDL
MODEL 9
REMARK VINA RESULT:      -7.0      3.542      5.273
REMARK  Name = 338550
REMARK  7 active torsions:
REMARK  status: ('A' for Active; 'I' for Inactive)
REMARK    1  A    between atoms: C_6  and  C_10
REMARK    2  A    between atoms: C_14  and  O_18
REMARK    3  A    between atoms: N_17  and  C_21
REMARK    4  A    between atoms: C_21  and  C_24
REMARK    5  A    between atoms: C_24  and  C_27
REMARK    6  A    between atoms: C_27  and  C_28
REMARK    7  A    between atoms: C_28  and  N_29
REMARK                            x       y       z     vdW  Elec       q    Type
REMARK                         _______ _______ _______ _____ _____    ______ ____
ROOT
ATOM      1  C   UNL     1     -11.628  54.903  48.572  0.00  0.00    +0.000 A 
ATOM      2  C   UNL     1     -10.703  54.028  49.355  0.00  0.00    +0.000 A 
ATOM      3  C   UNL     1     -11.662  54.818  47.233  0.00  0.00    +0.000 A 
ATOM      4  O   UNL     1     -10.786  54.048  50.586  0.00  0.00    +0.000 OA
ATOM      5  N   UNL     1      -9.811  53.212  48.669  0.00  0.00    +0.000 N 
ATOM      6  C   UNL     1     -10.806  53.857  46.525  0.00  0.00    +0.000 A 
ATOM      7  C   UNL     1      -9.908  53.052  47.250  0.00  0.00    +0.000 A 
ATOM      8  C   UNL     1     -10.898  53.709  45.130  0.00  0.00    +0.000 A 
ATOM      9  C   UNL     1      -9.161  52.089  46.554  0.00  0.00    +0.000 A 
ATOM     10  C   UNL     1     -10.129  52.764  44.454  0.00  0.00    +0.000 A 
ATOM     11  C   UNL     1      -9.263  51.951  45.170  0.00  0.00    +0.000 A 
ENDROOT
BRANCH   1  17
ATOM     12  S   UNL     1     -14.609  56.117  50.823  0.00  0.00    +0.000 S 
ATOM     13  O   UNL     1     -14.321  56.021  52.240  0.00  0.00    +0.000 OA
ATOM     14  O   UNL     1     -15.916  55.736  50.316  0.00  0.00    +0.000 OA
ATOM     15  N   UNL     1     -13.498  55.246  50.032  0.00  0.00    +0.000 N 
ATOM     16  C   UNL     1     -14.397  57.805  50.391  0.00  0.00    +0.000 A 
ATOM     17  C   UNL     1     -12.575  55.821  49.317  0.00  0.00    +0.000 C 
ATOM     18  C   UNL     1     -13.312  58.139  49.599  0.00  0.00    +0.000 A 
ATOM     19  C   UNL     1     -15.313  58.762  50.835  0.00  0.00    +0.000 A 
ATOM     20  N   UNL     1     -12.396  57.179  49.179  0.00  0.00    +0.000 N 
ATOM     21  C   UNL     1     -13.107  59.488  49.291  0.00  0.00    +0.000 A 
ATOM     22  C   UNL     1     -15.115  60.098  50.494  0.00  0.00    +0.000 A 
ATOM     23  C   UNL     1     -14.008  60.462  49.727  0.00  0.00    +0.000 A 
ATOM     24  H   UNL     1     -13.521  54.262  50.092  0.00  0.00    +0.000 HD
ATOM     25  H   UNL     1     -11.565  57.492  48.756  0.00  0.00    +0.000 HD
ENDBRANCH   1  17
BRANCH   3  26
ATOM     26  O   UNL     1     -12.515  55.552  46.423  0.00  0.00    +0.000 OA
ATOM     27  H   UNL     1     -12.640  55.305  45.528  0.00  0.00    +0.000 HD
ENDBRANCH   3  26
BRANCH   5  28
ATOM     28  C   UNL     1      -8.880  52.404  49.464  0.00  0.00    +0.000 C 
BRANCH  28  29
ATOM     29  C   UNL     1      -7.517  53.042  49.761  0.00  0.00    +0.000 C 
BRANCH  29  30
ATOM     30  C   UNL     1      -7.194  54.300  48.956  0.00  0.00    +0.000 C 
BRANCH  30  31
ATOM     31  C   UNL     1      -6.447  55.286  49.860  0.00  0.00    +0.000 C 
BRANCH  31  32
ATOM     32  N   UNL     1      -5.215  55.750  49.240  0.00  0.00    +0.000 N 
ATOM     33  H   UNL     1      -5.396  56.617  48.733  0.00  0.00    +0.000 HD
ATOM     34  H   UNL     1      -4.873  55.043  48.592  0.00  0.00    +0.000 HD
ATOM     35  H   UNL     1      -4.514  55.918  49.962  0.00  0.00    +0.000 HD
ENDBRANCH  31  32
ENDBRANCH  30  31
ENDBRANCH  29  30
ENDBRANCH  28  29
ENDBRANCH   5  28
TORSDOF 7
ENDMDL
