MODEL 1
REMARK VINA RESULT:      -8.6      0.000      0.000
REMARK  Name = 338168
REMARK  5 active torsions:
REMARK  status: ('A' for Active; 'I' for Inactive)
REMARK    1  A    between atoms: C_6  and  C_10
REMARK    2  A    between atoms: C_14  and  O_18
REMARK    3  A    between atoms: N_17  and  C_21
REMARK    4  A    between atoms: C_21  and  C_24
REMARK    5  A    between atoms: C_24  and  C_27
REMARK                            x       y       z     vdW  Elec       q    Type
REMARK                         _______ _______ _______ _____ _____    ______ ____
ROOT
ATOM      1  C   UNL     1      -9.990  54.551  52.367  0.00  0.00    +0.000 A 
ATOM      2  C   UNL     1      -8.596  55.059  52.258  0.00  0.00    +0.000 A 
ATOM      3  C   UNL     1     -10.243  53.418  53.044  0.00  0.00    +0.000 A 
ATOM      4  O   UNL     1      -8.396  56.002  51.491  0.00  0.00    +0.000 OA
ATOM      5  N   UNL     1      -7.602  54.478  53.048  0.00  0.00    +0.000 N 
ATOM      6  C   UNL     1      -9.162  52.705  53.734  0.00  0.00    +0.000 A 
ATOM      7  C   UNL     1      -7.860  53.248  53.753  0.00  0.00    +0.000 A 
ATOM      8  C   UNL     1      -9.441  51.505  54.415  0.00  0.00    +0.000 A 
ATOM      9  C   UNL     1      -6.867  52.553  54.469  0.00  0.00    +0.000 A 
ATOM     10  C   UNL     1      -8.448  50.863  55.133  0.00  0.00    +0.000 A 
ATOM     11  C   UNL     1      -7.164  51.377  55.169  0.00  0.00    +0.000 A 
ATOM     12  F   UNL     1      -8.734  49.741  55.806  0.00  0.00    +0.000 F 
ENDROOT
BRANCH   1  18
ATOM     13  S   UNL     1     -12.373  55.780  49.427  0.00  0.00    +0.000 S 
ATOM     14  O   UNL     1     -13.051  54.538  49.142  0.00  0.00    +0.000 OA
ATOM     15  O   UNL     1     -11.938  56.677  48.377  0.00  0.00    +0.000 OA
ATOM     16  N   UNL     1     -11.054  55.457  50.357  0.00  0.00    +0.000 N 
ATOM     17  C   UNL     1     -13.367  56.692  50.534  0.00  0.00    +0.000 A 
ATOM     18  C   UNL     1     -11.128  55.280  51.736  0.00  0.00    +0.000 C 
ATOM     19  C   UNL     1     -13.105  56.553  51.893  0.00  0.00    +0.000 A 
ATOM     20  C   UNL     1     -14.360  57.546  50.046  0.00  0.00    +0.000 A 
ATOM     21  N   UNL     1     -12.114  55.727  52.447  0.00  0.00    +0.000 N 
ATOM     22  C   UNL     1     -13.866  57.320  52.780  0.00  0.00    +0.000 A 
ATOM     23  C   UNL     1     -15.115  58.289  50.947  0.00  0.00    +0.000 A 
ATOM     24  C   UNL     1     -14.864  58.182  52.315  0.00  0.00    +0.000 A 
ATOM     25  H   UNL     1     -10.175  55.386  49.920  0.00  0.00    +0.000 HD
ATOM     26  H   UNL     1     -12.170  55.481  53.399  0.00  0.00    +0.000 HD
ENDBRANCH   1  18
BRANCH   3  27
ATOM     27  O   UNL     1     -11.498  52.845  53.180  0.00  0.00    +0.000 OA
ATOM     28  H   UNL     1     -11.914  52.821  54.019  0.00  0.00    +0.000 HD
ENDBRANCH   3  27
BRANCH   5  29
ATOM     29  C   UNL     1      -6.224  55.022  52.985  0.00  0.00    +0.000 C 
BRANCH  29  30
ATOM     30  C   UNL     1      -5.212  54.236  52.131  0.00  0.00    +0.000 C 
BRANCH  30  31
ATOM     31  C   UNL     1      -5.341  54.502  50.658  0.00  0.00    +0.000 C 
ATOM     32  C   UNL     1      -6.154  53.641  49.726  0.00  0.00    +0.000 C 
ATOM     33  C   UNL     1      -4.654  53.563  49.699  0.00  0.00    +0.000 C 
ENDBRANCH  30  31
ENDBRANCH  29  30
ENDBRANCH   5  29
TORSDOF 5
ENDMDL
MODEL 2
REMARK VINA RESULT:      -8.3      3.832      5.413
REMARK  Name = 338168
REMARK  5 active torsions:
REMARK  status: ('A' for Active; 'I' for Inactive)
REMARK    1  A    between atoms: C_6  and  C_10
REMARK    2  A    between atoms: C_14  and  O_18
REMARK    3  A    between atoms: N_17  and  C_21
REMARK    4  A    between atoms: C_21  and  C_24
REMARK    5  A    between atoms: C_24  and  C_27
REMARK                            x       y       z     vdW  Elec       q    Type
REMARK                         _______ _______ _______ _____ _____    ______ ____
ROOT
ATOM      1  C   UNL     1     -11.504  55.781  48.985  0.00  0.00    +0.000 A 
ATOM      2  C   UNL     1     -10.438  55.082  49.751  0.00  0.00    +0.000 A 
ATOM      3  C   UNL     1     -11.663  55.536  47.673  0.00  0.00    +0.000 A 
ATOM      4  O   UNL     1     -10.225  55.464  50.902  0.00  0.00    +0.000 OA
ATOM      5  N   UNL     1      -9.762  54.017  49.151  0.00  0.00    +0.000 N 
ATOM      6  C   UNL     1     -10.831  54.535  46.997  0.00  0.00    +0.000 A 
ATOM      7  C   UNL     1      -9.908  53.768  47.739  0.00  0.00    +0.000 A 
ATOM      8  C   UNL     1     -10.992  54.310  45.617  0.00  0.00    +0.000 A 
ATOM      9  C   UNL     1      -9.167  52.785  47.055  0.00  0.00    +0.000 A 
ATOM     10  C   UNL     1     -10.269  53.317  44.981  0.00  0.00    +0.000 A 
ATOM     11  C   UNL     1      -9.359  52.551  45.688  0.00  0.00    +0.000 A 
ATOM     12  F   UNL     1     -10.456  53.090  43.675  0.00  0.00    +0.000 F 
ENDROOT
BRANCH   1  18
ATOM     13  S   UNL     1     -13.521  59.180  49.445  0.00  0.00    +0.000 S 
ATOM     14  O   UNL     1     -14.513  59.004  48.412  0.00  0.00    +0.000 OA
ATOM     15  O   UNL     1     -12.880  60.456  49.685  0.00  0.00    +0.000 OA
ATOM     16  N   UNL     1     -12.320  58.077  49.215  0.00  0.00    +0.000 N 
ATOM     17  C   UNL     1     -14.213  58.636  50.952  0.00  0.00    +0.000 A 
ATOM     18  C   UNL     1     -12.415  56.758  49.649  0.00  0.00    +0.000 C 
ATOM     19  C   UNL     1     -13.974  57.317  51.326  0.00  0.00    +0.000 A 
ATOM     20  C   UNL     1     -14.948  59.519  51.747  0.00  0.00    +0.000 A 
ATOM     21  N   UNL     1     -13.232  56.385  50.583  0.00  0.00    +0.000 N 
ATOM     22  C   UNL     1     -14.484  56.892  52.556  0.00  0.00    +0.000 A 
ATOM     23  C   UNL     1     -15.459  59.070  52.960  0.00  0.00    +0.000 A 
ATOM     24  C   UNL     1     -15.222  57.757  53.369  0.00  0.00    +0.000 A 
ATOM     25  H   UNL     1     -11.502  58.363  48.750  0.00  0.00    +0.000 HD
ATOM     26  H   UNL     1     -13.335  55.425  50.776  0.00  0.00    +0.000 HD
ENDBRANCH   1  18
BRANCH   3  27
ATOM     27  O   UNL     1     -12.605  56.153  46.865  0.00  0.00    +0.000 OA
ATOM     28  H   UNL     1     -13.265  55.641  46.441  0.00  0.00    +0.000 HD
ENDBRANCH   3  27
BRANCH   5  29
ATOM     29  C   UNL     1      -8.740  53.282  49.933  0.00  0.00    +0.000 C 
BRANCH  29  30
ATOM     30  C   UNL     1      -7.503  54.085  50.374  0.00  0.00    +0.000 C 
BRANCH  30  31
ATOM     31  C   UNL     1      -6.849  54.838  49.251  0.00  0.00    +0.000 C 
ATOM     32  C   UNL     1      -5.856  54.217  48.302  0.00  0.00    +0.000 C 
ATOM     33  C   UNL     1      -5.381  55.163  49.368  0.00  0.00    +0.000 C 
ENDBRANCH  30  31
ENDBRANCH  29  30
ENDBRANCH   5  29
TORSDOF 5
ENDMDL
MODEL 3
REMARK VINA RESULT:      -8.3      3.874      7.421
REMARK  Name = 338168
REMARK  5 active torsions:
REMARK  status: ('A' for Active; 'I' for Inactive)
REMARK    1  A    between atoms: C_6  and  C_10
REMARK    2  A    between atoms: C_14  and  O_18
REMARK    3  A    between atoms: N_17  and  C_21
REMARK    4  A    between atoms: C_21  and  C_24
REMARK    5  A    between atoms: C_24  and  C_27
REMARK                            x       y       z     vdW  Elec       q    Type
REMARK                         _______ _______ _______ _____ _____    ______ ____
ROOT
ATOM      1  C   UNL     1     -10.111  55.089  50.791  0.00  0.00    +0.000 A 
ATOM      2  C   UNL     1      -9.703  55.185  49.364  0.00  0.00    +0.000 A 
ATOM      3  C   UNL     1     -11.326  55.516  51.175  0.00  0.00    +0.000 A 
ATOM      4  O   UNL     1      -8.526  54.940  49.095  0.00  0.00    +0.000 OA
ATOM      5  N   UNL     1     -10.666  55.506  48.406  0.00  0.00    +0.000 N 
ATOM      6  C   UNL     1     -12.285  56.020  50.185  0.00  0.00    +0.000 A 
ATOM      7  C   UNL     1     -11.962  55.991  48.812  0.00  0.00    +0.000 A 
ATOM      8  C   UNL     1     -13.543  56.488  50.607  0.00  0.00    +0.000 A 
ATOM      9  C   UNL     1     -12.932  56.440  47.896  0.00  0.00    +0.000 A 
ATOM     10  C   UNL     1     -14.485  56.895  49.679  0.00  0.00    +0.000 A 
ATOM     11  C   UNL     1     -14.192  56.874  48.327  0.00  0.00    +0.000 A 
ATOM     12  F   UNL     1     -15.691  57.305  50.091  0.00  0.00    +0.000 F 
ENDROOT
BRANCH   1  18
ATOM     13  S   UNL     1      -6.893  54.902  53.123  0.00  0.00    +0.000 S 
ATOM     14  O   UNL     1      -7.206  55.973  54.039  0.00  0.00    +0.000 OA
ATOM     15  O   UNL     1      -5.554  54.695  52.612  0.00  0.00    +0.000 OA
ATOM     16  N   UNL     1      -7.891  55.016  51.819  0.00  0.00    +0.000 N 
ATOM     17  C   UNL     1      -7.429  53.406  53.845  0.00  0.00    +0.000 A 
ATOM     18  C   UNL     1      -9.192  54.522  51.820  0.00  0.00    +0.000 C 
ATOM     19  C   UNL     1      -8.702  52.955  53.510  0.00  0.00    +0.000 A 
ATOM     20  C   UNL     1      -6.581  52.694  54.697  0.00  0.00    +0.000 A 
ATOM     21  N   UNL     1      -9.595  53.612  52.650  0.00  0.00    +0.000 N 
ATOM     22  C   UNL     1      -9.115  51.732  54.047  0.00  0.00    +0.000 A 
ATOM     23  C   UNL     1      -7.019  51.487  55.232  0.00  0.00    +0.000 A 
ATOM     24  C   UNL     1      -8.284  51.001  54.902  0.00  0.00    +0.000 A 
ATOM     25  H   UNL     1      -7.553  55.453  51.005  0.00  0.00    +0.000 HD
ATOM     26  H   UNL     1     -10.551  53.376  52.678  0.00  0.00    +0.000 HD
ENDBRANCH   1  18
BRANCH   3  27
ATOM     27  O   UNL     1     -11.793  55.497  52.480  0.00  0.00    +0.000 OA
ATOM     28  H   UNL     1     -11.249  55.810  53.176  0.00  0.00    +0.000 HD
ENDBRANCH   3  27
BRANCH   5  29
ATOM     29  C   UNL     1     -10.274  55.545  46.977  0.00  0.00    +0.000 C 
BRANCH  29  30
ATOM     30  C   UNL     1     -10.162  54.188  46.258  0.00  0.00    +0.000 C 
BRANCH  30  31
ATOM     31  C   UNL     1     -11.307  53.912  45.324  0.00  0.00    +0.000 C 
ATOM     32  C   UNL     1     -12.035  52.594  45.271  0.00  0.00    +0.000 C 
ATOM     33  C   UNL     1     -11.078  52.965  44.173  0.00  0.00    +0.000 C 
ENDBRANCH  30  31
ENDBRANCH  29  30
ENDBRANCH   5  29
TORSDOF 5
ENDMDL
MODEL 4
REMARK VINA RESULT:      -8.2      3.672      7.278
REMARK  Name = 338168
REMARK  5 active torsions:
REMARK  status: ('A' for Active; 'I' for Inactive)
REMARK    1  A    between atoms: C_6  and  C_10
REMARK    2  A    between atoms: C_14  and  O_18
REMARK    3  A    between atoms: N_17  and  C_21
REMARK    4  A    between atoms: C_21  and  C_24
REMARK    5  A    between atoms: C_24  and  C_27
REMARK                            x       y       z     vdW  Elec       q    Type
REMARK                         _______ _______ _______ _____ _____    ______ ____
ROOT
ATOM      1  C   UNL     1     -10.168  55.443  50.478  0.00  0.00    +0.000 A 
ATOM      2  C   UNL     1     -10.337  55.698  49.022  0.00  0.00    +0.000 A 
ATOM      3  C   UNL     1     -11.202  55.617  51.317  0.00  0.00    +0.000 A 
ATOM      4  O   UNL     1      -9.323  55.688  48.324  0.00  0.00    +0.000 OA
ATOM      5  N   UNL     1     -11.624  55.896  48.516  0.00  0.00    +0.000 N 
ATOM      6  C   UNL     1     -12.522  55.998  50.803  0.00  0.00    +0.000 A 
ATOM      7  C   UNL     1     -12.732  56.111  49.413  0.00  0.00    +0.000 A 
ATOM      8  C   UNL     1     -13.588  56.202  51.699  0.00  0.00    +0.000 A 
ATOM      9  C   UNL     1     -14.027  56.431  48.964  0.00  0.00    +0.000 A 
ATOM     10  C   UNL     1     -14.856  56.487  51.225  0.00  0.00    +0.000 A 
ATOM     11  C   UNL     1     -15.086  56.601  49.865  0.00  0.00    +0.000 A 
ATOM     12  F   UNL     1     -15.869  56.645  52.086  0.00  0.00    +0.000 F 
ENDROOT
BRANCH   1  18
ATOM     13  S   UNL     1      -6.573  53.738  50.461  0.00  0.00    +0.000 S 
ATOM     14  O   UNL     1      -5.862  54.700  49.653  0.00  0.00    +0.000 OA
ATOM     15  O   UNL     1      -6.373  52.311  50.311  0.00  0.00    +0.000 OA
ATOM     16  N   UNL     1      -8.189  54.013  50.307  0.00  0.00    +0.000 N 
ATOM     17  C   UNL     1      -6.306  54.143  52.137  0.00  0.00    +0.000 A 
ATOM     18  C   UNL     1      -8.859  54.992  51.034  0.00  0.00    +0.000 C 
ATOM     19  C   UNL     1      -7.252  54.955  52.757  0.00  0.00    +0.000 A 
ATOM     20  C   UNL     1      -5.195  53.634  52.815  0.00  0.00    +0.000 A 
ATOM     21  N   UNL     1      -8.396  55.485  52.139  0.00  0.00    +0.000 N 
ATOM     22  C   UNL     1      -7.068  55.240  54.113  0.00  0.00    +0.000 A 
ATOM     23  C   UNL     1      -5.025  53.944  54.160  0.00  0.00    +0.000 A 
ATOM     24  C   UNL     1      -5.964  54.742  54.813  0.00  0.00    +0.000 A 
ATOM     25  H   UNL     1      -8.702  53.462  49.673  0.00  0.00    +0.000 HD
ATOM     26  H   UNL     1      -8.856  56.249  52.555  0.00  0.00    +0.000 HD
ENDBRANCH   1  18
BRANCH   3  27
ATOM     27  O   UNL     1     -11.142  55.436  52.690  0.00  0.00    +0.000 OA
ATOM     28  H   UNL     1     -11.911  55.186  53.164  0.00  0.00    +0.000 HD
ENDBRANCH   3  27
BRANCH   5  29
ATOM     29  C   UNL     1     -11.801  56.091  47.058  0.00  0.00    +0.000 C 
BRANCH  29  30
ATOM     30  C   UNL     1     -12.088  54.829  46.224  0.00  0.00    +0.000 C 
BRANCH  30  31
ATOM     31  C   UNL     1     -10.858  54.232  45.602  0.00  0.00    +0.000 C 
ATOM     32  C   UNL     1     -10.897  53.125  44.581  0.00  0.00    +0.000 C 
ATOM     33  C   UNL     1     -10.470  52.827  45.990  0.00  0.00    +0.000 C 
ENDBRANCH  30  31
ENDBRANCH  29  30
ENDBRANCH   5  29
TORSDOF 5
ENDMDL
MODEL 5
REMARK VINA RESULT:      -8.2      3.897      5.763
REMARK  Name = 338168
REMARK  5 active torsions:
REMARK  status: ('A' for Active; 'I' for Inactive)
REMARK    1  A    between atoms: C_6  and  C_10
REMARK    2  A    between atoms: C_14  and  O_18
REMARK    3  A    between atoms: N_17  and  C_21
REMARK    4  A    between atoms: C_21  and  C_24
REMARK    5  A    between atoms: C_24  and  C_27
REMARK                            x       y       z     vdW  Elec       q    Type
REMARK                         _______ _______ _______ _____ _____    ______ ____
ROOT
ATOM      1  C   UNL     1     -11.565  55.765  48.929  0.00  0.00    +0.000 A 
ATOM      2  C   UNL     1     -10.470  55.074  49.662  0.00  0.00    +0.000 A 
ATOM      3  C   UNL     1     -11.768  55.510  47.625  0.00  0.00    +0.000 A 
ATOM      4  O   UNL     1     -10.219  55.465  50.803  0.00  0.00    +0.000 OA
ATOM      5  N   UNL     1      -9.814  54.006  49.048  0.00  0.00    +0.000 N 
ATOM      6  C   UNL     1     -10.957  54.506  46.928  0.00  0.00    +0.000 A 
ATOM      7  C   UNL     1     -10.007  53.746  47.643  0.00  0.00    +0.000 A 
ATOM      8  C   UNL     1     -11.165  54.270  45.556  0.00  0.00    +0.000 A 
ATOM      9  C   UNL     1      -9.287  52.760  46.942  0.00  0.00    +0.000 A 
ATOM     10  C   UNL     1     -10.462  53.274  44.903  0.00  0.00    +0.000 A 
ATOM     11  C   UNL     1      -9.526  52.515  45.584  0.00  0.00    +0.000 A 
ATOM     12  F   UNL     1     -10.693  53.037  43.606  0.00  0.00    +0.000 F 
ENDROOT
BRANCH   1  18
ATOM     13  S   UNL     1     -13.516  59.190  49.466  0.00  0.00    +0.000 S 
ATOM     14  O   UNL     1     -14.516  59.054  48.434  0.00  0.00    +0.000 OA
ATOM     15  O   UNL     1     -12.850  60.449  49.729  0.00  0.00    +0.000 OA
ATOM     16  N   UNL     1     -12.337  58.071  49.208  0.00  0.00    +0.000 N 
ATOM     17  C   UNL     1     -14.212  58.629  50.965  0.00  0.00    +0.000 A 
ATOM     18  C   UNL     1     -12.455  56.745  49.616  0.00  0.00    +0.000 C 
ATOM     19  C   UNL     1     -13.995  57.298  51.311  0.00  0.00    +0.000 A 
ATOM     20  C   UNL     1     -14.927  59.509  51.781  0.00  0.00    +0.000 A 
ATOM     21  N   UNL     1     -13.274  56.368  50.546  0.00  0.00    +0.000 N 
ATOM     22  C   UNL     1     -14.508  56.858  52.535  0.00  0.00    +0.000 A 
ATOM     23  C   UNL     1     -15.441  59.045  52.987  0.00  0.00    +0.000 A 
ATOM     24  C   UNL     1     -15.227  57.720  53.369  0.00  0.00    +0.000 A 
ATOM     25  H   UNL     1     -11.515  58.350  48.746  0.00  0.00    +0.000 HD
ATOM     26  H   UNL     1     -13.394  55.406  50.720  0.00  0.00    +0.000 HD
ENDBRANCH   1  18
BRANCH   3  27
ATOM     27  O   UNL     1     -12.738  56.119  46.845  0.00  0.00    +0.000 OA
ATOM     28  H   UNL     1     -12.552  56.929  46.414  0.00  0.00    +0.000 HD
ENDBRANCH   3  27
BRANCH   5  29
ATOM     29  C   UNL     1      -8.763  53.279  49.799  0.00  0.00    +0.000 C 
BRANCH  29  30
ATOM     30  C   UNL     1      -9.236  52.120  50.695  0.00  0.00    +0.000 C 
BRANCH  30  31
ATOM     31  C   UNL     1      -9.132  52.420  52.164  0.00  0.00    +0.000 C 
ATOM     32  C   UNL     1      -9.392  51.400  53.241  0.00  0.00    +0.000 C 
ATOM     33  C   UNL     1     -10.403  52.478  52.973  0.00  0.00    +0.000 C 
ENDBRANCH  30  31
ENDBRANCH  29  30
ENDBRANCH   5  29
TORSDOF 5
ENDMDL
MODEL 6
REMARK VINA RESULT:      -8.0      3.302      4.366
REMARK  Name = 338168
REMARK  5 active torsions:
REMARK  status: ('A' for Active; 'I' for Inactive)
REMARK    1  A    between atoms: C_6  and  C_10
REMARK    2  A    between atoms: C_14  and  O_18
REMARK    3  A    between atoms: N_17  and  C_21
REMARK    4  A    between atoms: C_21  and  C_24
REMARK    5  A    between atoms: C_24  and  C_27
REMARK                            x       y       z     vdW  Elec       q    Type
REMARK                         _______ _______ _______ _____ _____    ______ ____
ROOT
ATOM      1  C   UNL     1     -12.160  54.363  50.256  0.00  0.00    +0.000 A 
ATOM      2  C   UNL     1     -11.963  53.873  48.866  0.00  0.00    +0.000 A 
ATOM      3  C   UNL     1     -11.666  53.666  51.293  0.00  0.00    +0.000 A 
ATOM      4  O   UNL     1     -12.576  54.454  47.969  0.00  0.00    +0.000 OA
ATOM      5  N   UNL     1     -11.076  52.818  48.640  0.00  0.00    +0.000 N 
ATOM      6  C   UNL     1     -10.875  52.452  51.064  0.00  0.00    +0.000 A 
ATOM      7  C   UNL     1     -10.565  52.050  49.748  0.00  0.00    +0.000 A 
ATOM      8  C   UNL     1     -10.388  51.718  52.162  0.00  0.00    +0.000 A 
ATOM      9  C   UNL     1      -9.763  50.906  49.579  0.00  0.00    +0.000 A 
ATOM     10  C   UNL     1      -9.578  50.616  51.962  0.00  0.00    +0.000 A 
ATOM     11  C   UNL     1      -9.258  50.203  50.680  0.00  0.00    +0.000 A 
ATOM     12  F   UNL     1      -9.092  49.947  53.016  0.00  0.00    +0.000 F 
ENDROOT
BRANCH   1  18
ATOM     13  S   UNL     1     -14.427  56.910  52.308  0.00  0.00    +0.000 S 
ATOM     14  O   UNL     1     -13.491  57.271  53.345  0.00  0.00    +0.000 OA
ATOM     15  O   UNL     1     -15.830  56.678  52.584  0.00  0.00    +0.000 OA
ATOM     16  N   UNL     1     -13.864  55.570  51.534  0.00  0.00    +0.000 N 
ATOM     17  C   UNL     1     -14.321  58.113  51.048  0.00  0.00    +0.000 A 
ATOM     18  C   UNL     1     -12.903  55.628  50.530  0.00  0.00    +0.000 C 
ATOM     19  C   UNL     1     -13.461  57.852  49.986  0.00  0.00    +0.000 A 
ATOM     20  C   UNL     1     -15.104  59.268  51.112  0.00  0.00    +0.000 A 
ATOM     21  N   UNL     1     -12.661  56.705  49.852  0.00  0.00    +0.000 N 
ATOM     22  C   UNL     1     -13.411  58.789  48.950  0.00  0.00    +0.000 A 
ATOM     23  C   UNL     1     -15.027  60.195  50.077  0.00  0.00    +0.000 A 
ATOM     24  C   UNL     1     -14.185  59.953  48.992  0.00  0.00    +0.000 A 
ATOM     25  H   UNL     1     -14.222  54.691  51.794  0.00  0.00    +0.000 HD
ATOM     26  H   UNL     1     -11.900  56.721  49.228  0.00  0.00    +0.000 HD
ENDBRANCH   1  18
BRANCH   3  27
ATOM     27  O   UNL     1     -11.819  54.019  52.625  0.00  0.00    +0.000 OA
ATOM     28  H   UNL     1     -11.470  53.469  53.298  0.00  0.00    +0.000 HD
ENDBRANCH   3  27
BRANCH   5  29
ATOM     29  C   UNL     1     -10.833  52.368  47.249  0.00  0.00    +0.000 C 
BRANCH  29  30
ATOM     30  C   UNL     1      -9.483  52.762  46.624  0.00  0.00    +0.000 C 
BRANCH  30  31
ATOM     31  C   UNL     1      -9.462  54.164  46.085  0.00  0.00    +0.000 C 
ATOM     32  C   UNL     1      -8.202  54.873  45.663  0.00  0.00    +0.000 C 
ATOM     33  C   UNL     1      -8.879  55.254  46.948  0.00  0.00    +0.000 C 
ENDBRANCH  30  31
ENDBRANCH  29  30
ENDBRANCH   5  29
TORSDOF 5
ENDMDL
MODEL 7
REMARK VINA RESULT:      -8.0      3.760      7.369
REMARK  Name = 338168
REMARK  5 active torsions:
REMARK  status: ('A' for Active; 'I' for Inactive)
REMARK    1  A    between atoms: C_6  and  C_10
REMARK    2  A    between atoms: C_14  and  O_18
REMARK    3  A    between atoms: N_17  and  C_21
REMARK    4  A    between atoms: C_21  and  C_24
REMARK    5  A    between atoms: C_24  and  C_27
REMARK                            x       y       z     vdW  Elec       q    Type
REMARK                         _______ _______ _______ _____ _____    ______ ____
ROOT
ATOM      1  C   UNL     1     -10.445  55.105  50.701  0.00  0.00    +0.000 A 
ATOM      2  C   UNL     1     -10.149  55.178  49.245  0.00  0.00    +0.000 A 
ATOM      3  C   UNL     1     -11.574  55.648  51.187  0.00  0.00    +0.000 A 
ATOM      4  O   UNL     1      -9.030  54.819  48.876  0.00  0.00    +0.000 OA
ATOM      5  N   UNL     1     -11.150  55.609  48.372  0.00  0.00    +0.000 N 
ATOM      6  C   UNL     1     -12.554  56.261  50.284  0.00  0.00    +0.000 A 
ATOM      7  C   UNL     1     -12.351  56.217  48.888  0.00  0.00    +0.000 A 
ATOM      8  C   UNL     1     -13.719  56.848  50.812  0.00  0.00    +0.000 A 
ATOM      9  C   UNL     1     -13.343  56.775  48.059  0.00  0.00    +0.000 A 
ATOM     10  C   UNL     1     -14.687  57.362  49.969  0.00  0.00    +0.000 A 
ATOM     11  C   UNL     1     -14.511  57.329  48.597  0.00  0.00    +0.000 A 
ATOM     12  F   UNL     1     -15.806  57.887  50.483  0.00  0.00    +0.000 F 
ENDROOT
BRANCH   1  18
ATOM     13  S   UNL     1      -8.884  52.109  52.803  0.00  0.00    +0.000 S 
ATOM     14  O   UNL     1      -8.292  51.352  51.725  0.00  0.00    +0.000 OA
ATOM     15  O   UNL     1      -9.573  51.469  53.904  0.00  0.00    +0.000 OA
ATOM     16  N   UNL     1      -9.925  53.211  52.161  0.00  0.00    +0.000 N 
ATOM     17  C   UNL     1      -7.648  53.144  53.473  0.00  0.00    +0.000 A 
ATOM     18  C   UNL     1      -9.506  54.433  51.645  0.00  0.00    +0.000 C 
ATOM     19  C   UNL     1      -7.559  54.440  52.974  0.00  0.00    +0.000 A 
ATOM     20  C   UNL     1      -6.814  52.674  54.491  0.00  0.00    +0.000 A 
ATOM     21  N   UNL     1      -8.375  54.978  51.966  0.00  0.00    +0.000 N 
ATOM     22  C   UNL     1      -6.604  55.287  53.543  0.00  0.00    +0.000 A 
ATOM     23  C   UNL     1      -5.861  53.530  55.032  0.00  0.00    +0.000 A 
ATOM     24  C   UNL     1      -5.759  54.840  54.563  0.00  0.00    +0.000 A 
ATOM     25  H   UNL     1     -10.885  52.996  52.141  0.00  0.00    +0.000 HD
ATOM     26  H   UNL     1      -8.080  55.789  51.491  0.00  0.00    +0.000 HD
ENDBRANCH   1  18
BRANCH   3  27
ATOM     27  O   UNL     1     -11.929  55.659  52.526  0.00  0.00    +0.000 OA
ATOM     28  H   UNL     1     -11.388  56.101  53.151  0.00  0.00    +0.000 HD
ENDBRANCH   3  27
BRANCH   5  29
ATOM     29  C   UNL     1     -10.877  55.626  46.916  0.00  0.00    +0.000 C 
BRANCH  29  30
ATOM     30  C   UNL     1     -11.461  54.464  46.092  0.00  0.00    +0.000 C 
BRANCH  30  31
ATOM     31  C   UNL     1     -10.455  53.395  45.772  0.00  0.00    +0.000 C 
ATOM     32  C   UNL     1      -9.146  53.667  45.079  0.00  0.00    +0.000 C 
ATOM     33  C   UNL     1     -10.264  53.001  44.330  0.00  0.00    +0.000 C 
ENDBRANCH  30  31
ENDBRANCH  29  30
ENDBRANCH   5  29
TORSDOF 5
ENDMDL
MODEL 8
REMARK VINA RESULT:      -8.0      4.009      5.586
REMARK  Name = 338168
REMARK  5 active torsions:
REMARK  status: ('A' for Active; 'I' for Inactive)
REMARK    1  A    between atoms: C_6  and  C_10
REMARK    2  A    between atoms: C_14  and  O_18
REMARK    3  A    between atoms: N_17  and  C_21
REMARK    4  A    between atoms: C_21  and  C_24
REMARK    5  A    between atoms: C_24  and  C_27
REMARK                            x       y       z     vdW  Elec       q    Type
REMARK                         _______ _______ _______ _____ _____    ______ ____
ROOT
ATOM      1  C   UNL     1     -10.618  55.355  48.852  0.00  0.00    +0.000 A 
ATOM      2  C   UNL     1     -10.800  54.320  47.798  0.00  0.00    +0.000 A 
ATOM      3  C   UNL     1      -9.392  55.614  49.337  0.00  0.00    +0.000 A 
ATOM      4  O   UNL     1     -11.955  54.003  47.510  0.00  0.00    +0.000 OA
ATOM      5  N   UNL     1      -9.672  53.792  47.168  0.00  0.00    +0.000 N 
ATOM      6  C   UNL     1      -8.216  54.927  48.792  0.00  0.00    +0.000 A 
ATOM      7  C   UNL     1      -8.357  54.044  47.701  0.00  0.00    +0.000 A 
ATOM      8  C   UNL     1      -6.942  55.191  49.331  0.00  0.00    +0.000 A 
ATOM      9  C   UNL     1      -7.193  53.447  47.181  0.00  0.00    +0.000 A 
ATOM     10  C   UNL     1      -5.815  54.610  48.778  0.00  0.00    +0.000 A 
ATOM     11  C   UNL     1      -5.929  53.741  47.706  0.00  0.00    +0.000 A 
ATOM     12  F   UNL     1      -4.607  54.895  49.277  0.00  0.00    +0.000 F 
ENDROOT
BRANCH   1  18
ATOM     13  S   UNL     1     -13.901  57.600  48.717  0.00  0.00    +0.000 S 
ATOM     14  O   UNL     1     -14.827  56.627  48.189  0.00  0.00    +0.000 OA
ATOM     15  O   UNL     1     -13.901  58.979  48.277  0.00  0.00    +0.000 OA
ATOM     16  N   UNL     1     -12.369  57.032  48.514  0.00  0.00    +0.000 N 
ATOM     17  C   UNL     1     -14.049  57.592  50.456  0.00  0.00    +0.000 A 
ATOM     18  C   UNL     1     -11.780  56.123  49.387  0.00  0.00    +0.000 C 
ATOM     19  C   UNL     1     -13.176  56.776  51.169  0.00  0.00    +0.000 A 
ATOM     20  C   UNL     1     -14.995  58.407  51.084  0.00  0.00    +0.000 A 
ATOM     21  N   UNL     1     -12.194  55.948  50.602  0.00  0.00    +0.000 N 
ATOM     22  C   UNL     1     -13.258  56.806  52.564  0.00  0.00    +0.000 A 
ATOM     23  C   UNL     1     -15.069  58.409  52.473  0.00  0.00    +0.000 A 
ATOM     24  C   UNL     1     -14.197  57.613  53.215  0.00  0.00    +0.000 A 
ATOM     25  H   UNL     1     -11.848  57.349  47.742  0.00  0.00    +0.000 HD
ATOM     26  H   UNL     1     -11.812  55.218  51.141  0.00  0.00    +0.000 HD
ENDBRANCH   1  18
BRANCH   3  27
ATOM     27  O   UNL     1      -9.119  56.535  50.336  0.00  0.00    +0.000 OA
ATOM     28  H   UNL     1      -9.160  56.276  51.236  0.00  0.00    +0.000 HD
ENDBRANCH   3  27
BRANCH   5  29
ATOM     29  C   UNL     1      -9.854  52.805  46.077  0.00  0.00    +0.000 C 
BRANCH  29  30
ATOM     30  C   UNL     1      -9.855  53.359  44.641  0.00  0.00    +0.000 C 
BRANCH  30  31
ATOM     31  C   UNL     1      -8.981  52.579  43.700  0.00  0.00    +0.000 C 
ATOM     32  C   UNL     1      -8.766  52.960  42.258  0.00  0.00    +0.000 C 
ATOM     33  C   UNL     1      -9.642  51.788  42.599  0.00  0.00    +0.000 C 
ENDBRANCH  30  31
ENDBRANCH  29  30
ENDBRANCH   5  29
TORSDOF 5
ENDMDL
MODEL 9
REMARK VINA RESULT:      -7.9      4.006      5.762
REMARK  Name = 338168
REMARK  5 active torsions:
REMARK  status: ('A' for Active; 'I' for Inactive)
REMARK    1  A    between atoms: C_6  and  C_10
REMARK    2  A    between atoms: C_14  and  O_18
REMARK    3  A    between atoms: N_17  and  C_21
REMARK    4  A    between atoms: C_21  and  C_24
REMARK    5  A    between atoms: C_24  and  C_27
REMARK                            x       y       z     vdW  Elec       q    Type
REMARK                         _______ _______ _______ _____ _____    ______ ____
ROOT
ATOM      1  C   UNL     1     -10.790  55.705  48.194  0.00  0.00    +0.000 A 
ATOM      2  C   UNL     1      -9.346  55.754  48.547  0.00  0.00    +0.000 A 
ATOM      3  C   UNL     1     -11.190  55.074  47.077  0.00  0.00    +0.000 A 
ATOM      4  O   UNL     1      -9.016  56.484  49.483  0.00  0.00    +0.000 OA
ATOM      5  N   UNL     1      -8.449  54.954  47.836  0.00  0.00    +0.000 N 
ATOM      6  C   UNL     1     -10.219  54.376  46.229  0.00  0.00    +0.000 A 
ATOM      7  C   UNL     1      -8.866  54.298  46.622  0.00  0.00    +0.000 A 
ATOM      8  C   UNL     1     -10.651  53.743  45.048  0.00  0.00    +0.000 A 
ATOM      9  C   UNL     1      -7.981  53.575  45.800  0.00  0.00    +0.000 A 
ATOM     10  C   UNL     1      -9.761  53.016  44.278  0.00  0.00    +0.000 A 
ATOM     11  C   UNL     1      -8.430  52.924  44.645  0.00  0.00    +0.000 A 
ATOM     12  F   UNL     1     -10.192  52.390  43.176  0.00  0.00    +0.000 F 
ENDROOT
BRANCH   1  18
ATOM     13  S   UNL     1     -13.346  56.014  51.228  0.00  0.00    +0.000 S 
ATOM     14  O   UNL     1     -12.404  56.120  52.317  0.00  0.00    +0.000 OA
ATOM     15  O   UNL     1     -14.554  55.222  51.332  0.00  0.00    +0.000 OA
ATOM     16  N   UNL     1     -12.545  55.493  49.888  0.00  0.00    +0.000 N 
ATOM     17  C   UNL     1     -13.804  57.630  50.756  0.00  0.00    +0.000 A 
ATOM     18  C   UNL     1     -11.819  56.347  49.064  0.00  0.00    +0.000 C 
ATOM     19  C   UNL     1     -13.088  58.221  49.720  0.00  0.00    +0.000 A 
ATOM     20  C   UNL     1     -14.872  58.271  51.390  0.00  0.00    +0.000 A 
ATOM     21  N   UNL     1     -12.018  57.627  49.031  0.00  0.00    +0.000 N 
ATOM     22  C   UNL     1     -13.485  59.496  49.305  0.00  0.00    +0.000 A 
ATOM     23  C   UNL     1     -15.239  59.546  50.971  0.00  0.00    +0.000 A 
ATOM     24  C   UNL     1     -14.551  60.157  49.924  0.00  0.00    +0.000 A 
ATOM     25  H   UNL     1     -12.581  54.536  49.660  0.00  0.00    +0.000 HD
ATOM     26  H   UNL     1     -11.406  58.196  48.512  0.00  0.00    +0.000 HD
ENDBRANCH   1  18
BRANCH   3  27
ATOM     27  O   UNL     1     -12.505  54.996  46.645  0.00  0.00    +0.000 OA
ATOM     28  H   UNL     1     -12.991  55.779  46.479  0.00  0.00    +0.000 HD
ENDBRANCH   3  27
BRANCH   5  29
ATOM     29  C   UNL     1      -7.019  54.957  48.224  0.00  0.00    +0.000 C 
BRANCH  29  30
ATOM     30  C   UNL     1      -6.620  54.030  49.387  0.00  0.00    +0.000 C 
BRANCH  30  31
ATOM     31  C   UNL     1      -5.933  54.748  50.513  0.00  0.00    +0.000 C 
ATOM     32  C   UNL     1      -5.360  54.047  51.718  0.00  0.00    +0.000 C 
ATOM     33  C   UNL     1      -6.637  54.829  51.844  0.00  0.00    +0.000 C 
ENDBRANCH  30  31
ENDBRANCH  29  30
ENDBRANCH   5  29
TORSDOF 5
ENDMDL
