MODEL 1
REMARK VINA RESULT:      -8.5      0.000      0.000
REMARK  Name = 338641
REMARK  6 active torsions:
REMARK  status: ('A' for Active; 'I' for Inactive)
REMARK    1  A    between atoms: C_6  and  C_10
REMARK    2  A    between atoms: N_17  and  C_20
REMARK    3  A    between atoms: C_20  and  C_23
REMARK    4  A    between atoms: C_23  and  C_26
REMARK    5  A    between atoms: C_26  and  C_27
REMARK    6  A    between atoms: C_26  and  C_28
REMARK                            x       y       z     vdW  Elec       q    Type
REMARK                         _______ _______ _______ _____ _____    ______ ____
ROOT
ATOM      1  C   UNL     1     -11.760  56.024  48.376  0.00  0.00    +0.000 A 
ATOM      2  C   UNL     1     -10.530  55.494  49.036  0.00  0.00    +0.000 A 
ATOM      3  C   UNL     1     -12.102  55.612  47.148  0.00  0.00    +0.000 A 
ATOM      4  O   UNL     1     -10.321  55.800  50.216  0.00  0.00    +0.000 OA
ATOM      5  N   UNL     1      -9.686  54.669  48.298  0.00  0.00    +0.000 N 
ATOM      6  C   UNL     1     -11.290  54.620  46.450  0.00  0.00    +0.000 A 
ATOM      7  C   UNL     1     -10.100  54.149  47.028  0.00  0.00    +0.000 A 
ATOM      8  C   UNL     1     -11.721  54.121  45.212  0.00  0.00    +0.000 A 
ATOM      9  C   UNL     1      -9.381  53.150  46.353  0.00  0.00    +0.000 A 
ATOM     10  C   UNL     1     -10.980  53.148  44.546  0.00  0.00    +0.000 A 
ATOM     11  C   UNL     1      -9.810  52.663  45.117  0.00  0.00    +0.000 A 
ENDROOT
BRANCH   1  17
ATOM     12  S   UNL     1     -13.618  59.324  49.414  0.00  0.00    +0.000 S 
ATOM     13  O   UNL     1     -14.788  59.590  48.599  0.00  0.00    +0.000 OA
ATOM     14  O   UNL     1     -12.737  60.408  49.805  0.00  0.00    +0.000 OA
ATOM     15  N   UNL     1     -12.726  58.198  48.670  0.00  0.00    +0.000 N 
ATOM     16  C   UNL     1     -14.226  58.639  50.916  0.00  0.00    +0.000 A 
ATOM     17  C   UNL     1     -12.668  56.982  49.119  0.00  0.00    +0.000 C 
ATOM     18  C   UNL     1     -13.998  57.293  51.151  0.00  0.00    +0.000 A 
ATOM     19  C   UNL     1     -14.896  59.450  51.836  0.00  0.00    +0.000 A 
ATOM     20  N   UNL     1     -13.339  56.494  50.220  0.00  0.00    +0.000 N 
ATOM     21  C   UNL     1     -14.519  56.730  52.322  0.00  0.00    +0.000 A 
ATOM     22  C   UNL     1     -15.379  58.884  53.014  0.00  0.00    +0.000 A 
ATOM     23  C   UNL     1     -15.197  57.522  53.253  0.00  0.00    +0.000 A 
ATOM     24  H   UNL     1     -12.218  58.441  47.863  0.00  0.00    +0.000 HD
ATOM     25  H   UNL     1     -13.353  55.519  50.357  0.00  0.00    +0.000 HD
ENDBRANCH   1  17
BRANCH   5  26
ATOM     26  C   UNL     1      -8.431  54.240  48.923  0.00  0.00    +0.000 C 
BRANCH  26  27
ATOM     27  C   UNL     1      -7.176  55.035  48.525  0.00  0.00    +0.000 C 
BRANCH  27  28
ATOM     28  C   UNL     1      -6.230  55.457  49.663  0.00  0.00    +0.000 C 
ATOM     29  C   UNL     1      -6.823  55.197  51.047  0.00  0.00    +0.000 C 
ATOM     30  C   UNL     1      -4.909  54.690  49.516  0.00  0.00    +0.000 C 
ENDBRANCH  27  28
ENDBRANCH  26  27
ENDBRANCH   5  26
TORSDOF 4
ENDMDL
MODEL 2
REMARK VINA RESULT:      -8.5      3.390      7.429
REMARK  Name = 338641
REMARK  6 active torsions:
REMARK  status: ('A' for Active; 'I' for Inactive)
REMARK    1  A    between atoms: C_6  and  C_10
REMARK    2  A    between atoms: N_17  and  C_20
REMARK    3  A    between atoms: C_20  and  C_23
REMARK    4  A    between atoms: C_23  and  C_26
REMARK    5  A    between atoms: C_26  and  C_27
REMARK    6  A    between atoms: C_26  and  C_28
REMARK                            x       y       z     vdW  Elec       q    Type
REMARK                         _______ _______ _______ _____ _____    ______ ____
ROOT
ATOM      1  C   UNL     1     -11.211  54.924  51.620  0.00  0.00    +0.000 A 
ATOM      2  C   UNL     1     -11.570  54.630  50.200  0.00  0.00    +0.000 A 
ATOM      3  C   UNL     1     -11.961  55.760  52.349  0.00  0.00    +0.000 A 
ATOM      4  O   UNL     1     -10.928  53.757  49.604  0.00  0.00    +0.000 OA
ATOM      5  N   UNL     1     -12.618  55.341  49.621  0.00  0.00    +0.000 N 
ATOM      6  C   UNL     1     -13.155  56.373  51.774  0.00  0.00    +0.000 A 
ATOM      7  C   UNL     1     -13.480  56.154  50.427  0.00  0.00    +0.000 A 
ATOM      8  C   UNL     1     -13.986  57.159  52.586  0.00  0.00    +0.000 A 
ATOM      9  C   UNL     1     -14.669  56.712  49.930  0.00  0.00    +0.000 A 
ATOM     10  C   UNL     1     -15.149  57.724  52.066  0.00  0.00    +0.000 A 
ATOM     11  C   UNL     1     -15.489  57.500  50.739  0.00  0.00    +0.000 A 
ENDROOT
BRANCH   1  17
ATOM     12  S   UNL     1      -9.006  52.127  53.273  0.00  0.00    +0.000 S 
ATOM     13  O   UNL     1      -8.391  51.247  52.298  0.00  0.00    +0.000 OA
ATOM     14  O   UNL     1      -9.550  51.588  54.505  0.00  0.00    +0.000 OA
ATOM     15  N   UNL     1     -10.176  52.965  52.535  0.00  0.00    +0.000 N 
ATOM     16  C   UNL     1      -7.748  53.255  53.762  0.00  0.00    +0.000 A 
ATOM     17  C   UNL     1     -10.032  54.226  52.265  0.00  0.00    +0.000 C 
ATOM     18  C   UNL     1      -7.860  54.570  53.342  0.00  0.00    +0.000 A 
ATOM     19  C   UNL     1      -6.690  52.820  54.565  0.00  0.00    +0.000 A 
ATOM     20  N   UNL     1      -8.913  54.987  52.531  0.00  0.00    +0.000 N 
ATOM     21  C   UNL     1      -6.838  55.462  53.687  0.00  0.00    +0.000 A 
ATOM     22  C   UNL     1      -5.698  53.728  54.931  0.00  0.00    +0.000 A 
ATOM     23  C   UNL     1      -5.768  55.047  54.485  0.00  0.00    +0.000 A 
ATOM     24  H   UNL     1     -11.013  52.510  52.287  0.00  0.00    +0.000 HD
ATOM     25  H   UNL     1      -8.855  55.881  52.124  0.00  0.00    +0.000 HD
ENDBRANCH   1  17
BRANCH   5  26
ATOM     26  C   UNL     1     -12.892  55.116  48.199  0.00  0.00    +0.000 C 
BRANCH  26  27
ATOM     27  C   UNL     1     -12.103  55.996  47.215  0.00  0.00    +0.000 C 
BRANCH  27  28
ATOM     28  C   UNL     1     -11.137  55.275  46.259  0.00  0.00    +0.000 C 
ATOM     29  C   UNL     1      -9.695  55.286  46.761  0.00  0.00    +0.000 C 
ATOM     30  C   UNL     1     -11.611  53.827  46.080  0.00  0.00    +0.000 C 
ENDBRANCH  27  28
ENDBRANCH  26  27
ENDBRANCH   5  26
TORSDOF 4
ENDMDL
MODEL 3
REMARK VINA RESULT:      -8.4      3.501      7.161
REMARK  Name = 338641
REMARK  6 active torsions:
REMARK  status: ('A' for Active; 'I' for Inactive)
REMARK    1  A    between atoms: C_6  and  C_10
REMARK    2  A    between atoms: N_17  and  C_20
REMARK    3  A    between atoms: C_20  and  C_23
REMARK    4  A    between atoms: C_23  and  C_26
REMARK    5  A    between atoms: C_26  and  C_27
REMARK    6  A    between atoms: C_26  and  C_28
REMARK                            x       y       z     vdW  Elec       q    Type
REMARK                         _______ _______ _______ _____ _____    ______ ____
ROOT
ATOM      1  C   UNL     1     -11.029  55.158  51.686  0.00  0.00    +0.000 A 
ATOM      2  C   UNL     1     -11.262  54.724  50.275  0.00  0.00    +0.000 A 
ATOM      3  C   UNL     1     -11.954  55.877  52.335  0.00  0.00    +0.000 A 
ATOM      4  O   UNL     1     -10.443  53.955  49.758  0.00  0.00    +0.000 OA
ATOM      5  N   UNL     1     -12.395  55.193  49.617  0.00  0.00    +0.000 N 
ATOM      6  C   UNL     1     -13.213  56.224  51.681  0.00  0.00    +0.000 A 
ATOM      7  C   UNL     1     -13.430  55.874  50.339  0.00  0.00    +0.000 A 
ATOM      8  C   UNL     1     -14.212  56.883  52.412  0.00  0.00    +0.000 A 
ATOM      9  C   UNL     1     -14.677  56.170  49.767  0.00  0.00    +0.000 A 
ATOM     10  C   UNL     1     -15.433  57.191  51.817  0.00  0.00    +0.000 A 
ATOM     11  C   UNL     1     -15.665  56.834  50.495  0.00  0.00    +0.000 A 
ENDROOT
BRANCH   1  17
ATOM     12  S   UNL     1      -7.282  55.015  52.849  0.00  0.00    +0.000 S 
ATOM     13  O   UNL     1      -6.972  55.998  53.870  0.00  0.00    +0.000 OA
ATOM     14  O   UNL     1      -6.335  54.744  51.784  0.00  0.00    +0.000 OA
ATOM     15  N   UNL     1      -8.696  55.412  52.173  0.00  0.00    +0.000 N 
ATOM     16  C   UNL     1      -7.490  53.490  53.700  0.00  0.00    +0.000 A 
ATOM     17  C   UNL     1      -9.773  54.730  52.414  0.00  0.00    +0.000 C 
ATOM     18  C   UNL     1      -8.771  52.969  53.790  0.00  0.00    +0.000 A 
ATOM     19  C   UNL     1      -6.383  52.832  54.243  0.00  0.00    +0.000 A 
ATOM     20  N   UNL     1      -9.867  53.641  53.255  0.00  0.00    +0.000 N 
ATOM     21  C   UNL     1      -8.951  51.780  54.506  0.00  0.00    +0.000 A 
ATOM     22  C   UNL     1      -6.572  51.631  54.924  0.00  0.00    +0.000 A 
ATOM     23  C   UNL     1      -7.858  51.109  55.062  0.00  0.00    +0.000 A 
ATOM     24  H   UNL     1      -8.739  56.186  51.565  0.00  0.00    +0.000 HD
ATOM     25  H   UNL     1     -10.766  53.317  53.492  0.00  0.00    +0.000 HD
ENDBRANCH   1  17
BRANCH   5  26
ATOM     26  C   UNL     1     -12.557  54.843  48.202  0.00  0.00    +0.000 C 
BRANCH  26  27
ATOM     27  C   UNL     1     -11.849  55.766  47.197  0.00  0.00    +0.000 C 
BRANCH  27  28
ATOM     28  C   UNL     1     -10.830  55.109  46.249  0.00  0.00    +0.000 C 
ATOM     29  C   UNL     1      -9.388  55.294  46.717  0.00  0.00    +0.000 C 
ATOM     30  C   UNL     1     -11.150  53.612  46.144  0.00  0.00    +0.000 C 
ENDBRANCH  27  28
ENDBRANCH  26  27
ENDBRANCH   5  26
TORSDOF 4
ENDMDL
MODEL 4
REMARK VINA RESULT:      -8.1      3.627      5.050
REMARK  Name = 338641
REMARK  6 active torsions:
REMARK  status: ('A' for Active; 'I' for Inactive)
REMARK    1  A    between atoms: C_6  and  C_10
REMARK    2  A    between atoms: N_17  and  C_20
REMARK    3  A    between atoms: C_20  and  C_23
REMARK    4  A    between atoms: C_23  and  C_26
REMARK    5  A    between atoms: C_26  and  C_27
REMARK    6  A    between atoms: C_26  and  C_28
REMARK                            x       y       z     vdW  Elec       q    Type
REMARK                         _______ _______ _______ _____ _____    ______ ____
ROOT
ATOM      1  C   UNL     1     -10.325  54.652  52.141  0.00  0.00    +0.000 A 
ATOM      2  C   UNL     1      -8.931  55.154  51.951  0.00  0.00    +0.000 A 
ATOM      3  C   UNL     1     -10.558  53.563  52.885  0.00  0.00    +0.000 A 
ATOM      4  O   UNL     1      -8.773  56.233  51.367  0.00  0.00    +0.000 OA
ATOM      5  N   UNL     1      -7.880  54.393  52.453  0.00  0.00    +0.000 N 
ATOM      6  C   UNL     1      -9.454  52.868  53.541  0.00  0.00    +0.000 A 
ATOM      7  C   UNL     1      -8.132  53.289  53.331  0.00  0.00    +0.000 A 
ATOM      8  C   UNL     1      -9.728  51.795  54.401  0.00  0.00    +0.000 A 
ATOM      9  C   UNL     1      -7.105  52.633  54.029  0.00  0.00    +0.000 A 
ATOM     10  C   UNL     1      -8.692  51.140  55.064  0.00  0.00    +0.000 A 
ATOM     11  C   UNL     1      -7.382  51.560  54.878  0.00  0.00    +0.000 A 
ENDROOT
BRANCH   1  17
ATOM     12  S   UNL     1     -12.723  56.305  49.507  0.00  0.00    +0.000 S 
ATOM     13  O   UNL     1     -13.650  55.357  48.919  0.00  0.00    +0.000 OA
ATOM     14  O   UNL     1     -12.097  57.323  48.685  0.00  0.00    +0.000 OA
ATOM     15  N   UNL     1     -11.553  55.475  50.253  0.00  0.00    +0.000 N 
ATOM     16  C   UNL     1     -13.641  57.178  50.728  0.00  0.00    +0.000 A 
ATOM     17  C   UNL     1     -11.493  55.412  51.548  0.00  0.00    +0.000 C 
ATOM     18  C   UNL     1     -13.349  56.927  52.059  0.00  0.00    +0.000 A 
ATOM     19  C   UNL     1     -14.615  58.104  50.344  0.00  0.00    +0.000 A 
ATOM     20  N   UNL     1     -12.384  55.992  52.427  0.00  0.00    +0.000 N 
ATOM     21  C   UNL     1     -14.107  57.582  53.036  0.00  0.00    +0.000 A 
ATOM     22  C   UNL     1     -15.338  58.776  51.328  0.00  0.00    +0.000 A 
ATOM     23  C   UNL     1     -15.089  58.509  52.674  0.00  0.00    +0.000 A 
ATOM     24  H   UNL     1     -10.873  55.010  49.715  0.00  0.00    +0.000 HD
ATOM     25  H   UNL     1     -12.335  55.730  53.375  0.00  0.00    +0.000 HD
ENDBRANCH   1  17
BRANCH   5  26
ATOM     26  C   UNL     1      -6.513  54.844  52.169  0.00  0.00    +0.000 C 
BRANCH  26  27
ATOM     27  C   UNL     1      -5.750  54.045  51.100  0.00  0.00    +0.000 C 
BRANCH  27  28
ATOM     28  C   UNL     1      -4.306  53.636  51.438  0.00  0.00    +0.000 C 
ATOM     29  C   UNL     1      -3.847  54.164  52.796  0.00  0.00    +0.000 C 
ATOM     30  C   UNL     1      -4.212  52.104  51.422  0.00  0.00    +0.000 C 
ENDBRANCH  27  28
ENDBRANCH  26  27
ENDBRANCH   5  26
TORSDOF 4
ENDMDL
MODEL 5
REMARK VINA RESULT:      -8.0      3.681      7.290
REMARK  Name = 338641
REMARK  6 active torsions:
REMARK  status: ('A' for Active; 'I' for Inactive)
REMARK    1  A    between atoms: C_6  and  C_10
REMARK    2  A    between atoms: N_17  and  C_20
REMARK    3  A    between atoms: C_20  and  C_23
REMARK    4  A    between atoms: C_23  and  C_26
REMARK    5  A    between atoms: C_26  and  C_27
REMARK    6  A    between atoms: C_26  and  C_28
REMARK                            x       y       z     vdW  Elec       q    Type
REMARK                         _______ _______ _______ _____ _____    ______ ____
ROOT
ATOM      1  C   UNL     1     -10.035  54.624  50.955  0.00  0.00    +0.000 A 
ATOM      2  C   UNL     1     -11.355  55.214  51.331  0.00  0.00    +0.000 A 
ATOM      3  C   UNL     1      -9.692  54.496  49.667  0.00  0.00    +0.000 A 
ATOM      4  O   UNL     1     -11.577  55.434  52.528  0.00  0.00    +0.000 OA
ATOM      5  N   UNL     1     -12.263  55.503  50.317  0.00  0.00    +0.000 N 
ATOM      6  C   UNL     1     -10.593  54.956  48.614  0.00  0.00    +0.000 A 
ATOM      7  C   UNL     1     -11.861  55.463  48.942  0.00  0.00    +0.000 A 
ATOM      8  C   UNL     1     -10.172  54.912  47.277  0.00  0.00    +0.000 A 
ATOM      9  C   UNL     1     -12.671  55.952  47.905  0.00  0.00    +0.000 A 
ATOM     10  C   UNL     1     -11.002  55.379  46.260  0.00  0.00    +0.000 A 
ATOM     11  C   UNL     1     -12.251  55.899  46.575  0.00  0.00    +0.000 A 
ENDROOT
BRANCH   1  17
ATOM     12  S   UNL     1      -6.759  54.488  53.115  0.00  0.00    +0.000 S 
ATOM     13  O   UNL     1      -6.695  55.545  54.106  0.00  0.00    +0.000 OA
ATOM     14  O   UNL     1      -5.571  54.106  52.376  0.00  0.00    +0.000 OA
ATOM     15  N   UNL     1      -7.914  54.862  52.047  0.00  0.00    +0.000 N 
ATOM     16  C   UNL     1      -7.262  53.045  53.986  0.00  0.00    +0.000 A 
ATOM     17  C   UNL     1      -9.047  54.228  52.032  0.00  0.00    +0.000 C 
ATOM     18  C   UNL     1      -8.541  52.565  53.757  0.00  0.00    +0.000 A 
ATOM     19  C   UNL     1      -6.377  52.409  54.861  0.00  0.00    +0.000 A 
ATOM     20  N   UNL     1      -9.418  53.216  52.892  0.00  0.00    +0.000 N 
ATOM     21  C   UNL     1      -8.966  51.445  54.481  0.00  0.00    +0.000 A 
ATOM     22  C   UNL     1      -6.801  51.273  55.549  0.00  0.00    +0.000 A 
ATOM     23  C   UNL     1      -8.098  50.796  55.365  0.00  0.00    +0.000 A 
ATOM     24  H   UNL     1      -7.754  55.583  51.396  0.00  0.00    +0.000 HD
ATOM     25  H   UNL     1     -10.361  52.935  52.894  0.00  0.00    +0.000 HD
ENDBRANCH   1  17
BRANCH   5  26
ATOM     26  C   UNL     1     -13.592  55.985  50.707  0.00  0.00    +0.000 C 
BRANCH  26  27
ATOM     27  C   UNL     1     -13.721  57.503  50.917  0.00  0.00    +0.000 C 
BRANCH  27  28
ATOM     28  C   UNL     1     -15.045  58.013  51.513  0.00  0.00    +0.000 C 
ATOM     29  C   UNL     1     -15.072  57.934  53.038  0.00  0.00    +0.000 C 
ATOM     30  C   UNL     1     -15.259  59.465  51.067  0.00  0.00    +0.000 C 
ENDBRANCH  27  28
ENDBRANCH  26  27
ENDBRANCH   5  26
TORSDOF 4
ENDMDL
MODEL 6
REMARK VINA RESULT:      -7.9      1.750      2.296
REMARK  Name = 338641
REMARK  6 active torsions:
REMARK  status: ('A' for Active; 'I' for Inactive)
REMARK    1  A    between atoms: C_6  and  C_10
REMARK    2  A    between atoms: N_17  and  C_20
REMARK    3  A    between atoms: C_20  and  C_23
REMARK    4  A    between atoms: C_23  and  C_26
REMARK    5  A    between atoms: C_26  and  C_27
REMARK    6  A    between atoms: C_26  and  C_28
REMARK                            x       y       z     vdW  Elec       q    Type
REMARK                         _______ _______ _______ _____ _____    ______ ____
ROOT
ATOM      1  C   UNL     1     -11.301  55.374  48.369  0.00  0.00    +0.000 A 
ATOM      2  C   UNL     1      -9.978  54.870  48.846  0.00  0.00    +0.000 A 
ATOM      3  C   UNL     1     -11.742  55.066  47.143  0.00  0.00    +0.000 A 
ATOM      4  O   UNL     1      -9.668  55.068  50.027  0.00  0.00    +0.000 OA
ATOM      5  N   UNL     1      -9.166  54.188  47.945  0.00  0.00    +0.000 N 
ATOM      6  C   UNL     1     -10.946  54.211  46.266  0.00  0.00    +0.000 A 
ATOM      7  C   UNL     1      -9.676  53.772  46.672  0.00  0.00    +0.000 A 
ATOM      8  C   UNL     1     -11.472  53.812  45.028  0.00  0.00    +0.000 A 
ATOM      9  C   UNL     1      -8.971  52.901  45.826  0.00  0.00    +0.000 A 
ATOM     10  C   UNL     1     -10.744  52.968  44.192  0.00  0.00    +0.000 A 
ATOM     11  C   UNL     1      -9.495  52.513  44.592  0.00  0.00    +0.000 A 
ENDROOT
BRANCH   1  17
ATOM     12  S   UNL     1     -13.651  56.313  51.371  0.00  0.00    +0.000 S 
ATOM     13  O   UNL     1     -12.919  56.592  52.592  0.00  0.00    +0.000 OA
ATOM     14  O   UNL     1     -14.891  55.561  51.418  0.00  0.00    +0.000 OA
ATOM     15  N   UNL     1     -12.653  55.569  50.339  0.00  0.00    +0.000 N 
ATOM     16  C   UNL     1     -14.071  57.881  50.695  0.00  0.00    +0.000 A 
ATOM     17  C   UNL     1     -12.184  56.182  49.296  0.00  0.00    +0.000 C 
ATOM     18  C   UNL     1     -13.417  58.284  49.542  0.00  0.00    +0.000 A 
ATOM     19  C   UNL     1     -15.049  58.670  51.306  0.00  0.00    +0.000 A 
ATOM     20  N   UNL     1     -12.435  57.493  48.949  0.00  0.00    +0.000 N 
ATOM     21  C   UNL     1     -13.711  59.550  49.024  0.00  0.00    +0.000 A 
ATOM     22  C   UNL     1     -15.358  59.914  50.760  0.00  0.00    +0.000 A 
ATOM     23  C   UNL     1     -14.683  60.358  49.623  0.00  0.00    +0.000 A 
ATOM     24  H   UNL     1     -12.398  54.632  50.505  0.00  0.00    +0.000 HD
ATOM     25  H   UNL     1     -11.887  57.896  48.238  0.00  0.00    +0.000 HD
ENDBRANCH   1  17
BRANCH   5  26
ATOM     26  C   UNL     1      -7.829  53.790  48.396  0.00  0.00    +0.000 C 
BRANCH  26  27
ATOM     27  C   UNL     1      -6.695  54.785  48.098  0.00  0.00    +0.000 C 
BRANCH  27  28
ATOM     28  C   UNL     1      -5.673  55.031  49.221  0.00  0.00    +0.000 C 
ATOM     29  C   UNL     1      -6.274  54.850  50.613  0.00  0.00    +0.000 C 
ATOM     30  C   UNL     1      -4.497  54.062  49.038  0.00  0.00    +0.000 C 
ENDBRANCH  27  28
ENDBRANCH  26  27
ENDBRANCH   5  26
TORSDOF 4
ENDMDL
MODEL 7
REMARK VINA RESULT:      -7.7      3.428      7.906
REMARK  Name = 338641
REMARK  6 active torsions:
REMARK  status: ('A' for Active; 'I' for Inactive)
REMARK    1  A    between atoms: C_6  and  C_10
REMARK    2  A    between atoms: N_17  and  C_20
REMARK    3  A    between atoms: C_20  and  C_23
REMARK    4  A    between atoms: C_23  and  C_26
REMARK    5  A    between atoms: C_26  and  C_27
REMARK    6  A    between atoms: C_26  and  C_28
REMARK                            x       y       z     vdW  Elec       q    Type
REMARK                         _______ _______ _______ _____ _____    ______ ____
ROOT
ATOM      1  C   UNL     1      -9.834  54.057  50.669  0.00  0.00    +0.000 A 
ATOM      2  C   UNL     1     -11.029  54.510  51.442  0.00  0.00    +0.000 A 
ATOM      3  C   UNL     1      -9.770  54.249  49.345  0.00  0.00    +0.000 A 
ATOM      4  O   UNL     1     -10.991  54.431  52.676  0.00  0.00    +0.000 OA
ATOM      5  N   UNL     1     -12.120  55.012  50.739  0.00  0.00    +0.000 N 
ATOM      6  C   UNL     1     -10.858  54.927  48.645  0.00  0.00    +0.000 A 
ATOM      7  C   UNL     1     -12.014  55.311  49.341  0.00  0.00    +0.000 A 
ATOM      8  C   UNL     1     -10.725  55.214  47.278  0.00  0.00    +0.000 A 
ATOM      9  C   UNL     1     -13.008  56.016  48.644  0.00  0.00    +0.000 A 
ATOM     10  C   UNL     1     -11.735  55.892  46.599  0.00  0.00    +0.000 A 
ATOM     11  C   UNL     1     -12.876  56.292  47.283  0.00  0.00    +0.000 A 
ENDROOT
BRANCH   1  17
ATOM     12  S   UNL     1      -7.748  51.791  53.104  0.00  0.00    +0.000 S 
ATOM     13  O   UNL     1      -7.525  50.457  52.578  0.00  0.00    +0.000 OA
ATOM     14  O   UNL     1      -8.056  51.981  54.509  0.00  0.00    +0.000 OA
ATOM     15  N   UNL     1      -8.919  52.490  52.236  0.00  0.00    +0.000 N 
ATOM     16  C   UNL     1      -6.253  52.674  52.821  0.00  0.00    +0.000 A 
ATOM     17  C   UNL     1      -8.655  53.437  51.389  0.00  0.00    +0.000 C 
ATOM     18  C   UNL     1      -6.261  53.666  51.854  0.00  0.00    +0.000 A 
ATOM     19  C   UNL     1      -5.112  52.380  53.573  0.00  0.00    +0.000 A 
ATOM     20  N   UNL     1      -7.403  53.940  51.104  0.00  0.00    +0.000 N 
ATOM     21  C   UNL     1      -5.064  54.341  51.591  0.00  0.00    +0.000 A 
ATOM     22  C   UNL     1      -3.935  53.084  53.324  0.00  0.00    +0.000 A 
ATOM     23  C   UNL     1      -3.909  54.059  52.327  0.00  0.00    +0.000 A 
ATOM     24  H   UNL     1      -9.850  52.192  52.354  0.00  0.00    +0.000 HD
ATOM     25  H   UNL     1      -7.309  54.530  50.322  0.00  0.00    +0.000 HD
ENDBRANCH   1  17
BRANCH   5  26
ATOM     26  C   UNL     1     -13.325  55.357  51.502  0.00  0.00    +0.000 C 
BRANCH  26  27
ATOM     27  C   UNL     1     -13.368  56.780  52.081  0.00  0.00    +0.000 C 
BRANCH  27  28
ATOM     28  C   UNL     1     -14.745  57.310  52.519  0.00  0.00    +0.000 C 
ATOM     29  C   UNL     1     -14.780  58.834  52.630  0.00  0.00    +0.000 C 
ATOM     30  C   UNL     1     -15.798  56.842  51.506  0.00  0.00    +0.000 C 
ENDBRANCH  27  28
ENDBRANCH  26  27
ENDBRANCH   5  26
TORSDOF 4
ENDMDL
MODEL 8
REMARK VINA RESULT:      -7.7      3.354      7.427
REMARK  Name = 338641
REMARK  6 active torsions:
REMARK  status: ('A' for Active; 'I' for Inactive)
REMARK    1  A    between atoms: C_6  and  C_10
REMARK    2  A    between atoms: N_17  and  C_20
REMARK    3  A    between atoms: C_20  and  C_23
REMARK    4  A    between atoms: C_23  and  C_26
REMARK    5  A    between atoms: C_26  and  C_27
REMARK    6  A    between atoms: C_26  and  C_28
REMARK                            x       y       z     vdW  Elec       q    Type
REMARK                         _______ _______ _______ _____ _____    ______ ____
ROOT
ATOM      1  C   UNL     1     -11.226  54.864  47.713  0.00  0.00    +0.000 A 
ATOM      2  C   UNL     1     -11.160  54.461  49.150  0.00  0.00    +0.000 A 
ATOM      3  C   UNL     1     -12.042  55.851  47.323  0.00  0.00    +0.000 A 
ATOM      4  O   UNL     1     -10.302  53.636  49.487  0.00  0.00    +0.000 OA
ATOM      5  N   UNL     1     -12.056  55.043  50.043  0.00  0.00    +0.000 N 
ATOM      6  C   UNL     1     -12.859  56.564  48.302  0.00  0.00    +0.000 A 
ATOM      7  C   UNL     1     -12.854  56.166  49.648  0.00  0.00    +0.000 A 
ATOM      8  C   UNL     1     -13.625  57.664  47.891  0.00  0.00    +0.000 A 
ATOM      9  C   UNL     1     -13.604  56.916  50.567  0.00  0.00    +0.000 A 
ATOM     10  C   UNL     1     -14.383  58.380  48.815  0.00  0.00    +0.000 A 
ATOM     11  C   UNL     1     -14.372  58.006  50.152  0.00  0.00    +0.000 A 
ENDROOT
BRANCH   1  17
ATOM     12  S   UNL     1      -8.051  54.041  45.555  0.00  0.00    +0.000 S 
ATOM     13  O   UNL     1      -7.100  53.197  46.254  0.00  0.00    +0.000 OA
ATOM     14  O   UNL     1      -7.585  55.142  44.733  0.00  0.00    +0.000 OA
ATOM     15  N   UNL     1      -9.096  54.633  46.638  0.00  0.00    +0.000 N 
ATOM     16  C   UNL     1      -8.931  52.974  44.468  0.00  0.00    +0.000 A 
ATOM     17  C   UNL     1     -10.319  54.202  46.697  0.00  0.00    +0.000 C 
ATOM     18  C   UNL     1     -10.255  52.697  44.767  0.00  0.00    +0.000 A 
ATOM     19  C   UNL     1      -8.301  52.451  43.336  0.00  0.00    +0.000 A 
ATOM     20  N   UNL     1     -10.867  53.216  45.905  0.00  0.00    +0.000 N 
ATOM     21  C   UNL     1     -10.948  51.812  43.933  0.00  0.00    +0.000 A 
ATOM     22  C   UNL     1      -9.013  51.599  42.495  0.00  0.00    +0.000 A 
ATOM     23  C   UNL     1     -10.335  51.273  42.798  0.00  0.00    +0.000 A 
ATOM     24  H   UNL     1      -8.799  55.333  47.263  0.00  0.00    +0.000 HD
ATOM     25  H   UNL     1     -11.748  52.856  46.160  0.00  0.00    +0.000 HD
ENDBRANCH   1  17
BRANCH   5  26
ATOM     26  C   UNL     1     -12.049  54.563  51.428  0.00  0.00    +0.000 C 
BRANCH  26  27
ATOM     27  C   UNL     1     -11.140  55.332  52.401  0.00  0.00    +0.000 C 
BRANCH  27  28
ATOM     28  C   UNL     1     -10.080  54.513  53.158  0.00  0.00    +0.000 C 
ATOM     29  C   UNL     1     -10.423  53.026  53.223  0.00  0.00    +0.000 C 
ATOM     30  C   UNL     1      -8.725  54.700  52.464  0.00  0.00    +0.000 C 
ENDBRANCH  27  28
ENDBRANCH  26  27
ENDBRANCH   5  26
TORSDOF 4
ENDMDL
MODEL 9
REMARK VINA RESULT:      -7.6      2.884      4.183
REMARK  Name = 338641
REMARK  6 active torsions:
REMARK  status: ('A' for Active; 'I' for Inactive)
REMARK    1  A    between atoms: C_6  and  C_10
REMARK    2  A    between atoms: N_17  and  C_20
REMARK    3  A    between atoms: C_20  and  C_23
REMARK    4  A    between atoms: C_23  and  C_26
REMARK    5  A    between atoms: C_26  and  C_27
REMARK    6  A    between atoms: C_26  and  C_28
REMARK                            x       y       z     vdW  Elec       q    Type
REMARK                         _______ _______ _______ _____ _____    ______ ____
ROOT
ATOM      1  C   UNL     1     -12.477  54.305  50.122  0.00  0.00    +0.000 A 
ATOM      2  C   UNL     1     -12.125  54.006  48.702  0.00  0.00    +0.000 A 
ATOM      3  C   UNL     1     -12.022  53.525  51.112  0.00  0.00    +0.000 A 
ATOM      4  O   UNL     1     -12.457  54.822  47.833  0.00  0.00    +0.000 OA
ATOM      5  N   UNL     1     -11.429  52.833  48.425  0.00  0.00    +0.000 N 
ATOM      6  C   UNL     1     -11.155  52.388  50.816  0.00  0.00    +0.000 A 
ATOM      7  C   UNL     1     -10.857  52.056  49.485  0.00  0.00    +0.000 A 
ATOM      8  C   UNL     1     -10.601  51.649  51.872  0.00  0.00    +0.000 A 
ATOM      9  C   UNL     1      -9.970  50.994  49.246  0.00  0.00    +0.000 A 
ATOM     10  C   UNL     1      -9.744  50.582  51.612  0.00  0.00    +0.000 A 
ATOM     11  C   UNL     1      -9.428  50.256  50.300  0.00  0.00    +0.000 A 
ENDROOT
BRANCH   1  17
ATOM     12  S   UNL     1     -15.415  56.563  51.421  0.00  0.00    +0.000 S 
ATOM     13  O   UNL     1     -15.363  56.783  52.854  0.00  0.00    +0.000 OA
ATOM     14  O   UNL     1     -16.685  56.327  50.762  0.00  0.00    +0.000 OA
ATOM     15  N   UNL     1     -14.429  55.333  51.060  0.00  0.00    +0.000 N 
ATOM     16  C   UNL     1     -14.762  58.023  50.687  0.00  0.00    +0.000 A 
ATOM     17  C   UNL     1     -13.296  55.533  50.459  0.00  0.00    +0.000 C 
ATOM     18  C   UNL     1     -13.518  57.943  50.085  0.00  0.00    +0.000 A 
ATOM     19  C   UNL     1     -15.502  59.208  50.707  0.00  0.00    +0.000 A 
ATOM     20  N   UNL     1     -12.785  56.758  50.084  0.00  0.00    +0.000 N 
ATOM     21  C   UNL     1     -12.971  59.111  49.541  0.00  0.00    +0.000 A 
ATOM     22  C   UNL     1     -14.962  60.356  50.130  0.00  0.00    +0.000 A 
ATOM     23  C   UNL     1     -13.692  60.309  49.554  0.00  0.00    +0.000 A 
ATOM     24  H   UNL     1     -14.694  54.416  51.300  0.00  0.00    +0.000 HD
ATOM     25  H   UNL     1     -11.845  56.798  49.796  0.00  0.00    +0.000 HD
ENDBRANCH   1  17
BRANCH   5  26
ATOM     26  C   UNL     1     -11.181  52.500  47.018  0.00  0.00    +0.000 C 
BRANCH  26  27
ATOM     27  C   UNL     1     -10.256  53.462  46.254  0.00  0.00    +0.000 C 
BRANCH  27  28
ATOM     28  C   UNL     1      -8.886  53.758  46.887  0.00  0.00    +0.000 C 
ATOM     29  C   UNL     1      -7.724  53.458  45.941  0.00  0.00    +0.000 C 
ATOM     30  C   UNL     1      -8.843  55.234  47.304  0.00  0.00    +0.000 C 
ENDBRANCH  27  28
ENDBRANCH  26  27
ENDBRANCH   5  26
TORSDOF 4
ENDMDL
