MODEL 1
REMARK VINA RESULT:      -8.7      0.000      0.000
REMARK  Name = 338036
REMARK  4 active torsions:
REMARK  status: ('A' for Active; 'I' for Inactive)
REMARK    1  A    between atoms: C_6  and  C_10
REMARK    2  A    between atoms: C_14  and  O_18
REMARK    3  A    between atoms: N_17  and  C_21
REMARK    4  A    between atoms: C_21  and  C_24
REMARK                            x       y       z     vdW  Elec       q    Type
REMARK                         _______ _______ _______ _____ _____    ______ ____
ROOT
ATOM      1  C   UNL     1     -10.178  55.245  50.768  0.00  0.00    +0.000 A 
ATOM      2  C   UNL     1      -9.730  55.281  49.342  0.00  0.00    +0.000 A 
ATOM      3  C   UNL     1     -11.423  55.639  51.085  0.00  0.00    +0.000 A 
ATOM      4  O   UNL     1      -8.580  54.916  49.082  0.00  0.00    +0.000 OA
ATOM      5  N   UNL     1     -10.628  55.683  48.365  0.00  0.00    +0.000 N 
ATOM      6  C   UNL     1     -12.354  56.102  50.042  0.00  0.00    +0.000 A 
ATOM      7  C   UNL     1     -11.950  56.108  48.694  0.00  0.00    +0.000 A 
ATOM      8  C   UNL     1     -13.658  56.510  50.377  0.00  0.00    +0.000 A 
ATOM      9  C   UNL     1     -12.870  56.520  47.715  0.00  0.00    +0.000 A 
ATOM     10  C   UNL     1     -14.560  56.905  49.393  0.00  0.00    +0.000 A 
ATOM     11  C   UNL     1     -14.167  56.907  48.062  0.00  0.00    +0.000 A 
ENDROOT
BRANCH   1  17
ATOM     12  S   UNL     1      -7.014  54.756  53.055  0.00  0.00    +0.000 S 
ATOM     13  O   UNL     1      -6.960  55.709  54.145  0.00  0.00    +0.000 OA
ATOM     14  O   UNL     1      -5.811  54.414  52.321  0.00  0.00    +0.000 OA
ATOM     15  N   UNL     1      -8.112  55.289  51.991  0.00  0.00    +0.000 N 
ATOM     16  C   UNL     1      -7.594  53.253  53.751  0.00  0.00    +0.000 A 
ATOM     17  C   UNL     1      -9.242  54.669  51.820  0.00  0.00    +0.000 C 
ATOM     18  C   UNL     1      -8.857  52.817  53.386  0.00  0.00    +0.000 A 
ATOM     19  C   UNL     1      -6.786  52.536  54.637  0.00  0.00    +0.000 A 
ATOM     20  N   UNL     1      -9.654  53.550  52.511  0.00  0.00    +0.000 N 
ATOM     21  C   UNL     1      -9.351  51.655  53.993  0.00  0.00    +0.000 A 
ATOM     22  C   UNL     1      -7.277  51.363  55.205  0.00  0.00    +0.000 A 
ATOM     23  C   UNL     1      -8.563  50.928  54.887  0.00  0.00    +0.000 A 
ATOM     24  H   UNL     1      -7.921  56.098  51.463  0.00  0.00    +0.000 HD
ATOM     25  H   UNL     1     -10.580  53.246  52.376  0.00  0.00    +0.000 HD
ENDBRANCH   1  17
BRANCH   3  26
ATOM     26  O   UNL     1     -11.951  55.608  52.363  0.00  0.00    +0.000 OA
ATOM     27  H   UNL     1     -11.390  55.724  53.105  0.00  0.00    +0.000 HD
ENDBRANCH   3  26
BRANCH   5  28
ATOM     28  C   UNL     1     -10.196  55.560  46.970  0.00  0.00    +0.000 C 
BRANCH  28  29
ATOM     29  C   UNL     1     -10.484  54.239  46.300  0.00  0.00    +0.000 A 
ATOM     30  C   UNL     1      -9.492  53.260  46.265  0.00  0.00    +0.000 A 
ATOM     31  C   UNL     1     -11.645  53.986  45.563  0.00  0.00    +0.000 A 
ATOM     32  N   UNL     1      -9.578  52.105  45.569  0.00  0.00    +0.000 NA
ATOM     33  C   UNL     1     -11.760  52.808  44.829  0.00  0.00    +0.000 A 
ATOM     34  C   UNL     1     -10.705  51.911  44.854  0.00  0.00    +0.000 A 
ENDBRANCH  28  29
ENDBRANCH   5  28
TORSDOF 4
ENDMDL
MODEL 2
REMARK VINA RESULT:      -8.7      3.583      7.209
REMARK  Name = 338036
REMARK  4 active torsions:
REMARK  status: ('A' for Active; 'I' for Inactive)
REMARK    1  A    between atoms: C_6  and  C_10
REMARK    2  A    between atoms: C_14  and  O_18
REMARK    3  A    between atoms: N_17  and  C_21
REMARK    4  A    between atoms: C_21  and  C_24
REMARK                            x       y       z     vdW  Elec       q    Type
REMARK                         _______ _______ _______ _____ _____    ______ ____
ROOT
ATOM      1  C   UNL     1     -10.173  54.429  52.200  0.00  0.00    +0.000 A 
ATOM      2  C   UNL     1      -8.774  54.906  51.973  0.00  0.00    +0.000 A 
ATOM      3  C   UNL     1     -10.394  53.370  52.998  0.00  0.00    +0.000 A 
ATOM      4  O   UNL     1      -8.602  55.879  51.233  0.00  0.00    +0.000 OA
ATOM      5  N   UNL     1      -7.731  54.269  52.628  0.00  0.00    +0.000 N 
ATOM      6  C   UNL     1      -9.273  52.677  53.655  0.00  0.00    +0.000 A 
ATOM      7  C   UNL     1      -7.957  53.140  53.472  0.00  0.00    +0.000 A 
ATOM      8  C   UNL     1      -9.509  51.571  54.492  0.00  0.00    +0.000 A 
ATOM      9  C   UNL     1      -6.910  52.482  54.140  0.00  0.00    +0.000 A 
ATOM     10  C   UNL     1      -8.461  50.937  55.155  0.00  0.00    +0.000 A 
ATOM     11  C   UNL     1      -7.163  51.396  54.981  0.00  0.00    +0.000 A 
ENDROOT
BRANCH   1  17
ATOM     12  S   UNL     1     -12.579  56.037  49.534  0.00  0.00    +0.000 S 
ATOM     13  O   UNL     1     -13.496  55.075  48.956  0.00  0.00    +0.000 OA
ATOM     14  O   UNL     1     -11.940  57.034  48.697  0.00  0.00    +0.000 OA
ATOM     15  N   UNL     1     -11.417  55.209  50.300  0.00  0.00    +0.000 N 
ATOM     16  C   UNL     1     -13.504  56.934  50.726  0.00  0.00    +0.000 A 
ATOM     17  C   UNL     1     -11.327  55.216  51.598  0.00  0.00    +0.000 C 
ATOM     18  C   UNL     1     -13.189  56.749  52.062  0.00  0.00    +0.000 A 
ATOM     19  C   UNL     1     -14.514  57.806  50.314  0.00  0.00    +0.000 A 
ATOM     20  N   UNL     1     -12.186  55.867  52.456  0.00  0.00    +0.000 N 
ATOM     21  C   UNL     1     -13.970  57.410  53.019  0.00  0.00    +0.000 A 
ATOM     22  C   UNL     1     -15.260  58.484  51.275  0.00  0.00    +0.000 A 
ATOM     23  C   UNL     1     -14.991  58.279  52.629  0.00  0.00    +0.000 A 
ATOM     24  H   UNL     1     -10.766  54.692  49.774  0.00  0.00    +0.000 HD
ATOM     25  H   UNL     1     -12.083  55.696  53.420  0.00  0.00    +0.000 HD
ENDBRANCH   1  17
BRANCH   3  26
ATOM     26  O   UNL     1     -11.647  52.873  53.307  0.00  0.00    +0.000 OA
ATOM     27  H   UNL     1     -11.853  51.977  53.127  0.00  0.00    +0.000 HD
ENDBRANCH   3  26
BRANCH   5  28
ATOM     28  C   UNL     1      -6.398  54.861  52.496  0.00  0.00    +0.000 C 
BRANCH  28  29
ATOM     29  C   UNL     1      -5.563  54.364  51.341  0.00  0.00    +0.000 A 
ATOM     30  C   UNL     1      -5.635  55.019  50.113  0.00  0.00    +0.000 A 
ATOM     31  C   UNL     1      -4.828  53.176  51.378  0.00  0.00    +0.000 A 
ATOM     32  N   UNL     1      -5.056  54.581  48.973  0.00  0.00    +0.000 NA
ATOM     33  C   UNL     1      -4.226  52.694  50.218  0.00  0.00    +0.000 A 
ATOM     34  C   UNL     1      -4.375  53.419  49.048  0.00  0.00    +0.000 A 
ENDBRANCH  28  29
ENDBRANCH   5  28
TORSDOF 4
ENDMDL
MODEL 3
REMARK VINA RESULT:      -8.6      3.645      7.463
REMARK  Name = 338036
REMARK  4 active torsions:
REMARK  status: ('A' for Active; 'I' for Inactive)
REMARK    1  A    between atoms: C_6  and  C_10
REMARK    2  A    between atoms: C_14  and  O_18
REMARK    3  A    between atoms: N_17  and  C_21
REMARK    4  A    between atoms: C_21  and  C_24
REMARK                            x       y       z     vdW  Elec       q    Type
REMARK                         _______ _______ _______ _____ _____    ______ ____
ROOT
ATOM      1  C   UNL     1     -11.184  54.582  50.895  0.00  0.00    +0.000 A 
ATOM      2  C   UNL     1      -9.749  54.947  50.693  0.00  0.00    +0.000 A 
ATOM      3  C   UNL     1     -11.509  53.322  51.231  0.00  0.00    +0.000 A 
ATOM      4  O   UNL     1      -9.480  56.112  50.382  0.00  0.00    +0.000 OA
ATOM      5  N   UNL     1      -8.773  53.983  50.899  0.00  0.00    +0.000 N 
ATOM      6  C   UNL     1     -10.467  52.298  51.406  0.00  0.00    +0.000 A 
ATOM      7  C   UNL     1      -9.111  52.641  51.250  0.00  0.00    +0.000 A 
ATOM      8  C   UNL     1     -10.811  50.981  51.761  0.00  0.00    +0.000 A 
ATOM      9  C   UNL     1      -8.135  51.653  51.459  0.00  0.00    +0.000 A 
ATOM     10  C   UNL     1      -9.830  50.016  51.975  0.00  0.00    +0.000 A 
ATOM     11  C   UNL     1      -8.492  50.354  51.827  0.00  0.00    +0.000 A 
ENDROOT
BRANCH   1  17
ATOM     12  S   UNL     1     -13.551  57.351  49.408  0.00  0.00    +0.000 S 
ATOM     13  O   UNL     1     -14.682  56.795  48.693  0.00  0.00    +0.000 OA
ATOM     14  O   UNL     1     -12.844  58.501  48.878  0.00  0.00    +0.000 OA
ATOM     15  N   UNL     1     -12.475  56.161  49.628  0.00  0.00    +0.000 N 
ATOM     16  C   UNL     1     -14.164  57.847  50.977  0.00  0.00    +0.000 A 
ATOM     17  C   UNL     1     -12.241  55.673  50.811  0.00  0.00    +0.000 C 
ATOM     18  C   UNL     1     -13.739  57.140  52.090  0.00  0.00    +0.000 A 
ATOM     19  C   UNL     1     -15.044  58.927  51.073  0.00  0.00    +0.000 A 
ATOM     20  N   UNL     1     -12.869  56.058  51.974  0.00  0.00    +0.000 N 
ATOM     21  C   UNL     1     -14.279  57.488  53.334  0.00  0.00    +0.000 A 
ATOM     22  C   UNL     1     -15.545  59.285  52.322  0.00  0.00    +0.000 A 
ATOM     23  C   UNL     1     -15.167  58.559  53.451  0.00  0.00    +0.000 A 
ATOM     24  H   UNL     1     -11.989  55.800  48.851  0.00  0.00    +0.000 HD
ATOM     25  H   UNL     1     -12.692  55.530  52.785  0.00  0.00    +0.000 HD
ENDBRANCH   1  17
BRANCH   3  26
ATOM     26  O   UNL     1     -12.799  52.889  51.480  0.00  0.00    +0.000 OA
ATOM     27  H   UNL     1     -12.984  51.972  51.528  0.00  0.00    +0.000 HD
ENDBRANCH   3  26
BRANCH   5  28
ATOM     28  C   UNL     1      -7.377  54.421  50.837  0.00  0.00    +0.000 C 
BRANCH  28  29
ATOM     29  C   UNL     1      -6.691  54.641  52.162  0.00  0.00    +0.000 A 
ATOM     30  C   UNL     1      -5.346  54.301  52.302  0.00  0.00    +0.000 A 
ATOM     31  C   UNL     1      -7.367  55.024  53.325  0.00  0.00    +0.000 A 
ATOM     32  N   UNL     1      -4.669  54.310  53.471  0.00  0.00    +0.000 NA
ATOM     33  C   UNL     1      -6.697  55.036  54.547  0.00  0.00    +0.000 A 
ATOM     34  C   UNL     1      -5.364  54.664  54.571  0.00  0.00    +0.000 A 
ENDBRANCH  28  29
ENDBRANCH   5  28
TORSDOF 4
ENDMDL
MODEL 4
REMARK VINA RESULT:      -8.6      3.373      6.705
REMARK  Name = 338036
REMARK  4 active torsions:
REMARK  status: ('A' for Active; 'I' for Inactive)
REMARK    1  A    between atoms: C_6  and  C_10
REMARK    2  A    between atoms: C_14  and  O_18
REMARK    3  A    between atoms: N_17  and  C_21
REMARK    4  A    between atoms: C_21  and  C_24
REMARK                            x       y       z     vdW  Elec       q    Type
REMARK                         _______ _______ _______ _____ _____    ______ ____
ROOT
ATOM      1  C   UNL     1     -12.300  54.225  50.201  0.00  0.00    +0.000 A 
ATOM      2  C   UNL     1     -12.026  53.808  48.792  0.00  0.00    +0.000 A 
ATOM      3  C   UNL     1     -11.724  53.560  51.217  0.00  0.00    +0.000 A 
ATOM      4  O   UNL     1     -12.573  54.437  47.880  0.00  0.00    +0.000 OA
ATOM      5  N   UNL     1     -11.143  52.765  48.559  0.00  0.00    +0.000 N 
ATOM      6  C   UNL     1     -10.820  52.427  50.956  0.00  0.00    +0.000 A 
ATOM      7  C   UNL     1     -10.531  52.050  49.632  0.00  0.00    +0.000 A 
ATOM      8  C   UNL     1     -10.215  51.736  52.022  0.00  0.00    +0.000 A 
ATOM      9  C   UNL     1      -9.637  50.989  49.411  0.00  0.00    +0.000 A 
ATOM     10  C   UNL     1      -9.323  50.693  51.785  0.00  0.00    +0.000 A 
ATOM     11  C   UNL     1      -9.031  50.323  50.480  0.00  0.00    +0.000 A 
ENDROOT
BRANCH   1  17
ATOM     12  S   UNL     1     -15.297  56.493  51.369  0.00  0.00    +0.000 S 
ATOM     13  O   UNL     1     -15.294  56.730  52.799  0.00  0.00    +0.000 OA
ATOM     14  O   UNL     1     -16.540  56.220  50.675  0.00  0.00    +0.000 OA
ATOM     15  N   UNL     1     -14.281  55.267  51.073  0.00  0.00    +0.000 N 
ATOM     16  C   UNL     1     -14.646  57.948  50.634  0.00  0.00    +0.000 A 
ATOM     17  C   UNL     1     -13.154  55.459  50.452  0.00  0.00    +0.000 C 
ATOM     18  C   UNL     1     -13.403  57.866  50.027  0.00  0.00    +0.000 A 
ATOM     19  C   UNL     1     -15.381  59.135  50.666  0.00  0.00    +0.000 A 
ATOM     20  N   UNL     1     -12.679  56.676  50.014  0.00  0.00    +0.000 N 
ATOM     21  C   UNL     1     -12.851  59.040  49.500  0.00  0.00    +0.000 A 
ATOM     22  C   UNL     1     -14.835  60.287  50.106  0.00  0.00    +0.000 A 
ATOM     23  C   UNL     1     -13.565  60.239  49.530  0.00  0.00    +0.000 A 
ATOM     24  H   UNL     1     -14.520  54.359  51.368  0.00  0.00    +0.000 HD
ATOM     25  H   UNL     1     -11.759  56.708  49.667  0.00  0.00    +0.000 HD
ENDBRANCH   1  17
BRANCH   3  26
ATOM     26  O   UNL     1     -11.878  53.887  52.552  0.00  0.00    +0.000 OA
ATOM     27  H   UNL     1     -12.694  53.726  52.983  0.00  0.00    +0.000 HD
ENDBRANCH   3  26
BRANCH   5  28
ATOM     28  C   UNL     1     -10.788  52.489  47.164  0.00  0.00    +0.000 C 
BRANCH  28  29
ATOM     29  C   UNL     1      -9.722  53.372  46.564  0.00  0.00    +0.000 A 
ATOM     30  C   UNL     1      -9.484  53.320  45.191  0.00  0.00    +0.000 A 
ATOM     31  C   UNL     1      -8.835  54.136  47.328  0.00  0.00    +0.000 A 
ATOM     32  N   UNL     1      -8.463  53.945  44.565  0.00  0.00    +0.000 NA
ATOM     33  C   UNL     1      -7.768  54.786  46.712  0.00  0.00    +0.000 A 
ATOM     34  C   UNL     1      -7.618  54.654  45.342  0.00  0.00    +0.000 A 
ENDBRANCH  28  29
ENDBRANCH   5  28
TORSDOF 4
ENDMDL
MODEL 5
REMARK VINA RESULT:      -8.3      3.368      6.760
REMARK  Name = 338036
REMARK  4 active torsions:
REMARK  status: ('A' for Active; 'I' for Inactive)
REMARK    1  A    between atoms: C_6  and  C_10
REMARK    2  A    between atoms: C_14  and  O_18
REMARK    3  A    between atoms: N_17  and  C_21
REMARK    4  A    between atoms: C_21  and  C_24
REMARK                            x       y       z     vdW  Elec       q    Type
REMARK                         _______ _______ _______ _____ _____    ______ ____
ROOT
ATOM      1  C   UNL     1     -11.557  55.864  48.757  0.00  0.00    +0.000 A 
ATOM      2  C   UNL     1     -10.524  55.176  49.589  0.00  0.00    +0.000 A 
ATOM      3  C   UNL     1     -11.709  55.521  47.466  0.00  0.00    +0.000 A 
ATOM      4  O   UNL     1     -10.406  55.515  50.771  0.00  0.00    +0.000 OA
ATOM      5  N   UNL     1      -9.768  54.162  49.021  0.00  0.00    +0.000 N 
ATOM      6  C   UNL     1     -10.871  54.470  46.864  0.00  0.00    +0.000 A 
ATOM      7  C   UNL     1      -9.919  53.795  47.650  0.00  0.00    +0.000 A 
ATOM      8  C   UNL     1     -11.036  54.111  45.514  0.00  0.00    +0.000 A 
ATOM      9  C   UNL     1      -9.159  52.772  47.060  0.00  0.00    +0.000 A 
ATOM     10  C   UNL     1     -10.282  53.087  44.947  0.00  0.00    +0.000 A 
ATOM     11  C   UNL     1      -9.346  52.415  45.722  0.00  0.00    +0.000 A 
ENDROOT
BRANCH   1  17
ATOM     12  S   UNL     1     -13.525  59.201  49.445  0.00  0.00    +0.000 S 
ATOM     13  O   UNL     1     -14.669  59.366  48.572  0.00  0.00    +0.000 OA
ATOM     14  O   UNL     1     -12.669  60.331  49.752  0.00  0.00    +0.000 OA
ATOM     15  N   UNL     1     -12.598  58.027  48.825  0.00  0.00    +0.000 N 
ATOM     16  C   UNL     1     -14.164  58.653  50.986  0.00  0.00    +0.000 A 
ATOM     17  C   UNL     1     -12.483  56.874  49.417  0.00  0.00    +0.000 C 
ATOM     18  C   UNL     1     -13.880  57.356  51.379  0.00  0.00    +0.000 A 
ATOM     19  C   UNL     1     -14.926  59.520  51.773  0.00  0.00    +0.000 A 
ATOM     20  N   UNL     1     -13.129  56.502  50.576  0.00  0.00    +0.000 N 
ATOM     21  C   UNL     1     -14.446  56.893  52.574  0.00  0.00    +0.000 A 
ATOM     22  C   UNL     1     -15.452  59.057  52.977  0.00  0.00    +0.000 A 
ATOM     23  C   UNL     1     -15.218  57.740  53.372  0.00  0.00    +0.000 A 
ATOM     24  H   UNL     1     -12.113  58.188  47.984  0.00  0.00    +0.000 HD
ATOM     25  H   UNL     1     -13.054  55.562  50.857  0.00  0.00    +0.000 HD
ENDBRANCH   1  17
BRANCH   3  26
ATOM     26  O   UNL     1     -12.659  56.065  46.619  0.00  0.00    +0.000 OA
ATOM     27  H   UNL     1     -13.385  55.546  46.335  0.00  0.00    +0.000 HD
ENDBRANCH   3  26
BRANCH   5  28
ATOM     28  C   UNL     1      -8.876  53.415  49.911  0.00  0.00    +0.000 C 
BRANCH  28  29
ATOM     29  C   UNL     1      -7.405  53.734  49.797  0.00  0.00    +0.000 A 
ATOM     30  C   UNL     1      -6.467  52.809  50.251  0.00  0.00    +0.000 A 
ATOM     31  C   UNL     1      -6.918  54.984  49.401  0.00  0.00    +0.000 A 
ATOM     32  N   UNL     1      -5.139  53.043  50.340  0.00  0.00    +0.000 NA
ATOM     33  C   UNL     1      -5.554  55.257  49.489  0.00  0.00    +0.000 A 
ATOM     34  C   UNL     1      -4.713  54.268  49.970  0.00  0.00    +0.000 A 
ENDBRANCH  28  29
ENDBRANCH   5  28
TORSDOF 4
ENDMDL
MODEL 6
REMARK VINA RESULT:      -8.2      2.788      7.002
REMARK  Name = 338036
REMARK  4 active torsions:
REMARK  status: ('A' for Active; 'I' for Inactive)
REMARK    1  A    between atoms: C_6  and  C_10
REMARK    2  A    between atoms: C_14  and  O_18
REMARK    3  A    between atoms: N_17  and  C_21
REMARK    4  A    between atoms: C_21  and  C_24
REMARK                            x       y       z     vdW  Elec       q    Type
REMARK                         _______ _______ _______ _____ _____    ______ ____
ROOT
ATOM      1  C   UNL     1     -10.980  54.527  48.239  0.00  0.00    +0.000 A 
ATOM      2  C   UNL     1     -10.635  54.053  49.614  0.00  0.00    +0.000 A 
ATOM      3  C   UNL     1     -11.917  55.478  48.078  0.00  0.00    +0.000 A 
ATOM      4  O   UNL     1      -9.773  53.177  49.730  0.00  0.00    +0.000 OA
ATOM      5  N   UNL     1     -11.259  54.639  50.704  0.00  0.00    +0.000 N 
ATOM      6  C   UNL     1     -12.603  56.062  49.243  0.00  0.00    +0.000 A 
ATOM      7  C   UNL     1     -12.259  55.645  50.542  0.00  0.00    +0.000 A 
ATOM      8  C   UNL     1     -13.579  57.060  49.071  0.00  0.00    +0.000 A 
ATOM      9  C   UNL     1     -12.903  56.245  51.637  0.00  0.00    +0.000 A 
ATOM     10  C   UNL     1     -14.200  57.652  50.168  0.00  0.00    +0.000 A 
ATOM     11  C   UNL     1     -13.859  57.247  51.450  0.00  0.00    +0.000 A 
ENDROOT
BRANCH   1  17
ATOM     12  S   UNL     1      -8.020  53.904  45.723  0.00  0.00    +0.000 S 
ATOM     13  O   UNL     1      -7.018  53.000  46.251  0.00  0.00    +0.000 OA
ATOM     14  O   UNL     1      -7.623  55.087  44.985  0.00  0.00    +0.000 OA
ATOM     15  N   UNL     1      -8.955  54.377  46.958  0.00  0.00    +0.000 N 
ATOM     16  C   UNL     1      -8.996  52.954  44.615  0.00  0.00    +0.000 A 
ATOM     17  C   UNL     1     -10.193  53.989  47.054  0.00  0.00    +0.000 C 
ATOM     18  C   UNL     1     -10.307  52.687  44.975  0.00  0.00    +0.000 A 
ATOM     19  C   UNL     1      -8.446  52.500  43.414  0.00  0.00    +0.000 A 
ATOM     20  N   UNL     1     -10.835  53.138  46.182  0.00  0.00    +0.000 N 
ATOM     21  C   UNL     1     -11.067  51.871  44.126  0.00  0.00    +0.000 A 
ATOM     22  C   UNL     1      -9.225  51.720  42.563  0.00  0.00    +0.000 A 
ATOM     23  C   UNL     1     -10.534  51.400  42.925  0.00  0.00    +0.000 A 
ATOM     24  H   UNL     1      -8.580  54.969  47.648  0.00  0.00    +0.000 HD
ATOM     25  H   UNL     1     -11.734  52.824  46.430  0.00  0.00    +0.000 HD
ENDBRANCH   1  17
BRANCH   3  26
ATOM     26  O   UNL     1     -12.284  56.015  46.857  0.00  0.00    +0.000 OA
ATOM     27  H   UNL     1     -11.719  56.625  46.425  0.00  0.00    +0.000 HD
ENDBRANCH   3  26
BRANCH   5  28
ATOM     28  C   UNL     1     -10.783  54.252  52.035  0.00  0.00    +0.000 C 
BRANCH  28  29
ATOM     29  C   UNL     1      -9.553  54.969  52.534  0.00  0.00    +0.000 A 
ATOM     30  C   UNL     1      -8.772  55.693  51.635  0.00  0.00    +0.000 A 
ATOM     31  C   UNL     1      -9.050  54.823  53.830  0.00  0.00    +0.000 A 
ATOM     32  N   UNL     1      -7.575  56.247  51.931  0.00  0.00    +0.000 NA
ATOM     33  C   UNL     1      -7.815  55.377  54.163  0.00  0.00    +0.000 A 
ATOM     34  C   UNL     1      -7.116  56.065  53.186  0.00  0.00    +0.000 A 
ENDBRANCH  28  29
ENDBRANCH   5  28
TORSDOF 4
ENDMDL
MODEL 7
REMARK VINA RESULT:      -8.2      3.067      6.780
REMARK  Name = 338036
REMARK  4 active torsions:
REMARK  status: ('A' for Active; 'I' for Inactive)
REMARK    1  A    between atoms: C_6  and  C_10
REMARK    2  A    between atoms: C_14  and  O_18
REMARK    3  A    between atoms: N_17  and  C_21
REMARK    4  A    between atoms: C_21  and  C_24
REMARK                            x       y       z     vdW  Elec       q    Type
REMARK                         _______ _______ _______ _____ _____    ______ ____
ROOT
ATOM      1  C   UNL     1     -11.322  56.058  48.766  0.00  0.00    +0.000 A 
ATOM      2  C   UNL     1     -10.184  55.534  49.581  0.00  0.00    +0.000 A 
ATOM      3  C   UNL     1     -11.494  55.622  47.506  0.00  0.00    +0.000 A 
ATOM      4  O   UNL     1     -10.050  55.954  50.734  0.00  0.00    +0.000 OA
ATOM      5  N   UNL     1      -9.350  54.571  49.032  0.00  0.00    +0.000 N 
ATOM      6  C   UNL     1     -10.576  54.631  46.921  0.00  0.00    +0.000 A 
ATOM      7  C   UNL     1      -9.523  54.108  47.693  0.00  0.00    +0.000 A 
ATOM      8  C   UNL     1     -10.762  54.174  45.603  0.00  0.00    +0.000 A 
ATOM      9  C   UNL     1      -8.684  53.136  47.123  0.00  0.00    +0.000 A 
ATOM     10  C   UNL     1      -9.929  53.202  45.057  0.00  0.00    +0.000 A 
ATOM     11  C   UNL     1      -8.892  52.681  45.818  0.00  0.00    +0.000 A 
ENDROOT
BRANCH   1  17
ATOM     12  S   UNL     1     -13.516  59.256  49.431  0.00  0.00    +0.000 S 
ATOM     13  O   UNL     1     -14.659  59.343  48.545  0.00  0.00    +0.000 OA
ATOM     14  O   UNL     1     -12.740  60.440  49.746  0.00  0.00    +0.000 OA
ATOM     15  N   UNL     1     -12.506  58.146  48.821  0.00  0.00    +0.000 N 
ATOM     16  C   UNL     1     -14.133  58.666  50.965  0.00  0.00    +0.000 A 
ATOM     17  C   UNL     1     -12.320  57.004  49.416  0.00  0.00    +0.000 C 
ATOM     18  C   UNL     1     -13.767  57.390  51.362  0.00  0.00    +0.000 A 
ATOM     19  C   UNL     1     -14.959  59.479  51.744  0.00  0.00    +0.000 A 
ATOM     20  N   UNL     1     -12.952  56.589  50.567  0.00  0.00    +0.000 N 
ATOM     21  C   UNL     1     -14.313  56.891  52.551  0.00  0.00    +0.000 A 
ATOM     22  C   UNL     1     -15.467  58.983  52.942  0.00  0.00    +0.000 A 
ATOM     23  C   UNL     1     -15.148  57.684  53.341  0.00  0.00    +0.000 A 
ATOM     24  H   UNL     1     -12.024  58.339  47.985  0.00  0.00    +0.000 HD
ATOM     25  H   UNL     1     -12.817  55.656  50.850  0.00  0.00    +0.000 HD
ENDBRANCH   1  17
BRANCH   3  26
ATOM     26  O   UNL     1     -12.534  56.011  46.680  0.00  0.00    +0.000 OA
ATOM     27  H   UNL     1     -12.382  56.632  45.995  0.00  0.00    +0.000 HD
ENDBRANCH   3  26
BRANCH   5  28
ATOM     28  C   UNL     1      -8.343  53.978  49.916  0.00  0.00    +0.000 C 
BRANCH  28  29
ATOM     29  C   UNL     1      -8.841  52.930  50.880  0.00  0.00    +0.000 A 
ATOM     30  C   UNL     1      -8.614  53.095  52.246  0.00  0.00    +0.000 A 
ATOM     31  C   UNL     1      -9.387  51.708  50.476  0.00  0.00    +0.000 A 
ATOM     32  N   UNL     1      -8.877  52.161  53.186  0.00  0.00    +0.000 NA
ATOM     33  C   UNL     1      -9.661  50.722  51.421  0.00  0.00    +0.000 A 
ATOM     34  C   UNL     1      -9.382  50.988  52.751  0.00  0.00    +0.000 A 
ENDBRANCH  28  29
ENDBRANCH   5  28
TORSDOF 4
ENDMDL
MODEL 8
REMARK VINA RESULT:      -8.1      1.794      4.523
REMARK  Name = 338036
REMARK  4 active torsions:
REMARK  status: ('A' for Active; 'I' for Inactive)
REMARK    1  A    between atoms: C_6  and  C_10
REMARK    2  A    between atoms: C_14  and  O_18
REMARK    3  A    between atoms: N_17  and  C_21
REMARK    4  A    between atoms: C_21  and  C_24
REMARK                            x       y       z     vdW  Elec       q    Type
REMARK                         _______ _______ _______ _____ _____    ______ ____
ROOT
ATOM      1  C   UNL     1      -9.919  54.294  50.813  0.00  0.00    +0.000 A 
ATOM      2  C   UNL     1     -11.356  54.535  51.143  0.00  0.00    +0.000 A 
ATOM      3  C   UNL     1      -9.484  54.485  49.556  0.00  0.00    +0.000 A 
ATOM      4  O   UNL     1     -11.728  54.348  52.306  0.00  0.00    +0.000 OA
ATOM      5  N   UNL     1     -12.207  54.995  50.150  0.00  0.00    +0.000 N 
ATOM      6  C   UNL     1     -10.407  54.935  48.501  0.00  0.00    +0.000 A 
ATOM      7  C   UNL     1     -11.755  55.195  48.811  0.00  0.00    +0.000 A 
ATOM      8  C   UNL     1      -9.947  55.138  47.187  0.00  0.00    +0.000 A 
ATOM      9  C   UNL     1     -12.605  55.658  47.794  0.00  0.00    +0.000 A 
ATOM     10  C   UNL     1     -10.801  55.608  46.192  0.00  0.00    +0.000 A 
ATOM     11  C   UNL     1     -12.129  55.871  46.498  0.00  0.00    +0.000 A 
ENDROOT
BRANCH   1  17
ATOM     12  S   UNL     1      -6.741  54.320  53.133  0.00  0.00    +0.000 S 
ATOM     13  O   UNL     1      -6.746  55.421  54.076  0.00  0.00    +0.000 OA
ATOM     14  O   UNL     1      -5.517  53.946  52.451  0.00  0.00    +0.000 OA
ATOM     15  N   UNL     1      -7.864  54.632  52.009  0.00  0.00    +0.000 N 
ATOM     16  C   UNL     1      -7.237  52.901  54.040  0.00  0.00    +0.000 A 
ATOM     17  C   UNL     1      -8.956  53.929  51.933  0.00  0.00    +0.000 C 
ATOM     18  C   UNL     1      -8.472  52.345  53.746  0.00  0.00    +0.000 A 
ATOM     19  C   UNL     1      -6.393  52.365  55.015  0.00  0.00    +0.000 A 
ATOM     20  N   UNL     1      -9.305  52.899  52.778  0.00  0.00    +0.000 N 
ATOM     21  C   UNL     1      -8.900  51.255  54.514  0.00  0.00    +0.000 A 
ATOM     22  C   UNL     1      -6.817  51.259  55.747  0.00  0.00    +0.000 A 
ATOM     23  C   UNL     1      -8.076  50.710  55.500  0.00  0.00    +0.000 A 
ATOM     24  H   UNL     1      -7.717  55.366  51.370  0.00  0.00    +0.000 HD
ATOM     25  H   UNL     1     -10.212  52.526  52.692  0.00  0.00    +0.000 HD
ENDBRANCH   1  17
BRANCH   3  26
ATOM     26  O   UNL     1      -8.169  54.330  49.152  0.00  0.00    +0.000 OA
ATOM     27  H   UNL     1      -7.815  54.885  48.485  0.00  0.00    +0.000 HD
ENDBRANCH   3  26
BRANCH   5  28
ATOM     28  C   UNL     1     -13.568  55.361  50.552  0.00  0.00    +0.000 C 
BRANCH  28  29
ATOM     29  C   UNL     1     -13.755  56.771  51.055  0.00  0.00    +0.000 A 
ATOM     30  C   UNL     1     -13.902  56.995  52.423  0.00  0.00    +0.000 A 
ATOM     31  C   UNL     1     -13.951  57.869  50.212  0.00  0.00    +0.000 A 
ATOM     32  N   UNL     1     -14.224  58.186  52.975  0.00  0.00    +0.000 NA
ATOM     33  C   UNL     1     -14.292  59.108  50.751  0.00  0.00    +0.000 A 
ATOM     34  C   UNL     1     -14.426  59.213  52.125  0.00  0.00    +0.000 A 
ENDBRANCH  28  29
ENDBRANCH   5  28
TORSDOF 4
ENDMDL
MODEL 9
REMARK VINA RESULT:      -8.1      3.510      7.821
REMARK  Name = 338036
REMARK  4 active torsions:
REMARK  status: ('A' for Active; 'I' for Inactive)
REMARK    1  A    between atoms: C_6  and  C_10
REMARK    2  A    between atoms: C_14  and  O_18
REMARK    3  A    between atoms: N_17  and  C_21
REMARK    4  A    between atoms: C_21  and  C_24
REMARK                            x       y       z     vdW  Elec       q    Type
REMARK                         _______ _______ _______ _____ _____    ______ ____
ROOT
ATOM      1  C   UNL     1     -11.919  54.430  50.979  0.00  0.00    +0.000 A 
ATOM      2  C   UNL     1     -10.950  54.337  52.113  0.00  0.00    +0.000 A 
ATOM      3  C   UNL     1     -11.963  53.451  50.059  0.00  0.00    +0.000 A 
ATOM      4  O   UNL     1     -10.931  55.252  52.941  0.00  0.00    +0.000 OA
ATOM      5  N   UNL     1     -10.142  53.215  52.218  0.00  0.00    +0.000 N 
ATOM      6  C   UNL     1     -11.070  52.284  50.159  0.00  0.00    +0.000 A 
ATOM      7  C   UNL     1     -10.178  52.174  51.242  0.00  0.00    +0.000 A 
ATOM      8  C   UNL     1     -11.121  51.260  49.196  0.00  0.00    +0.000 A 
ATOM      9  C   UNL     1      -9.363  51.033  51.333  0.00  0.00    +0.000 A 
ATOM     10  C   UNL     1     -10.314  50.131  49.307  0.00  0.00    +0.000 A 
ATOM     11  C   UNL     1      -9.438  50.016  50.377  0.00  0.00    +0.000 A 
ENDROOT
BRANCH   1  17
ATOM     12  S   UNL     1     -15.268  56.467  51.323  0.00  0.00    +0.000 S 
ATOM     13  O   UNL     1     -15.578  56.805  52.698  0.00  0.00    +0.000 OA
ATOM     14  O   UNL     1     -16.316  56.024  50.424  0.00  0.00    +0.000 OA
ATOM     15  N   UNL     1     -14.115  55.329  51.345  0.00  0.00    +0.000 N 
ATOM     16  C   UNL     1     -14.602  57.923  50.603  0.00  0.00    +0.000 A 
ATOM     17  C   UNL     1     -12.905  55.588  50.944  0.00  0.00    +0.000 C 
ATOM     18  C   UNL     1     -13.259  57.921  50.265  0.00  0.00    +0.000 A 
ATOM     19  C   UNL     1     -15.424  59.031  50.383  0.00  0.00    +0.000 A 
ATOM     20  N   UNL     1     -12.452  56.811  50.502  0.00  0.00    +0.000 N 
ATOM     21  C   UNL     1     -12.710  59.104  49.754  0.00  0.00    +0.000 A 
ATOM     22  C   UNL     1     -14.871  60.188  49.841  0.00  0.00    +0.000 A 
ATOM     23  C   UNL     1     -13.511  60.226  49.534  0.00  0.00    +0.000 A 
ATOM     24  H   UNL     1     -14.335  54.426  51.667  0.00  0.00    +0.000 HD
ATOM     25  H   UNL     1     -11.486  56.909  50.342  0.00  0.00    +0.000 HD
ENDBRANCH   1  17
BRANCH   3  26
ATOM     26  O   UNL     1     -12.846  53.418  48.994  0.00  0.00    +0.000 OA
ATOM     27  H   UNL     1     -13.409  52.679  48.875  0.00  0.00    +0.000 HD
ENDBRANCH   3  26
BRANCH   5  28
ATOM     28  C   UNL     1      -9.317  53.095  53.423  0.00  0.00    +0.000 C 
BRANCH  28  29
ATOM     29  C   UNL     1      -7.963  53.758  53.369  0.00  0.00    +0.000 A 
ATOM     30  C   UNL     1      -6.879  53.057  52.844  0.00  0.00    +0.000 A 
ATOM     31  C   UNL     1      -7.686  54.993  53.964  0.00  0.00    +0.000 A 
ATOM     32  N   UNL     1      -5.597  53.485  52.880  0.00  0.00    +0.000 NA
ATOM     33  C   UNL     1      -6.374  55.457  54.024  0.00  0.00    +0.000 A 
ATOM     34  C   UNL     1      -5.371  54.670  53.483  0.00  0.00    +0.000 A 
ENDBRANCH  28  29
ENDBRANCH   5  28
TORSDOF 4
ENDMDL
