MODEL 1
REMARK VINA RESULT:      -8.2      0.000      0.000
REMARK  Name = 338222
REMARK  7 active torsions:
REMARK  status: ('A' for Active; 'I' for Inactive)
REMARK    1  A    between atoms: C_6  and  C_10
REMARK    2  A    between atoms: C_14  and  O_18
REMARK    3  A    between atoms: N_17  and  C_21
REMARK    4  A    between atoms: C_21  and  C_24
REMARK    5  A    between atoms: C_24  and  C_28
REMARK    6  A    between atoms: C_28  and  C_29
REMARK    7  A    between atoms: C_28  and  C_30
REMARK                            x       y       z     vdW  Elec       q    Type
REMARK                         _______ _______ _______ _____ _____    ______ ____
ROOT
ATOM      1  C   UNL     1     -11.244  56.109  48.778  0.00  0.00    +0.000 A 
ATOM      2  C   UNL     1     -10.058  55.707  49.591  0.00  0.00    +0.000 A 
ATOM      3  C   UNL     1     -11.411  55.615  47.540  0.00  0.00    +0.000 A 
ATOM      4  O   UNL     1      -9.997  56.094  50.764  0.00  0.00    +0.000 OA
ATOM      5  N   UNL     1      -9.088  54.899  49.009  0.00  0.00    +0.000 N 
ATOM      6  C   UNL     1     -10.440  54.661  46.973  0.00  0.00    +0.000 A 
ATOM      7  C   UNL     1      -9.308  54.296  47.728  0.00  0.00    +0.000 A 
ATOM      8  C   UNL     1     -10.617  54.073  45.705  0.00  0.00    +0.000 A 
ATOM      9  C   UNL     1      -8.433  53.322  47.214  0.00  0.00    +0.000 A 
ATOM     10  F   UNL     1     -11.670  54.380  44.931  0.00  0.00    +0.000 F 
ATOM     11  C   UNL     1      -9.721  53.139  45.196  0.00  0.00    +0.000 A 
ATOM     12  C   UNL     1      -8.628  52.755  45.955  0.00  0.00    +0.000 A 
ENDROOT
BRANCH   1  18
ATOM     13  S   UNL     1     -13.519  59.251  49.431  0.00  0.00    +0.000 S 
ATOM     14  O   UNL     1     -14.658  59.314  48.538  0.00  0.00    +0.000 OA
ATOM     15  O   UNL     1     -12.775  60.454  49.755  0.00  0.00    +0.000 OA
ATOM     16  N   UNL     1     -12.476  58.169  48.826  0.00  0.00    +0.000 N 
ATOM     17  C   UNL     1     -14.130  58.639  50.959  0.00  0.00    +0.000 A 
ATOM     18  C   UNL     1     -12.290  57.018  49.403  0.00  0.00    +0.000 C 
ATOM     19  C   UNL     1     -13.760  57.358  51.335  0.00  0.00    +0.000 A 
ATOM     20  C   UNL     1     -14.947  59.442  51.759  0.00  0.00    +0.000 A 
ATOM     21  N   UNL     1     -12.950  56.566  50.525  0.00  0.00    +0.000 N 
ATOM     22  C   UNL     1     -14.290  56.842  52.523  0.00  0.00    +0.000 A 
ATOM     23  C   UNL     1     -15.438  58.928  52.956  0.00  0.00    +0.000 A 
ATOM     24  C   UNL     1     -15.118  57.623  53.334  0.00  0.00    +0.000 A 
ATOM     25  H   UNL     1     -11.975  58.385  48.008  0.00  0.00    +0.000 HD
ATOM     26  H   UNL     1     -12.842  55.619  50.771  0.00  0.00    +0.000 HD
ENDBRANCH   1  18
BRANCH   3  27
ATOM     27  O   UNL     1     -12.500  55.901  46.737  0.00  0.00    +0.000 OA
ATOM     28  H   UNL     1     -12.506  55.626  45.842  0.00  0.00    +0.000 HD
ENDBRANCH   3  27
BRANCH   5  29
ATOM     29  C   UNL     1      -7.906  54.569  49.816  0.00  0.00    +0.000 C 
BRANCH  29  30
ATOM     30  C   UNL     1      -6.726  55.554  49.732  0.00  0.00    +0.000 C 
BRANCH  30  31
ATOM     31  C   UNL     1      -5.313  54.950  49.749  0.00  0.00    +0.000 C 
ATOM     32  C   UNL     1      -5.011  54.202  51.045  0.00  0.00    +0.000 C 
ATOM     33  C   UNL     1      -5.173  53.994  48.557  0.00  0.00    +0.000 C 
ENDBRANCH  30  31
ENDBRANCH  29  30
ENDBRANCH   5  29
TORSDOF 5
ENDMDL
MODEL 2
REMARK VINA RESULT:      -8.2      3.699      6.788
REMARK  Name = 338222
REMARK  7 active torsions:
REMARK  status: ('A' for Active; 'I' for Inactive)
REMARK    1  A    between atoms: C_6  and  C_10
REMARK    2  A    between atoms: C_14  and  O_18
REMARK    3  A    between atoms: N_17  and  C_21
REMARK    4  A    between atoms: C_21  and  C_24
REMARK    5  A    between atoms: C_24  and  C_28
REMARK    6  A    between atoms: C_28  and  C_29
REMARK    7  A    between atoms: C_28  and  C_30
REMARK                            x       y       z     vdW  Elec       q    Type
REMARK                         _______ _______ _______ _____ _____    ______ ____
ROOT
ATOM      1  C   UNL     1     -10.267  55.205  50.904  0.00  0.00    +0.000 A 
ATOM      2  C   UNL     1      -9.878  55.145  49.464  0.00  0.00    +0.000 A 
ATOM      3  C   UNL     1     -11.473  55.683  51.257  0.00  0.00    +0.000 A 
ATOM      4  O   UNL     1      -8.809  54.598  49.171  0.00  0.00    +0.000 OA
ATOM      5  N   UNL     1     -10.739  55.683  48.514  0.00  0.00    +0.000 N 
ATOM      6  C   UNL     1     -12.431  56.139  50.234  0.00  0.00    +0.000 A 
ATOM      7  C   UNL     1     -12.059  56.106  48.875  0.00  0.00    +0.000 A 
ATOM      8  C   UNL     1     -13.726  56.584  50.563  0.00  0.00    +0.000 A 
ATOM      9  C   UNL     1     -13.010  56.462  47.902  0.00  0.00    +0.000 A 
ATOM     10  F   UNL     1     -14.143  56.647  51.837  0.00  0.00    +0.000 F 
ATOM     11  C   UNL     1     -14.641  56.969  49.589  0.00  0.00    +0.000 A 
ATOM     12  C   UNL     1     -14.285  56.902  48.252  0.00  0.00    +0.000 A 
ENDROOT
BRANCH   1  18
ATOM     13  S   UNL     1      -7.024  54.682  53.069  0.00  0.00    +0.000 S 
ATOM     14  O   UNL     1      -6.902  55.651  54.139  0.00  0.00    +0.000 OA
ATOM     15  O   UNL     1      -5.861  54.294  52.293  0.00  0.00    +0.000 OA
ATOM     16  N   UNL     1      -8.151  55.222  52.039  0.00  0.00    +0.000 N 
ATOM     17  C   UNL     1      -7.617  53.206  53.813  0.00  0.00    +0.000 A 
ATOM     18  C   UNL     1      -9.313  54.645  51.948  0.00  0.00    +0.000 C 
ATOM     19  C   UNL     1      -8.916  52.817  53.531  0.00  0.00    +0.000 A 
ATOM     20  C   UNL     1      -6.781  52.457  54.646  0.00  0.00    +0.000 A 
ATOM     21  N   UNL     1      -9.740  53.576  52.705  0.00  0.00    +0.000 N 
ATOM     22  C   UNL     1      -9.415  51.674  54.167  0.00  0.00    +0.000 A 
ATOM     23  C   UNL     1      -7.279  51.301  55.244  0.00  0.00    +0.000 A 
ATOM     24  C   UNL     1      -8.599  50.916  55.012  0.00  0.00    +0.000 A 
ATOM     25  H   UNL     1      -7.954  56.002  51.471  0.00  0.00    +0.000 HD
ATOM     26  H   UNL     1     -10.693  53.333  52.660  0.00  0.00    +0.000 HD
ENDBRANCH   1  18
BRANCH   3  27
ATOM     27  O   UNL     1     -11.928  55.733  52.562  0.00  0.00    +0.000 OA
ATOM     28  H   UNL     1     -12.557  55.107  52.863  0.00  0.00    +0.000 HD
ENDBRANCH   3  27
BRANCH   5  29
ATOM     29  C   UNL     1     -10.300  55.661  47.112  0.00  0.00    +0.000 C 
BRANCH  29  30
ATOM     30  C   UNL     1     -10.622  54.383  46.317  0.00  0.00    +0.000 C 
BRANCH  30  31
ATOM     31  C   UNL     1      -9.430  53.609  45.731  0.00  0.00    +0.000 C 
ATOM     32  C   UNL     1      -9.737  53.009  44.361  0.00  0.00    +0.000 C 
ATOM     33  C   UNL     1      -8.232  54.563  45.621  0.00  0.00    +0.000 C 
ENDBRANCH  30  31
ENDBRANCH  29  30
ENDBRANCH   5  29
TORSDOF 5
ENDMDL
MODEL 3
REMARK VINA RESULT:      -8.1      3.362      7.268
REMARK  Name = 338222
REMARK  7 active torsions:
REMARK  status: ('A' for Active; 'I' for Inactive)
REMARK    1  A    between atoms: C_6  and  C_10
REMARK    2  A    between atoms: C_14  and  O_18
REMARK    3  A    between atoms: N_17  and  C_21
REMARK    4  A    between atoms: C_21  and  C_24
REMARK    5  A    between atoms: C_24  and  C_28
REMARK    6  A    between atoms: C_28  and  C_29
REMARK    7  A    between atoms: C_28  and  C_30
REMARK                            x       y       z     vdW  Elec       q    Type
REMARK                         _______ _______ _______ _____ _____    ______ ____
ROOT
ATOM      1  C   UNL     1     -10.218  54.981  51.018  0.00  0.00    +0.000 A 
ATOM      2  C   UNL     1     -11.512  55.445  51.601  0.00  0.00    +0.000 A 
ATOM      3  C   UNL     1     -10.038  54.990  49.686  0.00  0.00    +0.000 A 
ATOM      4  O   UNL     1     -11.600  55.526  52.832  0.00  0.00    +0.000 OA
ATOM      5  N   UNL     1     -12.551  55.786  50.743  0.00  0.00    +0.000 N 
ATOM      6  C   UNL     1     -11.103  55.470  48.786  0.00  0.00    +0.000 A 
ATOM      7  C   UNL     1     -12.333  55.888  49.331  0.00  0.00    +0.000 A 
ATOM      8  C   UNL     1     -10.925  55.556  47.391  0.00  0.00    +0.000 A 
ATOM      9  C   UNL     1     -13.310  56.424  48.473  0.00  0.00    +0.000 A 
ATOM     10  F   UNL     1      -9.782  55.169  46.805  0.00  0.00    +0.000 F 
ATOM     11  C   UNL     1     -11.917  56.054  46.553  0.00  0.00    +0.000 A 
ATOM     12  C   UNL     1     -13.112  56.496  47.095  0.00  0.00    +0.000 A 
ENDROOT
BRANCH   1  18
ATOM     13  S   UNL     1      -6.692  54.885  52.759  0.00  0.00    +0.000 S 
ATOM     14  O   UNL     1      -6.527  55.929  53.749  0.00  0.00    +0.000 OA
ATOM     15  O   UNL     1      -5.605  54.549  51.858  0.00  0.00    +0.000 OA
ATOM     16  N   UNL     1      -7.987  55.256  51.859  0.00  0.00    +0.000 N 
ATOM     17  C   UNL     1      -7.044  53.415  53.654  0.00  0.00    +0.000 A 
ATOM     18  C   UNL     1      -9.091  54.576  51.954  0.00  0.00    +0.000 C 
ATOM     19  C   UNL     1      -8.325  52.898  53.568  0.00  0.00    +0.000 A 
ATOM     20  C   UNL     1      -6.042  52.798  54.408  0.00  0.00    +0.000 A 
ATOM     21  N   UNL     1      -9.316  53.527  52.819  0.00  0.00    +0.000 N 
ATOM     22  C   UNL     1      -8.629  51.761  54.325  0.00  0.00    +0.000 A 
ATOM     23  C   UNL     1      -6.348  51.646  55.129  0.00  0.00    +0.000 A 
ATOM     24  C   UNL     1      -7.645  51.133  55.095  0.00  0.00    +0.000 A 
ATOM     25  H   UNL     1      -7.937  56.011  51.229  0.00  0.00    +0.000 HD
ATOM     26  H   UNL     1     -10.239  53.199  52.913  0.00  0.00    +0.000 HD
ENDBRANCH   1  18
BRANCH   3  27
ATOM     27  O   UNL     1      -8.860  54.618  49.066  0.00  0.00    +0.000 OA
ATOM     28  H   UNL     1      -8.073  54.535  49.569  0.00  0.00    +0.000 HD
ENDBRANCH   3  27
BRANCH   5  29
ATOM     29  C   UNL     1     -13.829  56.183  51.350  0.00  0.00    +0.000 C 
BRANCH  29  30
ATOM     30  C   UNL     1     -13.843  57.533  52.088  0.00  0.00    +0.000 C 
BRANCH  30  31
ATOM     31  C   UNL     1     -15.008  58.485  51.775  0.00  0.00    +0.000 C 
ATOM     32  C   UNL     1     -15.422  59.323  52.982  0.00  0.00    +0.000 C 
ATOM     33  C   UNL     1     -14.590  59.411  50.624  0.00  0.00    +0.000 C 
ENDBRANCH  30  31
ENDBRANCH  29  30
ENDBRANCH   5  29
TORSDOF 5
ENDMDL
MODEL 4
REMARK VINA RESULT:      -8.1      3.323      7.326
REMARK  Name = 338222
REMARK  7 active torsions:
REMARK  status: ('A' for Active; 'I' for Inactive)
REMARK    1  A    between atoms: C_6  and  C_10
REMARK    2  A    between atoms: C_14  and  O_18
REMARK    3  A    between atoms: N_17  and  C_21
REMARK    4  A    between atoms: C_21  and  C_24
REMARK    5  A    between atoms: C_24  and  C_28
REMARK    6  A    between atoms: C_28  and  C_29
REMARK    7  A    between atoms: C_28  and  C_30
REMARK                            x       y       z     vdW  Elec       q    Type
REMARK                         _______ _______ _______ _____ _____    ______ ____
ROOT
ATOM      1  C   UNL     1     -10.563  54.979  50.467  0.00  0.00    +0.000 A 
ATOM      2  C   UNL     1     -11.678  55.352  51.388  0.00  0.00    +0.000 A 
ATOM      3  C   UNL     1     -10.677  55.203  49.147  0.00  0.00    +0.000 A 
ATOM      4  O   UNL     1     -11.493  55.233  52.605  0.00  0.00    +0.000 OA
ATOM      5  N   UNL     1     -12.862  55.836  50.846  0.00  0.00    +0.000 N 
ATOM      6  C   UNL     1     -11.889  55.832  48.592  0.00  0.00    +0.000 A 
ATOM      7  C   UNL     1     -12.952  56.164  49.455  0.00  0.00    +0.000 A 
ATOM      8  C   UNL     1     -12.016  56.142  47.223  0.00  0.00    +0.000 A 
ATOM      9  C   UNL     1     -14.068  56.841  48.929  0.00  0.00    +0.000 A 
ATOM     10  F   UNL     1     -11.045  55.846  46.346  0.00  0.00    +0.000 F 
ATOM     11  C   UNL     1     -13.144  56.777  46.714  0.00  0.00    +0.000 A 
ATOM     12  C   UNL     1     -14.172  57.134  47.570  0.00  0.00    +0.000 A 
ENDROOT
BRANCH   1  18
ATOM     13  S   UNL     1      -7.478  52.615  51.070  0.00  0.00    +0.000 S 
ATOM     14  O   UNL     1      -6.408  52.835  50.118  0.00  0.00    +0.000 OA
ATOM     15  O   UNL     1      -7.843  51.266  51.463  0.00  0.00    +0.000 OA
ATOM     16  N   UNL     1      -8.806  53.343  50.498  0.00  0.00    +0.000 N 
ATOM     17  C   UNL     1      -6.992  53.430  52.548  0.00  0.00    +0.000 A 
ATOM     18  C   UNL     1      -9.278  54.419  51.056  0.00  0.00    +0.000 C 
ATOM     19  C   UNL     1      -7.685  54.572  52.913  0.00  0.00    +0.000 A 
ATOM     20  C   UNL     1      -5.948  52.915  53.321  0.00  0.00    +0.000 A 
ATOM     21  N   UNL     1      -8.719  55.078  52.129  0.00  0.00    +0.000 N 
ATOM     22  C   UNL     1      -7.266  55.260  54.057  0.00  0.00    +0.000 A 
ATOM     23  C   UNL     1      -5.565  53.591  54.477  0.00  0.00    +0.000 A 
ATOM     24  C   UNL     1      -6.217  54.769  54.840  0.00  0.00    +0.000 A 
ATOM     25  H   UNL     1      -9.265  52.965  49.713  0.00  0.00    +0.000 HD
ATOM     26  H   UNL     1      -9.075  55.967  52.357  0.00  0.00    +0.000 HD
ENDBRANCH   1  18
BRANCH   3  27
ATOM     27  O   UNL     1      -9.678  54.928  48.231  0.00  0.00    +0.000 OA
ATOM     28  H   UNL     1      -9.438  54.039  48.054  0.00  0.00    +0.000 HD
ENDBRANCH   3  27
BRANCH   5  29
ATOM     29  C   UNL     1     -13.960  56.139  51.776  0.00  0.00    +0.000 C 
BRANCH  29  30
ATOM     30  C   UNL     1     -13.881  57.492  52.505  0.00  0.00    +0.000 C 
BRANCH  30  31
ATOM     31  C   UNL     1     -14.969  58.526  52.175  0.00  0.00    +0.000 C 
ATOM     32  C   UNL     1     -15.457  59.280  53.409  0.00  0.00    +0.000 C 
ATOM     33  C   UNL     1     -14.406  59.521  51.151  0.00  0.00    +0.000 C 
ENDBRANCH  30  31
ENDBRANCH  29  30
ENDBRANCH   5  29
TORSDOF 5
ENDMDL
MODEL 5
REMARK VINA RESULT:      -8.0      3.355      3.768
REMARK  Name = 338222
REMARK  7 active torsions:
REMARK  status: ('A' for Active; 'I' for Inactive)
REMARK    1  A    between atoms: C_6  and  C_10
REMARK    2  A    between atoms: C_14  and  O_18
REMARK    3  A    between atoms: N_17  and  C_21
REMARK    4  A    between atoms: C_21  and  C_24
REMARK    5  A    between atoms: C_24  and  C_28
REMARK    6  A    between atoms: C_28  and  C_29
REMARK    7  A    between atoms: C_28  and  C_30
REMARK                            x       y       z     vdW  Elec       q    Type
REMARK                         _______ _______ _______ _____ _____    ______ ____
ROOT
ATOM      1  C   UNL     1     -11.694  54.014  51.071  0.00  0.00    +0.000 A 
ATOM      2  C   UNL     1     -10.823  53.963  52.282  0.00  0.00    +0.000 A 
ATOM      3  C   UNL     1     -11.766  52.954  50.247  0.00  0.00    +0.000 A 
ATOM      4  O   UNL     1     -10.868  54.912  53.073  0.00  0.00    +0.000 OA
ATOM      5  N   UNL     1     -10.018  52.848  52.483  0.00  0.00    +0.000 N 
ATOM      6  C   UNL     1     -11.003  51.726  50.533  0.00  0.00    +0.000 A 
ATOM      7  C   UNL     1     -10.162  51.682  51.663  0.00  0.00    +0.000 A 
ATOM      8  C   UNL     1     -11.104  50.573  49.729  0.00  0.00    +0.000 A 
ATOM      9  C   UNL     1      -9.504  50.478  51.974  0.00  0.00    +0.000 A 
ATOM     10  F   UNL     1     -11.881  50.549  48.636  0.00  0.00    +0.000 F 
ATOM     11  C   UNL     1     -10.416  49.403  50.031  0.00  0.00    +0.000 A 
ATOM     12  C   UNL     1      -9.618  49.351  51.161  0.00  0.00    +0.000 A 
ENDROOT
BRANCH   1  18
ATOM     13  S   UNL     1     -13.348  57.094  49.266  0.00  0.00    +0.000 S 
ATOM     14  O   UNL     1     -14.460  56.716  48.419  0.00  0.00    +0.000 OA
ATOM     15  O   UNL     1     -12.392  58.091  48.821  0.00  0.00    +0.000 OA
ATOM     16  N   UNL     1     -12.526  55.747  49.632  0.00  0.00    +0.000 N 
ATOM     17  C   UNL     1     -14.053  57.730  50.743  0.00  0.00    +0.000 A 
ATOM     18  C   UNL     1     -12.552  55.247  50.832  0.00  0.00    +0.000 C 
ATOM     19  C   UNL     1     -13.923  56.976  51.897  0.00  0.00    +0.000 A 
ATOM     20  C   UNL     1     -14.704  58.967  50.732  0.00  0.00    +0.000 A 
ATOM     21  N   UNL     1     -13.278  55.743  51.893  0.00  0.00    +0.000 N 
ATOM     22  C   UNL     1     -14.533  57.449  53.065  0.00  0.00    +0.000 A 
ATOM     23  C   UNL     1     -15.275  59.442  51.910  0.00  0.00    +0.000 A 
ATOM     24  C   UNL     1     -15.199  58.678  53.074  0.00  0.00    +0.000 A 
ATOM     25  H   UNL     1     -11.997  55.298  48.933  0.00  0.00    +0.000 HD
ATOM     26  H   UNL     1     -13.345  55.187  52.703  0.00  0.00    +0.000 HD
ENDBRANCH   1  18
BRANCH   3  27
ATOM     27  O   UNL     1     -12.579  52.901  49.130  0.00  0.00    +0.000 OA
ATOM     28  H   UNL     1     -12.652  52.105  48.641  0.00  0.00    +0.000 HD
ENDBRANCH   3  27
BRANCH   5  29
ATOM     29  C   UNL     1      -9.130  52.855  53.653  0.00  0.00    +0.000 C 
BRANCH  29  30
ATOM     30  C   UNL     1      -7.701  53.377  53.421  0.00  0.00    +0.000 C 
BRANCH  30  31
ATOM     31  C   UNL     1      -7.367  54.767  53.987  0.00  0.00    +0.000 C 
ATOM     32  C   UNL     1      -6.026  54.798  54.714  0.00  0.00    +0.000 C 
ATOM     33  C   UNL     1      -7.351  55.776  52.830  0.00  0.00    +0.000 C 
ENDBRANCH  30  31
ENDBRANCH  29  30
ENDBRANCH   5  29
TORSDOF 5
ENDMDL
MODEL 6
REMARK VINA RESULT:      -8.0      3.412      4.834
REMARK  Name = 338222
REMARK  7 active torsions:
REMARK  status: ('A' for Active; 'I' for Inactive)
REMARK    1  A    between atoms: C_6  and  C_10
REMARK    2  A    between atoms: C_14  and  O_18
REMARK    3  A    between atoms: N_17  and  C_21
REMARK    4  A    between atoms: C_21  and  C_24
REMARK    5  A    between atoms: C_24  and  C_28
REMARK    6  A    between atoms: C_28  and  C_29
REMARK    7  A    between atoms: C_28  and  C_30
REMARK                            x       y       z     vdW  Elec       q    Type
REMARK                         _______ _______ _______ _____ _____    ______ ____
ROOT
ATOM      1  C   UNL     1     -12.218  54.266  50.232  0.00  0.00    +0.000 A 
ATOM      2  C   UNL     1     -11.918  53.887  48.819  0.00  0.00    +0.000 A 
ATOM      3  C   UNL     1     -11.667  53.577  51.246  0.00  0.00    +0.000 A 
ATOM      4  O   UNL     1     -12.353  54.612  47.917  0.00  0.00    +0.000 OA
ATOM      5  N   UNL     1     -11.146  52.757  48.578  0.00  0.00    +0.000 N 
ATOM      6  C   UNL     1     -10.751  52.453  50.982  0.00  0.00    +0.000 A 
ATOM      7  C   UNL     1     -10.482  52.078  49.650  0.00  0.00    +0.000 A 
ATOM      8  C   UNL     1     -10.104  51.751  52.018  0.00  0.00    +0.000 A 
ATOM      9  C   UNL     1      -9.541  51.061  49.407  0.00  0.00    +0.000 A 
ATOM     10  F   UNL     1     -10.320  52.051  53.308  0.00  0.00    +0.000 F 
ATOM     11  C   UNL     1      -9.205  50.722  51.759  0.00  0.00    +0.000 A 
ATOM     12  C   UNL     1      -8.916  50.379  50.449  0.00  0.00    +0.000 A 
ENDROOT
BRANCH   1  18
ATOM     13  S   UNL     1     -15.277  56.469  51.357  0.00  0.00    +0.000 S 
ATOM     14  O   UNL     1     -15.302  56.706  52.786  0.00  0.00    +0.000 OA
ATOM     15  O   UNL     1     -16.504  56.174  50.641  0.00  0.00    +0.000 OA
ATOM     16  N   UNL     1     -14.234  55.263  51.074  0.00  0.00    +0.000 N 
ATOM     17  C   UNL     1     -14.639  57.935  50.631  0.00  0.00    +0.000 A 
ATOM     18  C   UNL     1     -13.089  55.484  50.499  0.00  0.00    +0.000 C 
ATOM     19  C   UNL     1     -13.371  57.882  50.076  0.00  0.00    +0.000 A 
ATOM     20  C   UNL     1     -15.411  59.100  50.611  0.00  0.00    +0.000 A 
ATOM     21  N   UNL     1     -12.611  56.716  50.108  0.00  0.00    +0.000 N 
ATOM     22  C   UNL     1     -12.833  59.061  49.547  0.00  0.00    +0.000 A 
ATOM     23  C   UNL     1     -14.876  60.257  50.050  0.00  0.00    +0.000 A 
ATOM     24  C   UNL     1     -13.583  60.240  49.527  0.00  0.00    +0.000 A 
ATOM     25  H   UNL     1     -14.470  54.346  51.343  0.00  0.00    +0.000 HD
ATOM     26  H   UNL     1     -11.667  56.776  49.834  0.00  0.00    +0.000 HD
ENDBRANCH   1  18
BRANCH   3  27
ATOM     27  O   UNL     1     -11.859  53.886  52.580  0.00  0.00    +0.000 OA
ATOM     28  H   UNL     1     -11.251  54.446  53.022  0.00  0.00    +0.000 HD
ENDBRANCH   3  27
BRANCH   5  29
ATOM     29  C   UNL     1     -10.917  52.379  47.176  0.00  0.00    +0.000 C 
BRANCH  29  30
ATOM     30  C   UNL     1      -9.747  53.081  46.464  0.00  0.00    +0.000 C 
BRANCH  30  31
ATOM     31  C   UNL     1      -9.988  53.540  45.016  0.00  0.00    +0.000 C 
ATOM     32  C   UNL     1      -9.148  52.762  44.007  0.00  0.00    +0.000 C 
ATOM     33  C   UNL     1     -11.478  53.368  44.689  0.00  0.00    +0.000 C 
ENDBRANCH  30  31
ENDBRANCH  29  30
ENDBRANCH   5  29
TORSDOF 5
ENDMDL
MODEL 7
REMARK VINA RESULT:      -7.9      3.215      7.187
REMARK  Name = 338222
REMARK  7 active torsions:
REMARK  status: ('A' for Active; 'I' for Inactive)
REMARK    1  A    between atoms: C_6  and  C_10
REMARK    2  A    between atoms: C_14  and  O_18
REMARK    3  A    between atoms: N_17  and  C_21
REMARK    4  A    between atoms: C_21  and  C_24
REMARK    5  A    between atoms: C_24  and  C_28
REMARK    6  A    between atoms: C_28  and  C_29
REMARK    7  A    between atoms: C_28  and  C_30
REMARK                            x       y       z     vdW  Elec       q    Type
REMARK                         _______ _______ _______ _____ _____    ______ ____
ROOT
ATOM      1  C   UNL     1     -11.091  54.583  48.249  0.00  0.00    +0.000 A 
ATOM      2  C   UNL     1     -10.768  54.161  49.644  0.00  0.00    +0.000 A 
ATOM      3  C   UNL     1     -12.054  55.493  48.026  0.00  0.00    +0.000 A 
ATOM      4  O   UNL     1      -9.803  53.407  49.817  0.00  0.00    +0.000 OA
ATOM      5  N   UNL     1     -11.546  54.647  50.688  0.00  0.00    +0.000 N 
ATOM      6  C   UNL     1     -12.793  56.097  49.149  0.00  0.00    +0.000 A 
ATOM      7  C   UNL     1     -12.508  55.685  50.466  0.00  0.00    +0.000 A 
ATOM      8  C   UNL     1     -13.764  57.101  48.957  0.00  0.00    +0.000 A 
ATOM      9  C   UNL     1     -13.158  56.327  51.535  0.00  0.00    +0.000 A 
ATOM     10  F   UNL     1     -14.089  57.535  47.730  0.00  0.00    +0.000 F 
ATOM     11  C   UNL     1     -14.424  57.699  50.025  0.00  0.00    +0.000 A 
ATOM     12  C   UNL     1     -14.116  57.317  51.320  0.00  0.00    +0.000 A 
ENDROOT
BRANCH   1  18
ATOM     13  S   UNL     1      -8.084  54.014  45.777  0.00  0.00    +0.000 S 
ATOM     14  O   UNL     1      -7.055  53.157  46.332  0.00  0.00    +0.000 OA
ATOM     15  O   UNL     1      -7.722  55.195  45.016  0.00  0.00    +0.000 OA
ATOM     16  N   UNL     1      -9.047  54.481  46.992  0.00  0.00    +0.000 N 
ATOM     17  C   UNL     1      -9.019  53.007  44.684  0.00  0.00    +0.000 A 
ATOM     18  C   UNL     1     -10.261  54.028  47.102  0.00  0.00    +0.000 C 
ATOM     19  C   UNL     1     -10.311  52.676  45.057  0.00  0.00    +0.000 A 
ATOM     20  C   UNL     1      -8.462  52.580  43.475  0.00  0.00    +0.000 A 
ATOM     21  N   UNL     1     -10.851  53.103  46.267  0.00  0.00    +0.000 N 
ATOM     22  C   UNL     1     -11.042  51.826  44.219  0.00  0.00    +0.000 A 
ATOM     23  C   UNL     1      -9.214  51.764  42.634  0.00  0.00    +0.000 A 
ATOM     24  C   UNL     1     -10.501  51.379  43.011  0.00  0.00    +0.000 A 
ATOM     25  H   UNL     1      -8.708  55.120  47.660  0.00  0.00    +0.000 HD
ATOM     26  H   UNL     1     -11.713  52.718  46.546  0.00  0.00    +0.000 HD
ENDBRANCH   1  18
BRANCH   3  27
ATOM     27  O   UNL     1     -12.387  55.969  46.771  0.00  0.00    +0.000 OA
ATOM     28  H   UNL     1     -12.728  55.384  46.123  0.00  0.00    +0.000 HD
ENDBRANCH   3  27
BRANCH   5  29
ATOM     29  C   UNL     1     -11.239  54.167  52.043  0.00  0.00    +0.000 C 
BRANCH  29  30
ATOM     30  C   UNL     1     -10.269  55.030  52.868  0.00  0.00    +0.000 C 
BRANCH  30  31
ATOM     31  C   UNL     1      -8.835  54.501  53.034  0.00  0.00    +0.000 C 
ATOM     32  C   UNL     1      -8.020  55.317  54.034  0.00  0.00    +0.000 C 
ATOM     33  C   UNL     1      -8.902  53.038  53.495  0.00  0.00    +0.000 C 
ENDBRANCH  30  31
ENDBRANCH  29  30
ENDBRANCH   5  29
TORSDOF 5
ENDMDL
MODEL 8
REMARK VINA RESULT:      -7.9      3.570      7.003
REMARK  Name = 338222
REMARK  7 active torsions:
REMARK  status: ('A' for Active; 'I' for Inactive)
REMARK    1  A    between atoms: C_6  and  C_10
REMARK    2  A    between atoms: C_14  and  O_18
REMARK    3  A    between atoms: N_17  and  C_21
REMARK    4  A    between atoms: C_21  and  C_24
REMARK    5  A    between atoms: C_24  and  C_28
REMARK    6  A    between atoms: C_28  and  C_29
REMARK    7  A    between atoms: C_28  and  C_30
REMARK                            x       y       z     vdW  Elec       q    Type
REMARK                         _______ _______ _______ _____ _____    ______ ____
ROOT
ATOM      1  C   UNL     1     -10.481  54.733  50.519  0.00  0.00    +0.000 A 
ATOM      2  C   UNL     1     -10.113  54.693  49.073  0.00  0.00    +0.000 A 
ATOM      3  C   UNL     1     -11.604  55.359  50.912  0.00  0.00    +0.000 A 
ATOM      4  O   UNL     1      -9.135  54.014  48.739  0.00  0.00    +0.000 OA
ATOM      5  N   UNL     1     -10.893  55.396  48.163  0.00  0.00    +0.000 N 
ATOM      6  C   UNL     1     -12.492  56.000  49.925  0.00  0.00    +0.000 A 
ATOM      7  C   UNL     1     -12.137  55.984  48.562  0.00  0.00    +0.000 A 
ATOM      8  C   UNL     1     -13.709  56.608  50.293  0.00  0.00    +0.000 A 
ATOM      9  C   UNL     1     -13.032  56.522  47.620  0.00  0.00    +0.000 A 
ATOM     10  F   UNL     1     -14.105  56.664  51.574  0.00  0.00    +0.000 F 
ATOM     11  C   UNL     1     -14.565  57.169  49.351  0.00  0.00    +0.000 A 
ATOM     12  C   UNL     1     -14.230  57.121  48.008  0.00  0.00    +0.000 A 
ENDROOT
BRANCH   1  18
ATOM     13  S   UNL     1      -9.329  52.085  53.190  0.00  0.00    +0.000 S 
ATOM     14  O   UNL     1      -8.921  50.829  52.595  0.00  0.00    +0.000 OA
ATOM     15  O   UNL     1     -10.122  52.097  54.405  0.00  0.00    +0.000 OA
ATOM     16  N   UNL     1     -10.130  52.929  52.064  0.00  0.00    +0.000 N 
ATOM     17  C   UNL     1      -7.847  52.945  53.577  0.00  0.00    +0.000 A 
ATOM     18  C   UNL     1      -9.611  53.990  51.521  0.00  0.00    +0.000 C 
ATOM     19  C   UNL     1      -7.538  54.068  52.827  0.00  0.00    +0.000 A 
ATOM     20  C   UNL     1      -7.032  52.502  54.622  0.00  0.00    +0.000 A 
ATOM     21  N   UNL     1      -8.356  54.494  51.784  0.00  0.00    +0.000 N 
ATOM     22  C   UNL     1      -6.330  54.724  53.090  0.00  0.00    +0.000 A 
ATOM     23  C   UNL     1      -5.850  53.186  54.896  0.00  0.00    +0.000 A 
ATOM     24  C   UNL     1      -5.494  54.292  54.123  0.00  0.00    +0.000 A 
ATOM     25  H   UNL     1     -11.026  52.633  51.785  0.00  0.00    +0.000 HD
ATOM     26  H   UNL     1      -8.014  55.205  51.194  0.00  0.00    +0.000 HD
ENDBRANCH   1  18
BRANCH   3  27
ATOM     27  O   UNL     1     -12.040  55.407  52.223  0.00  0.00    +0.000 OA
ATOM     28  H   UNL     1     -11.693  54.807  52.853  0.00  0.00    +0.000 HD
ENDBRANCH   3  27
BRANCH   5  29
ATOM     29  C   UNL     1     -10.470  55.384  46.755  0.00  0.00    +0.000 C 
BRANCH  29  30
ATOM     30  C   UNL     1     -11.020  54.237  45.889  0.00  0.00    +0.000 C 
BRANCH  30  31
ATOM     31  C   UNL     1      -9.989  53.288  45.256  0.00  0.00    +0.000 C 
ATOM     32  C   UNL     1     -10.400  52.821  43.862  0.00  0.00    +0.000 C 
ATOM     33  C   UNL     1      -8.638  54.012  45.179  0.00  0.00    +0.000 C 
ENDBRANCH  30  31
ENDBRANCH  29  30
ENDBRANCH   5  29
TORSDOF 5
ENDMDL
MODEL 9
REMARK VINA RESULT:      -7.8      1.782      2.374
REMARK  Name = 338222
REMARK  7 active torsions:
REMARK  status: ('A' for Active; 'I' for Inactive)
REMARK    1  A    between atoms: C_6  and  C_10
REMARK    2  A    between atoms: C_14  and  O_18
REMARK    3  A    between atoms: N_17  and  C_21
REMARK    4  A    between atoms: C_21  and  C_24
REMARK    5  A    between atoms: C_24  and  C_28
REMARK    6  A    between atoms: C_28  and  C_29
REMARK    7  A    between atoms: C_28  and  C_30
REMARK                            x       y       z     vdW  Elec       q    Type
REMARK                         _______ _______ _______ _____ _____    ______ ____
ROOT
ATOM      1  C   UNL     1     -10.693  55.723  48.485  0.00  0.00    +0.000 A 
ATOM      2  C   UNL     1      -9.296  55.587  48.993  0.00  0.00    +0.000 A 
ATOM      3  C   UNL     1     -11.030  55.205  47.292  0.00  0.00    +0.000 A 
ATOM      4  O   UNL     1      -9.053  55.978  50.141  0.00  0.00    +0.000 OA
ATOM      5  N   UNL     1      -8.336  55.009  48.171  0.00  0.00    +0.000 N 
ATOM      6  C   UNL     1     -10.034  54.484  46.477  0.00  0.00    +0.000 A 
ATOM      7  C   UNL     1      -8.709  54.373  46.943  0.00  0.00    +0.000 A 
ATOM      8  C   UNL     1     -10.367  53.872  45.252  0.00  0.00    +0.000 A 
ATOM      9  C   UNL     1      -7.789  53.612  46.199  0.00  0.00    +0.000 A 
ATOM     10  F   UNL     1     -11.608  53.944  44.748  0.00  0.00    +0.000 F 
ATOM     11  C   UNL     1      -9.434  53.154  44.512  0.00  0.00    +0.000 A 
ATOM     12  C   UNL     1      -8.142  53.017  44.989  0.00  0.00    +0.000 A 
ENDROOT
BRANCH   1  18
ATOM     13  S   UNL     1     -13.356  56.237  51.334  0.00  0.00    +0.000 S 
ATOM     14  O   UNL     1     -12.754  56.509  52.623  0.00  0.00    +0.000 OA
ATOM     15  O   UNL     1     -14.500  55.350  51.232  0.00  0.00    +0.000 OA
ATOM     16  N   UNL     1     -12.197  55.670  50.356  0.00  0.00    +0.000 N 
ATOM     17  C   UNL     1     -13.896  57.788  50.712  0.00  0.00    +0.000 A 
ATOM     18  C   UNL     1     -11.738  56.384  49.371  0.00  0.00    +0.000 C 
ATOM     19  C   UNL     1     -13.215  58.323  49.631  0.00  0.00    +0.000 A 
ATOM     20  C   UNL     1     -14.990  58.435  51.295  0.00  0.00    +0.000 A 
ATOM     21  N   UNL     1     -12.123  57.671  49.065  0.00  0.00    +0.000 N 
ATOM     22  C   UNL     1     -13.602  59.585  49.167  0.00  0.00    +0.000 A 
ATOM     23  C   UNL     1     -15.386  59.675  50.800  0.00  0.00    +0.000 A 
ATOM     24  C   UNL     1     -14.686  60.255  49.742  0.00  0.00    +0.000 A 
ATOM     25  H   UNL     1     -11.834  54.768  50.509  0.00  0.00    +0.000 HD
ATOM     26  H   UNL     1     -11.589  58.164  48.400  0.00  0.00    +0.000 HD
ENDBRANCH   1  18
BRANCH   3  27
ATOM     27  O   UNL     1     -12.308  55.249  46.766  0.00  0.00    +0.000 OA
ATOM     28  H   UNL     1     -12.851  55.997  46.919  0.00  0.00    +0.000 HD
ENDBRANCH   3  27
BRANCH   5  29
ATOM     29  C   UNL     1      -6.959  54.943  48.678  0.00  0.00    +0.000 C 
BRANCH  29  30
ATOM     30  C   UNL     1      -6.618  53.736  49.570  0.00  0.00    +0.000 C 
BRANCH  30  31
ATOM     31  C   UNL     1      -5.170  53.223  49.523  0.00  0.00    +0.000 C 
ATOM     32  C   UNL     1      -4.449  53.618  48.237  0.00  0.00    +0.000 C 
ATOM     33  C   UNL     1      -4.411  53.786  50.734  0.00  0.00    +0.000 C 
ENDBRANCH  30  31
ENDBRANCH  29  30
ENDBRANCH   5  29
TORSDOF 5
ENDMDL
