MODEL 1
REMARK VINA RESULT:      -8.1      0.000      0.000
REMARK  Name = 338093
REMARK  7 active torsions:
REMARK  status: ('A' for Active; 'I' for Inactive)
REMARK    1  A    between atoms: C_7  and  O_9
REMARK    2  A    between atoms: C_10  and  C_13
REMARK    3  A    between atoms: N_11  and  C_14
REMARK    4  A    between atoms: C_14  and  C_18
REMARK    5  A    between atoms: C_18  and  C_21
REMARK    6  A    between atoms: C_21  and  C_26
REMARK    7  A    between atoms: C_21  and  C_27
REMARK                            x       y       z     vdW  Elec       q    Type
REMARK                         _______ _______ _______ _____ _____    ______ ____
ROOT
ATOM      1 CL   UNL     1      -9.201  53.794  44.772  0.00  0.00    +0.000 Cl
ATOM      2  C   UNL     1     -10.077  54.426  46.111  0.00  0.00    +0.000 A 
ATOM      3  C   UNL     1      -9.536  54.351  47.391  0.00  0.00    +0.000 A 
ATOM      4  C   UNL     1     -11.343  54.959  45.917  0.00  0.00    +0.000 A 
ATOM      5  C   UNL     1     -10.265  54.814  48.503  0.00  0.00    +0.000 A 
ATOM      6  C   UNL     1     -12.067  55.446  47.007  0.00  0.00    +0.000 A 
ATOM      7  C   UNL     1      -9.826  54.522  49.878  0.00  0.00    +0.000 A 
ATOM      8  C   UNL     1     -11.542  55.388  48.308  0.00  0.00    +0.000 A 
ATOM      9  C   UNL     1     -10.685  54.704  50.897  0.00  0.00    +0.000 A 
ATOM     10  N   UNL     1     -12.274  55.854  49.441  0.00  0.00    +0.000 N 
ATOM     11  C   UNL     1     -11.830  55.625  50.739  0.00  0.00    +0.000 A 
ATOM     12  O   UNL     1     -12.382  56.106  51.728  0.00  0.00    +0.000 OA
ENDROOT
BRANCH   9  13
ATOM     13  C   UNL     1     -10.401  54.059  52.211  0.00  0.00    +0.000 C 
ATOM     14  N   UNL     1     -10.435  52.751  52.290  0.00  0.00    +0.000 N 
ATOM     15  N   UNL     1      -9.997  54.858  53.282  0.00  0.00    +0.000 N 
ATOM     16  S   UNL     1      -9.719  52.077  53.597  0.00  0.00    +0.000 S 
ATOM     17  C   UNL     1      -8.646  54.524  53.582  0.00  0.00    +0.000 A 
ATOM     18  O   UNL     1      -9.197  50.775  53.254  0.00  0.00    +0.000 OA
ATOM     19  O   UNL     1     -10.579  52.265  54.755  0.00  0.00    +0.000 OA
ATOM     20  C   UNL     1      -8.332  53.178  53.827  0.00  0.00    +0.000 A 
ATOM     21  C   UNL     1      -7.642  55.411  53.214  0.00  0.00    +0.000 A 
ATOM     22  C   UNL     1      -7.024  52.717  53.791  0.00  0.00    +0.000 A 
ATOM     23  C   UNL     1      -6.336  54.944  53.097  0.00  0.00    +0.000 A 
ATOM     24  C   UNL     1      -6.026  53.613  53.410  0.00  0.00    +0.000 A 
ATOM     25  H   UNL     1     -10.869  52.202  51.597  0.00  0.00    +0.000 HD
ATOM     26  H   UNL     1     -10.547  55.530  53.746  0.00  0.00    +0.000 HD
ENDBRANCH   9  13
BRANCH   7  27
ATOM     27  O   UNL     1      -8.584  53.938  50.063  0.00  0.00    +0.000 OA
ATOM     28  H   UNL     1      -8.484  53.010  49.973  0.00  0.00    +0.000 HD
ENDBRANCH   7  27
BRANCH  10  29
ATOM     29  C   UNL     1     -13.633  56.385  49.320  0.00  0.00    +0.000 C 
BRANCH  29  30
ATOM     30  C   UNL     1     -13.561  57.875  48.962  0.00  0.00    +0.000 C 
BRANCH  30  31
ATOM     31  C   UNL     1     -13.901  58.833  50.109  0.00  0.00    +0.000 C 
ATOM     32  C   UNL     1     -14.238  60.237  49.609  0.00  0.00    +0.000 C 
ATOM     33  C   UNL     1     -15.086  58.267  50.897  0.00  0.00    +0.000 C 
ENDBRANCH  30  31
ENDBRANCH  29  30
ENDBRANCH  10  29
TORSDOF 5
ENDMDL
MODEL 2
REMARK VINA RESULT:      -8.1      2.384      6.470
REMARK  Name = 338093
REMARK  7 active torsions:
REMARK  status: ('A' for Active; 'I' for Inactive)
REMARK    1  A    between atoms: C_7  and  O_9
REMARK    2  A    between atoms: C_10  and  C_13
REMARK    3  A    between atoms: N_11  and  C_14
REMARK    4  A    between atoms: C_14  and  C_18
REMARK    5  A    between atoms: C_18  and  C_21
REMARK    6  A    between atoms: C_21  and  C_26
REMARK    7  A    between atoms: C_21  and  C_27
REMARK                            x       y       z     vdW  Elec       q    Type
REMARK                         _______ _______ _______ _____ _____    ______ ____
ROOT
ATOM      1 CL   UNL     1      -7.569  54.450  45.522  0.00  0.00    +0.000 Cl
ATOM      2  C   UNL     1      -8.239  54.604  47.099  0.00  0.00    +0.000 A 
ATOM      3  C   UNL     1      -9.611  54.465  47.286  0.00  0.00    +0.000 A 
ATOM      4  C   UNL     1      -7.416  54.919  48.170  0.00  0.00    +0.000 A 
ATOM      5  C   UNL     1     -10.180  54.644  48.562  0.00  0.00    +0.000 A 
ATOM      6  C   UNL     1      -7.963  55.073  49.446  0.00  0.00    +0.000 A 
ATOM      7  C   UNL     1     -11.638  54.749  48.739  0.00  0.00    +0.000 A 
ATOM      8  C   UNL     1      -9.343  54.933  49.663  0.00  0.00    +0.000 A 
ATOM      9  C   UNL     1     -12.130  55.219  49.898  0.00  0.00    +0.000 A 
ATOM     10  N   UNL     1      -9.928  55.113  50.952  0.00  0.00    +0.000 N 
ATOM     11  C   UNL     1     -11.307  55.157  51.125  0.00  0.00    +0.000 A 
ATOM     12  O   UNL     1     -11.839  55.203  52.234  0.00  0.00    +0.000 OA
ENDROOT
BRANCH   9  13
ATOM     13  C   UNL     1     -13.543  55.692  49.952  0.00  0.00    +0.000 C 
ATOM     14  N   UNL     1     -14.228  55.502  51.053  0.00  0.00    +0.000 N 
ATOM     15  N   UNL     1     -14.052  56.420  48.876  0.00  0.00    +0.000 N 
ATOM     16  S   UNL     1     -15.592  56.388  51.229  0.00  0.00    +0.000 S 
ATOM     17  C   UNL     1     -14.294  57.748  49.331  0.00  0.00    +0.000 A 
ATOM     18  O   UNL     1     -15.832  56.645  52.630  0.00  0.00    +0.000 OA
ATOM     19  O   UNL     1     -16.629  55.831  50.374  0.00  0.00    +0.000 OA
ATOM     20  C   UNL     1     -15.096  57.925  50.468  0.00  0.00    +0.000 A 
ATOM     21  C   UNL     1     -13.426  58.757  48.934  0.00  0.00    +0.000 A 
ATOM     22  C   UNL     1     -15.108  59.122  51.172  0.00  0.00    +0.000 A 
ATOM     23  C   UNL     1     -13.371  59.933  49.677  0.00  0.00    +0.000 A 
ATOM     24  C   UNL     1     -14.225  60.124  50.771  0.00  0.00    +0.000 A 
ATOM     25  H   UNL     1     -13.936  54.859  51.739  0.00  0.00    +0.000 HD
ATOM     26  H   UNL     1     -14.216  56.078  47.967  0.00  0.00    +0.000 HD
ENDBRANCH   9  13
BRANCH   7  27
ATOM     27  O   UNL     1     -12.455  54.488  47.651  0.00  0.00    +0.000 OA
ATOM     28  H   UNL     1     -12.542  53.613  47.328  0.00  0.00    +0.000 HD
ENDBRANCH   7  27
BRANCH  10  29
ATOM     29  C   UNL     1      -9.130  55.492  52.119  0.00  0.00    +0.000 C 
BRANCH  29  30
ATOM     30  C   UNL     1      -8.726  54.226  52.885  0.00  0.00    +0.000 C 
BRANCH  30  31
ATOM     31  C   UNL     1      -7.303  54.239  53.453  0.00  0.00    +0.000 C 
ATOM     32  C   UNL     1      -6.288  53.628  52.489  0.00  0.00    +0.000 C 
ATOM     33  C   UNL     1      -6.906  55.685  53.771  0.00  0.00    +0.000 C 
ENDBRANCH  30  31
ENDBRANCH  29  30
ENDBRANCH  10  29
TORSDOF 5
ENDMDL
MODEL 3
REMARK VINA RESULT:      -8.1      3.281      6.901
REMARK  Name = 338093
REMARK  7 active torsions:
REMARK  status: ('A' for Active; 'I' for Inactive)
REMARK    1  A    between atoms: C_7  and  O_9
REMARK    2  A    between atoms: C_10  and  C_13
REMARK    3  A    between atoms: N_11  and  C_14
REMARK    4  A    between atoms: C_14  and  C_18
REMARK    5  A    between atoms: C_18  and  C_21
REMARK    6  A    between atoms: C_21  and  C_26
REMARK    7  A    between atoms: C_21  and  C_27
REMARK                            x       y       z     vdW  Elec       q    Type
REMARK                         _______ _______ _______ _____ _____    ______ ____
ROOT
ATOM      1 CL   UNL     1      -8.082  52.621  53.996  0.00  0.00    +0.000 Cl
ATOM      2  C   UNL     1      -8.841  52.917  52.482  0.00  0.00    +0.000 A 
ATOM      3  C   UNL     1      -9.782  53.936  52.365  0.00  0.00    +0.000 A 
ATOM      4  C   UNL     1      -8.552  52.105  51.395  0.00  0.00    +0.000 A 
ATOM      5  C   UNL     1     -10.451  54.155  51.146  0.00  0.00    +0.000 A 
ATOM      6  C   UNL     1      -9.189  52.326  50.172  0.00  0.00    +0.000 A 
ATOM      7  C   UNL     1     -11.617  55.052  51.066  0.00  0.00    +0.000 A 
ATOM      8  C   UNL     1     -10.138  53.351  50.027  0.00  0.00    +0.000 A 
ATOM      9  C   UNL     1     -12.412  55.004  49.983  0.00  0.00    +0.000 A 
ATOM     10  N   UNL     1     -10.822  53.579  48.795  0.00  0.00    +0.000 N 
ATOM     11  C   UNL     1     -11.888  54.468  48.709  0.00  0.00    +0.000 A 
ATOM     12  O   UNL     1     -12.425  54.764  47.642  0.00  0.00    +0.000 OA
ENDROOT
BRANCH   9  13
ATOM     13  C   UNL     1     -13.776  55.601  50.055  0.00  0.00    +0.000 C 
ATOM     14  N   UNL     1     -14.453  55.492  51.173  0.00  0.00    +0.000 N 
ATOM     15  N   UNL     1     -14.242  56.354  48.976  0.00  0.00    +0.000 N 
ATOM     16  S   UNL     1     -15.728  56.498  51.358  0.00  0.00    +0.000 S 
ATOM     17  C   UNL     1     -14.355  57.705  49.410  0.00  0.00    +0.000 A 
ATOM     18  O   UNL     1     -15.916  56.800  52.758  0.00  0.00    +0.000 OA
ATOM     19  O   UNL     1     -16.829  56.021  50.534  0.00  0.00    +0.000 OA
ATOM     20  C   UNL     1     -15.115  57.973  50.559  0.00  0.00    +0.000 A 
ATOM     21  C   UNL     1     -13.409  58.626  48.978  0.00  0.00    +0.000 A 
ATOM     22  C   UNL     1     -15.006  59.177  51.241  0.00  0.00    +0.000 A 
ATOM     23  C   UNL     1     -13.235  59.805  49.698  0.00  0.00    +0.000 A 
ATOM     24  C   UNL     1     -14.047  60.090  50.805  0.00  0.00    +0.000 A 
ATOM     25  H   UNL     1     -14.204  54.837  51.865  0.00  0.00    +0.000 HD
ATOM     26  H   UNL     1     -14.454  56.012  48.077  0.00  0.00    +0.000 HD
ENDBRANCH   9  13
BRANCH   7  27
ATOM     27  O   UNL     1     -11.935  55.819  52.174  0.00  0.00    +0.000 OA
ATOM     28  H   UNL     1     -11.279  56.351  52.580  0.00  0.00    +0.000 HD
ENDBRANCH   7  27
BRANCH  10  29
ATOM     29  C   UNL     1     -10.604  52.734  47.620  0.00  0.00    +0.000 C 
BRANCH  29  30
ATOM     30  C   UNL     1      -9.488  53.343  46.761  0.00  0.00    +0.000 C 
BRANCH  30  31
ATOM     31  C   UNL     1      -9.891  53.685  45.323  0.00  0.00    +0.000 C 
ATOM     32  C   UNL     1      -8.807  53.311  44.314  0.00  0.00    +0.000 C 
ATOM     33  C   UNL     1     -11.190  52.949  44.981  0.00  0.00    +0.000 C 
ENDBRANCH  30  31
ENDBRANCH  29  30
ENDBRANCH  10  29
TORSDOF 5
ENDMDL
MODEL 4
REMARK VINA RESULT:      -8.0      2.238      4.107
REMARK  Name = 338093
REMARK  7 active torsions:
REMARK  status: ('A' for Active; 'I' for Inactive)
REMARK    1  A    between atoms: C_7  and  O_9
REMARK    2  A    between atoms: C_10  and  C_13
REMARK    3  A    between atoms: N_11  and  C_14
REMARK    4  A    between atoms: C_14  and  C_18
REMARK    5  A    between atoms: C_18  and  C_21
REMARK    6  A    between atoms: C_21  and  C_26
REMARK    7  A    between atoms: C_21  and  C_27
REMARK                            x       y       z     vdW  Elec       q    Type
REMARK                         _______ _______ _______ _____ _____    ______ ____
ROOT
ATOM      1 CL   UNL     1     -14.727  60.199  49.599  0.00  0.00    +0.000 Cl
ATOM      2  C   UNL     1     -14.100  58.628  49.289  0.00  0.00    +0.000 A 
ATOM      3  C   UNL     1     -13.861  57.756  50.348  0.00  0.00    +0.000 A 
ATOM      4  C   UNL     1     -13.784  58.254  47.991  0.00  0.00    +0.000 A 
ATOM      5  C   UNL     1     -13.297  56.487  50.115  0.00  0.00    +0.000 A 
ATOM      6  C   UNL     1     -13.248  56.989  47.742  0.00  0.00    +0.000 A 
ATOM      7  C   UNL     1     -12.809  55.654  51.227  0.00  0.00    +0.000 A 
ATOM      8  C   UNL     1     -13.003  56.089  48.791  0.00  0.00    +0.000 A 
ATOM      9  C   UNL     1     -12.009  54.606  50.964  0.00  0.00    +0.000 A 
ATOM     10  N   UNL     1     -12.430  54.801  48.565  0.00  0.00    +0.000 N 
ATOM     11  C   UNL     1     -12.020  53.992  49.619  0.00  0.00    +0.000 A 
ATOM     12  O   UNL     1     -11.623  52.838  49.459  0.00  0.00    +0.000 OA
ENDROOT
BRANCH   9  13
ATOM     13  C   UNL     1     -11.207  54.006  52.069  0.00  0.00    +0.000 C 
ATOM     14  N   UNL     1     -11.152  52.699  52.168  0.00  0.00    +0.000 N 
ATOM     15  N   UNL     1     -10.451  54.846  52.887  0.00  0.00    +0.000 N 
ATOM     16  S   UNL     1      -9.955  52.086  53.097  0.00  0.00    +0.000 S 
ATOM     17  C   UNL     1      -9.078  54.567  52.638  0.00  0.00    +0.000 A 
ATOM     18  O   UNL     1      -9.554  50.794  52.590  0.00  0.00    +0.000 OA
ATOM     19  O   UNL     1     -10.301  52.273  54.498  0.00  0.00    +0.000 OA
ATOM     20  C   UNL     1      -8.636  53.240  52.755  0.00  0.00    +0.000 A 
ATOM     21  C   UNL     1      -8.336  55.479  51.897  0.00  0.00    +0.000 A 
ATOM     22  C   UNL     1      -7.428  52.824  52.213  0.00  0.00    +0.000 A 
ATOM     23  C   UNL     1      -7.161  55.055  51.283  0.00  0.00    +0.000 A 
ATOM     24  C   UNL     1      -6.697  53.744  51.463  0.00  0.00    +0.000 A 
ATOM     25  H   UNL     1     -11.799  52.118  51.706  0.00  0.00    +0.000 HD
ATOM     26  H   UNL     1     -10.804  55.510  53.523  0.00  0.00    +0.000 HD
ENDBRANCH   9  13
BRANCH   7  27
ATOM     27  O   UNL     1     -13.077  56.061  52.523  0.00  0.00    +0.000 OA
ATOM     28  H   UNL     1     -12.453  56.580  52.991  0.00  0.00    +0.000 HD
ENDBRANCH   7  27
BRANCH  10  29
ATOM     29  C   UNL     1     -12.029  54.356  47.230  0.00  0.00    +0.000 C 
BRANCH  29  30
ATOM     30  C   UNL     1     -10.889  55.249  46.723  0.00  0.00    +0.000 C 
BRANCH  30  31
ATOM     31  C   UNL     1      -9.483  54.806  47.144  0.00  0.00    +0.000 C 
ATOM     32  C   UNL     1      -8.494  54.836  45.980  0.00  0.00    +0.000 C 
ATOM     33  C   UNL     1      -8.987  55.721  48.268  0.00  0.00    +0.000 C 
ENDBRANCH  30  31
ENDBRANCH  29  30
ENDBRANCH  10  29
TORSDOF 5
ENDMDL
MODEL 5
REMARK VINA RESULT:      -7.8      2.644      4.579
REMARK  Name = 338093
REMARK  7 active torsions:
REMARK  status: ('A' for Active; 'I' for Inactive)
REMARK    1  A    between atoms: C_7  and  O_9
REMARK    2  A    between atoms: C_10  and  C_13
REMARK    3  A    between atoms: N_11  and  C_14
REMARK    4  A    between atoms: C_14  and  C_18
REMARK    5  A    between atoms: C_18  and  C_21
REMARK    6  A    between atoms: C_21  and  C_26
REMARK    7  A    between atoms: C_21  and  C_27
REMARK                            x       y       z     vdW  Elec       q    Type
REMARK                         _______ _______ _______ _____ _____    ______ ____
ROOT
ATOM      1 CL   UNL     1     -15.354  59.141  50.774  0.00  0.00    +0.000 Cl
ATOM      2  C   UNL     1     -14.210  58.057  50.086  0.00  0.00    +0.000 A 
ATOM      3  C   UNL     1     -13.504  57.182  50.906  0.00  0.00    +0.000 A 
ATOM      4  C   UNL     1     -13.956  58.096  48.723  0.00  0.00    +0.000 A 
ATOM      5  C   UNL     1     -12.525  56.328  50.364  0.00  0.00    +0.000 A 
ATOM      6  C   UNL     1     -13.007  57.237  48.167  0.00  0.00    +0.000 A 
ATOM      7  C   UNL     1     -11.600  55.580  51.232  0.00  0.00    +0.000 A 
ATOM      8  C   UNL     1     -12.285  56.340  48.971  0.00  0.00    +0.000 A 
ATOM      9  C   UNL     1     -10.498  55.025  50.698  0.00  0.00    +0.000 A 
ATOM     10  N   UNL     1     -11.290  55.471  48.430  0.00  0.00    +0.000 N 
ATOM     11  C   UNL     1     -10.453  54.723  49.251  0.00  0.00    +0.000 A 
ATOM     12  O   UNL     1      -9.662  53.889  48.814  0.00  0.00    +0.000 OA
ENDROOT
BRANCH   9  13
ATOM     13  C   UNL     1      -9.380  54.615  51.596  0.00  0.00    +0.000 C 
ATOM     14  N   UNL     1      -9.278  53.354  51.938  0.00  0.00    +0.000 N 
ATOM     15  N   UNL     1      -8.417  55.561  51.949  0.00  0.00    +0.000 N 
ATOM     16  S   UNL     1      -7.840  52.876  52.553  0.00  0.00    +0.000 S 
ATOM     17  C   UNL     1      -7.188  55.169  51.347  0.00  0.00    +0.000 A 
ATOM     18  O   UNL     1      -7.601  51.491  52.221  0.00  0.00    +0.000 OA
ATOM     19  O   UNL     1      -7.730  53.355  53.922  0.00  0.00    +0.000 OA
ATOM     20  C   UNL     1      -6.713  53.871  51.588  0.00  0.00    +0.000 A 
ATOM     21  C   UNL     1      -6.731  55.876  50.242  0.00  0.00    +0.000 A 
ATOM     22  C   UNL     1      -5.731  53.294  50.795  0.00  0.00    +0.000 A 
ATOM     23  C   UNL     1      -5.803  55.280  49.393  0.00  0.00    +0.000 A 
ATOM     24  C   UNL     1      -5.288  54.009  49.683  0.00  0.00    +0.000 A 
ATOM     25  H   UNL     1     -10.029  52.727  51.830  0.00  0.00    +0.000 HD
ATOM     26  H   UNL     1      -8.561  56.356  52.513  0.00  0.00    +0.000 HD
ENDBRANCH   9  13
BRANCH   7  27
ATOM     27  O   UNL     1     -11.824  55.590  52.598  0.00  0.00    +0.000 OA
ATOM     28  H   UNL     1     -12.521  55.080  52.963  0.00  0.00    +0.000 HD
ENDBRANCH   7  27
BRANCH  10  29
ATOM     29  C   UNL     1     -10.935  55.489  47.010  0.00  0.00    +0.000 C 
BRANCH  29  30
ATOM     30  C   UNL     1     -11.887  54.564  46.241  0.00  0.00    +0.000 C 
BRANCH  30  31
ATOM     31  C   UNL     1     -11.235  53.759  45.112  0.00  0.00    +0.000 C 
ATOM     32  C   UNL     1      -9.741  53.540  45.345  0.00  0.00    +0.000 C 
ATOM     33  C   UNL     1     -11.943  52.406  44.992  0.00  0.00    +0.000 C 
ENDBRANCH  30  31
ENDBRANCH  29  30
ENDBRANCH  10  29
TORSDOF 5
ENDMDL
MODEL 6
REMARK VINA RESULT:      -7.6      2.269      6.556
REMARK  Name = 338093
REMARK  7 active torsions:
REMARK  status: ('A' for Active; 'I' for Inactive)
REMARK    1  A    between atoms: C_7  and  O_9
REMARK    2  A    between atoms: C_10  and  C_13
REMARK    3  A    between atoms: N_11  and  C_14
REMARK    4  A    between atoms: C_14  and  C_18
REMARK    5  A    between atoms: C_18  and  C_21
REMARK    6  A    between atoms: C_21  and  C_26
REMARK    7  A    between atoms: C_21  and  C_27
REMARK                            x       y       z     vdW  Elec       q    Type
REMARK                         _______ _______ _______ _____ _____    ______ ____
ROOT
ATOM      1 CL   UNL     1      -8.228  55.022  45.425  0.00  0.00    +0.000 Cl
ATOM      2  C   UNL     1      -8.584  55.006  47.108  0.00  0.00    +0.000 A 
ATOM      3  C   UNL     1      -9.904  54.895  47.536  0.00  0.00    +0.000 A 
ATOM      4  C   UNL     1      -7.560  55.157  48.031  0.00  0.00    +0.000 A 
ATOM      5  C   UNL     1     -10.215  54.936  48.908  0.00  0.00    +0.000 A 
ATOM      6  C   UNL     1      -7.851  55.174  49.396  0.00  0.00    +0.000 A 
ATOM      7  C   UNL     1     -11.607  55.070  49.370  0.00  0.00    +0.000 A 
ATOM      8  C   UNL     1      -9.173  55.057  49.855  0.00  0.00    +0.000 A 
ATOM      9  C   UNL     1     -11.847  55.412  50.648  0.00  0.00    +0.000 A 
ATOM     10  N   UNL     1      -9.499  55.099  51.244  0.00  0.00    +0.000 N 
ATOM     11  C   UNL     1     -10.817  55.170  51.681  0.00  0.00    +0.000 A 
ATOM     12  O   UNL     1     -11.131  55.099  52.868  0.00  0.00    +0.000 OA
ENDROOT
BRANCH   9  13
ATOM     13  C   UNL     1     -13.196  55.925  51.024  0.00  0.00    +0.000 C 
ATOM     14  N   UNL     1     -13.386  56.361  52.245  0.00  0.00    +0.000 N 
ATOM     15  N   UNL     1     -14.176  56.032  50.036  0.00  0.00    +0.000 N 
ATOM     16  S   UNL     1     -14.710  57.288  52.495  0.00  0.00    +0.000 S 
ATOM     17  C   UNL     1     -14.441  57.417  49.840  0.00  0.00    +0.000 A 
ATOM     18  O   UNL     1     -14.452  58.235  53.554  0.00  0.00    +0.000 OA
ATOM     19  O   UNL     1     -15.887  56.433  52.515  0.00  0.00    +0.000 OA
ATOM     20  C   UNL     1     -14.782  58.194  50.958  0.00  0.00    +0.000 A 
ATOM     21  C   UNL     1     -13.953  58.033  48.694  0.00  0.00    +0.000 A 
ATOM     22  C   UNL     1     -14.724  59.580  50.927  0.00  0.00    +0.000 A 
ATOM     23  C   UNL     1     -13.816  59.418  48.678  0.00  0.00    +0.000 A 
ATOM     24  C   UNL     1     -14.223  60.187  49.776  0.00  0.00    +0.000 A 
ATOM     25  H   UNL     1     -12.762  56.141  52.975  0.00  0.00    +0.000 HD
ATOM     26  H   UNL     1     -14.608  55.284  49.562  0.00  0.00    +0.000 HD
ENDBRANCH   9  13
BRANCH   7  27
ATOM     27  O   UNL     1     -12.624  54.974  48.436  0.00  0.00    +0.000 OA
ATOM     28  H   UNL     1     -12.542  55.404  47.607  0.00  0.00    +0.000 HD
ENDBRANCH   7  27
BRANCH  10  29
ATOM     29  C   UNL     1      -8.477  55.303  52.273  0.00  0.00    +0.000 C 
BRANCH  29  30
ATOM     30  C   UNL     1      -8.183  53.965  52.963  0.00  0.00    +0.000 C 
BRANCH  30  31
ATOM     31  C   UNL     1      -6.697  53.669  53.194  0.00  0.00    +0.000 C 
ATOM     32  C   UNL     1      -5.790  54.619  52.414  0.00  0.00    +0.000 C 
ATOM     33  C   UNL     1      -6.394  53.780  54.692  0.00  0.00    +0.000 C 
ENDBRANCH  30  31
ENDBRANCH  29  30
ENDBRANCH  10  29
TORSDOF 5
ENDMDL
MODEL 7
REMARK VINA RESULT:      -7.6      2.627      3.520
REMARK  Name = 338093
REMARK  7 active torsions:
REMARK  status: ('A' for Active; 'I' for Inactive)
REMARK    1  A    between atoms: C_7  and  O_9
REMARK    2  A    between atoms: C_10  and  C_13
REMARK    3  A    between atoms: N_11  and  C_14
REMARK    4  A    between atoms: C_14  and  C_18
REMARK    5  A    between atoms: C_18  and  C_21
REMARK    6  A    between atoms: C_21  and  C_26
REMARK    7  A    between atoms: C_21  and  C_27
REMARK                            x       y       z     vdW  Elec       q    Type
REMARK                         _______ _______ _______ _____ _____    ______ ____
ROOT
ATOM      1 CL   UNL     1      -8.346  53.553  43.648  0.00  0.00    +0.000 Cl
ATOM      2  C   UNL     1      -8.743  54.073  45.239  0.00  0.00    +0.000 A 
ATOM      3  C   UNL     1      -7.729  54.328  46.158  0.00  0.00    +0.000 A 
ATOM      4  C   UNL     1     -10.073  54.184  45.617  0.00  0.00    +0.000 A 
ATOM      5  C   UNL     1      -8.040  54.700  47.479  0.00  0.00    +0.000 A 
ATOM      6  C   UNL     1     -10.396  54.577  46.917  0.00  0.00    +0.000 A 
ATOM      7  C   UNL     1      -7.005  54.732  48.526  0.00  0.00    +0.000 A 
ATOM      8  C   UNL     1      -9.393  54.846  47.861  0.00  0.00    +0.000 A 
ATOM      9  C   UNL     1      -7.374  54.787  49.818  0.00  0.00    +0.000 A 
ATOM     10  N   UNL     1      -9.698  55.223  49.204  0.00  0.00    +0.000 N 
ATOM     11  C   UNL     1      -8.711  55.306  50.179  0.00  0.00    +0.000 A 
ATOM     12  O   UNL     1      -8.927  55.731  51.314  0.00  0.00    +0.000 OA
ENDROOT
BRANCH   9  13
ATOM     13  C   UNL     1      -6.384  54.431  50.875  0.00  0.00    +0.000 C 
ATOM     14  N   UNL     1      -6.164  55.286  51.844  0.00  0.00    +0.000 N 
ATOM     15  N   UNL     1      -5.812  53.159  50.862  0.00  0.00    +0.000 N 
ATOM     16  S   UNL     1      -5.419  54.705  53.178  0.00  0.00    +0.000 S 
ATOM     17  C   UNL     1      -6.285  52.463  52.011  0.00  0.00    +0.000 A 
ATOM     18  O   UNL     1      -5.858  55.436  54.344  0.00  0.00    +0.000 OA
ATOM     19  O   UNL     1      -4.005  54.524  52.888  0.00  0.00    +0.000 OA
ATOM     20  C   UNL     1      -6.119  53.064  53.268  0.00  0.00    +0.000 A 
ATOM     21  C   UNL     1      -7.241  51.469  51.842  0.00  0.00    +0.000 A 
ATOM     22  C   UNL     1      -6.832  52.637  54.380  0.00  0.00    +0.000 A 
ATOM     23  C   UNL     1      -8.017  51.085  52.931  0.00  0.00    +0.000 A 
ATOM     24  C   UNL     1      -7.796  51.647  54.196  0.00  0.00    +0.000 A 
ATOM     25  H   UNL     1      -6.435  56.230  51.772  0.00  0.00    +0.000 HD
ATOM     26  H   UNL     1      -5.192  52.806  50.183  0.00  0.00    +0.000 HD
ENDBRANCH   9  13
BRANCH   7  27
ATOM     27  O   UNL     1      -5.682  54.564  48.151  0.00  0.00    +0.000 OA
ATOM     28  H   UNL     1      -4.993  54.799  48.742  0.00  0.00    +0.000 HD
ENDBRANCH   7  27
BRANCH  10  29
ATOM     29  C   UNL     1     -11.077  55.315  49.687  0.00  0.00    +0.000 C 
BRANCH  29  30
ATOM     30  C   UNL     1     -11.597  56.741  49.459  0.00  0.00    +0.000 C 
BRANCH  30  31
ATOM     31  C   UNL     1     -13.090  56.840  49.132  0.00  0.00    +0.000 C 
ATOM     32  C   UNL     1     -13.709  58.141  49.642  0.00  0.00    +0.000 C 
ATOM     33  C   UNL     1     -13.276  56.740  47.615  0.00  0.00    +0.000 C 
ENDBRANCH  30  31
ENDBRANCH  29  30
ENDBRANCH  10  29
TORSDOF 5
ENDMDL
MODEL 8
REMARK VINA RESULT:      -7.5      3.450      7.479
REMARK  Name = 338093
REMARK  7 active torsions:
REMARK  status: ('A' for Active; 'I' for Inactive)
REMARK    1  A    between atoms: C_7  and  O_9
REMARK    2  A    between atoms: C_10  and  C_13
REMARK    3  A    between atoms: N_11  and  C_14
REMARK    4  A    between atoms: C_14  and  C_18
REMARK    5  A    between atoms: C_18  and  C_21
REMARK    6  A    between atoms: C_21  and  C_26
REMARK    7  A    between atoms: C_21  and  C_27
REMARK                            x       y       z     vdW  Elec       q    Type
REMARK                         _______ _______ _______ _____ _____    ______ ____
ROOT
ATOM      1 CL   UNL     1      -8.651  49.674  56.063  0.00  0.00    +0.000 Cl
ATOM      2  C   UNL     1      -8.427  51.088  55.110  0.00  0.00    +0.000 A 
ATOM      3  C   UNL     1      -9.528  51.726  54.546  0.00  0.00    +0.000 A 
ATOM      4  C   UNL     1      -7.145  51.557  54.862  0.00  0.00    +0.000 A 
ATOM      5  C   UNL     1      -9.355  52.852  53.718  0.00  0.00    +0.000 A 
ATOM      6  C   UNL     1      -6.960  52.688  54.065  0.00  0.00    +0.000 A 
ATOM      7  C   UNL     1     -10.468  53.388  52.917  0.00  0.00    +0.000 A 
ATOM      8  C   UNL     1      -8.054  53.353  53.489  0.00  0.00    +0.000 A 
ATOM      9  C   UNL     1     -10.208  54.252  51.920  0.00  0.00    +0.000 A 
ATOM     10  N   UNL     1      -7.888  54.495  52.648  0.00  0.00    +0.000 N 
ATOM     11  C   UNL     1      -8.953  55.034  51.934  0.00  0.00    +0.000 A 
ATOM     12  O   UNL     1      -8.863  56.077  51.288  0.00  0.00    +0.000 OA
ENDROOT
BRANCH   9  13
ATOM     13  C   UNL     1     -11.244  54.493  50.876  0.00  0.00    +0.000 C 
ATOM     14  N   UNL     1     -11.719  55.706  50.729  0.00  0.00    +0.000 N 
ATOM     15  N   UNL     1     -11.589  53.450  50.014  0.00  0.00    +0.000 N 
ATOM     16  S   UNL     1     -12.512  56.018  49.333  0.00  0.00    +0.000 S 
ATOM     17  C   UNL     1     -11.147  53.807  48.708  0.00  0.00    +0.000 A 
ATOM     18  O   UNL     1     -12.345  57.407  48.975  0.00  0.00    +0.000 OA
ATOM     19  O   UNL     1     -13.830  55.405  49.392  0.00  0.00    +0.000 OA
ATOM     20  C   UNL     1     -11.562  55.039  48.180  0.00  0.00    +0.000 A 
ATOM     21  C   UNL     1     -10.025  53.176  48.188  0.00  0.00    +0.000 A 
ATOM     22  C   UNL     1     -10.927  55.616  47.088  0.00  0.00    +0.000 A 
ATOM     23  C   UNL     1      -9.332  53.781  47.143  0.00  0.00    +0.000 A 
ATOM     24  C   UNL     1      -9.795  54.978  46.581  0.00  0.00    +0.000 A 
ATOM     25  H   UNL     1     -11.605  56.393  51.425  0.00  0.00    +0.000 HD
ATOM     26  H   UNL     1     -12.054  52.619  50.264  0.00  0.00    +0.000 HD
ENDBRANCH   9  13
BRANCH   7  27
ATOM     27  O   UNL     1     -11.738  52.876  53.127  0.00  0.00    +0.000 OA
ATOM     28  H   UNL     1     -12.361  52.864  52.427  0.00  0.00    +0.000 HD
ENDBRANCH   7  27
BRANCH  10  29
ATOM     29  C   UNL     1      -6.565  55.018  52.305  0.00  0.00    +0.000 C 
BRANCH  29  30
ATOM     30  C   UNL     1      -6.052  54.305  51.046  0.00  0.00    +0.000 C 
BRANCH  30  31
ATOM     31  C   UNL     1      -4.629  53.746  51.153  0.00  0.00    +0.000 C 
ATOM     32  C   UNL     1      -3.928  54.189  52.436  0.00  0.00    +0.000 C 
ATOM     33  C   UNL     1      -4.690  52.216  51.101  0.00  0.00    +0.000 C 
ENDBRANCH  30  31
ENDBRANCH  29  30
ENDBRANCH  10  29
TORSDOF 5
ENDMDL
MODEL 9
REMARK VINA RESULT:      -7.4      3.341      6.438
REMARK  Name = 338093
REMARK  7 active torsions:
REMARK  status: ('A' for Active; 'I' for Inactive)
REMARK    1  A    between atoms: C_7  and  O_9
REMARK    2  A    between atoms: C_10  and  C_13
REMARK    3  A    between atoms: N_11  and  C_14
REMARK    4  A    between atoms: C_14  and  C_18
REMARK    5  A    between atoms: C_18  and  C_21
REMARK    6  A    between atoms: C_21  and  C_26
REMARK    7  A    between atoms: C_21  and  C_27
REMARK                            x       y       z     vdW  Elec       q    Type
REMARK                         _______ _______ _______ _____ _____    ______ ____
ROOT
ATOM      1 CL   UNL     1      -4.570  55.323  54.333  0.00  0.00    +0.000 Cl
ATOM      2  C   UNL     1      -6.060  54.837  53.624  0.00  0.00    +0.000 A 
ATOM      3  C   UNL     1      -6.057  54.069  52.464  0.00  0.00    +0.000 A 
ATOM      4  C   UNL     1      -7.258  55.259  54.181  0.00  0.00    +0.000 A 
ATOM      5  C   UNL     1      -7.268  53.710  51.841  0.00  0.00    +0.000 A 
ATOM      6  C   UNL     1      -8.468  54.889  53.589  0.00  0.00    +0.000 A 
ATOM      7  C   UNL     1      -7.287  53.117  50.494  0.00  0.00    +0.000 A 
ATOM      8  C   UNL     1      -8.493  54.109  52.422  0.00  0.00    +0.000 A 
ATOM      9  C   UNL     1      -8.443  53.072  49.809  0.00  0.00    +0.000 A 
ATOM     10  N   UNL     1      -9.716  53.742  51.784  0.00  0.00    +0.000 N 
ATOM     11  C   UNL     1      -9.730  53.132  50.535  0.00  0.00    +0.000 A 
ATOM     12  O   UNL     1     -10.760  52.709  50.010  0.00  0.00    +0.000 OA
ENDROOT
BRANCH   9  13
ATOM     13  C   UNL     1      -8.409  52.845  48.336  0.00  0.00    +0.000 C 
ATOM     14  N   UNL     1      -8.834  51.697  47.866  0.00  0.00    +0.000 N 
ATOM     15  N   UNL     1      -8.036  53.897  47.499  0.00  0.00    +0.000 N 
ATOM     16  S   UNL     1      -9.178  51.641  46.269  0.00  0.00    +0.000 S 
ATOM     17  C   UNL     1      -9.182  54.271  46.741  0.00  0.00    +0.000 A 
ATOM     18  O   UNL     1     -10.234  50.686  46.027  0.00  0.00    +0.000 OA
ATOM     19  O   UNL     1      -7.932  51.595  45.519  0.00  0.00    +0.000 OA
ATOM     20  C   UNL     1      -9.850  53.276  46.011  0.00  0.00    +0.000 A 
ATOM     21  C   UNL     1      -9.844  55.448  47.068  0.00  0.00    +0.000 A 
ATOM     22  C   UNL     1     -11.138  53.465  45.530  0.00  0.00    +0.000 A 
ATOM     23  C   UNL     1     -11.163  55.618  46.659  0.00  0.00    +0.000 A 
ATOM     24  C   UNL     1     -11.796  54.645  45.873  0.00  0.00    +0.000 A 
ATOM     25  H   UNL     1      -8.941  50.909  48.447  0.00  0.00    +0.000 HD
ATOM     26  H   UNL     1      -7.143  54.307  47.443  0.00  0.00    +0.000 HD
ENDBRANCH   9  13
BRANCH   7  27
ATOM     27  O   UNL     1      -6.082  52.750  49.918  0.00  0.00    +0.000 OA
ATOM     28  H   UNL     1      -5.420  52.337  50.438  0.00  0.00    +0.000 HD
ENDBRANCH   7  27
BRANCH  10  29
ATOM     29  C   UNL     1     -11.016  54.188  52.287  0.00  0.00    +0.000 C 
BRANCH  29  30
ATOM     30  C   UNL     1     -11.396  55.506  51.600  0.00  0.00    +0.000 C 
BRANCH  30  31
ATOM     31  C   UNL     1     -12.893  55.684  51.322  0.00  0.00    +0.000 C 
ATOM     32  C   UNL     1     -13.535  56.715  52.247  0.00  0.00    +0.000 C 
ATOM     33  C   UNL     1     -13.081  56.111  49.863  0.00  0.00    +0.000 C 
ENDBRANCH  30  31
ENDBRANCH  29  30
ENDBRANCH  10  29
TORSDOF 5
ENDMDL
