MODEL 1
REMARK VINA RESULT:      -8.1      0.000      0.000
REMARK  Name = 338316
REMARK  6 active torsions:
REMARK  status: ('A' for Active; 'I' for Inactive)
REMARK    1  A    between atoms: C_6  and  C_10
REMARK    2  A    between atoms: C_14  and  O_18
REMARK    3  A    between atoms: N_17  and  C_21
REMARK    4  A    between atoms: C_21  and  C_24
REMARK    5  A    between atoms: C_24  and  S_27
REMARK    6  A    between atoms: S_27  and  C_29
REMARK                            x       y       z     vdW  Elec       q    Type
REMARK                         _______ _______ _______ _____ _____    ______ ____
ROOT
ATOM      1  C   UNL     1     -10.117  54.377  52.323  0.00  0.00    +0.000 A 
ATOM      2  C   UNL     1      -8.743  54.956  52.293  0.00  0.00    +0.000 A 
ATOM      3  C   UNL     1     -10.354  53.252  53.016  0.00  0.00    +0.000 A 
ATOM      4  O   UNL     1      -8.565  56.019  51.689  0.00  0.00    +0.000 OA
ATOM      5  N   UNL     1      -7.717  54.297  52.956  0.00  0.00    +0.000 N 
ATOM      6  C   UNL     1      -9.275  52.594  53.768  0.00  0.00    +0.000 A 
ATOM      7  C   UNL     1      -7.969  53.120  53.733  0.00  0.00    +0.000 A 
ATOM      8  C   UNL     1      -9.547  51.447  54.538  0.00  0.00    +0.000 A 
ATOM      9  C   UNL     1      -6.973  52.477  54.486  0.00  0.00    +0.000 A 
ATOM     10  C   UNL     1      -8.547  50.825  55.278  0.00  0.00    +0.000 A 
ATOM     11  C   UNL     1      -7.261  51.342  55.251  0.00  0.00    +0.000 A 
ENDROOT
BRANCH   1  17
ATOM     12  S   UNL     1     -12.316  55.888  49.439  0.00  0.00    +0.000 S 
ATOM     13  O   UNL     1     -13.152  54.889  48.805  0.00  0.00    +0.000 OA
ATOM     14  O   UNL     1     -11.640  56.892  48.640  0.00  0.00    +0.000 OA
ATOM     15  N   UNL     1     -11.198  55.112  50.315  0.00  0.00    +0.000 N 
ATOM     16  C   UNL     1     -13.361  56.772  50.539  0.00  0.00    +0.000 A 
ATOM     17  C   UNL     1     -11.243  55.104  51.614  0.00  0.00    +0.000 C 
ATOM     18  C   UNL     1     -13.178  56.579  51.898  0.00  0.00    +0.000 A 
ATOM     19  C   UNL     1     -14.329  57.644  50.033  0.00  0.00    +0.000 A 
ATOM     20  N   UNL     1     -12.216  55.700  52.387  0.00  0.00    +0.000 N 
ATOM     21  C   UNL     1     -14.051  57.229  52.779  0.00  0.00    +0.000 A 
ATOM     22  C   UNL     1     -15.164  58.313  50.922  0.00  0.00    +0.000 A 
ATOM     23  C   UNL     1     -15.033  58.099  52.294  0.00  0.00    +0.000 A 
ATOM     24  H   UNL     1     -10.470  54.635  49.854  0.00  0.00    +0.000 HD
ATOM     25  H   UNL     1     -12.231  55.490  53.349  0.00  0.00    +0.000 HD
ENDBRANCH   1  17
BRANCH   3  26
ATOM     26  O   UNL     1     -11.594  52.644  53.118  0.00  0.00    +0.000 OA
ATOM     27  H   UNL     1     -12.214  52.949  53.752  0.00  0.00    +0.000 HD
ENDBRANCH   3  26
BRANCH   5  28
ATOM     28  C   UNL     1      -6.361  54.841  52.794  0.00  0.00    +0.000 C 
BRANCH  28  29
ATOM     29  C   UNL     1      -5.515  54.200  51.692  0.00  0.00    +0.000 C 
BRANCH  29  30
ATOM     30  S   UNL     1      -3.883  53.673  52.290  0.00  0.00    +0.000 S 
ATOM     31  O   UNL     1      -3.847  53.917  53.770  0.00  0.00    +0.000 OA
ATOM     32  C   UNL     1      -4.174  51.902  52.043  0.00  0.00    +0.000 C 
ENDBRANCH  29  30
ENDBRANCH  28  29
ENDBRANCH   5  28
TORSDOF 5
ENDMDL
MODEL 2
REMARK VINA RESULT:      -7.9      2.276      3.030
REMARK  Name = 338316
REMARK  6 active torsions:
REMARK  status: ('A' for Active; 'I' for Inactive)
REMARK    1  A    between atoms: C_6  and  C_10
REMARK    2  A    between atoms: C_14  and  O_18
REMARK    3  A    between atoms: N_17  and  C_21
REMARK    4  A    between atoms: C_21  and  C_24
REMARK    5  A    between atoms: C_24  and  S_27
REMARK    6  A    between atoms: S_27  and  C_29
REMARK                            x       y       z     vdW  Elec       q    Type
REMARK                         _______ _______ _______ _____ _____    ______ ____
ROOT
ATOM      1  C   UNL     1     -11.666  54.037  51.124  0.00  0.00    +0.000 A 
ATOM      2  C   UNL     1     -10.767  54.008  52.314  0.00  0.00    +0.000 A 
ATOM      3  C   UNL     1     -11.744  52.964  50.319  0.00  0.00    +0.000 A 
ATOM      4  O   UNL     1     -10.754  54.990  53.065  0.00  0.00    +0.000 OA
ATOM      5  N   UNL     1      -9.994  52.881  52.551  0.00  0.00    +0.000 N 
ATOM      6  C   UNL     1     -10.969  51.750  50.613  0.00  0.00    +0.000 A 
ATOM      7  C   UNL     1     -10.103  51.717  51.722  0.00  0.00    +0.000 A 
ATOM      8  C   UNL     1     -11.101  50.612  49.795  0.00  0.00    +0.000 A 
ATOM      9  C   UNL     1      -9.400  50.529  51.982  0.00  0.00    +0.000 A 
ATOM     10  C   UNL     1     -10.397  49.444  50.070  0.00  0.00    +0.000 A 
ATOM     11  C   UNL     1      -9.547  49.404  51.164  0.00  0.00    +0.000 A 
ENDROOT
BRANCH   1  17
ATOM     12  S   UNL     1     -13.335  57.078  49.280  0.00  0.00    +0.000 S 
ATOM     13  O   UNL     1     -14.445  56.670  48.442  0.00  0.00    +0.000 OA
ATOM     14  O   UNL     1     -12.395  58.079  48.815  0.00  0.00    +0.000 OA
ATOM     15  N   UNL     1     -12.497  55.749  49.669  0.00  0.00    +0.000 N 
ATOM     16  C   UNL     1     -14.046  57.729  50.748  0.00  0.00    +0.000 A 
ATOM     17  C   UNL     1     -12.525  55.260  50.873  0.00  0.00    +0.000 C 
ATOM     18  C   UNL     1     -13.914  56.990  51.912  0.00  0.00    +0.000 A 
ATOM     19  C   UNL     1     -14.708  58.959  50.716  0.00  0.00    +0.000 A 
ATOM     20  N   UNL     1     -13.260  55.762  51.926  0.00  0.00    +0.000 N 
ATOM     21  C   UNL     1     -14.536  57.471  53.070  0.00  0.00    +0.000 A 
ATOM     22  C   UNL     1     -15.288  59.443  51.884  0.00  0.00    +0.000 A 
ATOM     23  C   UNL     1     -15.211  58.696  53.060  0.00  0.00    +0.000 A 
ATOM     24  H   UNL     1     -11.956  55.301  48.979  0.00  0.00    +0.000 HD
ATOM     25  H   UNL     1     -13.326  55.215  52.742  0.00  0.00    +0.000 HD
ENDBRANCH   1  17
BRANCH   3  26
ATOM     26  O   UNL     1     -12.557  52.885  49.201  0.00  0.00    +0.000 OA
ATOM     27  H   UNL     1     -12.603  52.088  48.711  0.00  0.00    +0.000 HD
ENDBRANCH   3  26
BRANCH   5  28
ATOM     28  C   UNL     1      -9.036  52.951  53.665  0.00  0.00    +0.000 C 
BRANCH  28  29
ATOM     29  C   UNL     1      -7.646  53.485  53.312  0.00  0.00    +0.000 C 
BRANCH  29  30
ATOM     30  S   UNL     1      -7.307  55.094  54.082  0.00  0.00    +0.000 S 
ATOM     31  O   UNL     1      -5.900  55.055  54.603  0.00  0.00    +0.000 OA
ATOM     32  C   UNL     1      -7.281  56.026  52.528  0.00  0.00    +0.000 C 
ENDBRANCH  29  30
ENDBRANCH  28  29
ENDBRANCH   5  28
TORSDOF 5
ENDMDL
MODEL 3
REMARK VINA RESULT:      -7.8      3.388      5.041
REMARK  Name = 338316
REMARK  6 active torsions:
REMARK  status: ('A' for Active; 'I' for Inactive)
REMARK    1  A    between atoms: C_6  and  C_10
REMARK    2  A    between atoms: C_14  and  O_18
REMARK    3  A    between atoms: N_17  and  C_21
REMARK    4  A    between atoms: C_21  and  C_24
REMARK    5  A    between atoms: C_24  and  S_27
REMARK    6  A    between atoms: S_27  and  C_29
REMARK                            x       y       z     vdW  Elec       q    Type
REMARK                         _______ _______ _______ _____ _____    ______ ____
ROOT
ATOM      1  C   UNL     1     -11.474  55.836  48.854  0.00  0.00    +0.000 A 
ATOM      2  C   UNL     1     -10.471  55.167  49.731  0.00  0.00    +0.000 A 
ATOM      3  C   UNL     1     -11.542  55.516  47.551  0.00  0.00    +0.000 A 
ATOM      4  O   UNL     1     -10.464  55.444  50.935  0.00  0.00    +0.000 OA
ATOM      5  N   UNL     1      -9.594  54.245  49.176  0.00  0.00    +0.000 N 
ATOM      6  C   UNL     1     -10.651  54.493  46.984  0.00  0.00    +0.000 A 
ATOM      7  C   UNL     1      -9.688  53.867  47.797  0.00  0.00    +0.000 A 
ATOM      8  C   UNL     1     -10.770  54.124  45.630  0.00  0.00    +0.000 A 
ATOM      9  C   UNL     1      -8.875  52.876  47.223  0.00  0.00    +0.000 A 
ATOM     10  C   UNL     1      -9.955  53.140  45.080  0.00  0.00    +0.000 A 
ATOM     11  C   UNL     1      -9.009  52.516  45.878  0.00  0.00    +0.000 A 
ENDROOT
BRANCH   1  17
ATOM     12  S   UNL     1     -13.508  59.145  49.436  0.00  0.00    +0.000 S 
ATOM     13  O   UNL     1     -14.639  59.261  48.536  0.00  0.00    +0.000 OA
ATOM     14  O   UNL     1     -12.688  60.303  49.733  0.00  0.00    +0.000 OA
ATOM     15  N   UNL     1     -12.541  57.981  48.865  0.00  0.00    +0.000 N 
ATOM     16  C   UNL     1     -14.164  58.611  50.976  0.00  0.00    +0.000 A 
ATOM     17  C   UNL     1     -12.444  56.830  49.461  0.00  0.00    +0.000 C 
ATOM     18  C   UNL     1     -13.889  57.315  51.378  0.00  0.00    +0.000 A 
ATOM     19  C   UNL     1     -14.923  59.489  51.753  0.00  0.00    +0.000 A 
ATOM     20  N   UNL     1     -13.139  56.449  50.588  0.00  0.00    +0.000 N 
ATOM     21  C   UNL     1     -14.464  56.862  52.572  0.00  0.00    +0.000 A 
ATOM     22  C   UNL     1     -15.455  59.037  52.956  0.00  0.00    +0.000 A 
ATOM     23  C   UNL     1     -15.234  57.721  53.362  0.00  0.00    +0.000 A 
ATOM     24  H   UNL     1     -12.016  58.148  48.048  0.00  0.00    +0.000 HD
ATOM     25  H   UNL     1     -13.104  55.501  50.852  0.00  0.00    +0.000 HD
ENDBRANCH   1  17
BRANCH   3  26
ATOM     26  O   UNL     1     -12.445  56.068  46.657  0.00  0.00    +0.000 OA
ATOM     27  H   UNL     1     -12.229  56.123  45.748  0.00  0.00    +0.000 HD
ENDBRANCH   3  26
BRANCH   5  28
ATOM     28  C   UNL     1      -8.547  53.706  50.057  0.00  0.00    +0.000 C 
BRANCH  28  29
ATOM     29  C   UNL     1      -7.246  54.510  50.110  0.00  0.00    +0.000 C 
BRANCH  29  30
ATOM     30  S   UNL     1      -6.794  54.984  51.803  0.00  0.00    +0.000 S 
ATOM     31  O   UNL     1      -7.400  56.331  52.069  0.00  0.00    +0.000 OA
ATOM     32  C   UNL     1      -7.847  53.751  52.613  0.00  0.00    +0.000 C 
ENDBRANCH  29  30
ENDBRANCH  28  29
ENDBRANCH   5  28
TORSDOF 5
ENDMDL
MODEL 4
REMARK VINA RESULT:      -7.8      4.558      5.489
REMARK  Name = 338316
REMARK  6 active torsions:
REMARK  status: ('A' for Active; 'I' for Inactive)
REMARK    1  A    between atoms: C_6  and  C_10
REMARK    2  A    between atoms: C_14  and  O_18
REMARK    3  A    between atoms: N_17  and  C_21
REMARK    4  A    between atoms: C_21  and  C_24
REMARK    5  A    between atoms: C_24  and  S_27
REMARK    6  A    between atoms: S_27  and  C_29
REMARK                            x       y       z     vdW  Elec       q    Type
REMARK                         _______ _______ _______ _____ _____    ______ ____
ROOT
ATOM      1  C   UNL     1     -12.527  54.305  49.510  0.00  0.00    +0.000 A 
ATOM      2  C   UNL     1     -12.007  54.276  48.113  0.00  0.00    +0.000 A 
ATOM      3  C   UNL     1     -12.250  53.292  50.348  0.00  0.00    +0.000 A 
ATOM      4  O   UNL     1     -12.235  55.244  47.380  0.00  0.00    +0.000 OA
ATOM      5  N   UNL     1     -11.271  53.178  47.687  0.00  0.00    +0.000 N 
ATOM      6  C   UNL     1     -11.417  52.163  49.908  0.00  0.00    +0.000 A 
ATOM      7  C   UNL     1     -10.935  52.115  48.586  0.00  0.00    +0.000 A 
ATOM      8  C   UNL     1     -11.086  51.135  50.811  0.00  0.00    +0.000 A 
ATOM      9  C   UNL     1     -10.121  51.032  48.214  0.00  0.00    +0.000 A 
ATOM     10  C   UNL     1     -10.277  50.072  50.424  0.00  0.00    +0.000 A 
ATOM     11  C   UNL     1      -9.795  50.022  49.125  0.00  0.00    +0.000 A 
ENDROOT
BRANCH   1  17
ATOM     12  S   UNL     1     -15.362  56.460  51.168  0.00  0.00    +0.000 S 
ATOM     13  O   UNL     1     -15.221  56.540  52.608  0.00  0.00    +0.000 OA
ATOM     14  O   UNL     1     -16.671  56.281  50.570  0.00  0.00    +0.000 OA
ATOM     15  N   UNL     1     -14.407  55.263  50.644  0.00  0.00    +0.000 N 
ATOM     16  C   UNL     1     -14.745  57.976  50.532  0.00  0.00    +0.000 A 
ATOM     17  C   UNL     1     -13.316  55.510  49.983  0.00  0.00    +0.000 C 
ATOM     18  C   UNL     1     -13.543  57.945  49.845  0.00  0.00    +0.000 A 
ATOM     19  C   UNL     1     -15.468  59.157  50.719  0.00  0.00    +0.000 A 
ATOM     20  N   UNL     1     -12.829  56.762  49.676  0.00  0.00    +0.000 N 
ATOM     21  C   UNL     1     -13.012  59.160  49.394  0.00  0.00    +0.000 A 
ATOM     22  C   UNL     1     -14.946  60.350  50.231  0.00  0.00    +0.000 A 
ATOM     23  C   UNL     1     -13.714  60.355  49.577  0.00  0.00    +0.000 A 
ATOM     24  H   UNL     1     -14.657  54.329  50.832  0.00  0.00    +0.000 HD
ATOM     25  H   UNL     1     -11.916  56.824  49.314  0.00  0.00    +0.000 HD
ENDBRANCH   1  17
BRANCH   3  26
ATOM     26  O   UNL     1     -12.673  53.231  51.665  0.00  0.00    +0.000 OA
ATOM     27  H   UNL     1     -12.265  52.634  52.260  0.00  0.00    +0.000 HD
ENDBRANCH   3  26
BRANCH   5  28
ATOM     28  C   UNL     1     -10.887  53.144  46.268  0.00  0.00    +0.000 C 
BRANCH  28  29
ATOM     29  C   UNL     1      -9.574  53.849  45.919  0.00  0.00    +0.000 C 
BRANCH  29  30
ATOM     30  S   UNL     1      -8.736  53.086  44.500  0.00  0.00    +0.000 S 
ATOM     31  O   UNL     1      -8.068  51.835  44.992  0.00  0.00    +0.000 OA
ATOM     32  C   UNL     1     -10.257  52.587  43.651  0.00  0.00    +0.000 C 
ENDBRANCH  29  30
ENDBRANCH  28  29
ENDBRANCH   5  28
TORSDOF 5
ENDMDL
MODEL 5
REMARK VINA RESULT:      -7.6      1.530      2.227
REMARK  Name = 338316
REMARK  6 active torsions:
REMARK  status: ('A' for Active; 'I' for Inactive)
REMARK    1  A    between atoms: C_6  and  C_10
REMARK    2  A    between atoms: C_14  and  O_18
REMARK    3  A    between atoms: N_17  and  C_21
REMARK    4  A    between atoms: C_21  and  C_24
REMARK    5  A    between atoms: C_24  and  S_27
REMARK    6  A    between atoms: S_27  and  C_29
REMARK                            x       y       z     vdW  Elec       q    Type
REMARK                         _______ _______ _______ _____ _____    ______ ____
ROOT
ATOM      1  C   UNL     1     -10.147  54.490  52.264  0.00  0.00    +0.000 A 
ATOM      2  C   UNL     1      -8.752  55.017  52.264  0.00  0.00    +0.000 A 
ATOM      3  C   UNL     1     -10.435  53.360  52.931  0.00  0.00    +0.000 A 
ATOM      4  O   UNL     1      -8.525  56.084  51.684  0.00  0.00    +0.000 OA
ATOM      5  N   UNL     1      -7.761  54.306  52.927  0.00  0.00    +0.000 N 
ATOM      6  C   UNL     1      -9.392  52.648  53.683  0.00  0.00    +0.000 A 
ATOM      7  C   UNL     1      -8.068  53.124  53.676  0.00  0.00    +0.000 A 
ATOM      8  C   UNL     1      -9.718  51.496  54.425  0.00  0.00    +0.000 A 
ATOM      9  C   UNL     1      -7.107  52.429  54.428  0.00  0.00    +0.000 A 
ATOM     10  C   UNL     1      -8.752  50.822  55.165  0.00  0.00    +0.000 A 
ATOM     11  C   UNL     1      -7.447  51.290  55.166  0.00  0.00    +0.000 A 
ENDROOT
BRANCH   1  17
ATOM     12  S   UNL     1     -13.475  56.483  51.647  0.00  0.00    +0.000 S 
ATOM     13  O   UNL     1     -13.379  57.862  52.084  0.00  0.00    +0.000 OA
ATOM     14  O   UNL     1     -14.681  55.718  51.898  0.00  0.00    +0.000 OA
ATOM     15  N   UNL     1     -12.229  55.675  52.289  0.00  0.00    +0.000 N 
ATOM     16  C   UNL     1     -13.276  56.509  49.903  0.00  0.00    +0.000 A 
ATOM     17  C   UNL     1     -11.235  55.273  51.555  0.00  0.00    +0.000 C 
ATOM     18  C   UNL     1     -12.100  55.996  49.381  0.00  0.00    +0.000 A 
ATOM     19  C   UNL     1     -14.290  57.025  49.092  0.00  0.00    +0.000 A 
ATOM     20  N   UNL     1     -11.095  55.494  50.202  0.00  0.00    +0.000 N 
ATOM     21  C   UNL     1     -11.906  56.075  47.996  0.00  0.00    +0.000 A 
ATOM     22  C   UNL     1     -14.099  57.061  47.715  0.00  0.00    +0.000 A 
ATOM     23  C   UNL     1     -12.904  56.595  47.166  0.00  0.00    +0.000 A 
ATOM     24  H   UNL     1     -12.223  55.485  53.255  0.00  0.00    +0.000 HD
ATOM     25  H   UNL     1     -10.226  55.283  49.789  0.00  0.00    +0.000 HD
ENDBRANCH   1  17
BRANCH   3  26
ATOM     26  O   UNL     1     -11.699  52.798  53.004  0.00  0.00    +0.000 OA
ATOM     27  H   UNL     1     -11.801  51.868  52.957  0.00  0.00    +0.000 HD
ENDBRANCH   3  26
BRANCH   5  28
ATOM     28  C   UNL     1      -6.383  54.802  52.794  0.00  0.00    +0.000 C 
BRANCH  28  29
ATOM     29  C   UNL     1      -5.579  54.224  51.628  0.00  0.00    +0.000 C 
BRANCH  29  30
ATOM     30  S   UNL     1      -3.966  53.576  52.154  0.00  0.00    +0.000 S 
ATOM     31  O   UNL     1      -3.849  53.809  53.632  0.00  0.00    +0.000 OA
ATOM     32  C   UNL     1      -4.395  51.832  51.915  0.00  0.00    +0.000 C 
ENDBRANCH  29  30
ENDBRANCH  28  29
ENDBRANCH   5  28
TORSDOF 5
ENDMDL
MODEL 6
REMARK VINA RESULT:      -7.6      3.071      7.428
REMARK  Name = 338316
REMARK  6 active torsions:
REMARK  status: ('A' for Active; 'I' for Inactive)
REMARK    1  A    between atoms: C_6  and  C_10
REMARK    2  A    between atoms: C_14  and  O_18
REMARK    3  A    between atoms: N_17  and  C_21
REMARK    4  A    between atoms: C_21  and  C_24
REMARK    5  A    between atoms: C_24  and  S_27
REMARK    6  A    between atoms: S_27  and  C_29
REMARK                            x       y       z     vdW  Elec       q    Type
REMARK                         _______ _______ _______ _____ _____    ______ ____
ROOT
ATOM      1  C   UNL     1     -10.143  55.122  50.660  0.00  0.00    +0.000 A 
ATOM      2  C   UNL     1      -9.727  54.974  49.236  0.00  0.00    +0.000 A 
ATOM      3  C   UNL     1     -11.333  55.672  50.955  0.00  0.00    +0.000 A 
ATOM      4  O   UNL     1      -8.649  54.420  48.992  0.00  0.00    +0.000 OA
ATOM      5  N   UNL     1     -10.565  55.443  48.234  0.00  0.00    +0.000 N 
ATOM      6  C   UNL     1     -12.242  56.108  49.886  0.00  0.00    +0.000 A 
ATOM      7  C   UNL     1     -11.853  55.991  48.538  0.00  0.00    +0.000 A 
ATOM      8  C   UNL     1     -13.510  56.630  50.205  0.00  0.00    +0.000 A 
ATOM      9  C   UNL     1     -12.761  56.396  47.546  0.00  0.00    +0.000 A 
ATOM     10  C   UNL     1     -14.396  57.025  49.208  0.00  0.00    +0.000 A 
ATOM     11  C   UNL     1     -14.020  56.906  47.879  0.00  0.00    +0.000 A 
ENDROOT
BRANCH   1  17
ATOM     12  S   UNL     1      -7.016  54.700  53.000  0.00  0.00    +0.000 S 
ATOM     13  O   UNL     1      -6.982  55.692  54.057  0.00  0.00    +0.000 OA
ATOM     14  O   UNL     1      -5.799  54.329  52.305  0.00  0.00    +0.000 OA
ATOM     15  N   UNL     1      -8.092  55.192  51.896  0.00  0.00    +0.000 N 
ATOM     16  C   UNL     1      -7.619  53.224  53.737  0.00  0.00    +0.000 A 
ATOM     17  C   UNL     1      -9.238  54.595  51.756  0.00  0.00    +0.000 C 
ATOM     18  C   UNL     1      -8.893  52.805  53.392  0.00  0.00    +0.000 A 
ATOM     19  C   UNL     1      -6.814  52.510  54.628  0.00  0.00    +0.000 A 
ATOM     20  N   UNL     1      -9.687  53.533  52.510  0.00  0.00    +0.000 N 
ATOM     21  C   UNL     1      -9.405  51.666  54.026  0.00  0.00    +0.000 A 
ATOM     22  C   UNL     1      -7.322  51.358  55.220  0.00  0.00    +0.000 A 
ATOM     23  C   UNL     1      -8.620  50.940  54.928  0.00  0.00    +0.000 A 
ATOM     24  H   UNL     1      -7.874  55.960  51.320  0.00  0.00    +0.000 HD
ATOM     25  H   UNL     1     -10.631  53.271  52.420  0.00  0.00    +0.000 HD
ENDBRANCH   1  17
BRANCH   3  26
ATOM     26  O   UNL     1     -11.817  55.840  52.242  0.00  0.00    +0.000 OA
ATOM     27  H   UNL     1     -12.720  55.676  52.428  0.00  0.00    +0.000 HD
ENDBRANCH   3  26
BRANCH   5  28
ATOM     28  C   UNL     1     -10.054  55.384  46.856  0.00  0.00    +0.000 C 
BRANCH  28  29
ATOM     29  C   UNL     1     -10.409  54.120  46.070  0.00  0.00    +0.000 C 
BRANCH  29  30
ATOM     30  S   UNL     1      -8.948  53.330  45.334  0.00  0.00    +0.000 S 
ATOM     31  O   UNL     1      -9.224  53.151  43.870  0.00  0.00    +0.000 OA
ATOM     32  C   UNL     1      -7.868  54.775  45.507  0.00  0.00    +0.000 C 
ENDBRANCH  29  30
ENDBRANCH  28  29
ENDBRANCH   5  28
TORSDOF 5
ENDMDL
MODEL 7
REMARK VINA RESULT:      -7.5      2.617      8.044
REMARK  Name = 338316
REMARK  6 active torsions:
REMARK  status: ('A' for Active; 'I' for Inactive)
REMARK    1  A    between atoms: C_6  and  C_10
REMARK    2  A    between atoms: C_14  and  O_18
REMARK    3  A    between atoms: N_17  and  C_21
REMARK    4  A    between atoms: C_21  and  C_24
REMARK    5  A    between atoms: C_24  and  S_27
REMARK    6  A    between atoms: S_27  and  C_29
REMARK                            x       y       z     vdW  Elec       q    Type
REMARK                         _______ _______ _______ _____ _____    ______ ____
ROOT
ATOM      1  C   UNL     1      -9.790  54.245  51.067  0.00  0.00    +0.000 A 
ATOM      2  C   UNL     1     -10.917  55.163  51.400  0.00  0.00    +0.000 A 
ATOM      3  C   UNL     1      -9.526  53.948  49.784  0.00  0.00    +0.000 A 
ATOM      4  O   UNL     1     -11.106  55.458  52.585  0.00  0.00    +0.000 OA
ATOM      5  N   UNL     1     -11.703  55.669  50.373  0.00  0.00    +0.000 N 
ATOM      6  C   UNL     1     -10.324  54.538  48.699  0.00  0.00    +0.000 A 
ATOM      7  C   UNL     1     -11.402  55.391  49.000  0.00  0.00    +0.000 A 
ATOM      8  C   UNL     1     -10.003  54.265  47.356  0.00  0.00    +0.000 A 
ATOM      9  C   UNL     1     -12.123  55.954  47.935  0.00  0.00    +0.000 A 
ATOM     10  C   UNL     1     -10.728  54.834  46.314  0.00  0.00    +0.000 A 
ATOM     11  C   UNL     1     -11.788  55.679  46.605  0.00  0.00    +0.000 A 
ENDROOT
BRANCH   1  17
ATOM     12  S   UNL     1      -6.637  53.568  53.310  0.00  0.00    +0.000 S 
ATOM     13  O   UNL     1      -6.368  54.661  54.224  0.00  0.00    +0.000 OA
ATOM     14  O   UNL     1      -5.548  52.906  52.619  0.00  0.00    +0.000 OA
ATOM     15  N   UNL     1      -7.682  54.103  52.196  0.00  0.00    +0.000 N 
ATOM     16  C   UNL     1      -7.433  52.323  54.259  0.00  0.00    +0.000 A 
ATOM     17  C   UNL     1      -8.919  53.705  52.184  0.00  0.00    +0.000 C 
ATOM     18  C   UNL     1      -8.780  52.097  54.026  0.00  0.00    +0.000 A 
ATOM     19  C   UNL     1      -6.706  51.593  55.203  0.00  0.00    +0.000 A 
ATOM     20  N   UNL     1      -9.493  52.840  53.090  0.00  0.00    +0.000 N 
ATOM     21  C   UNL     1      -9.435  51.153  54.826  0.00  0.00    +0.000 A 
ATOM     22  C   UNL     1      -7.363  50.631  55.963  0.00  0.00    +0.000 A 
ATOM     23  C   UNL     1      -8.729  50.417  55.782  0.00  0.00    +0.000 A 
ATOM     24  H   UNL     1      -7.374  54.744  51.515  0.00  0.00    +0.000 HD
ATOM     25  H   UNL     1     -10.472  52.740  53.074  0.00  0.00    +0.000 HD
ENDBRANCH   1  17
BRANCH   3  26
ATOM     26  O   UNL     1      -8.495  53.121  49.370  0.00  0.00    +0.000 OA
ATOM     27  H   UNL     1      -8.615  52.556  48.633  0.00  0.00    +0.000 HD
ENDBRANCH   3  26
BRANCH   5  28
ATOM     28  C   UNL     1     -12.874  56.468  50.763  0.00  0.00    +0.000 C 
BRANCH  28  29
ATOM     29  C   UNL     1     -14.198  55.705  50.857  0.00  0.00    +0.000 C 
BRANCH  29  30
ATOM     30  S   UNL     1     -15.612  56.808  51.146  0.00  0.00    +0.000 S 
ATOM     31  O   UNL     1     -15.790  56.929  52.631  0.00  0.00    +0.000 OA
ATOM     32  C   UNL     1     -14.776  58.311  50.578  0.00  0.00    +0.000 C 
ENDBRANCH  29  30
ENDBRANCH  28  29
ENDBRANCH   5  28
TORSDOF 5
ENDMDL
MODEL 8
REMARK VINA RESULT:      -7.3      4.445      6.200
REMARK  Name = 338316
REMARK  6 active torsions:
REMARK  status: ('A' for Active; 'I' for Inactive)
REMARK    1  A    between atoms: C_6  and  C_10
REMARK    2  A    between atoms: C_14  and  O_18
REMARK    3  A    between atoms: N_17  and  C_21
REMARK    4  A    between atoms: C_21  and  C_24
REMARK    5  A    between atoms: C_24  and  S_27
REMARK    6  A    between atoms: S_27  and  C_29
REMARK                            x       y       z     vdW  Elec       q    Type
REMARK                         _______ _______ _______ _____ _____    ______ ____
ROOT
ATOM      1  C   UNL     1     -10.687  55.700  48.798  0.00  0.00    +0.000 A 
ATOM      2  C   UNL     1     -11.004  55.133  47.455  0.00  0.00    +0.000 A 
ATOM      3  C   UNL     1      -9.434  55.621  49.277  0.00  0.00    +0.000 A 
ATOM      4  O   UNL     1     -12.153  55.264  47.018  0.00  0.00    +0.000 OA
ATOM      5  N   UNL     1     -10.003  54.497  46.735  0.00  0.00    +0.000 N 
ATOM      6  C   UNL     1      -8.365  55.002  48.480  0.00  0.00    +0.000 A 
ATOM      7  C   UNL     1      -8.655  54.447  47.220  0.00  0.00    +0.000 A 
ATOM      8  C   UNL     1      -7.045  54.976  48.968  0.00  0.00    +0.000 A 
ATOM      9  C   UNL     1      -7.601  53.888  46.480  0.00  0.00    +0.000 A 
ATOM     10  C   UNL     1      -6.013  54.419  48.220  0.00  0.00    +0.000 A 
ATOM     11  C   UNL     1      -6.293  53.876  46.975  0.00  0.00    +0.000 A 
ENDROOT
BRANCH   1  17
ATOM     12  S   UNL     1     -13.508  56.374  51.446  0.00  0.00    +0.000 S 
ATOM     13  O   UNL     1     -12.969  56.698  52.752  0.00  0.00    +0.000 OA
ATOM     14  O   UNL     1     -14.658  55.499  51.325  0.00  0.00    +0.000 OA
ATOM     15  N   UNL     1     -12.308  55.746  50.560  0.00  0.00    +0.000 N 
ATOM     16  C   UNL     1     -13.986  57.901  50.723  0.00  0.00    +0.000 A 
ATOM     17  C   UNL     1     -11.774  56.410  49.579  0.00  0.00    +0.000 C 
ATOM     18  C   UNL     1     -13.231  58.377  49.664  0.00  0.00    +0.000 A 
ATOM     19  C   UNL     1     -15.101  58.586  51.212  0.00  0.00    +0.000 A 
ATOM     20  N   UNL     1     -12.117  57.688  49.194  0.00  0.00    +0.000 N 
ATOM     21  C   UNL     1     -13.566  59.626  49.126  0.00  0.00    +0.000 A 
ATOM     22  C   UNL     1     -15.445  59.807  50.642  0.00  0.00    +0.000 A 
ATOM     23  C   UNL     1     -14.673  60.333  49.606  0.00  0.00    +0.000 A 
ATOM     24  H   UNL     1     -11.975  54.844  50.771  0.00  0.00    +0.000 HD
ATOM     25  H   UNL     1     -11.535  58.145  48.544  0.00  0.00    +0.000 HD
ENDBRANCH   1  17
BRANCH   3  26
ATOM     26  O   UNL     1      -9.034  56.128  50.502  0.00  0.00    +0.000 OA
ATOM     27  H   UNL     1      -9.325  56.975  50.776  0.00  0.00    +0.000 HD
ENDBRANCH   3  26
BRANCH   5  28
ATOM     28  C   UNL     1     -10.397  53.850  45.475  0.00  0.00    +0.000 C 
BRANCH  28  29
ATOM     29  C   UNL     1     -10.479  52.322  45.511  0.00  0.00    +0.000 C 
BRANCH  29  30
ATOM     30  S   UNL     1     -12.185  51.725  45.689  0.00  0.00    +0.000 S 
ATOM     31  O   UNL     1     -12.217  50.305  45.205  0.00  0.00    +0.000 OA
ATOM     32  C   UNL     1     -12.161  51.677  47.500  0.00  0.00    +0.000 C 
ENDBRANCH  29  30
ENDBRANCH  28  29
ENDBRANCH   5  28
TORSDOF 5
ENDMDL
MODEL 9
REMARK VINA RESULT:      -7.3      4.108      5.788
REMARK  Name = 338316
REMARK  6 active torsions:
REMARK  status: ('A' for Active; 'I' for Inactive)
REMARK    1  A    between atoms: C_6  and  C_10
REMARK    2  A    between atoms: C_14  and  O_18
REMARK    3  A    between atoms: N_17  and  C_21
REMARK    4  A    between atoms: C_21  and  C_24
REMARK    5  A    between atoms: C_24  and  S_27
REMARK    6  A    between atoms: S_27  and  C_29
REMARK                            x       y       z     vdW  Elec       q    Type
REMARK                         _______ _______ _______ _____ _____    ______ ____
ROOT
ATOM      1  C   UNL     1     -11.380  55.746  49.028  0.00  0.00    +0.000 A 
ATOM      2  C   UNL     1     -11.495  55.304  47.608  0.00  0.00    +0.000 A 
ATOM      3  C   UNL     1     -10.376  55.285  49.792  0.00  0.00    +0.000 A 
ATOM      4  O   UNL     1     -12.399  55.782  46.914  0.00  0.00    +0.000 OA
ATOM      5  N   UNL     1     -10.578  54.390  47.107  0.00  0.00    +0.000 N 
ATOM      6  C   UNL     1      -9.372  54.366  49.235  0.00  0.00    +0.000 A 
ATOM      7  C   UNL     1      -9.480  53.928  47.902  0.00  0.00    +0.000 A 
ATOM      8  C   UNL     1      -8.292  53.935  50.028  0.00  0.00    +0.000 A 
ATOM      9  C   UNL     1      -8.486  53.071  47.401  0.00  0.00    +0.000 A 
ATOM     10  C   UNL     1      -7.317  53.087  49.514  0.00  0.00    +0.000 A 
ATOM     11  C   UNL     1      -7.415  52.656  48.200  0.00  0.00    +0.000 A 
ENDROOT
BRANCH   1  17
ATOM     12  S   UNL     1     -13.460  59.055  49.420  0.00  0.00    +0.000 S 
ATOM     13  O   UNL     1     -14.580  59.113  48.500  0.00  0.00    +0.000 OA
ATOM     14  O   UNL     1     -12.657  60.236  49.670  0.00  0.00    +0.000 OA
ATOM     15  N   UNL     1     -12.472  57.875  48.919  0.00  0.00    +0.000 N 
ATOM     16  C   UNL     1     -14.130  58.589  50.975  0.00  0.00    +0.000 A 
ATOM     17  C   UNL     1     -12.370  56.757  49.572  0.00  0.00    +0.000 C 
ATOM     18  C   UNL     1     -13.846  57.318  51.444  0.00  0.00    +0.000 A 
ATOM     19  C   UNL     1     -14.909  59.496  51.698  0.00  0.00    +0.000 A 
ATOM     20  N   UNL     1     -13.076  56.423  50.708  0.00  0.00    +0.000 N 
ATOM     21  C   UNL     1     -14.432  56.917  52.652  0.00  0.00    +0.000 A 
ATOM     22  C   UNL     1     -15.452  59.096  52.915  0.00  0.00    +0.000 A 
ATOM     23  C   UNL     1     -15.222  57.805  53.388  0.00  0.00    +0.000 A 
ATOM     24  H   UNL     1     -11.938  58.008  48.102  0.00  0.00    +0.000 HD
ATOM     25  H   UNL     1     -13.033  55.490  51.019  0.00  0.00    +0.000 HD
ENDBRANCH   1  17
BRANCH   3  26
ATOM     26  O   UNL     1     -10.173  55.645  51.114  0.00  0.00    +0.000 OA
ATOM     27  H   UNL     1     -10.064  56.546  51.342  0.00  0.00    +0.000 HD
ENDBRANCH   3  26
BRANCH   5  28
ATOM     28  C   UNL     1     -10.809  53.896  45.742  0.00  0.00    +0.000 C 
BRANCH  28  29
ATOM     29  C   UNL     1     -11.739  52.686  45.622  0.00  0.00    +0.000 C 
BRANCH  29  30
ATOM     30  S   UNL     1     -11.132  51.463  44.425  0.00  0.00    +0.000 S 
ATOM     31  O   UNL     1      -9.635  51.433  44.532  0.00  0.00    +0.000 OA
ATOM     32  C   UNL     1     -11.765  50.020  45.318  0.00  0.00    +0.000 C 
ENDBRANCH  29  30
ENDBRANCH  28  29
ENDBRANCH   5  28
TORSDOF 5
ENDMDL
