MODEL 1
REMARK VINA RESULT:      -8.6      0.000      0.000
REMARK  Name = 338168
REMARK  5 active torsions:
REMARK  status: ('A' for Active; 'I' for Inactive)
REMARK    1  A    between atoms: C_6  and  C_10
REMARK    2  A    between atoms: C_14  and  O_18
REMARK    3  A    between atoms: N_17  and  C_21
REMARK    4  A    between atoms: C_21  and  C_24
REMARK    5  A    between atoms: C_24  and  C_27
REMARK                            x       y       z     vdW  Elec       q    Type
REMARK                         _______ _______ _______ _____ _____    ______ ____
ROOT
ATOM      1  C   UNL     1      -9.985  54.545  52.374  0.00  0.00    +0.000 A 
ATOM      2  C   UNL     1      -8.590  55.049  52.260  0.00  0.00    +0.000 A 
ATOM      3  C   UNL     1     -10.238  53.414  53.055  0.00  0.00    +0.000 A 
ATOM      4  O   UNL     1      -8.388  55.988  51.488  0.00  0.00    +0.000 OA
ATOM      5  N   UNL     1      -7.594  54.468  53.048  0.00  0.00    +0.000 N 
ATOM      6  C   UNL     1      -9.156  52.702  53.745  0.00  0.00    +0.000 A 
ATOM      7  C   UNL     1      -7.853  53.241  53.758  0.00  0.00    +0.000 A 
ATOM      8  C   UNL     1      -9.435  51.507  54.433  0.00  0.00    +0.000 A 
ATOM      9  C   UNL     1      -6.859  52.547  54.474  0.00  0.00    +0.000 A 
ATOM     10  C   UNL     1      -8.441  50.864  55.150  0.00  0.00    +0.000 A 
ATOM     11  C   UNL     1      -7.156  51.375  55.180  0.00  0.00    +0.000 A 
ATOM     12  F   UNL     1      -8.728  49.746  55.830  0.00  0.00    +0.000 F 
ENDROOT
BRANCH   1  18
ATOM     13  S   UNL     1     -12.366  55.787  49.436  0.00  0.00    +0.000 S 
ATOM     14  O   UNL     1     -13.042  54.540  49.140  0.00  0.00    +0.000 OA
ATOM     15  O   UNL     1     -11.922  56.683  48.391  0.00  0.00    +0.000 OA
ATOM     16  N   UNL     1     -11.048  55.452  50.365  0.00  0.00    +0.000 N 
ATOM     17  C   UNL     1     -13.361  56.689  50.540  0.00  0.00    +0.000 A 
ATOM     18  C   UNL     1     -11.123  55.275  51.743  0.00  0.00    +0.000 C 
ATOM     19  C   UNL     1     -13.099  56.550  51.899  0.00  0.00    +0.000 A 
ATOM     20  C   UNL     1     -14.356  57.540  50.051  0.00  0.00    +0.000 A 
ATOM     21  N   UNL     1     -12.112  55.722  52.454  0.00  0.00    +0.000 N 
ATOM     22  C   UNL     1     -13.864  57.315  52.785  0.00  0.00    +0.000 A 
ATOM     23  C   UNL     1     -15.115  58.282  50.953  0.00  0.00    +0.000 A 
ATOM     24  C   UNL     1     -14.862  58.176  52.320  0.00  0.00    +0.000 A 
ATOM     25  H   UNL     1     -10.170  55.373  49.927  0.00  0.00    +0.000 HD
ATOM     26  H   UNL     1     -12.170  55.475  53.405  0.00  0.00    +0.000 HD
ENDBRANCH   1  18
BRANCH   3  27
ATOM     27  O   UNL     1     -11.493  52.842  53.195  0.00  0.00    +0.000 OA
ATOM     28  H   UNL     1     -11.572  51.951  53.474  0.00  0.00    +0.000 HD
ENDBRANCH   3  27
BRANCH   5  29
ATOM     29  C   UNL     1      -6.217  55.010  52.976  0.00  0.00    +0.000 C 
BRANCH  29  30
ATOM     30  C   UNL     1      -5.212  54.221  52.116  0.00  0.00    +0.000 C 
BRANCH  30  31
ATOM     31  C   UNL     1      -5.323  54.521  50.646  0.00  0.00    +0.000 C 
ATOM     32  C   UNL     1      -6.135  53.689  49.690  0.00  0.00    +0.000 C 
ATOM     33  C   UNL     1      -4.636  53.595  49.675  0.00  0.00    +0.000 C 
ENDBRANCH  30  31
ENDBRANCH  29  30
ENDBRANCH   5  29
TORSDOF 5
ENDMDL
MODEL 2
REMARK VINA RESULT:      -8.3      3.865      7.425
REMARK  Name = 338168
REMARK  5 active torsions:
REMARK  status: ('A' for Active; 'I' for Inactive)
REMARK    1  A    between atoms: C_6  and  C_10
REMARK    2  A    between atoms: C_14  and  O_18
REMARK    3  A    between atoms: N_17  and  C_21
REMARK    4  A    between atoms: C_21  and  C_24
REMARK    5  A    between atoms: C_24  and  C_27
REMARK                            x       y       z     vdW  Elec       q    Type
REMARK                         _______ _______ _______ _____ _____    ______ ____
ROOT
ATOM      1  C   UNL     1     -10.172  55.103  50.833  0.00  0.00    +0.000 A 
ATOM      2  C   UNL     1      -9.817  55.167  49.389  0.00  0.00    +0.000 A 
ATOM      3  C   UNL     1     -11.364  55.559  51.252  0.00  0.00    +0.000 A 
ATOM      4  O   UNL     1      -8.655  54.897  49.079  0.00  0.00    +0.000 OA
ATOM      5  N   UNL     1     -10.809  55.490  48.462  0.00  0.00    +0.000 N 
ATOM      6  C   UNL     1     -12.350  56.065  50.290  0.00  0.00    +0.000 A 
ATOM      7  C   UNL     1     -12.079  56.007  48.907  0.00  0.00    +0.000 A 
ATOM      8  C   UNL     1     -13.584  56.561  50.749  0.00  0.00    +0.000 A 
ATOM      9  C   UNL     1     -13.075  56.458  48.020  0.00  0.00    +0.000 A 
ATOM     10  C   UNL     1     -14.552  56.972  49.849  0.00  0.00    +0.000 A 
ATOM     11  C   UNL     1     -14.310  56.922  48.489  0.00  0.00    +0.000 A 
ATOM     12  F   UNL     1     -15.735  57.409  50.299  0.00  0.00    +0.000 F 
ENDROOT
BRANCH   1  18
ATOM     13  S   UNL     1      -6.873  54.892  53.050  0.00  0.00    +0.000 S 
ATOM     14  O   UNL     1      -7.134  55.987  53.962  0.00  0.00    +0.000 OA
ATOM     15  O   UNL     1      -5.562  54.661  52.486  0.00  0.00    +0.000 OA
ATOM     16  N   UNL     1      -7.919  55.014  51.784  0.00  0.00    +0.000 N 
ATOM     17  C   UNL     1      -7.405  53.421  53.812  0.00  0.00    +0.000 A 
ATOM     18  C   UNL     1      -9.225  54.535  51.835  0.00  0.00    +0.000 C 
ATOM     19  C   UNL     1      -8.693  52.982  53.527  0.00  0.00    +0.000 A 
ATOM     20  C   UNL     1      -6.537  52.711  54.646  0.00  0.00    +0.000 A 
ATOM     21  N   UNL     1      -9.609  53.640  52.693  0.00  0.00    +0.000 N 
ATOM     22  C   UNL     1      -9.103  51.773  54.097  0.00  0.00    +0.000 A 
ATOM     23  C   UNL     1      -6.972  51.517  55.214  0.00  0.00    +0.000 A 
ATOM     24  C   UNL     1      -8.252  51.042  54.932  0.00  0.00    +0.000 A 
ATOM     25  H   UNL     1      -7.608  55.443  50.955  0.00  0.00    +0.000 HD
ATOM     26  H   UNL     1     -10.566  53.418  52.759  0.00  0.00    +0.000 HD
ENDBRANCH   1  18
BRANCH   3  27
ATOM     27  O   UNL     1     -11.781  55.576  52.574  0.00  0.00    +0.000 OA
ATOM     28  H   UNL     1     -12.191  56.342  52.926  0.00  0.00    +0.000 HD
ENDBRANCH   3  27
BRANCH   5  29
ATOM     29  C   UNL     1     -10.467  55.497  47.020  0.00  0.00    +0.000 C 
BRANCH  29  30
ATOM     30  C   UNL     1     -10.304  54.121  46.347  0.00  0.00    +0.000 C 
BRANCH  30  31
ATOM     31  C   UNL     1     -11.295  53.878  45.242  0.00  0.00    +0.000 C 
ATOM     32  C   UNL     1     -12.031  52.577  45.061  0.00  0.00    +0.000 C 
ATOM     33  C   UNL     1     -10.908  52.936  44.130  0.00  0.00    +0.000 C 
ENDBRANCH  30  31
ENDBRANCH  29  30
ENDBRANCH   5  29
TORSDOF 5
ENDMDL
MODEL 3
REMARK VINA RESULT:      -8.3      3.835      5.418
REMARK  Name = 338168
REMARK  5 active torsions:
REMARK  status: ('A' for Active; 'I' for Inactive)
REMARK    1  A    between atoms: C_6  and  C_10
REMARK    2  A    between atoms: C_14  and  O_18
REMARK    3  A    between atoms: N_17  and  C_21
REMARK    4  A    between atoms: C_21  and  C_24
REMARK    5  A    between atoms: C_24  and  C_27
REMARK                            x       y       z     vdW  Elec       q    Type
REMARK                         _______ _______ _______ _____ _____    ______ ____
ROOT
ATOM      1  C   UNL     1     -11.494  55.792  48.970  0.00  0.00    +0.000 A 
ATOM      2  C   UNL     1     -10.402  55.120  49.725  0.00  0.00    +0.000 A 
ATOM      3  C   UNL     1     -11.672  55.525  47.665  0.00  0.00    +0.000 A 
ATOM      4  O   UNL     1     -10.172  55.524  50.867  0.00  0.00    +0.000 OA
ATOM      5  N   UNL     1      -9.723  54.056  49.129  0.00  0.00    +0.000 N 
ATOM      6  C   UNL     1     -10.838  54.524  46.989  0.00  0.00    +0.000 A 
ATOM      7  C   UNL     1      -9.891  53.783  47.724  0.00  0.00    +0.000 A 
ATOM      8  C   UNL     1     -11.023  54.274  45.616  0.00  0.00    +0.000 A 
ATOM      9  C   UNL     1      -9.148  52.800  47.042  0.00  0.00    +0.000 A 
ATOM     10  C   UNL     1     -10.296  53.281  44.982  0.00  0.00    +0.000 A 
ATOM     11  C   UNL     1      -9.363  52.540  45.683  0.00  0.00    +0.000 A 
ATOM     12  F   UNL     1     -10.507  53.030  43.684  0.00  0.00    +0.000 F 
ENDROOT
BRANCH   1  18
ATOM     13  S   UNL     1     -13.508  59.193  49.448  0.00  0.00    +0.000 S 
ATOM     14  O   UNL     1     -14.497  59.028  48.404  0.00  0.00    +0.000 OA
ATOM     15  O   UNL     1     -12.859  60.461  49.694  0.00  0.00    +0.000 OA
ATOM     16  N   UNL     1     -12.311  58.088  49.206  0.00  0.00    +0.000 N 
ATOM     17  C   UNL     1     -14.207  58.641  50.942  0.00  0.00    +0.000 A 
ATOM     18  C   UNL     1     -12.406  56.767  49.636  0.00  0.00    +0.000 C 
ATOM     19  C   UNL     1     -13.967  57.322  51.313  0.00  0.00    +0.000 A 
ATOM     20  C   UNL     1     -14.946  59.521  51.737  0.00  0.00    +0.000 A 
ATOM     21  N   UNL     1     -13.227  56.391  50.568  0.00  0.00    +0.000 N 
ATOM     22  C   UNL     1     -14.484  56.892  52.539  0.00  0.00    +0.000 A 
ATOM     23  C   UNL     1     -15.463  59.067  52.947  0.00  0.00    +0.000 A 
ATOM     24  C   UNL     1     -15.224  57.755  53.353  0.00  0.00    +0.000 A 
ATOM     25  H   UNL     1     -11.494  58.372  48.738  0.00  0.00    +0.000 HD
ATOM     26  H   UNL     1     -13.333  55.431  50.756  0.00  0.00    +0.000 HD
ENDBRANCH   1  18
BRANCH   3  27
ATOM     27  O   UNL     1     -12.635  56.118  46.863  0.00  0.00    +0.000 OA
ATOM     28  H   UNL     1     -12.376  56.637  46.127  0.00  0.00    +0.000 HD
ENDBRANCH   3  27
BRANCH   5  29
ATOM     29  C   UNL     1      -8.676  53.351  49.905  0.00  0.00    +0.000 C 
BRANCH  29  30
ATOM     30  C   UNL     1      -7.462  54.191  50.342  0.00  0.00    +0.000 C 
BRANCH  30  31
ATOM     31  C   UNL     1      -6.781  54.892  49.199  0.00  0.00    +0.000 C 
ATOM     32  C   UNL     1      -5.854  54.199  48.236  0.00  0.00    +0.000 C 
ATOM     33  C   UNL     1      -5.292  55.116  49.284  0.00  0.00    +0.000 C 
ENDBRANCH  30  31
ENDBRANCH  29  30
ENDBRANCH   5  29
TORSDOF 5
ENDMDL
MODEL 4
REMARK VINA RESULT:      -8.2      3.675      7.282
REMARK  Name = 338168
REMARK  5 active torsions:
REMARK  status: ('A' for Active; 'I' for Inactive)
REMARK    1  A    between atoms: C_6  and  C_10
REMARK    2  A    between atoms: C_14  and  O_18
REMARK    3  A    between atoms: N_17  and  C_21
REMARK    4  A    between atoms: C_21  and  C_24
REMARK    5  A    between atoms: C_24  and  C_27
REMARK                            x       y       z     vdW  Elec       q    Type
REMARK                         _______ _______ _______ _____ _____    ______ ____
ROOT
ATOM      1  C   UNL     1     -10.169  55.445  50.473  0.00  0.00    +0.000 A 
ATOM      2  C   UNL     1     -10.340  55.696  49.016  0.00  0.00    +0.000 A 
ATOM      3  C   UNL     1     -11.204  55.622  51.311  0.00  0.00    +0.000 A 
ATOM      4  O   UNL     1      -9.325  55.685  48.317  0.00  0.00    +0.000 OA
ATOM      5  N   UNL     1     -11.626  55.892  48.510  0.00  0.00    +0.000 N 
ATOM      6  C   UNL     1     -12.525  56.000  50.796  0.00  0.00    +0.000 A 
ATOM      7  C   UNL     1     -12.734  56.110  49.406  0.00  0.00    +0.000 A 
ATOM      8  C   UNL     1     -13.591  56.204  51.691  0.00  0.00    +0.000 A 
ATOM      9  C   UNL     1     -14.030  56.427  48.956  0.00  0.00    +0.000 A 
ATOM     10  C   UNL     1     -14.860  56.488  51.214  0.00  0.00    +0.000 A 
ATOM     11  C   UNL     1     -15.089  56.598  49.855  0.00  0.00    +0.000 A 
ATOM     12  F   UNL     1     -15.873  56.646  52.075  0.00  0.00    +0.000 F 
ENDROOT
BRANCH   1  18
ATOM     13  S   UNL     1      -6.571  53.742  50.463  0.00  0.00    +0.000 S 
ATOM     14  O   UNL     1      -5.859  54.704  49.648  0.00  0.00    +0.000 OA
ATOM     15  O   UNL     1      -6.378  52.317  50.309  0.00  0.00    +0.000 OA
ATOM     16  N   UNL     1      -8.186  54.021  50.300  0.00  0.00    +0.000 N 
ATOM     17  C   UNL     1      -6.305  54.149  52.132  0.00  0.00    +0.000 A 
ATOM     18  C   UNL     1      -8.860  54.995  51.030  0.00  0.00    +0.000 C 
ATOM     19  C   UNL     1      -7.253  54.955  52.754  0.00  0.00    +0.000 A 
ATOM     20  C   UNL     1      -5.191  53.644  52.808  0.00  0.00    +0.000 A 
ATOM     21  N   UNL     1      -8.396  55.487  52.137  0.00  0.00    +0.000 N 
ATOM     22  C   UNL     1      -7.068  55.241  54.110  0.00  0.00    +0.000 A 
ATOM     23  C   UNL     1      -5.019  53.953  54.154  0.00  0.00    +0.000 A 
ATOM     24  C   UNL     1      -5.963  54.744  54.808  0.00  0.00    +0.000 A 
ATOM     25  H   UNL     1      -8.696  53.476  49.659  0.00  0.00    +0.000 HD
ATOM     26  H   UNL     1      -8.857  56.250  52.555  0.00  0.00    +0.000 HD
ENDBRANCH   1  18
BRANCH   3  27
ATOM     27  O   UNL     1     -11.144  55.448  52.686  0.00  0.00    +0.000 OA
ATOM     28  H   UNL     1     -11.161  54.584  53.049  0.00  0.00    +0.000 HD
ENDBRANCH   3  27
BRANCH   5  29
ATOM     29  C   UNL     1     -11.800  56.083  47.051  0.00  0.00    +0.000 C 
BRANCH  29  30
ATOM     30  C   UNL     1     -12.090  54.818  46.222  0.00  0.00    +0.000 C 
BRANCH  30  31
ATOM     31  C   UNL     1     -10.862  54.231  45.582  0.00  0.00    +0.000 C 
ATOM     32  C   UNL     1     -10.906  53.115  44.573  0.00  0.00    +0.000 C 
ATOM     33  C   UNL     1     -10.449  52.835  45.976  0.00  0.00    +0.000 C 
ENDBRANCH  30  31
ENDBRANCH  29  30
ENDBRANCH   5  29
TORSDOF 5
ENDMDL
MODEL 5
REMARK VINA RESULT:      -8.0      3.503      7.963
REMARK  Name = 338168
REMARK  5 active torsions:
REMARK  status: ('A' for Active; 'I' for Inactive)
REMARK    1  A    between atoms: C_6  and  C_10
REMARK    2  A    between atoms: C_14  and  O_18
REMARK    3  A    between atoms: N_17  and  C_21
REMARK    4  A    between atoms: C_21  and  C_24
REMARK    5  A    between atoms: C_24  and  C_27
REMARK                            x       y       z     vdW  Elec       q    Type
REMARK                         _______ _______ _______ _____ _____    ______ ____
ROOT
ATOM      1  C   UNL     1      -9.988  54.466  50.740  0.00  0.00    +0.000 A 
ATOM      2  C   UNL     1     -11.128  55.380  51.022  0.00  0.00    +0.000 A 
ATOM      3  C   UNL     1      -9.775  54.023  49.489  0.00  0.00    +0.000 A 
ATOM      4  O   UNL     1     -11.382  55.620  52.204  0.00  0.00    +0.000 OA
ATOM      5  N   UNL     1     -11.823  55.944  49.951  0.00  0.00    +0.000 N 
ATOM      6  C   UNL     1     -10.620  54.484  48.381  0.00  0.00    +0.000 A 
ATOM      7  C   UNL     1     -11.618  55.453  48.612  0.00  0.00    +0.000 A 
ATOM      8  C   UNL     1     -10.398  53.991  47.082  0.00  0.00    +0.000 A 
ATOM      9  C   UNL     1     -12.371  55.901  47.509  0.00  0.00    +0.000 A 
ATOM     10  C   UNL     1     -11.137  54.473  46.015  0.00  0.00    +0.000 A 
ATOM     11  C   UNL     1     -12.119  55.425  46.217  0.00  0.00    +0.000 A 
ATOM     12  F   UNL     1     -10.891  54.021  44.779  0.00  0.00    +0.000 F 
ENDROOT
BRANCH   1  18
ATOM     13  S   UNL     1      -6.781  54.576  53.095  0.00  0.00    +0.000 S 
ATOM     14  O   UNL     1      -7.116  55.738  53.892  0.00  0.00    +0.000 OA
ATOM     15  O   UNL     1      -5.440  54.344  52.606  0.00  0.00    +0.000 OA
ATOM     16  N   UNL     1      -7.775  54.545  51.783  0.00  0.00    +0.000 N 
ATOM     17  C   UNL     1      -7.294  53.160  53.965  0.00  0.00    +0.000 A 
ATOM     18  C   UNL     1      -9.066  54.026  51.826  0.00  0.00    +0.000 C 
ATOM     19  C   UNL     1      -8.554  52.649  53.671  0.00  0.00    +0.000 A 
ATOM     20  C   UNL     1      -6.440  52.560  54.894  0.00  0.00    +0.000 A 
ATOM     21  N   UNL     1      -9.456  53.197  52.745  0.00  0.00    +0.000 N 
ATOM     22  C   UNL     1      -8.948  51.481  54.331  0.00  0.00    +0.000 A 
ATOM     23  C   UNL     1      -6.858  51.405  55.549  0.00  0.00    +0.000 A 
ATOM     24  C   UNL     1      -8.108  50.860  55.262  0.00  0.00    +0.000 A 
ATOM     25  H   UNL     1      -7.444  54.910  50.931  0.00  0.00    +0.000 HD
ATOM     26  H   UNL     1     -10.407  52.946  52.794  0.00  0.00    +0.000 HD
ENDBRANCH   1  18
BRANCH   3  27
ATOM     27  O   UNL     1      -8.765  53.146  49.125  0.00  0.00    +0.000 OA
ATOM     28  H   UNL     1      -7.976  53.475  48.741  0.00  0.00    +0.000 HD
ENDBRANCH   3  27
BRANCH   5  29
ATOM     29  C   UNL     1     -12.920  56.900  50.234  0.00  0.00    +0.000 C 
BRANCH  29  30
ATOM     30  C   UNL     1     -14.285  56.289  50.602  0.00  0.00    +0.000 C 
BRANCH  30  31
ATOM     31  C   UNL     1     -15.217  57.268  51.260  0.00  0.00    +0.000 C 
ATOM     32  C   UNL     1     -14.787  58.225  52.340  0.00  0.00    +0.000 C 
ATOM     33  C   UNL     1     -15.615  57.023  52.694  0.00  0.00    +0.000 C 
ENDBRANCH  30  31
ENDBRANCH  29  30
ENDBRANCH   5  29
TORSDOF 5
ENDMDL
MODEL 6
REMARK VINA RESULT:      -8.0      3.184      4.354
REMARK  Name = 338168
REMARK  5 active torsions:
REMARK  status: ('A' for Active; 'I' for Inactive)
REMARK    1  A    between atoms: C_6  and  C_10
REMARK    2  A    between atoms: C_14  and  O_18
REMARK    3  A    between atoms: N_17  and  C_21
REMARK    4  A    between atoms: C_21  and  C_24
REMARK    5  A    between atoms: C_24  and  C_27
REMARK                            x       y       z     vdW  Elec       q    Type
REMARK                         _______ _______ _______ _____ _____    ______ ____
ROOT
ATOM      1  C   UNL     1     -12.142  54.456  50.275  0.00  0.00    +0.000 A 
ATOM      2  C   UNL     1     -12.029  53.921  48.891  0.00  0.00    +0.000 A 
ATOM      3  C   UNL     1     -11.551  53.812  51.295  0.00  0.00    +0.000 A 
ATOM      4  O   UNL     1     -12.725  54.447  48.020  0.00  0.00    +0.000 OA
ATOM      5  N   UNL     1     -11.125  52.887  48.638  0.00  0.00    +0.000 N 
ATOM      6  C   UNL     1     -10.737  52.616  51.050  0.00  0.00    +0.000 A 
ATOM      7  C   UNL     1     -10.511  52.176  49.730  0.00  0.00    +0.000 A 
ATOM      8  C   UNL     1     -10.145  51.941  52.134  0.00  0.00    +0.000 A 
ATOM      9  C   UNL     1      -9.683  51.052  49.542  0.00  0.00    +0.000 A 
ATOM     10  C   UNL     1      -9.315  50.856  51.912  0.00  0.00    +0.000 A 
ATOM     11  C   UNL     1      -9.076  50.407  50.626  0.00  0.00    +0.000 A 
ATOM     12  F   UNL     1      -8.730  50.244  52.950  0.00  0.00    +0.000 F 
ENDROOT
BRANCH   1  18
ATOM     13  S   UNL     1     -14.445  56.957  52.346  0.00  0.00    +0.000 S 
ATOM     14  O   UNL     1     -13.508  57.329  53.386  0.00  0.00    +0.000 OA
ATOM     15  O   UNL     1     -15.837  56.689  52.630  0.00  0.00    +0.000 OA
ATOM     16  N   UNL     1     -13.855  55.628  51.572  0.00  0.00    +0.000 N 
ATOM     17  C   UNL     1     -14.367  58.163  51.096  0.00  0.00    +0.000 A 
ATOM     18  C   UNL     1     -12.905  55.706  50.557  0.00  0.00    +0.000 C 
ATOM     19  C   UNL     1     -13.514  57.921  50.024  0.00  0.00    +0.000 A 
ATOM     20  C   UNL     1     -15.168  59.305  51.173  0.00  0.00    +0.000 A 
ATOM     21  N   UNL     1     -12.692  56.792  49.881  0.00  0.00    +0.000 N 
ATOM     22  C   UNL     1     -13.489  58.864  48.993  0.00  0.00    +0.000 A 
ATOM     23  C   UNL     1     -15.117  60.238  50.141  0.00  0.00    +0.000 A 
ATOM     24  C   UNL     1     -14.285  60.013  49.046  0.00  0.00    +0.000 A 
ATOM     25  H   UNL     1     -14.188  54.741  51.837  0.00  0.00    +0.000 HD
ATOM     26  H   UNL     1     -11.935  56.825  49.251  0.00  0.00    +0.000 HD
ENDBRANCH   1  18
BRANCH   3  27
ATOM     27  O   UNL     1     -11.621  54.206  52.622  0.00  0.00    +0.000 OA
ATOM     28  H   UNL     1     -11.338  55.064  52.871  0.00  0.00    +0.000 HD
ENDBRANCH   3  27
BRANCH   5  29
ATOM     29  C   UNL     1     -10.971  52.395  47.248  0.00  0.00    +0.000 C 
BRANCH  29  30
ATOM     30  C   UNL     1     -10.246  53.332  46.264  0.00  0.00    +0.000 C 
BRANCH  30  31
ATOM     31  C   UNL     1      -8.974  53.910  46.821  0.00  0.00    +0.000 C 
ATOM     32  C   UNL     1      -8.845  55.338  47.280  0.00  0.00    +0.000 C 
ATOM     33  C   UNL     1      -8.217  54.910  45.984  0.00  0.00    +0.000 C 
ENDBRANCH  30  31
ENDBRANCH  29  30
ENDBRANCH   5  29
TORSDOF 5
ENDMDL
MODEL 7
REMARK VINA RESULT:      -8.0      3.586      5.231
REMARK  Name = 338168
REMARK  5 active torsions:
REMARK  status: ('A' for Active; 'I' for Inactive)
REMARK    1  A    between atoms: C_6  and  C_10
REMARK    2  A    between atoms: C_14  and  O_18
REMARK    3  A    between atoms: N_17  and  C_21
REMARK    4  A    between atoms: C_21  and  C_24
REMARK    5  A    between atoms: C_24  and  C_27
REMARK                            x       y       z     vdW  Elec       q    Type
REMARK                         _______ _______ _______ _____ _____    ______ ____
ROOT
ATOM      1  C   UNL     1     -10.348  55.829  49.015  0.00  0.00    +0.000 A 
ATOM      2  C   UNL     1     -10.216  55.358  47.609  0.00  0.00    +0.000 A 
ATOM      3  C   UNL     1      -9.316  55.700  49.866  0.00  0.00    +0.000 A 
ATOM      4  O   UNL     1     -11.238  55.341  46.919  0.00  0.00    +0.000 OA
ATOM      5  N   UNL     1      -8.955  54.998  47.132  0.00  0.00    +0.000 N 
ATOM      6  C   UNL     1      -8.033  55.156  49.406  0.00  0.00    +0.000 A 
ATOM      7  C   UNL     1      -7.852  54.832  48.046  0.00  0.00    +0.000 A 
ATOM      8  C   UNL     1      -6.971  55.006  50.317  0.00  0.00    +0.000 A 
ATOM      9  C   UNL     1      -6.589  54.359  47.642  0.00  0.00    +0.000 A 
ATOM     10  C   UNL     1      -5.734  54.565  49.882  0.00  0.00    +0.000 A 
ATOM     11  C   UNL     1      -5.532  54.243  48.553  0.00  0.00    +0.000 A 
ATOM     12  F   UNL     1      -4.722  54.460  50.754  0.00  0.00    +0.000 F 
ENDROOT
BRANCH   1  18
ATOM     13  S   UNL     1     -13.831  57.739  48.766  0.00  0.00    +0.000 S 
ATOM     14  O   UNL     1     -14.621  56.704  48.130  0.00  0.00    +0.000 OA
ATOM     15  O   UNL     1     -13.939  59.128  48.380  0.00  0.00    +0.000 OA
ATOM     16  N   UNL     1     -12.241  57.332  48.632  0.00  0.00    +0.000 N 
ATOM     17  C   UNL     1     -14.085  57.630  50.483  0.00  0.00    +0.000 A 
ATOM     18  C   UNL     1     -11.613  56.449  49.505  0.00  0.00    +0.000 C 
ATOM     19  C   UNL     1     -13.175  56.877  51.218  0.00  0.00    +0.000 A 
ATOM     20  C   UNL     1     -15.149  58.311  51.079  0.00  0.00    +0.000 A 
ATOM     21  N   UNL     1     -12.082  56.178  50.684  0.00  0.00    +0.000 N 
ATOM     22  C   UNL     1     -13.347  56.831  52.605  0.00  0.00    +0.000 A 
ATOM     23  C   UNL     1     -15.309  58.240  52.460  0.00  0.00    +0.000 A 
ATOM     24  C   UNL     1     -14.402  57.508  53.224  0.00  0.00    +0.000 A 
ATOM     25  H   UNL     1     -11.712  57.730  47.904  0.00  0.00    +0.000 HD
ATOM     26  H   UNL     1     -11.660  55.465  51.217  0.00  0.00    +0.000 HD
ENDBRANCH   1  18
BRANCH   3  27
ATOM     27  O   UNL     1      -9.344  56.075  51.201  0.00  0.00    +0.000 OA
ATOM     28  H   UNL     1      -9.719  56.898  51.448  0.00  0.00    +0.000 HD
ENDBRANCH   3  27
BRANCH   5  29
ATOM     29  C   UNL     1      -8.816  54.585  45.715  0.00  0.00    +0.000 C 
BRANCH  29  30
ATOM     30  C   UNL     1      -9.154  53.118  45.392  0.00  0.00    +0.000 C 
BRANCH  30  31
ATOM     31  C   UNL     1     -10.275  52.970  44.401  0.00  0.00    +0.000 C 
ATOM     32  C   UNL     1     -11.709  52.746  44.800  0.00  0.00    +0.000 C 
ATOM     33  C   UNL     1     -10.906  51.610  44.234  0.00  0.00    +0.000 C 
ENDBRANCH  30  31
ENDBRANCH  29  30
ENDBRANCH   5  29
TORSDOF 5
ENDMDL
MODEL 8
REMARK VINA RESULT:      -7.9      4.895      7.788
REMARK  Name = 338168
REMARK  5 active torsions:
REMARK  status: ('A' for Active; 'I' for Inactive)
REMARK    1  A    between atoms: C_6  and  C_10
REMARK    2  A    between atoms: C_14  and  O_18
REMARK    3  A    between atoms: N_17  and  C_21
REMARK    4  A    between atoms: C_21  and  C_24
REMARK    5  A    between atoms: C_24  and  C_27
REMARK                            x       y       z     vdW  Elec       q    Type
REMARK                         _______ _______ _______ _____ _____    ______ ____
ROOT
ATOM      1  C   UNL     1     -11.390  54.238  47.937  0.00  0.00    +0.000 A 
ATOM      2  C   UNL     1     -11.494  53.403  49.164  0.00  0.00    +0.000 A 
ATOM      3  C   UNL     1     -12.048  55.408  47.863  0.00  0.00    +0.000 A 
ATOM      4  O   UNL     1     -11.015  52.268  49.119  0.00  0.00    +0.000 OA
ATOM      5  N   UNL     1     -12.087  53.947  50.305  0.00  0.00    +0.000 N 
ATOM      6  C   UNL     1     -12.820  55.903  49.008  0.00  0.00    +0.000 A 
ATOM      7  C   UNL     1     -12.817  55.187  50.223  0.00  0.00    +0.000 A 
ATOM      8  C   UNL     1     -13.522  57.118  48.904  0.00  0.00    +0.000 A 
ATOM      9  C   UNL     1     -13.533  55.726  51.309  0.00  0.00    +0.000 A 
ATOM     10  C   UNL     1     -14.193  57.634  49.999  0.00  0.00    +0.000 A 
ATOM     11  C   UNL     1     -14.202  56.951  51.201  0.00  0.00    +0.000 A 
ATOM     12  F   UNL     1     -14.828  58.809  49.896  0.00  0.00    +0.000 F 
ENDROOT
BRANCH   1  18
ATOM     13  S   UNL     1      -8.170  54.020  45.607  0.00  0.00    +0.000 S 
ATOM     14  O   UNL     1      -7.306  53.246  46.474  0.00  0.00    +0.000 OA
ATOM     15  O   UNL     1      -7.678  55.143  44.841  0.00  0.00    +0.000 OA
ATOM     16  N   UNL     1      -9.437  54.575  46.501  0.00  0.00    +0.000 N 
ATOM     17  C   UNL     1      -8.959  52.921  44.514  0.00  0.00    +0.000 A 
ATOM     18  C   UNL     1     -10.562  53.803  46.776  0.00  0.00    +0.000 C 
ATOM     19  C   UNL     1     -10.216  52.449  44.877  0.00  0.00    +0.000 A 
ATOM     20  C   UNL     1      -8.346  52.570  43.309  0.00  0.00    +0.000 A 
ATOM     21  N   UNL     1     -10.891  52.768  46.065  0.00  0.00    +0.000 N 
ATOM     22  C   UNL     1     -10.875  51.606  43.976  0.00  0.00    +0.000 A 
ATOM     23  C   UNL     1      -9.014  51.719  42.433  0.00  0.00    +0.000 A 
ATOM     24  C   UNL     1     -10.282  51.244  42.762  0.00  0.00    +0.000 A 
ATOM     25  H   UNL     1      -9.397  55.491  46.858  0.00  0.00    +0.000 HD
ATOM     26  H   UNL     1     -11.632  52.194  46.368  0.00  0.00    +0.000 HD
ENDBRANCH   1  18
BRANCH   3  27
ATOM     27  O   UNL     1     -12.045  56.245  46.758  0.00  0.00    +0.000 OA
ATOM     28  H   UNL     1     -12.096  57.173  46.874  0.00  0.00    +0.000 HD
ENDBRANCH   3  27
BRANCH   5  29
ATOM     29  C   UNL     1     -12.138  53.134  51.543  0.00  0.00    +0.000 C 
BRANCH  29  30
ATOM     30  C   UNL     1     -10.894  53.185  52.449  0.00  0.00    +0.000 C 
BRANCH  30  31
ATOM     31  C   UNL     1     -10.430  54.585  52.745  0.00  0.00    +0.000 C 
ATOM     32  C   UNL     1      -9.229  55.215  52.093  0.00  0.00    +0.000 C 
ATOM     33  C   UNL     1      -9.152  54.765  53.524  0.00  0.00    +0.000 C 
ENDBRANCH  30  31
ENDBRANCH  29  30
ENDBRANCH   5  29
TORSDOF 5
ENDMDL
MODEL 9
REMARK VINA RESULT:      -7.8      2.568      3.523
REMARK  Name = 338168
REMARK  5 active torsions:
REMARK  status: ('A' for Active; 'I' for Inactive)
REMARK    1  A    between atoms: C_6  and  C_10
REMARK    2  A    between atoms: C_14  and  O_18
REMARK    3  A    between atoms: N_17  and  C_21
REMARK    4  A    between atoms: C_21  and  C_24
REMARK    5  A    between atoms: C_24  and  C_27
REMARK                            x       y       z     vdW  Elec       q    Type
REMARK                         _______ _______ _______ _____ _____    ______ ____
ROOT
ATOM      1  C   UNL     1     -11.382  54.628  50.648  0.00  0.00    +0.000 A 
ATOM      2  C   UNL     1     -11.319  53.748  49.450  0.00  0.00    +0.000 A 
ATOM      3  C   UNL     1     -10.540  54.426  51.676  0.00  0.00    +0.000 A 
ATOM      4  O   UNL     1     -12.217  53.864  48.614  0.00  0.00    +0.000 OA
ATOM      5  N   UNL     1     -10.242  52.870  49.312  0.00  0.00    +0.000 N 
ATOM      6  C   UNL     1      -9.512  53.381  51.604  0.00  0.00    +0.000 A 
ATOM      7  C   UNL     1      -9.354  52.629  50.421  0.00  0.00    +0.000 A 
ATOM      8  C   UNL     1      -8.656  53.167  52.699  0.00  0.00    +0.000 A 
ATOM      9  C   UNL     1      -8.323  51.671  50.382  0.00  0.00    +0.000 A 
ATOM     10  C   UNL     1      -7.634  52.236  52.617  0.00  0.00    +0.000 A 
ATOM     11  C   UNL     1      -7.458  51.489  51.467  0.00  0.00    +0.000 A 
ATOM     12  F   UNL     1      -6.804  52.068  53.654  0.00  0.00    +0.000 F 
ENDROOT
BRANCH   1  18
ATOM     13  S   UNL     1     -13.760  57.529  49.318  0.00  0.00    +0.000 S 
ATOM     14  O   UNL     1     -14.776  56.722  48.673  0.00  0.00    +0.000 OA
ATOM     15  O   UNL     1     -13.256  58.745  48.719  0.00  0.00    +0.000 OA
ATOM     16  N   UNL     1     -12.454  56.573  49.619  0.00  0.00    +0.000 N 
ATOM     17  C   UNL     1     -14.309  57.902  50.926  0.00  0.00    +0.000 A 
ATOM     18  C   UNL     1     -12.368  55.744  50.734  0.00  0.00    +0.000 C 
ATOM     19  C   UNL     1     -13.895  57.062  51.954  0.00  0.00    +0.000 A 
ATOM     20  C   UNL     1     -15.107  59.027  51.151  0.00  0.00    +0.000 A 
ATOM     21  N   UNL     1     -13.088  55.924  51.798  0.00  0.00    +0.000 N 
ATOM     22  C   UNL     1     -14.292  57.389  53.254  0.00  0.00    +0.000 A 
ATOM     23  C   UNL     1     -15.502  59.326  52.452  0.00  0.00    +0.000 A 
ATOM     24  C   UNL     1     -15.087  58.512  53.505  0.00  0.00    +0.000 A 
ATOM     25  H   UNL     1     -11.702  56.587  48.985  0.00  0.00    +0.000 HD
ATOM     26  H   UNL     1     -13.068  55.247  52.512  0.00  0.00    +0.000 HD
ENDBRANCH   1  18
BRANCH   3  27
ATOM     27  O   UNL     1     -10.536  55.165  52.849  0.00  0.00    +0.000 OA
ATOM     28  H   UNL     1      -9.770  55.645  53.097  0.00  0.00    +0.000 HD
ENDBRANCH   3  27
BRANCH   5  29
ATOM     29  C   UNL     1     -10.151  52.035  48.091  0.00  0.00    +0.000 C 
BRANCH  29  30
ATOM     30  C   UNL     1      -9.669  52.743  46.810  0.00  0.00    +0.000 C 
BRANCH  30  31
ATOM     31  C   UNL     1      -8.661  53.827  47.073  0.00  0.00    +0.000 C 
ATOM     32  C   UNL     1      -8.958  55.294  46.904  0.00  0.00    +0.000 C 
ATOM     33  C   UNL     1      -8.101  54.583  45.895  0.00  0.00    +0.000 C 
ENDBRANCH  30  31
ENDBRANCH  29  30
ENDBRANCH   5  29
TORSDOF 5
ENDMDL
