MODEL 1
REMARK VINA RESULT:     -10.1      0.000      0.000
REMARK  Name = 338076
REMARK  4 active torsions:
REMARK  status: ('A' for Active; 'I' for Inactive)
REMARK    1  A    between atoms: C_7  and  C_8
REMARK    2  A    between atoms: C_8  and  N_9
REMARK    3  A    between atoms: C_13  and  C_16
REMARK    4  A    between atoms: C_17  and  O_22
REMARK                            x       y       z     vdW  Elec       q    Type
REMARK                         _______ _______ _______ _____ _____    ______ ____
ROOT
ATOM      1  N   UNL     1     -11.489  55.243  50.444  0.00  0.00    +0.000 N 
ATOM      2  C   UNL     1     -10.786  54.814  51.555  0.00  0.00    +0.000 A 
ATOM      3  C   UNL     1     -10.857  55.371  49.174  0.00  0.00    +0.000 A 
ATOM      4  O   UNL     1     -11.294  54.775  52.673  0.00  0.00    +0.000 OA
ATOM      5  C   UNL     1      -9.380  54.338  51.335  0.00  0.00    +0.000 A 
ATOM      6  C   UNL     1      -9.455  55.235  49.098  0.00  0.00    +0.000 A 
ATOM      7  C   UNL     1     -11.580  55.561  47.992  0.00  0.00    +0.000 A 
ATOM      8  C   UNL     1      -8.700  54.809  50.279  0.00  0.00    +0.000 A 
ATOM      9  C   UNL     1      -8.814  55.281  47.850  0.00  0.00    +0.000 A 
ATOM     10  C   UNL     1     -10.936  55.519  46.754  0.00  0.00    +0.000 A 
ATOM     11  C   UNL     1      -9.555  55.384  46.680  0.00  0.00    +0.000 A 
ENDROOT
BRANCH   5  12
ATOM     12  C   UNL     1      -8.739  53.429  52.333  0.00  0.00    +0.000 C 
ATOM     13  N   UNL     1      -8.139  52.332  51.927  0.00  0.00    +0.000 N 
ATOM     14  N   UNL     1      -8.728  53.797  53.678  0.00  0.00    +0.000 N 
ATOM     15  S   UNL     1      -7.299  51.513  53.077  0.00  0.00    +0.000 S 
ATOM     16  C   UNL     1      -7.366  53.981  54.062  0.00  0.00    +0.000 A 
ATOM     17  O   UNL     1      -6.261  50.745  52.434  0.00  0.00    +0.000 OA
ATOM     18  O   UNL     1      -8.217  50.935  54.049  0.00  0.00    +0.000 OA
ATOM     19  C   UNL     1      -6.497  52.895  53.894  0.00  0.00    +0.000 A 
ATOM     20  C   UNL     1      -6.854  55.274  54.105  0.00  0.00    +0.000 A 
ATOM     21  C   UNL     1      -5.119  53.056  53.867  0.00  0.00    +0.000 A 
ATOM     22  C   UNL     1      -5.480  55.461  53.998  0.00  0.00    +0.000 A 
ATOM     23  C   UNL     1      -4.617  54.359  53.908  0.00  0.00    +0.000 A 
ATOM     24  H   UNL     1      -8.190  52.022  50.994  0.00  0.00    +0.000 HD
ATOM     25  H   UNL     1      -9.517  53.910  54.256  0.00  0.00    +0.000 HD
ENDBRANCH   5  12
BRANCH   8  26
ATOM     26  O   UNL     1      -7.329  54.736  50.120  0.00  0.00    +0.000 OA
ATOM     27  H   UNL     1      -6.778  54.594  50.866  0.00  0.00    +0.000 HD
ENDBRANCH   8  26
BRANCH   1  28
ATOM     28  C   UNL     1     -12.926  55.398  50.639  0.00  0.00    +0.000 C 
BRANCH  28  35
ATOM     29 BR   UNL     1     -14.469  60.444  49.356  0.00  0.00    +0.000 Br
ATOM     30  C   UNL     1     -14.286  58.979  50.534  0.00  0.00    +0.000 A 
ATOM     31  C   UNL     1     -13.739  57.779  50.085  0.00  0.00    +0.000 A 
ATOM     32  C   UNL     1     -14.610  59.129  51.876  0.00  0.00    +0.000 A 
ATOM     33  C   UNL     1     -13.679  56.673  50.954  0.00  0.00    +0.000 A 
ATOM     34  C   UNL     1     -14.479  58.045  52.738  0.00  0.00    +0.000 A 
ATOM     35  C   UNL     1     -14.215  56.783  52.233  0.00  0.00    +0.000 A 
ENDBRANCH  28  35
ENDBRANCH   1  28
TORSDOF 4
ENDMDL
MODEL 2
REMARK VINA RESULT:     -10.0      1.753      2.447
REMARK  Name = 338076
REMARK  4 active torsions:
REMARK  status: ('A' for Active; 'I' for Inactive)
REMARK    1  A    between atoms: C_7  and  C_8
REMARK    2  A    between atoms: C_8  and  N_9
REMARK    3  A    between atoms: C_13  and  C_16
REMARK    4  A    between atoms: C_17  and  O_22
REMARK                            x       y       z     vdW  Elec       q    Type
REMARK                         _______ _______ _______ _____ _____    ______ ____
ROOT
ATOM      1  N   UNL     1     -11.349  55.370  50.134  0.00  0.00    +0.000 N 
ATOM      2  C   UNL     1     -10.303  55.353  51.037  0.00  0.00    +0.000 A 
ATOM      3  C   UNL     1     -11.115  55.333  48.730  0.00  0.00    +0.000 A 
ATOM      4  O   UNL     1     -10.484  55.464  52.248  0.00  0.00    +0.000 OA
ATOM      5  C   UNL     1      -8.925  55.134  50.486  0.00  0.00    +0.000 A 
ATOM      6  C   UNL     1      -9.791  55.469  48.261  0.00  0.00    +0.000 A 
ATOM      7  C   UNL     1     -12.137  55.101  47.804  0.00  0.00    +0.000 A 
ATOM      8  C   UNL     1      -8.679  55.481  49.214  0.00  0.00    +0.000 A 
ATOM      9  C   UNL     1      -9.521  55.361  46.887  0.00  0.00    +0.000 A 
ATOM     10  C   UNL     1     -11.839  54.913  46.453  0.00  0.00    +0.000 A 
ATOM     11  C   UNL     1     -10.535  55.047  45.992  0.00  0.00    +0.000 A 
ENDROOT
BRANCH   5  12
ATOM     12  C   UNL     1      -7.840  54.621  51.378  0.00  0.00    +0.000 C 
ATOM     13  N   UNL     1      -7.594  55.224  52.520  0.00  0.00    +0.000 N 
ATOM     14  N   UNL     1      -7.151  53.465  51.013  0.00  0.00    +0.000 N 
ATOM     15  S   UNL     1      -6.524  54.465  53.509  0.00  0.00    +0.000 S 
ATOM     16  C   UNL     1      -7.427  52.472  51.999  0.00  0.00    +0.000 A 
ATOM     17  O   UNL     1      -6.791  54.860  54.870  0.00  0.00    +0.000 OA
ATOM     18  O   UNL     1      -5.189  54.506  52.926  0.00  0.00    +0.000 OA
ATOM     19  C   UNL     1      -7.105  52.777  53.329  0.00  0.00    +0.000 A 
ATOM     20  C   UNL     1      -8.397  51.513  51.727  0.00  0.00    +0.000 A 
ATOM     21  C   UNL     1      -7.656  52.080  54.394  0.00  0.00    +0.000 A 
ATOM     22  C   UNL     1      -9.019  50.860  52.787  0.00  0.00    +0.000 A 
ATOM     23  C   UNL     1      -8.631  51.122  54.109  0.00  0.00    +0.000 A 
ATOM     24  H   UNL     1      -8.023  56.076  52.765  0.00  0.00    +0.000 HD
ATOM     25  H   UNL     1      -6.579  53.355  50.219  0.00  0.00    +0.000 HD
ENDBRANCH   5  12
BRANCH   8  26
ATOM     26  O   UNL     1      -7.422  55.654  48.666  0.00  0.00    +0.000 OA
ATOM     27  H   UNL     1      -6.658  55.488  49.185  0.00  0.00    +0.000 HD
ENDBRANCH   8  26
BRANCH   1  28
ATOM     28  C   UNL     1     -12.681  55.271  50.723  0.00  0.00    +0.000 C 
BRANCH  28  35
ATOM     29 BR   UNL     1     -14.454  60.236  49.421  0.00  0.00    +0.000 Br
ATOM     30  C   UNL     1     -14.123  58.820  50.626  0.00  0.00    +0.000 A 
ATOM     31  C   UNL     1     -13.597  57.614  50.169  0.00  0.00    +0.000 A 
ATOM     32  C   UNL     1     -14.317  59.014  51.988  0.00  0.00    +0.000 A 
ATOM     33  C   UNL     1     -13.427  56.543  51.066  0.00  0.00    +0.000 A 
ATOM     34  C   UNL     1     -14.077  57.966  52.870  0.00  0.00    +0.000 A 
ATOM     35  C   UNL     1     -13.837  56.691  52.387  0.00  0.00    +0.000 A 
ENDBRANCH  28  35
ENDBRANCH   1  28
TORSDOF 4
ENDMDL
MODEL 3
REMARK VINA RESULT:      -9.7      2.260      2.958
REMARK  Name = 338076
REMARK  4 active torsions:
REMARK  status: ('A' for Active; 'I' for Inactive)
REMARK    1  A    between atoms: C_7  and  C_8
REMARK    2  A    between atoms: C_8  and  N_9
REMARK    3  A    between atoms: C_13  and  C_16
REMARK    4  A    between atoms: C_17  and  O_22
REMARK                            x       y       z     vdW  Elec       q    Type
REMARK                         _______ _______ _______ _____ _____    ______ ____
ROOT
ATOM      1  N   UNL     1      -9.957  55.393  49.804  0.00  0.00    +0.000 N 
ATOM      2  C   UNL     1      -8.958  55.405  50.760  0.00  0.00    +0.000 A 
ATOM      3  C   UNL     1      -9.659  55.204  48.424  0.00  0.00    +0.000 A 
ATOM      4  O   UNL     1      -9.190  55.646  51.943  0.00  0.00    +0.000 OA
ATOM      5  C   UNL     1      -7.572  55.053  50.307  0.00  0.00    +0.000 A 
ATOM      6  C   UNL     1      -8.309  55.216  48.017  0.00  0.00    +0.000 A 
ATOM      7  C   UNL     1     -10.648  54.941  47.472  0.00  0.00    +0.000 A 
ATOM      8  C   UNL     1      -7.245  55.258  49.022  0.00  0.00    +0.000 A 
ATOM      9  C   UNL     1      -7.980  54.958  46.676  0.00  0.00    +0.000 A 
ATOM     10  C   UNL     1     -10.298  54.604  46.163  0.00  0.00    +0.000 A 
ATOM     11  C   UNL     1      -8.967  54.616  45.762  0.00  0.00    +0.000 A 
ENDROOT
BRANCH   5  12
ATOM     12  C   UNL     1      -6.565  54.569  51.301  0.00  0.00    +0.000 C 
ATOM     13  N   UNL     1      -6.291  55.298  52.360  0.00  0.00    +0.000 N 
ATOM     14  N   UNL     1      -5.984  53.315  51.121  0.00  0.00    +0.000 N 
ATOM     15  S   UNL     1      -5.325  54.586  53.482  0.00  0.00    +0.000 S 
ATOM     16  C   UNL     1      -6.379  52.496  52.221  0.00  0.00    +0.000 A 
ATOM     17  O   UNL     1      -5.588  55.187  54.767  0.00  0.00    +0.000 OA
ATOM     18  O   UNL     1      -3.979  54.422  52.951  0.00  0.00    +0.000 OA
ATOM     19  C   UNL     1      -6.064  52.951  53.509  0.00  0.00    +0.000 A 
ATOM     20  C   UNL     1      -7.431  51.604  52.043  0.00  0.00    +0.000 A 
ATOM     21  C   UNL     1      -6.707  52.460  54.636  0.00  0.00    +0.000 A 
ATOM     22  C   UNL     1      -8.141  51.164  53.156  0.00  0.00    +0.000 A 
ATOM     23  C   UNL     1      -7.763  51.567  54.445  0.00  0.00    +0.000 A 
ATOM     24  H   UNL     1      -6.641  56.211  52.472  0.00  0.00    +0.000 HD
ATOM     25  H   UNL     1      -5.405  53.044  50.372  0.00  0.00    +0.000 HD
ENDBRANCH   5  12
BRANCH   8  26
ATOM     26  O   UNL     1      -5.954  55.303  48.529  0.00  0.00    +0.000 OA
ATOM     27  H   UNL     1      -5.495  56.119  48.490  0.00  0.00    +0.000 HD
ENDBRANCH   8  26
BRANCH   1  28
ATOM     28  C   UNL     1     -11.319  55.429  50.328  0.00  0.00    +0.000 C 
BRANCH  28  35
ATOM     29 BR   UNL     1     -15.109  57.910  53.325  0.00  0.00    +0.000 Br
ATOM     30  C   UNL     1     -14.444  57.148  51.729  0.00  0.00    +0.000 A 
ATOM     31  C   UNL     1     -13.141  56.660  51.671  0.00  0.00    +0.000 A 
ATOM     32  C   UNL     1     -15.289  56.988  50.639  0.00  0.00    +0.000 A 
ATOM     33  C   UNL     1     -12.637  56.165  50.453  0.00  0.00    +0.000 A 
ATOM     34  C   UNL     1     -14.794  56.432  49.464  0.00  0.00    +0.000 A 
ATOM     35  C   UNL     1     -13.434  56.219  49.315  0.00  0.00    +0.000 A 
ENDBRANCH  28  35
ENDBRANCH   1  28
TORSDOF 4
ENDMDL
MODEL 4
REMARK VINA RESULT:      -9.6      3.629      7.566
REMARK  Name = 338076
REMARK  4 active torsions:
REMARK  status: ('A' for Active; 'I' for Inactive)
REMARK    1  A    between atoms: C_7  and  C_8
REMARK    2  A    between atoms: C_8  and  N_9
REMARK    3  A    between atoms: C_13  and  C_16
REMARK    4  A    between atoms: C_17  and  O_22
REMARK                            x       y       z     vdW  Elec       q    Type
REMARK                         _______ _______ _______ _____ _____    ______ ____
ROOT
ATOM      1  N   UNL     1      -9.799  54.974  50.955  0.00  0.00    +0.000 N 
ATOM      2  C   UNL     1     -11.164  55.039  51.169  0.00  0.00    +0.000 A 
ATOM      3  C   UNL     1      -9.263  54.799  49.647  0.00  0.00    +0.000 A 
ATOM      4  O   UNL     1     -11.644  55.109  52.298  0.00  0.00    +0.000 OA
ATOM      5  C   UNL     1     -12.046  55.080  49.956  0.00  0.00    +0.000 A 
ATOM      6  C   UNL     1     -10.146  54.505  48.588  0.00  0.00    +0.000 A 
ATOM      7  C   UNL     1      -7.905  54.974  49.363  0.00  0.00    +0.000 A 
ATOM      8  C   UNL     1     -11.593  54.544  48.814  0.00  0.00    +0.000 A 
ATOM      9  C   UNL     1      -9.656  54.402  47.276  0.00  0.00    +0.000 A 
ATOM     10  C   UNL     1      -7.449  54.952  48.044  0.00  0.00    +0.000 A 
ATOM     11  C   UNL     1      -8.321  54.662  47.000  0.00  0.00    +0.000 A 
ENDROOT
BRANCH   5  12
ATOM     12  C   UNL     1     -13.432  55.631  50.064  0.00  0.00    +0.000 C 
ATOM     13  N   UNL     1     -14.083  55.543  51.202  0.00  0.00    +0.000 N 
ATOM     14  N   UNL     1     -13.985  56.293  48.969  0.00  0.00    +0.000 N 
ATOM     15  S   UNL     1     -15.511  56.353  51.269  0.00  0.00    +0.000 S 
ATOM     16  C   UNL     1     -14.202  57.650  49.352  0.00  0.00    +0.000 A 
ATOM     17  O   UNL     1     -15.799  56.672  52.646  0.00  0.00    +0.000 OA
ATOM     18  O   UNL     1     -16.485  55.721  50.388  0.00  0.00    +0.000 OA
ATOM     19  C   UNL     1     -15.018  57.881  50.469  0.00  0.00    +0.000 A 
ATOM     20  C   UNL     1     -13.271  58.610  48.969  0.00  0.00    +0.000 A 
ATOM     21  C   UNL     1     -14.999  59.088  51.153  0.00  0.00    +0.000 A 
ATOM     22  C   UNL     1     -13.181  59.793  49.695  0.00  0.00    +0.000 A 
ATOM     23  C   UNL     1     -14.057  60.042  50.761  0.00  0.00    +0.000 A 
ATOM     24  H   UNL     1     -13.737  55.025  51.965  0.00  0.00    +0.000 HD
ATOM     25  H   UNL     1     -14.188  55.897  48.091  0.00  0.00    +0.000 HD
ENDBRANCH   5  12
BRANCH   8  26
ATOM     26  O   UNL     1     -12.379  54.207  47.728  0.00  0.00    +0.000 OA
ATOM     27  H   UNL     1     -12.831  54.876  47.251  0.00  0.00    +0.000 HD
ENDBRANCH   8  26
BRANCH   1  28
ATOM     28  C   UNL     1      -8.972  55.249  52.126  0.00  0.00    +0.000 C 
BRANCH  28  35
ATOM     29 BR   UNL     1      -8.841  50.711  55.106  0.00  0.00    +0.000 Br
ATOM     30  C   UNL     1      -8.050  52.204  54.262  0.00  0.00    +0.000 A 
ATOM     31  C   UNL     1      -8.825  53.072  53.497  0.00  0.00    +0.000 A 
ATOM     32  C   UNL     1      -6.709  52.489  54.482  0.00  0.00    +0.000 A 
ATOM     33  C   UNL     1      -8.208  54.137  52.812  0.00  0.00    +0.000 A 
ATOM     34  C   UNL     1      -6.130  53.587  53.853  0.00  0.00    +0.000 A 
ATOM     35  C   UNL     1      -6.825  54.272  52.870  0.00  0.00    +0.000 A 
ENDBRANCH  28  35
ENDBRANCH   1  28
TORSDOF 4
ENDMDL
MODEL 5
REMARK VINA RESULT:      -9.3      4.142      8.000
REMARK  Name = 338076
REMARK  4 active torsions:
REMARK  status: ('A' for Active; 'I' for Inactive)
REMARK    1  A    between atoms: C_7  and  C_8
REMARK    2  A    between atoms: C_8  and  N_9
REMARK    3  A    between atoms: C_13  and  C_16
REMARK    4  A    between atoms: C_17  and  O_22
REMARK                            x       y       z     vdW  Elec       q    Type
REMARK                         _______ _______ _______ _____ _____    ______ ____
ROOT
ATOM      1  N   UNL     1     -10.573  53.424  49.326  0.00  0.00    +0.000 N 
ATOM      2  C   UNL     1     -11.573  54.363  49.153  0.00  0.00    +0.000 A 
ATOM      3  C   UNL     1     -10.069  53.111  50.621  0.00  0.00    +0.000 A 
ATOM      4  O   UNL     1     -11.964  54.702  48.038  0.00  0.00    +0.000 OA
ATOM      5  C   UNL     1     -12.214  54.918  50.391  0.00  0.00    +0.000 A 
ATOM      6  C   UNL     1     -10.470  53.908  51.714  0.00  0.00    +0.000 A 
ATOM      7  C   UNL     1      -9.245  52.007  50.859  0.00  0.00    +0.000 A 
ATOM      8  C   UNL     1     -11.509  54.924  51.532  0.00  0.00    +0.000 A 
ATOM      9  C   UNL     1     -10.050  53.578  53.013  0.00  0.00    +0.000 A 
ATOM     10  C   UNL     1      -8.905  51.645  52.164  0.00  0.00    +0.000 A 
ATOM     11  C   UNL     1      -9.302  52.430  53.241  0.00  0.00    +0.000 A 
ENDROOT
BRANCH   5  12
ATOM     12  C   UNL     1     -13.577  55.529  50.312  0.00  0.00    +0.000 C 
ATOM     13  N   UNL     1     -14.344  55.553  51.379  0.00  0.00    +0.000 N 
ATOM     14  N   UNL     1     -13.983  56.128  49.121  0.00  0.00    +0.000 N 
ATOM     15  S   UNL     1     -15.732  56.420  51.238  0.00  0.00    +0.000 S 
ATOM     16  C   UNL     1     -14.175  57.518  49.382  0.00  0.00    +0.000 A 
ATOM     17  O   UNL     1     -16.143  56.854  52.550  0.00  0.00    +0.000 OA
ATOM     18  O   UNL     1     -16.639  55.763  50.307  0.00  0.00    +0.000 OA
ATOM     19  C   UNL     1     -15.089  57.864  50.387  0.00  0.00    +0.000 A 
ATOM     20  C   UNL     1     -13.166  58.408  49.032  0.00  0.00    +0.000 A 
ATOM     21  C   UNL     1     -15.083  59.117  50.983  0.00  0.00    +0.000 A 
ATOM     22  C   UNL     1     -13.095  59.638  49.677  0.00  0.00    +0.000 A 
ATOM     23  C   UNL     1     -14.063  60.001  50.625  0.00  0.00    +0.000 A 
ATOM     24  H   UNL     1     -14.102  55.081  52.209  0.00  0.00    +0.000 HD
ATOM     25  H   UNL     1     -14.115  55.675  48.257  0.00  0.00    +0.000 HD
ENDBRANCH   5  12
BRANCH   8  26
ATOM     26  O   UNL     1     -11.813  55.679  52.649  0.00  0.00    +0.000 OA
ATOM     27  H   UNL     1     -11.147  55.870  53.281  0.00  0.00    +0.000 HD
ENDBRANCH   8  26
BRANCH   1  28
ATOM     28  C   UNL     1     -10.198  52.686  48.125  0.00  0.00    +0.000 C 
BRANCH  28  35
ATOM     29 BR   UNL     1      -9.633  52.442  42.728  0.00  0.00    +0.000 Br
ATOM     30  C   UNL     1     -10.410  51.933  44.373  0.00  0.00    +0.000 A 
ATOM     31  C   UNL     1      -9.944  52.473  45.569  0.00  0.00    +0.000 A 
ATOM     32  C   UNL     1     -11.513  51.089  44.382  0.00  0.00    +0.000 A 
ATOM     33  C   UNL     1     -10.482  52.027  46.792  0.00  0.00    +0.000 A 
ATOM     34  C   UNL     1     -12.078  50.712  45.596  0.00  0.00    +0.000 A 
ATOM     35  C   UNL     1     -11.436  51.015  46.785  0.00  0.00    +0.000 A 
ENDBRANCH  28  35
ENDBRANCH   1  28
TORSDOF 4
ENDMDL
MODEL 6
REMARK VINA RESULT:      -9.3      4.255      7.987
REMARK  Name = 338076
REMARK  4 active torsions:
REMARK  status: ('A' for Active; 'I' for Inactive)
REMARK    1  A    between atoms: C_7  and  C_8
REMARK    2  A    between atoms: C_8  and  N_9
REMARK    3  A    between atoms: C_13  and  C_16
REMARK    4  A    between atoms: C_17  and  O_22
REMARK                            x       y       z     vdW  Elec       q    Type
REMARK                         _______ _______ _______ _____ _____    ______ ____
ROOT
ATOM      1  N   UNL     1     -11.036  53.060  49.366  0.00  0.00    +0.000 N 
ATOM      2  C   UNL     1     -11.969  54.064  49.179  0.00  0.00    +0.000 A 
ATOM      3  C   UNL     1     -10.477  52.799  50.649  0.00  0.00    +0.000 A 
ATOM      4  O   UNL     1     -12.400  54.355  48.066  0.00  0.00    +0.000 OA
ATOM      5  C   UNL     1     -12.484  54.757  50.406  0.00  0.00    +0.000 A 
ATOM      6  C   UNL     1     -10.746  53.701  51.700  0.00  0.00    +0.000 A 
ATOM      7  C   UNL     1      -9.730  51.650  50.923  0.00  0.00    +0.000 A 
ATOM      8  C   UNL     1     -11.711  54.785  51.501  0.00  0.00    +0.000 A 
ATOM      9  C   UNL     1     -10.271  53.430  52.994  0.00  0.00    +0.000 A 
ATOM     10  C   UNL     1      -9.339  51.354  52.230  0.00  0.00    +0.000 A 
ATOM     11  C   UNL     1      -9.604  52.243  53.265  0.00  0.00    +0.000 A 
ENDROOT
BRANCH   5  12
ATOM     12  C   UNL     1     -13.797  55.472  50.359  0.00  0.00    +0.000 C 
ATOM     13  N   UNL     1     -14.534  55.556  51.444  0.00  0.00    +0.000 N 
ATOM     14  N   UNL     1     -14.185  56.100  49.177  0.00  0.00    +0.000 N 
ATOM     15  S   UNL     1     -15.853  56.528  51.335  0.00  0.00    +0.000 S 
ATOM     16  C   UNL     1     -14.262  57.500  49.439  0.00  0.00    +0.000 A 
ATOM     17  O   UNL     1     -16.197  56.993  52.656  0.00  0.00    +0.000 OA
ATOM     18  O   UNL     1     -16.831  55.943  50.428  0.00  0.00    +0.000 OA
ATOM     19  C   UNL     1     -15.121  57.917  50.465  0.00  0.00    +0.000 A 
ATOM     20  C   UNL     1     -13.195  58.310  49.062  0.00  0.00    +0.000 A 
ATOM     21  C   UNL     1     -15.003  59.166  51.057  0.00  0.00    +0.000 A 
ATOM     22  C   UNL     1     -13.013  59.531  49.703  0.00  0.00    +0.000 A 
ATOM     23  C   UNL     1     -13.927  59.968  50.673  0.00  0.00    +0.000 A 
ATOM     24  H   UNL     1     -14.309  55.067  52.269  0.00  0.00    +0.000 HD
ATOM     25  H   UNL     1     -14.372  55.658  48.317  0.00  0.00    +0.000 HD
ENDBRANCH   5  12
BRANCH   8  26
ATOM     26  O   UNL     1     -11.883  55.640  52.574  0.00  0.00    +0.000 OA
ATOM     27  H   UNL     1     -11.782  55.319  53.449  0.00  0.00    +0.000 HD
ENDBRANCH   8  26
BRANCH   1  28
ATOM     28  C   UNL     1     -10.796  52.211  48.204  0.00  0.00    +0.000 C 
BRANCH  28  35
ATOM     29 BR   UNL     1      -5.600  53.474  47.255  0.00  0.00    +0.000 Br
ATOM     30  C   UNL     1      -7.407  53.255  46.752  0.00  0.00    +0.000 A 
ATOM     31  C   UNL     1      -8.339  52.768  47.665  0.00  0.00    +0.000 A 
ATOM     32  C   UNL     1      -7.826  53.669  45.494  0.00  0.00    +0.000 A 
ATOM     33  C   UNL     1      -9.666  52.539  47.252  0.00  0.00    +0.000 A 
ATOM     34  C   UNL     1      -9.157  53.500  45.125  0.00  0.00    +0.000 A 
ATOM     35  C   UNL     1     -10.010  52.754  45.922  0.00  0.00    +0.000 A 
ENDBRANCH  28  35
ENDBRANCH   1  28
TORSDOF 4
ENDMDL
MODEL 7
REMARK VINA RESULT:      -9.2      3.021      5.504
REMARK  Name = 338076
REMARK  4 active torsions:
REMARK  status: ('A' for Active; 'I' for Inactive)
REMARK    1  A    between atoms: C_7  and  C_8
REMARK    2  A    between atoms: C_8  and  N_9
REMARK    3  A    between atoms: C_13  and  C_16
REMARK    4  A    between atoms: C_17  and  O_22
REMARK                            x       y       z     vdW  Elec       q    Type
REMARK                         _______ _______ _______ _____ _____    ______ ____
ROOT
ATOM      1  N   UNL     1     -11.181  54.768  48.686  0.00  0.00    +0.000 N 
ATOM      2  C   UNL     1     -10.258  54.410  49.652  0.00  0.00    +0.000 A 
ATOM      3  C   UNL     1     -12.291  55.604  48.998  0.00  0.00    +0.000 A 
ATOM      4  O   UNL     1      -9.341  53.626  49.418  0.00  0.00    +0.000 OA
ATOM      5  C   UNL     1     -10.384  55.064  50.996  0.00  0.00    +0.000 A 
ATOM      6  C   UNL     1     -12.546  55.913  50.351  0.00  0.00    +0.000 A 
ATOM      7  C   UNL     1     -13.095  56.183  48.012  0.00  0.00    +0.000 A 
ATOM      8  C   UNL     1     -11.588  55.511  51.383  0.00  0.00    +0.000 A 
ATOM      9  C   UNL     1     -13.587  56.795  50.683  0.00  0.00    +0.000 A 
ATOM     10  C   UNL     1     -14.070  57.122  48.354  0.00  0.00    +0.000 A 
ATOM     11  C   UNL     1     -14.321  57.427  49.687  0.00  0.00    +0.000 A 
ENDROOT
BRANCH   5  12
ATOM     12  C   UNL     1      -9.200  55.124  51.907  0.00  0.00    +0.000 C 
ATOM     13  N   UNL     1      -8.964  54.134  52.738  0.00  0.00    +0.000 N 
ATOM     14  N   UNL     1      -8.323  56.204  51.808  0.00  0.00    +0.000 N 
ATOM     15  S   UNL     1      -7.536  54.209  53.547  0.00  0.00    +0.000 S 
ATOM     16  C   UNL     1      -7.057  55.693  51.393  0.00  0.00    +0.000 A 
ATOM     17  O   UNL     1      -7.144  52.872  53.919  0.00  0.00    +0.000 OA
ATOM     18  O   UNL     1      -7.555  55.315  54.494  0.00  0.00    +0.000 OA
ATOM     19  C   UNL     1      -6.463  54.712  52.199  0.00  0.00    +0.000 A 
ATOM     20  C   UNL     1      -6.708  55.787  50.050  0.00  0.00    +0.000 A 
ATOM     21  C   UNL     1      -5.455  53.886  51.723  0.00  0.00    +0.000 A 
ATOM     22  C   UNL     1      -5.757  54.911  49.536  0.00  0.00    +0.000 A 
ATOM     23  C   UNL     1      -5.115  53.987  50.373  0.00  0.00    +0.000 A 
ATOM     24  H   UNL     1      -9.603  53.396  52.868  0.00  0.00    +0.000 HD
ATOM     25  H   UNL     1      -8.539  57.147  51.992  0.00  0.00    +0.000 HD
ENDBRANCH   5  12
BRANCH   8  26
ATOM     26  O   UNL     1     -11.938  55.826  52.682  0.00  0.00    +0.000 OA
ATOM     27  H   UNL     1     -11.277  56.076  53.299  0.00  0.00    +0.000 HD
ENDBRANCH   8  26
BRANCH   1  28
ATOM     28  C   UNL     1     -10.846  54.362  47.325  0.00  0.00    +0.000 C 
BRANCH  28  35
ATOM     29 BR   UNL     1      -9.940  51.682  42.689  0.00  0.00    +0.000 Br
ATOM     30  C   UNL     1      -9.498  52.930  44.037  0.00  0.00    +0.000 A 
ATOM     31  C   UNL     1     -10.378  53.173  45.088  0.00  0.00    +0.000 A 
ATOM     32  C   UNL     1      -8.249  53.537  44.029  0.00  0.00    +0.000 A 
ATOM     33  C   UNL     1     -10.068  54.160  46.042  0.00  0.00    +0.000 A 
ATOM     34  C   UNL     1      -7.930  54.460  45.021  0.00  0.00    +0.000 A 
ATOM     35  C   UNL     1      -8.908  54.913  45.889  0.00  0.00    +0.000 A 
ENDBRANCH  28  35
ENDBRANCH   1  28
TORSDOF 4
ENDMDL
MODEL 8
REMARK VINA RESULT:      -9.2      3.821      6.880
REMARK  Name = 338076
REMARK  4 active torsions:
REMARK  status: ('A' for Active; 'I' for Inactive)
REMARK    1  A    between atoms: C_7  and  C_8
REMARK    2  A    between atoms: C_8  and  N_9
REMARK    3  A    between atoms: C_13  and  C_16
REMARK    4  A    between atoms: C_17  and  O_22
REMARK                            x       y       z     vdW  Elec       q    Type
REMARK                         _______ _______ _______ _____ _____    ______ ____
ROOT
ATOM      1  N   UNL     1     -11.642  55.686  51.106  0.00  0.00    +0.000 N 
ATOM      2  C   UNL     1     -11.058  55.230  49.939  0.00  0.00    +0.000 A 
ATOM      3  C   UNL     1     -12.900  56.355  51.092  0.00  0.00    +0.000 A 
ATOM      4  O   UNL     1      -9.939  54.722  49.925  0.00  0.00    +0.000 OA
ATOM      5  C   UNL     1     -11.872  55.325  48.683  0.00  0.00    +0.000 A 
ATOM      6  C   UNL     1     -13.459  56.716  49.848  0.00  0.00    +0.000 A 
ATOM      7  C   UNL     1     -13.630  56.607  52.257  0.00  0.00    +0.000 A 
ATOM      8  C   UNL     1     -12.829  56.261  48.606  0.00  0.00    +0.000 A 
ATOM      9  C   UNL     1     -14.731  57.309  49.799  0.00  0.00    +0.000 A 
ATOM     10  C   UNL     1     -14.927  57.119  52.184  0.00  0.00    +0.000 A 
ATOM     11  C   UNL     1     -15.477  57.474  50.958  0.00  0.00    +0.000 A 
ENDROOT
BRANCH   5  12
ATOM     12  C   UNL     1     -11.548  54.444  47.519  0.00  0.00    +0.000 C 
ATOM     13  N   UNL     1     -10.667  54.839  46.626  0.00  0.00    +0.000 N 
ATOM     14  N   UNL     1     -12.137  53.183  47.437  0.00  0.00    +0.000 N 
ATOM     15  S   UNL     1     -10.240  53.718  45.504  0.00  0.00    +0.000 S 
ATOM     16  C   UNL     1     -11.093  52.215  47.524  0.00  0.00    +0.000 A 
ATOM     17  O   UNL     1      -8.922  54.037  45.010  0.00  0.00    +0.000 OA
ATOM     18  O   UNL     1     -11.365  53.441  44.621  0.00  0.00    +0.000 OA
ATOM     19  C   UNL     1     -10.066  52.287  46.572  0.00  0.00    +0.000 A 
ATOM     20  C   UNL     1     -10.856  51.597  48.748  0.00  0.00    +0.000 A 
ATOM     21  C   UNL     1      -8.839  51.670  46.770  0.00  0.00    +0.000 A 
ATOM     22  C   UNL     1      -9.603  51.044  48.995  0.00  0.00    +0.000 A 
ATOM     23  C   UNL     1      -8.612  51.056  48.003  0.00  0.00    +0.000 A 
ATOM     24  H   UNL     1     -10.289  55.749  46.631  0.00  0.00    +0.000 HD
ATOM     25  H   UNL     1     -13.098  52.995  47.338  0.00  0.00    +0.000 HD
ENDBRANCH   5  12
BRANCH   8  26
ATOM     26  O   UNL     1     -13.427  56.692  47.437  0.00  0.00    +0.000 OA
ATOM     27  H   UNL     1     -14.350  56.583  47.314  0.00  0.00    +0.000 HD
ENDBRANCH   8  26
BRANCH   1  28
ATOM     28  C   UNL     1     -10.961  55.297  52.337  0.00  0.00    +0.000 C 
BRANCH  28  35
ATOM     29 BR   UNL     1      -6.104  54.486  54.628  0.00  0.00    +0.000 Br
ATOM     30  C   UNL     1      -7.782  53.918  53.974  0.00  0.00    +0.000 A 
ATOM     31  C   UNL     1      -8.698  54.845  53.483  0.00  0.00    +0.000 A 
ATOM     32  C   UNL     1      -8.067  52.561  53.896  0.00  0.00    +0.000 A 
ATOM     33  C   UNL     1      -9.973  54.414  53.070  0.00  0.00    +0.000 A 
ATOM     34  C   UNL     1      -9.307  52.147  53.419  0.00  0.00    +0.000 A 
ATOM     35  C   UNL     1     -10.315  53.073  53.208  0.00  0.00    +0.000 A 
ENDBRANCH  28  35
ENDBRANCH   1  28
TORSDOF 4
ENDMDL
MODEL 9
REMARK VINA RESULT:      -9.1      3.516      7.644
REMARK  Name = 338076
REMARK  4 active torsions:
REMARK  status: ('A' for Active; 'I' for Inactive)
REMARK    1  A    between atoms: C_7  and  C_8
REMARK    2  A    between atoms: C_8  and  N_9
REMARK    3  A    between atoms: C_13  and  C_16
REMARK    4  A    between atoms: C_17  and  O_22
REMARK                            x       y       z     vdW  Elec       q    Type
REMARK                         _______ _______ _______ _____ _____    ______ ____
ROOT
ATOM      1  N   UNL     1      -8.020  54.584  51.637  0.00  0.00    +0.000 N 
ATOM      2  C   UNL     1      -9.217  55.231  51.389  0.00  0.00    +0.000 A 
ATOM      3  C   UNL     1      -7.988  53.304  52.261  0.00  0.00    +0.000 A 
ATOM      4  O   UNL     1      -9.259  56.368  50.924  0.00  0.00    +0.000 OA
ATOM      5  C   UNL     1     -10.478  54.465  51.656  0.00  0.00    +0.000 A 
ATOM      6  C   UNL     1      -9.184  52.782  52.797  0.00  0.00    +0.000 A 
ATOM      7  C   UNL     1      -6.832  52.519  52.304  0.00  0.00    +0.000 A 
ATOM      8  C   UNL     1     -10.451  53.478  52.563  0.00  0.00    +0.000 A 
ATOM      9  C   UNL     1      -9.198  51.492  53.350  0.00  0.00    +0.000 A 
ATOM     10  C   UNL     1      -6.884  51.207  52.781  0.00  0.00    +0.000 A 
ATOM     11  C   UNL     1      -8.063  50.694  53.308  0.00  0.00    +0.000 A 
ENDROOT
BRANCH   5  12
ATOM     12  C   UNL     1     -11.750  54.869  50.980  0.00  0.00    +0.000 C 
ATOM     13  N   UNL     1     -12.144  56.122  51.025  0.00  0.00    +0.000 N 
ATOM     14  N   UNL     1     -12.464  53.917  50.253  0.00  0.00    +0.000 N 
ATOM     15  S   UNL     1     -13.441  56.495  50.087  0.00  0.00    +0.000 S 
ATOM     16  C   UNL     1     -12.465  54.332  48.888  0.00  0.00    +0.000 A 
ATOM     17  O   UNL     1     -13.391  57.899  49.763  0.00  0.00    +0.000 OA
ATOM     18  O   UNL     1     -14.637  55.851  50.613  0.00  0.00    +0.000 OA
ATOM     19  C   UNL     1     -12.993  55.598  48.599  0.00  0.00    +0.000 A 
ATOM     20  C   UNL     1     -11.553  53.749  48.013  0.00  0.00    +0.000 A 
ATOM     21  C   UNL     1     -12.712  56.255  47.410  0.00  0.00    +0.000 A 
ATOM     22  C   UNL     1     -11.197  54.432  46.855  0.00  0.00    +0.000 A 
ATOM     23  C   UNL     1     -11.793  55.662  46.542  0.00  0.00    +0.000 A 
ATOM     24  H   UNL     1     -11.690  56.794  51.584  0.00  0.00    +0.000 HD
ATOM     25  H   UNL     1     -12.889  53.107  50.616  0.00  0.00    +0.000 HD
ENDBRANCH   5  12
BRANCH   8  26
ATOM     26  O   UNL     1     -11.565  52.912  53.155  0.00  0.00    +0.000 OA
ATOM     27  H   UNL     1     -12.290  52.640  52.626  0.00  0.00    +0.000 HD
ENDBRANCH   8  26
BRANCH   1  28
ATOM     28  C   UNL     1      -6.837  55.229  51.079  0.00  0.00    +0.000 C 
BRANCH  28  35
ATOM     29 BR   UNL     1      -7.651  54.354  45.781  0.00  0.00    +0.000 Br
ATOM     30  C   UNL     1      -6.632  54.287  47.371  0.00  0.00    +0.000 A 
ATOM     31  C   UNL     1      -7.129  54.837  48.549  0.00  0.00    +0.000 A 
ATOM     32  C   UNL     1      -5.423  53.603  47.385  0.00  0.00    +0.000 A 
ATOM     33  C   UNL     1      -6.326  54.846  49.706  0.00  0.00    +0.000 A 
ATOM     34  C   UNL     1      -4.674  53.561  48.557  0.00  0.00    +0.000 A 
ATOM     35  C   UNL     1      -5.028  54.351  49.637  0.00  0.00    +0.000 A 
ENDBRANCH  28  35
ENDBRANCH   1  28
TORSDOF 4
ENDMDL
