MODEL 1
REMARK VINA RESULT:      -8.3      0.000      0.000
REMARK  Name = 338124
REMARK  5 active torsions:
REMARK  status: ('A' for Active; 'I' for Inactive)
REMARK    1  A    between atoms: C_6  and  C_10
REMARK    2  A    between atoms: C_14  and  O_18
REMARK    3  A    between atoms: N_17  and  C_21
REMARK    4  A    between atoms: C_21  and  C_24
REMARK    5  A    between atoms: C_27  and  C_28
REMARK                            x       y       z     vdW  Elec       q    Type
REMARK                         _______ _______ _______ _____ _____    ______ ____
ROOT
ATOM      1  C   UNL     1     -10.036  54.396  52.344  0.00  0.00    +0.000 A 
ATOM      2  C   UNL     1      -8.660  54.974  52.268  0.00  0.00    +0.000 A 
ATOM      3  C   UNL     1     -10.255  53.275  53.054  0.00  0.00    +0.000 A 
ATOM      4  O   UNL     1      -8.512  56.069  51.717  0.00  0.00    +0.000 OA
ATOM      5  N   UNL     1      -7.608  54.247  52.803  0.00  0.00    +0.000 N 
ATOM      6  C   UNL     1      -9.150  52.617  53.766  0.00  0.00    +0.000 A 
ATOM      7  C   UNL     1      -7.836  53.091  53.610  0.00  0.00    +0.000 A 
ATOM      8  C   UNL     1      -9.390  51.517  54.608  0.00  0.00    +0.000 A 
ATOM      9  C   UNL     1      -6.793  52.446  54.296  0.00  0.00    +0.000 A 
ATOM     10  C   UNL     1      -8.349  50.903  55.301  0.00  0.00    +0.000 A 
ATOM     11  C   UNL     1      -7.050  51.367  55.144  0.00  0.00    +0.000 A 
ENDROOT
BRANCH   1  17
ATOM     12  S   UNL     1     -12.271  55.901  49.485  0.00  0.00    +0.000 S 
ATOM     13  O   UNL     1     -13.137  54.921  48.858  0.00  0.00    +0.000 OA
ATOM     14  O   UNL     1     -11.582  56.891  48.677  0.00  0.00    +0.000 OA
ATOM     15  N   UNL     1     -11.157  55.098  50.345  0.00  0.00    +0.000 N 
ATOM     16  C   UNL     1     -13.283  56.808  50.596  0.00  0.00    +0.000 A 
ATOM     17  C   UNL     1     -11.171  55.118  51.644  0.00  0.00    +0.000 C 
ATOM     18  C   UNL     1     -13.074  56.629  51.953  0.00  0.00    +0.000 A 
ATOM     19  C   UNL     1     -14.252  57.689  50.105  0.00  0.00    +0.000 A 
ATOM     20  N   UNL     1     -12.114  55.741  52.430  0.00  0.00    +0.000 N 
ATOM     21  C   UNL     1     -13.918  57.299  52.846  0.00  0.00    +0.000 A 
ATOM     22  C   UNL     1     -15.060  58.377  51.005  0.00  0.00    +0.000 A 
ATOM     23  C   UNL     1     -14.902  58.174  52.376  0.00  0.00    +0.000 A 
ATOM     24  H   UNL     1     -10.458  54.587  49.875  0.00  0.00    +0.000 HD
ATOM     25  H   UNL     1     -12.109  55.547  53.395  0.00  0.00    +0.000 HD
ENDBRANCH   1  17
BRANCH   3  26
ATOM     26  O   UNL     1     -11.491  52.670  53.196  0.00  0.00    +0.000 OA
ATOM     27  H   UNL     1     -12.215  52.954  52.674  0.00  0.00    +0.000 HD
ENDBRANCH   3  26
BRANCH   5  28
ATOM     28  C   UNL     1      -6.255  54.729  52.534  0.00  0.00    +0.000 C 
BRANCH  28  29
ATOM     29  C   UNL     1      -5.657  54.203  51.257  0.00  0.00    +0.000 C 
ATOM     30  C   UNL     1      -5.533  54.823  50.071  0.00  0.00    +0.000 C 
ATOM     31  C   UNL     1      -4.940  54.178  48.860  0.00  0.00    +0.000 C 
ENDBRANCH  28  29
ENDBRANCH   5  28
TORSDOF 4
ENDMDL
MODEL 2
REMARK VINA RESULT:      -8.0      3.047      7.155
REMARK  Name = 338124
REMARK  5 active torsions:
REMARK  status: ('A' for Active; 'I' for Inactive)
REMARK    1  A    between atoms: C_6  and  C_10
REMARK    2  A    between atoms: C_14  and  O_18
REMARK    3  A    between atoms: N_17  and  C_21
REMARK    4  A    between atoms: C_21  and  C_24
REMARK    5  A    between atoms: C_27  and  C_28
REMARK                            x       y       z     vdW  Elec       q    Type
REMARK                         _______ _______ _______ _____ _____    ______ ____
ROOT
ATOM      1  C   UNL     1     -10.300  55.083  50.899  0.00  0.00    +0.000 A 
ATOM      2  C   UNL     1      -9.931  54.959  49.456  0.00  0.00    +0.000 A 
ATOM      3  C   UNL     1     -11.490  55.606  51.245  0.00  0.00    +0.000 A 
ATOM      4  O   UNL     1      -8.891  54.360  49.165  0.00  0.00    +0.000 OA
ATOM      5  N   UNL     1     -10.763  55.537  48.509  0.00  0.00    +0.000 N 
ATOM      6  C   UNL     1     -12.437  56.050  50.211  0.00  0.00    +0.000 A 
ATOM      7  C   UNL     1     -12.054  56.038  48.859  0.00  0.00    +0.000 A 
ATOM      8  C   UNL     1     -13.728  56.485  50.558  0.00  0.00    +0.000 A 
ATOM      9  C   UNL     1     -12.971  56.470  47.887  0.00  0.00    +0.000 A 
ATOM     10  C   UNL     1     -14.636  56.886  49.580  0.00  0.00    +0.000 A 
ATOM     11  C   UNL     1     -14.257  56.880  48.245  0.00  0.00    +0.000 A 
ENDROOT
BRANCH   1  17
ATOM     12  S   UNL     1      -7.045  54.693  53.064  0.00  0.00    +0.000 S 
ATOM     13  O   UNL     1      -6.943  55.673  54.128  0.00  0.00    +0.000 OA
ATOM     14  O   UNL     1      -5.874  54.337  52.283  0.00  0.00    +0.000 OA
ATOM     15  N   UNL     1      -8.194  55.195  52.037  0.00  0.00    +0.000 N 
ATOM     16  C   UNL     1      -7.588  53.205  53.820  0.00  0.00    +0.000 A 
ATOM     17  C   UNL     1      -9.331  54.572  51.948  0.00  0.00    +0.000 C 
ATOM     18  C   UNL     1      -8.873  52.769  53.540  0.00  0.00    +0.000 A 
ATOM     19  C   UNL     1      -6.730  52.491  54.663  0.00  0.00    +0.000 A 
ATOM     20  N   UNL     1      -9.721  53.494  52.709  0.00  0.00    +0.000 N 
ATOM     21  C   UNL     1      -9.336  51.619  54.189  0.00  0.00    +0.000 A 
ATOM     22  C   UNL     1      -7.192  51.328  55.272  0.00  0.00    +0.000 A 
ATOM     23  C   UNL     1      -8.499  50.897  55.045  0.00  0.00    +0.000 A 
ATOM     24  H   UNL     1      -8.027  55.984  51.472  0.00  0.00    +0.000 HD
ATOM     25  H   UNL     1     -10.665  53.215  52.662  0.00  0.00    +0.000 HD
ENDBRANCH   1  17
BRANCH   3  26
ATOM     26  O   UNL     1     -11.930  55.751  52.549  0.00  0.00    +0.000 OA
ATOM     27  H   UNL     1     -12.826  55.965  52.719  0.00  0.00    +0.000 HD
ENDBRANCH   3  26
BRANCH   5  28
ATOM     28  C   UNL     1     -10.278  55.584  47.132  0.00  0.00    +0.000 C 
BRANCH  28  29
ATOM     29  C   UNL     1     -10.537  54.327  46.345  0.00  0.00    +0.000 C 
ATOM     30  C   UNL     1     -11.525  54.075  45.470  0.00  0.00    +0.000 C 
ATOM     31  C   UNL     1     -11.690  52.766  44.766  0.00  0.00    +0.000 C 
ENDBRANCH  28  29
ENDBRANCH   5  28
TORSDOF 4
ENDMDL
MODEL 3
REMARK VINA RESULT:      -7.8      2.582      7.695
REMARK  Name = 338124
REMARK  5 active torsions:
REMARK  status: ('A' for Active; 'I' for Inactive)
REMARK    1  A    between atoms: C_6  and  C_10
REMARK    2  A    between atoms: C_14  and  O_18
REMARK    3  A    between atoms: N_17  and  C_21
REMARK    4  A    between atoms: C_21  and  C_24
REMARK    5  A    between atoms: C_27  and  C_28
REMARK                            x       y       z     vdW  Elec       q    Type
REMARK                         _______ _______ _______ _____ _____    ______ ____
ROOT
ATOM      1  C   UNL     1     -10.024  54.710  51.000  0.00  0.00    +0.000 A 
ATOM      2  C   UNL     1     -11.366  55.199  51.441  0.00  0.00    +0.000 A 
ATOM      3  C   UNL     1      -9.715  54.686  49.692  0.00  0.00    +0.000 A 
ATOM      4  O   UNL     1     -11.576  55.330  52.651  0.00  0.00    +0.000 OA
ATOM      5  N   UNL     1     -12.322  55.467  50.473  0.00  0.00    +0.000 N 
ATOM      6  C   UNL     1     -10.686  55.147  48.689  0.00  0.00    +0.000 A 
ATOM      7  C   UNL     1     -11.986  55.504  49.085  0.00  0.00    +0.000 A 
ATOM      8  C   UNL     1     -10.329  55.240  47.332  0.00  0.00    +0.000 A 
ATOM      9  C   UNL     1     -12.900  55.938  48.111  0.00  0.00    +0.000 A 
ATOM     10  C   UNL     1     -11.238  55.696  46.381  0.00  0.00    +0.000 A 
ATOM     11  C   UNL     1     -12.524  56.044  46.770  0.00  0.00    +0.000 A 
ENDROOT
BRANCH   1  17
ATOM     12  S   UNL     1      -6.711  54.525  53.103  0.00  0.00    +0.000 S 
ATOM     13  O   UNL     1      -6.605  55.573  54.100  0.00  0.00    +0.000 OA
ATOM     14  O   UNL     1      -5.551  54.144  52.317  0.00  0.00    +0.000 OA
ATOM     15  N   UNL     1      -7.894  54.938  52.076  0.00  0.00    +0.000 N 
ATOM     16  C   UNL     1      -7.202  53.077  53.965  0.00  0.00    +0.000 A 
ATOM     17  C   UNL     1      -9.019  54.287  52.054  0.00  0.00    +0.000 C 
ATOM     18  C   UNL     1      -8.483  52.598  53.746  0.00  0.00    +0.000 A 
ATOM     19  C   UNL     1      -6.309  52.437  54.829  0.00  0.00    +0.000 A 
ATOM     20  N   UNL     1      -9.367  53.251  52.892  0.00  0.00    +0.000 N 
ATOM     21  C   UNL     1      -8.906  51.482  54.477  0.00  0.00    +0.000 A 
ATOM     22  C   UNL     1      -6.730  51.305  55.523  0.00  0.00    +0.000 A 
ATOM     23  C   UNL     1      -8.033  50.834  55.356  0.00  0.00    +0.000 A 
ATOM     24  H   UNL     1      -7.758  55.692  51.458  0.00  0.00    +0.000 HD
ATOM     25  H   UNL     1     -10.305  52.951  52.886  0.00  0.00    +0.000 HD
ENDBRANCH   1  17
BRANCH   3  26
ATOM     26  O   UNL     1      -8.498  54.264  49.185  0.00  0.00    +0.000 OA
ATOM     27  H   UNL     1      -8.049  53.545  49.583  0.00  0.00    +0.000 HD
ENDBRANCH   3  26
BRANCH   5  28
ATOM     28  C   UNL     1     -13.681  55.741  50.931  0.00  0.00    +0.000 C 
BRANCH  28  29
ATOM     29  C   UNL     1     -13.920  57.173  51.328  0.00  0.00    +0.000 C 
ATOM     30  C   UNL     1     -14.585  57.647  52.396  0.00  0.00    +0.000 C 
ATOM     31  C   UNL     1     -14.777  59.105  52.668  0.00  0.00    +0.000 C 
ENDBRANCH  28  29
ENDBRANCH   5  28
TORSDOF 4
ENDMDL
MODEL 4
REMARK VINA RESULT:      -7.8      3.317      5.103
REMARK  Name = 338124
REMARK  5 active torsions:
REMARK  status: ('A' for Active; 'I' for Inactive)
REMARK    1  A    between atoms: C_6  and  C_10
REMARK    2  A    between atoms: C_14  and  O_18
REMARK    3  A    between atoms: N_17  and  C_21
REMARK    4  A    between atoms: C_21  and  C_24
REMARK    5  A    between atoms: C_27  and  C_28
REMARK                            x       y       z     vdW  Elec       q    Type
REMARK                         _______ _______ _______ _____ _____    ______ ____
ROOT
ATOM      1  C   UNL     1     -11.700  55.765  48.735  0.00  0.00    +0.000 A 
ATOM      2  C   UNL     1     -10.739  55.016  49.601  0.00  0.00    +0.000 A 
ATOM      3  C   UNL     1     -11.769  55.494  47.420  0.00  0.00    +0.000 A 
ATOM      4  O   UNL     1     -10.787  55.196  50.822  0.00  0.00    +0.000 OA
ATOM      5  N   UNL     1      -9.826  54.167  48.996  0.00  0.00    +0.000 N 
ATOM      6  C   UNL     1     -10.911  54.456  46.827  0.00  0.00    +0.000 A 
ATOM      7  C   UNL     1      -9.931  53.826  47.612  0.00  0.00    +0.000 A 
ATOM      8  C   UNL     1     -11.062  54.082  45.481  0.00  0.00    +0.000 A 
ATOM      9  C   UNL     1      -9.118  52.841  47.027  0.00  0.00    +0.000 A 
ATOM     10  C   UNL     1     -10.265  53.085  44.921  0.00  0.00    +0.000 A 
ATOM     11  C   UNL     1      -9.293  52.465  45.694  0.00  0.00    +0.000 A 
ENDROOT
BRANCH   1  17
ATOM     12  S   UNL     1     -13.540  59.165  49.433  0.00  0.00    +0.000 S 
ATOM     13  O   UNL     1     -14.679  59.390  48.564  0.00  0.00    +0.000 OA
ATOM     14  O   UNL     1     -12.634  60.255  49.748  0.00  0.00    +0.000 OA
ATOM     15  N   UNL     1     -12.664  57.959  48.798  0.00  0.00    +0.000 N 
ATOM     16  C   UNL     1     -14.195  58.627  50.970  0.00  0.00    +0.000 A 
ATOM     17  C   UNL     1     -12.611  56.795  49.375  0.00  0.00    +0.000 C 
ATOM     18  C   UNL     1     -13.984  57.309  51.337  0.00  0.00    +0.000 A 
ATOM     19  C   UNL     1     -14.893  59.521  51.788  0.00  0.00    +0.000 A 
ATOM     20  N   UNL     1     -13.297  56.425  50.509  0.00  0.00    +0.000 N 
ATOM     21  C   UNL     1     -14.557  56.854  52.530  0.00  0.00    +0.000 A 
ATOM     22  C   UNL     1     -15.427  59.065  52.991  0.00  0.00    +0.000 A 
ATOM     23  C   UNL     1     -15.269  57.728  53.357  0.00  0.00    +0.000 A 
ATOM     24  H   UNL     1     -12.164  58.110  47.964  0.00  0.00    +0.000 HD
ATOM     25  H   UNL     1     -13.303  55.471  50.752  0.00  0.00    +0.000 HD
ENDBRANCH   1  17
BRANCH   3  26
ATOM     26  O   UNL     1     -12.632  56.120  46.537  0.00  0.00    +0.000 OA
ATOM     27  H   UNL     1     -12.905  55.679  45.758  0.00  0.00    +0.000 HD
ENDBRANCH   3  26
BRANCH   5  28
ATOM     28  C   UNL     1      -8.769  53.611  49.836  0.00  0.00    +0.000 C 
BRANCH  28  29
ATOM     29  C   UNL     1      -7.507  54.433  49.863  0.00  0.00    +0.000 C 
ATOM     30  C   UNL     1      -6.337  54.192  49.249  0.00  0.00    +0.000 C 
ATOM     31  C   UNL     1      -5.140  55.079  49.376  0.00  0.00    +0.000 C 
ENDBRANCH  28  29
ENDBRANCH   5  28
TORSDOF 4
ENDMDL
MODEL 5
REMARK VINA RESULT:      -7.7      4.356      7.310
REMARK  Name = 338124
REMARK  5 active torsions:
REMARK  status: ('A' for Active; 'I' for Inactive)
REMARK    1  A    between atoms: C_6  and  C_10
REMARK    2  A    between atoms: C_14  and  O_18
REMARK    3  A    between atoms: N_17  and  C_21
REMARK    4  A    between atoms: C_21  and  C_24
REMARK    5  A    between atoms: C_27  and  C_28
REMARK                            x       y       z     vdW  Elec       q    Type
REMARK                         _______ _______ _______ _____ _____    ______ ____
ROOT
ATOM      1  C   UNL     1     -10.976  54.739  48.420  0.00  0.00    +0.000 A 
ATOM      2  C   UNL     1     -10.590  54.356  49.813  0.00  0.00    +0.000 A 
ATOM      3  C   UNL     1     -11.972  55.619  48.217  0.00  0.00    +0.000 A 
ATOM      4  O   UNL     1      -9.592  53.647  49.972  0.00  0.00    +0.000 OA
ATOM      5  N   UNL     1     -11.380  54.800  50.862  0.00  0.00    +0.000 N 
ATOM      6  C   UNL     1     -12.681  56.217  49.359  0.00  0.00    +0.000 A 
ATOM      7  C   UNL     1     -12.399  55.781  50.665  0.00  0.00    +0.000 A 
ATOM      8  C   UNL     1     -13.639  57.227  49.161  0.00  0.00    +0.000 A 
ATOM      9  C   UNL     1     -13.090  56.362  51.741  0.00  0.00    +0.000 A 
ATOM     10  C   UNL     1     -14.298  57.811  50.240  0.00  0.00    +0.000 A 
ATOM     11  C   UNL     1     -14.024  57.378  51.530  0.00  0.00    +0.000 A 
ENDROOT
BRANCH   1  17
ATOM     12  S   UNL     1      -8.063  54.054  45.874  0.00  0.00    +0.000 S 
ATOM     13  O   UNL     1      -7.045  53.162  46.394  0.00  0.00    +0.000 OA
ATOM     14  O   UNL     1      -7.686  55.226  45.104  0.00  0.00    +0.000 OA
ATOM     15  N   UNL     1      -8.969  54.551  47.122  0.00  0.00    +0.000 N 
ATOM     16  C   UNL     1      -9.067  53.084  44.810  0.00  0.00    +0.000 A 
ATOM     17  C   UNL     1     -10.198  54.149  47.259  0.00  0.00    +0.000 C 
ATOM     18  C   UNL     1     -10.360  52.805  45.219  0.00  0.00    +0.000 A 
ATOM     19  C   UNL     1      -8.561  52.629  43.588  0.00  0.00    +0.000 A 
ATOM     20  N   UNL     1     -10.849  53.253  46.443  0.00  0.00    +0.000 N 
ATOM     21  C   UNL     1     -11.146  51.978  44.408  0.00  0.00    +0.000 A 
ATOM     22  C   UNL     1      -9.367  51.839  42.773  0.00  0.00    +0.000 A 
ATOM     23  C   UNL     1     -10.656  51.503  43.188  0.00  0.00    +0.000 A 
ATOM     24  H   UNL     1      -8.583  55.167  47.786  0.00  0.00    +0.000 HD
ATOM     25  H   UNL     1     -11.719  52.904  46.744  0.00  0.00    +0.000 HD
ENDBRANCH   1  17
BRANCH   3  26
ATOM     26  O   UNL     1     -12.394  56.047  46.971  0.00  0.00    +0.000 OA
ATOM     27  H   UNL     1     -12.463  56.963  46.789  0.00  0.00    +0.000 HD
ENDBRANCH   3  26
BRANCH   5  28
ATOM     28  C   UNL     1     -11.108  54.246  52.186  0.00  0.00    +0.000 C 
BRANCH  28  29
ATOM     29  C   UNL     1     -10.057  54.994  52.962  0.00  0.00    +0.000 C 
ATOM     30  C   UNL     1      -8.849  54.565  53.367  0.00  0.00    +0.000 C 
ATOM     31  C   UNL     1      -7.899  55.402  54.161  0.00  0.00    +0.000 C 
ENDBRANCH  28  29
ENDBRANCH   5  28
TORSDOF 4
ENDMDL
MODEL 6
REMARK VINA RESULT:      -7.7      1.997      2.570
REMARK  Name = 338124
REMARK  5 active torsions:
REMARK  status: ('A' for Active; 'I' for Inactive)
REMARK    1  A    between atoms: C_6  and  C_10
REMARK    2  A    between atoms: C_14  and  O_18
REMARK    3  A    between atoms: N_17  and  C_21
REMARK    4  A    between atoms: C_21  and  C_24
REMARK    5  A    between atoms: C_27  and  C_28
REMARK                            x       y       z     vdW  Elec       q    Type
REMARK                         _______ _______ _______ _____ _____    ______ ____
ROOT
ATOM      1  C   UNL     1     -11.481  54.025  51.303  0.00  0.00    +0.000 A 
ATOM      2  C   UNL     1     -10.486  54.142  52.412  0.00  0.00    +0.000 A 
ATOM      3  C   UNL     1     -11.608  52.865  50.635  0.00  0.00    +0.000 A 
ATOM      4  O   UNL     1     -10.481  55.175  53.089  0.00  0.00    +0.000 OA
ATOM      5  N   UNL     1      -9.603  53.095  52.621  0.00  0.00    +0.000 N 
ATOM      6  C   UNL     1     -10.780  51.704  50.995  0.00  0.00    +0.000 A 
ATOM      7  C   UNL     1      -9.768  51.838  51.961  0.00  0.00    +0.000 A 
ATOM      8  C   UNL     1     -10.990  50.454  50.386  0.00  0.00    +0.000 A 
ATOM      9  C   UNL     1      -8.985  50.719  52.288  0.00  0.00    +0.000 A 
ATOM     10  C   UNL     1     -10.221  49.347  50.739  0.00  0.00    +0.000 A 
ATOM     11  C   UNL     1      -9.218  49.480  51.689  0.00  0.00    +0.000 A 
ENDROOT
BRANCH   1  17
ATOM     12  S   UNL     1     -13.149  56.975  49.316  0.00  0.00    +0.000 S 
ATOM     13  O   UNL     1     -14.226  56.544  48.446  0.00  0.00    +0.000 OA
ATOM     14  O   UNL     1     -12.196  57.973  48.861  0.00  0.00    +0.000 OA
ATOM     15  N   UNL     1     -12.315  55.658  49.760  0.00  0.00    +0.000 N 
ATOM     16  C   UNL     1     -13.912  57.657  50.742  0.00  0.00    +0.000 A 
ATOM     17  C   UNL     1     -12.361  55.217  50.982  0.00  0.00    +0.000 C 
ATOM     18  C   UNL     1     -13.799  56.958  51.932  0.00  0.00    +0.000 A 
ATOM     19  C   UNL     1     -14.596  58.873  50.659  0.00  0.00    +0.000 A 
ATOM     20  N   UNL     1     -13.125  55.742  52.000  0.00  0.00    +0.000 N 
ATOM     21  C   UNL     1     -14.459  57.460  53.059  0.00  0.00    +0.000 A 
ATOM     22  C   UNL     1     -15.217  59.381  51.797  0.00  0.00    +0.000 A 
ATOM     23  C   UNL     1     -15.159  58.669  52.995  0.00  0.00    +0.000 A 
ATOM     24  H   UNL     1     -11.765  55.186  49.094  0.00  0.00    +0.000 HD
ATOM     25  H   UNL     1     -13.201  55.222  52.832  0.00  0.00    +0.000 HD
ENDBRANCH   1  17
BRANCH   3  26
ATOM     26  O   UNL     1     -12.506  52.651  49.605  0.00  0.00    +0.000 OA
ATOM     27  H   UNL     1     -13.042  51.882  49.603  0.00  0.00    +0.000 HD
ENDBRANCH   3  26
BRANCH   5  28
ATOM     28  C   UNL     1      -8.512  53.317  53.566  0.00  0.00    +0.000 C 
BRANCH  28  29
ATOM     29  C   UNL     1      -7.286  53.943  52.955  0.00  0.00    +0.000 C 
ATOM     30  C   UNL     1      -6.713  53.679  51.768  0.00  0.00    +0.000 C 
ATOM     31  C   UNL     1      -5.472  54.356  51.282  0.00  0.00    +0.000 C 
ENDBRANCH  28  29
ENDBRANCH   5  28
TORSDOF 4
ENDMDL
MODEL 7
REMARK VINA RESULT:      -7.6      3.248      7.178
REMARK  Name = 338124
REMARK  5 active torsions:
REMARK  status: ('A' for Active; 'I' for Inactive)
REMARK    1  A    between atoms: C_6  and  C_10
REMARK    2  A    between atoms: C_14  and  O_18
REMARK    3  A    between atoms: N_17  and  C_21
REMARK    4  A    between atoms: C_21  and  C_24
REMARK    5  A    between atoms: C_27  and  C_28
REMARK                            x       y       z     vdW  Elec       q    Type
REMARK                         _______ _______ _______ _____ _____    ______ ____
ROOT
ATOM      1  C   UNL     1     -10.496  54.754  50.531  0.00  0.00    +0.000 A 
ATOM      2  C   UNL     1     -10.186  54.685  49.070  0.00  0.00    +0.000 A 
ATOM      3  C   UNL     1     -11.619  55.361  50.952  0.00  0.00    +0.000 A 
ATOM      4  O   UNL     1      -9.216  54.013  48.706  0.00  0.00    +0.000 OA
ATOM      5  N   UNL     1     -10.989  55.394  48.191  0.00  0.00    +0.000 N 
ATOM      6  C   UNL     1     -12.553  55.954  49.982  0.00  0.00    +0.000 A 
ATOM      7  C   UNL     1     -12.215  55.990  48.618  0.00  0.00    +0.000 A 
ATOM      8  C   UNL     1     -13.785  56.483  50.401  0.00  0.00    +0.000 A 
ATOM      9  C   UNL     1     -13.119  56.564  47.708  0.00  0.00    +0.000 A 
ATOM     10  C   UNL     1     -14.682  57.026  49.484  0.00  0.00    +0.000 A 
ATOM     11  C   UNL     1     -14.348  57.067  48.137  0.00  0.00    +0.000 A 
ENDROOT
BRANCH   1  17
ATOM     12  S   UNL     1      -8.974  52.122  53.020  0.00  0.00    +0.000 S 
ATOM     13  O   UNL     1      -8.298  51.026  52.353  0.00  0.00    +0.000 OA
ATOM     14  O   UNL     1      -9.817  51.868  54.174  0.00  0.00    +0.000 OA
ATOM     15  N   UNL     1      -9.867  52.899  51.913  0.00  0.00    +0.000 N 
ATOM     16  C   UNL     1      -7.713  53.208  53.578  0.00  0.00    +0.000 A 
ATOM     17  C   UNL     1      -9.545  54.092  51.511  0.00  0.00    +0.000 C 
ATOM     18  C   UNL     1      -7.597  54.439  52.954  0.00  0.00    +0.000 A 
ATOM     19  C   UNL     1      -6.872  52.828  54.628  0.00  0.00    +0.000 A 
ATOM     20  N   UNL     1      -8.433  54.802  51.902  0.00  0.00    +0.000 N 
ATOM     21  C   UNL     1      -6.555  55.285  53.349  0.00  0.00    +0.000 A 
ATOM     22  C   UNL     1      -5.861  53.695  55.036  0.00  0.00    +0.000 A 
ATOM     23  C   UNL     1      -5.694  54.919  54.389  0.00  0.00    +0.000 A 
ATOM     24  H   UNL     1     -10.666  52.460  51.541  0.00  0.00    +0.000 HD
ATOM     25  H   UNL     1      -8.213  55.623  51.404  0.00  0.00    +0.000 HD
ENDBRANCH   1  17
BRANCH   3  26
ATOM     26  O   UNL     1     -12.001  55.466  52.277  0.00  0.00    +0.000 OA
ATOM     27  H   UNL     1     -11.375  55.720  52.926  0.00  0.00    +0.000 HD
ENDBRANCH   3  26
BRANCH   5  28
ATOM     28  C   UNL     1     -10.547  55.482  46.802  0.00  0.00    +0.000 C 
BRANCH  28  29
ATOM     29  C   UNL     1     -11.045  54.364  45.925  0.00  0.00    +0.000 C 
ATOM     30  C   UNL     1     -10.339  53.551  45.121  0.00  0.00    +0.000 C 
ATOM     31  C   UNL     1     -10.959  52.487  44.274  0.00  0.00    +0.000 C 
ENDBRANCH  28  29
ENDBRANCH   5  28
TORSDOF 4
ENDMDL
MODEL 8
REMARK VINA RESULT:      -7.6      3.495      5.288
REMARK  Name = 338124
REMARK  5 active torsions:
REMARK  status: ('A' for Active; 'I' for Inactive)
REMARK    1  A    between atoms: C_6  and  C_10
REMARK    2  A    between atoms: C_14  and  O_18
REMARK    3  A    between atoms: N_17  and  C_21
REMARK    4  A    between atoms: C_21  and  C_24
REMARK    5  A    between atoms: C_27  and  C_28
REMARK                            x       y       z     vdW  Elec       q    Type
REMARK                         _______ _______ _______ _____ _____    ______ ____
ROOT
ATOM      1  C   UNL     1     -11.633  54.890  48.635  0.00  0.00    +0.000 A 
ATOM      2  C   UNL     1     -10.743  54.003  49.444  0.00  0.00    +0.000 A 
ATOM      3  C   UNL     1     -11.601  54.829  47.292  0.00  0.00    +0.000 A 
ATOM      4  O   UNL     1     -10.885  53.989  50.671  0.00  0.00    +0.000 OA
ATOM      5  N   UNL     1      -9.786  53.248  48.784  0.00  0.00    +0.000 N 
ATOM      6  C   UNL     1     -10.700  53.886  46.612  0.00  0.00    +0.000 A 
ATOM      7  C   UNL     1      -9.784  53.128  47.361  0.00  0.00    +0.000 A 
ATOM      8  C   UNL     1     -10.746  53.729  45.215  0.00  0.00    +0.000 A 
ATOM      9  C   UNL     1      -8.929  52.237  46.691  0.00  0.00    +0.000 A 
ATOM     10  C   UNL     1      -9.910  52.822  44.568  0.00  0.00    +0.000 A 
ATOM     11  C   UNL     1      -9.001  52.077  45.306  0.00  0.00    +0.000 A 
ENDROOT
BRANCH   1  17
ATOM     12  S   UNL     1     -14.653  56.137  50.817  0.00  0.00    +0.000 S 
ATOM     13  O   UNL     1     -14.403  56.055  52.243  0.00  0.00    +0.000 OA
ATOM     14  O   UNL     1     -15.947  55.757  50.278  0.00  0.00    +0.000 OA
ATOM     15  N   UNL     1     -13.523  55.252  50.065  0.00  0.00    +0.000 N 
ATOM     16  C   UNL     1     -14.425  57.821  50.376  0.00  0.00    +0.000 A 
ATOM     17  C   UNL     1     -12.591  55.818  49.357  0.00  0.00    +0.000 C 
ATOM     18  C   UNL     1     -13.324  58.142  49.601  0.00  0.00    +0.000 A 
ATOM     19  C   UNL     1     -15.346  58.787  50.793  0.00  0.00    +0.000 A 
ATOM     20  N   UNL     1     -12.408  57.174  49.202  0.00  0.00    +0.000 N 
ATOM     21  C   UNL     1     -13.099  59.490  49.299  0.00  0.00    +0.000 A 
ATOM     22  C   UNL     1     -15.130  60.120  50.454  0.00  0.00    +0.000 A 
ATOM     23  C   UNL     1     -14.000  60.474  49.717  0.00  0.00    +0.000 A 
ATOM     24  H   UNL     1     -13.543  54.271  50.145  0.00  0.00    +0.000 HD
ATOM     25  H   UNL     1     -11.573  57.479  48.779  0.00  0.00    +0.000 HD
ENDBRANCH   1  17
BRANCH   3  26
ATOM     26  O   UNL     1     -12.392  55.596  46.456  0.00  0.00    +0.000 OA
ATOM     27  H   UNL     1     -12.535  55.327  45.571  0.00  0.00    +0.000 HD
ENDBRANCH   3  26
BRANCH   5  28
ATOM     28  C   UNL     1      -8.797  52.553  49.605  0.00  0.00    +0.000 C 
BRANCH  28  29
ATOM     29  C   UNL     1      -7.550  53.353  49.874  0.00  0.00    +0.000 C 
ATOM     30  C   UNL     1      -7.149  54.499  49.298  0.00  0.00    +0.000 C 
ATOM     31  C   UNL     1      -5.866  55.187  49.636  0.00  0.00    +0.000 C 
ENDBRANCH  28  29
ENDBRANCH   5  28
TORSDOF 4
ENDMDL
MODEL 9
REMARK VINA RESULT:      -7.5      2.637      7.803
REMARK  Name = 338124
REMARK  5 active torsions:
REMARK  status: ('A' for Active; 'I' for Inactive)
REMARK    1  A    between atoms: C_6  and  C_10
REMARK    2  A    between atoms: C_14  and  O_18
REMARK    3  A    between atoms: N_17  and  C_21
REMARK    4  A    between atoms: C_21  and  C_24
REMARK    5  A    between atoms: C_27  and  C_28
REMARK                            x       y       z     vdW  Elec       q    Type
REMARK                         _______ _______ _______ _____ _____    ______ ____
ROOT
ATOM      1  C   UNL     1     -10.265  55.143  50.393  0.00  0.00    +0.000 A 
ATOM      2  C   UNL     1     -11.339  55.432  51.392  0.00  0.00    +0.000 A 
ATOM      3  C   UNL     1     -10.482  55.376  49.087  0.00  0.00    +0.000 A 
ATOM      4  O   UNL     1     -11.068  55.329  52.592  0.00  0.00    +0.000 OA
ATOM      5  N   UNL     1     -12.596  55.786  50.926  0.00  0.00    +0.000 N 
ATOM      6  C   UNL     1     -11.768  55.925  48.633  0.00  0.00    +0.000 A 
ATOM      7  C   UNL     1     -12.820  56.096  49.550  0.00  0.00    +0.000 A 
ATOM      8  C   UNL     1     -11.961  56.286  47.288  0.00  0.00    +0.000 A 
ATOM      9  C   UNL     1     -14.042  56.618  49.095  0.00  0.00    +0.000 A 
ATOM     10  C   UNL     1     -13.171  56.826  46.857  0.00  0.00    +0.000 A 
ATOM     11  C   UNL     1     -14.212  56.991  47.761  0.00  0.00    +0.000 A 
ENDROOT
BRANCH   1  17
ATOM     12  S   UNL     1      -7.064  52.894  50.763  0.00  0.00    +0.000 S 
ATOM     13  O   UNL     1      -6.054  53.165  49.758  0.00  0.00    +0.000 OA
ATOM     14  O   UNL     1      -7.364  51.527  51.149  0.00  0.00    +0.000 OA
ATOM     15  N   UNL     1      -8.446  53.586  50.274  0.00  0.00    +0.000 N 
ATOM     16  C   UNL     1      -6.527  53.699  52.227  0.00  0.00    +0.000 A 
ATOM     17  C   UNL     1      -8.928  54.626  50.888  0.00  0.00    +0.000 C 
ATOM     18  C   UNL     1      -7.243  54.804  52.657  0.00  0.00    +0.000 A 
ATOM     19  C   UNL     1      -5.418  53.216  52.929  0.00  0.00    +0.000 A 
ATOM     20  N   UNL     1      -8.339  55.283  51.944  0.00  0.00    +0.000 N 
ATOM     21  C   UNL     1      -6.784  55.491  53.787  0.00  0.00    +0.000 A 
ATOM     22  C   UNL     1      -4.995  53.887  54.073  0.00  0.00    +0.000 A 
ATOM     23  C   UNL     1      -5.670  55.032  54.496  0.00  0.00    +0.000 A 
ATOM     24  H   UNL     1      -8.927  53.213  49.501  0.00  0.00    +0.000 HD
ATOM     25  H   UNL     1      -8.717  56.151  52.214  0.00  0.00    +0.000 HD
ENDBRANCH   1  17
BRANCH   3  26
ATOM     26  O   UNL     1      -9.550  55.155  48.089  0.00  0.00    +0.000 OA
ATOM     27  H   UNL     1      -9.834  54.942  47.222  0.00  0.00    +0.000 HD
ENDBRANCH   3  26
BRANCH   5  28
ATOM     28  C   UNL     1     -13.677  55.859  51.905  0.00  0.00    +0.000 C 
BRANCH  28  29
ATOM     29  C   UNL     1     -13.959  57.251  52.407  0.00  0.00    +0.000 C 
ATOM     30  C   UNL     1     -15.136  57.896  52.470  0.00  0.00    +0.000 C 
ATOM     31  C   UNL     1     -15.283  59.298  52.969  0.00  0.00    +0.000 C 
ENDBRANCH  28  29
ENDBRANCH   5  28
TORSDOF 4
ENDMDL
