MODEL 1
REMARK VINA RESULT:      -8.0      0.000      0.000
REMARK  Name = 338299
REMARK  5 active torsions:
REMARK  status: ('A' for Active; 'I' for Inactive)
REMARK    1  A    between atoms: C_6  and  C_10
REMARK    2  A    between atoms: C_14  and  O_18
REMARK    3  A    between atoms: N_17  and  C_21
REMARK    4  A    between atoms: C_21  and  C_24
REMARK    5  A    between atoms: C_24  and  O_27
REMARK                            x       y       z     vdW  Elec       q    Type
REMARK                         _______ _______ _______ _____ _____    ______ ____
ROOT
ATOM      1  C   UNL     1     -10.171  54.273  52.391  0.00  0.00    +0.000 A 
ATOM      2  C   UNL     1      -8.761  54.775  52.352  0.00  0.00    +0.000 A 
ATOM      3  C   UNL     1     -10.468  53.179  53.114  0.00  0.00    +0.000 A 
ATOM      4  O   UNL     1      -8.527  55.848  51.790  0.00  0.00    +0.000 OA
ATOM      5  N   UNL     1      -7.766  54.015  52.954  0.00  0.00    +0.000 N 
ATOM      6  C   UNL     1      -9.423  52.467  53.862  0.00  0.00    +0.000 A 
ATOM      7  C   UNL     1      -8.082  52.879  53.757  0.00  0.00    +0.000 A 
ATOM      8  C   UNL     1      -9.749  51.375  54.685  0.00  0.00    +0.000 A 
ATOM      9  C   UNL     1      -7.103  52.179  54.481  0.00  0.00    +0.000 A 
ATOM     10  C   UNL     1      -8.769  50.708  55.414  0.00  0.00    +0.000 A 
ATOM     11  C   UNL     1      -7.445  51.113  55.313  0.00  0.00    +0.000 A 
ENDROOT
BRANCH   1  17
ATOM     12  S   UNL     1     -12.287  55.850  49.477  0.00  0.00    +0.000 S 
ATOM     13  O   UNL     1     -13.161  54.888  48.841  0.00  0.00    +0.000 OA
ATOM     14  O   UNL     1     -11.557  56.819  48.678  0.00  0.00    +0.000 OA
ATOM     15  N   UNL     1     -11.211  55.027  50.366  0.00  0.00    +0.000 N 
ATOM     16  C   UNL     1     -13.300  56.789  50.561  0.00  0.00    +0.000 A 
ATOM     17  C   UNL     1     -11.258  55.044  51.666  0.00  0.00    +0.000 C 
ATOM     18  C   UNL     1     -13.130  56.607  51.924  0.00  0.00    +0.000 A 
ATOM     19  C   UNL     1     -14.234  57.690  50.042  0.00  0.00    +0.000 A 
ATOM     20  N   UNL     1     -12.199  55.702  52.426  0.00  0.00    +0.000 N 
ATOM     21  C   UNL     1     -13.977  57.302  52.792  0.00  0.00    +0.000 A 
ATOM     22  C   UNL     1     -15.045  58.405  50.921  0.00  0.00    +0.000 A 
ATOM     23  C   UNL     1     -14.923  58.203  52.296  0.00  0.00    +0.000 A 
ATOM     24  H   UNL     1     -10.509  54.506  49.914  0.00  0.00    +0.000 HD
ATOM     25  H   UNL     1     -12.214  55.521  53.393  0.00  0.00    +0.000 HD
ENDBRANCH   1  17
BRANCH   3  26
ATOM     26  O   UNL     1     -11.742  52.650  53.244  0.00  0.00    +0.000 OA
ATOM     27  H   UNL     1     -12.029  52.316  54.071  0.00  0.00    +0.000 HD
ENDBRANCH   3  26
BRANCH   5  28
ATOM     28  C   UNL     1      -6.374  54.443  52.753  0.00  0.00    +0.000 C 
BRANCH  28  29
ATOM     29  C   UNL     1      -5.876  55.454  53.793  0.00  0.00    +0.000 C 
BRANCH  29  30
ATOM     30  O   UNL     1      -6.287  56.785  53.500  0.00  0.00    +0.000 OA
ATOM     31  H   UNL     1      -5.510  57.323  53.284  0.00  0.00    +0.000 HD
ENDBRANCH  29  30
ENDBRANCH  28  29
ENDBRANCH   5  28
TORSDOF 5
ENDMDL
MODEL 2
REMARK VINA RESULT:      -7.9      3.705      5.295
REMARK  Name = 338299
REMARK  5 active torsions:
REMARK  status: ('A' for Active; 'I' for Inactive)
REMARK    1  A    between atoms: C_6  and  C_10
REMARK    2  A    between atoms: C_14  and  O_18
REMARK    3  A    between atoms: N_17  and  C_21
REMARK    4  A    between atoms: C_21  and  C_24
REMARK    5  A    between atoms: C_24  and  O_27
REMARK                            x       y       z     vdW  Elec       q    Type
REMARK                         _______ _______ _______ _____ _____    ______ ____
ROOT
ATOM      1  C   UNL     1     -11.368  56.123  48.803  0.00  0.00    +0.000 A 
ATOM      2  C   UNL     1     -10.223  55.613  49.621  0.00  0.00    +0.000 A 
ATOM      3  C   UNL     1     -11.518  55.707  47.533  0.00  0.00    +0.000 A 
ATOM      4  O   UNL     1     -10.171  55.905  50.819  0.00  0.00    +0.000 OA
ATOM      5  N   UNL     1      -9.261  54.826  49.002  0.00  0.00    +0.000 N 
ATOM      6  C   UNL     1     -10.566  54.759  46.938  0.00  0.00    +0.000 A 
ATOM      7  C   UNL     1      -9.437  54.346  47.670  0.00  0.00    +0.000 A 
ATOM      8  C   UNL     1     -10.770  54.258  45.641  0.00  0.00    +0.000 A 
ATOM      9  C   UNL     1      -8.543  53.441  47.076  0.00  0.00    +0.000 A 
ATOM     10  C   UNL     1      -9.885  53.343  45.077  0.00  0.00    +0.000 A 
ATOM     11  C   UNL     1      -8.771  52.933  45.797  0.00  0.00    +0.000 A 
ENDROOT
BRANCH   1  17
ATOM     12  S   UNL     1     -13.570  59.312  49.470  0.00  0.00    +0.000 S 
ATOM     13  O   UNL     1     -14.710  59.396  48.581  0.00  0.00    +0.000 OA
ATOM     14  O   UNL     1     -12.801  60.501  49.791  0.00  0.00    +0.000 OA
ATOM     15  N   UNL     1     -12.551  58.210  48.861  0.00  0.00    +0.000 N 
ATOM     16  C   UNL     1     -14.187  58.712  51.000  0.00  0.00    +0.000 A 
ATOM     17  C   UNL     1     -12.383  57.056  49.439  0.00  0.00    +0.000 C 
ATOM     18  C   UNL     1     -13.838  57.425  51.377  0.00  0.00    +0.000 A 
ATOM     19  C   UNL     1     -14.993  59.528  51.799  0.00  0.00    +0.000 A 
ATOM     20  N   UNL     1     -13.037  56.622  50.570  0.00  0.00    +0.000 N 
ATOM     21  C   UNL     1     -14.377  56.917  52.563  0.00  0.00    +0.000 A 
ATOM     22  C   UNL     1     -15.492  59.021  52.996  0.00  0.00    +0.000 A 
ATOM     23  C   UNL     1     -15.193  57.712  53.373  0.00  0.00    +0.000 A 
ATOM     24  H   UNL     1     -12.049  58.417  48.040  0.00  0.00    +0.000 HD
ATOM     25  H   UNL     1     -12.931  55.678  50.826  0.00  0.00    +0.000 HD
ENDBRANCH   1  17
BRANCH   3  26
ATOM     26  O   UNL     1     -12.557  56.090  46.702  0.00  0.00    +0.000 OA
ATOM     27  H   UNL     1     -12.456  56.831  46.138  0.00  0.00    +0.000 HD
ENDBRANCH   3  26
BRANCH   5  28
ATOM     28  C   UNL     1      -8.064  54.481  49.783  0.00  0.00    +0.000 C 
BRANCH  28  29
ATOM     29  C   UNL     1      -6.972  55.557  49.760  0.00  0.00    +0.000 C 
BRANCH  29  30
ATOM     30  O   UNL     1      -6.138  55.462  48.610  0.00  0.00    +0.000 OA
ATOM     31  H   UNL     1      -6.673  55.207  47.843  0.00  0.00    +0.000 HD
ENDBRANCH  29  30
ENDBRANCH  28  29
ENDBRANCH   5  28
TORSDOF 5
ENDMDL
MODEL 3
REMARK VINA RESULT:      -7.7      4.979      7.569
REMARK  Name = 338299
REMARK  5 active torsions:
REMARK  status: ('A' for Active; 'I' for Inactive)
REMARK    1  A    between atoms: C_6  and  C_10
REMARK    2  A    between atoms: C_14  and  O_18
REMARK    3  A    between atoms: N_17  and  C_21
REMARK    4  A    between atoms: C_21  and  C_24
REMARK    5  A    between atoms: C_24  and  O_27
REMARK                            x       y       z     vdW  Elec       q    Type
REMARK                         _______ _______ _______ _____ _____    ______ ____
ROOT
ATOM      1  C   UNL     1     -12.758  56.191  49.222  0.00  0.00    +0.000 A 
ATOM      2  C   UNL     1     -13.461  57.282  48.476  0.00  0.00    +0.000 A 
ATOM      3  C   UNL     1     -12.876  56.115  50.559  0.00  0.00    +0.000 A 
ATOM      4  O   UNL     1     -13.445  57.265  47.242  0.00  0.00    +0.000 OA
ATOM      5  N   UNL     1     -14.109  58.274  49.200  0.00  0.00    +0.000 N 
ATOM      6  C   UNL     1     -13.685  57.094  51.297  0.00  0.00    +0.000 A 
ATOM      7  C   UNL     1     -14.274  58.174  50.614  0.00  0.00    +0.000 A 
ATOM      8  C   UNL     1     -13.879  56.964  52.683  0.00  0.00    +0.000 A 
ATOM      9  C   UNL     1     -15.040  59.097  51.345  0.00  0.00    +0.000 A 
ATOM     10  C   UNL     1     -14.661  57.875  53.387  0.00  0.00    +0.000 A 
ATOM     11  C   UNL     1     -15.243  58.942  52.716  0.00  0.00    +0.000 A 
ENDROOT
BRANCH   1  17
ATOM     12  S   UNL     1     -11.568  52.700  47.861  0.00  0.00    +0.000 S 
ATOM     13  O   UNL     1     -12.422  52.194  46.806  0.00  0.00    +0.000 OA
ATOM     14  O   UNL     1     -11.067  51.807  48.891  0.00  0.00    +0.000 OA
ATOM     15  N   UNL     1     -12.355  53.912  48.593  0.00  0.00    +0.000 N 
ATOM     16  C   UNL     1     -10.149  53.359  47.065  0.00  0.00    +0.000 A 
ATOM     17  C   UNL     1     -11.971  55.147  48.451  0.00  0.00    +0.000 C 
ATOM     18  C   UNL     1      -9.986  54.736  47.071  0.00  0.00    +0.000 A 
ATOM     19  C   UNL     1      -9.223  52.504  46.462  0.00  0.00    +0.000 A 
ATOM     20  N   UNL     1     -10.919  55.575  47.673  0.00  0.00    +0.000 N 
ATOM     21  C   UNL     1      -8.893  55.273  46.386  0.00  0.00    +0.000 A 
ATOM     22  C   UNL     1      -8.118  53.052  45.815  0.00  0.00    +0.000 A 
ATOM     23  C   UNL     1      -7.958  54.437  45.768  0.00  0.00    +0.000 A 
ATOM     24  H   UNL     1     -13.136  53.710  49.156  0.00  0.00    +0.000 HD
ATOM     25  H   UNL     1     -10.819  56.544  47.533  0.00  0.00    +0.000 HD
ENDBRANCH   1  17
BRANCH   3  26
ATOM     26  O   UNL     1     -12.296  55.130  51.340  0.00  0.00    +0.000 OA
ATOM     27  H   UNL     1     -11.800  54.444  50.939  0.00  0.00    +0.000 HD
ENDBRANCH   3  26
BRANCH   5  28
ATOM     28  C   UNL     1     -14.643  59.420  48.450  0.00  0.00    +0.000 C 
BRANCH  28  29
ATOM     29  C   UNL     1     -14.320  60.781  49.076  0.00  0.00    +0.000 C 
BRANCH  29  30
ATOM     30  O   UNL     1     -12.930  60.946  49.336  0.00  0.00    +0.000 OA
ATOM     31  H   UNL     1     -12.428  60.789  48.522  0.00  0.00    +0.000 HD
ENDBRANCH  29  30
ENDBRANCH  28  29
ENDBRANCH   5  28
TORSDOF 5
ENDMDL
MODEL 4
REMARK VINA RESULT:      -7.6      3.828      5.426
REMARK  Name = 338299
REMARK  5 active torsions:
REMARK  status: ('A' for Active; 'I' for Inactive)
REMARK    1  A    between atoms: C_6  and  C_10
REMARK    2  A    between atoms: C_14  and  O_18
REMARK    3  A    between atoms: N_17  and  C_21
REMARK    4  A    between atoms: C_21  and  C_24
REMARK    5  A    between atoms: C_24  and  O_27
REMARK                            x       y       z     vdW  Elec       q    Type
REMARK                         _______ _______ _______ _____ _____    ______ ____
ROOT
ATOM      1  C   UNL     1     -10.924  55.463  48.673  0.00  0.00    +0.000 A 
ATOM      2  C   UNL     1      -9.656  54.996  49.317  0.00  0.00    +0.000 A 
ATOM      3  C   UNL     1     -11.179  55.139  47.393  0.00  0.00    +0.000 A 
ATOM      4  O   UNL     1      -9.495  55.193  50.525  0.00  0.00    +0.000 OA
ATOM      5  N   UNL     1      -8.707  54.354  48.533  0.00  0.00    +0.000 N 
ATOM      6  C   UNL     1     -10.224  54.335  46.618  0.00  0.00    +0.000 A 
ATOM      7  C   UNL     1      -8.990  53.971  47.188  0.00  0.00    +0.000 A 
ATOM      8  C   UNL     1     -10.529  53.925  45.309  0.00  0.00    +0.000 A 
ATOM      9  C   UNL     1      -8.095  53.204  46.424  0.00  0.00    +0.000 A 
ATOM     10  C   UNL     1      -9.639  53.145  44.575  0.00  0.00    +0.000 A 
ATOM     11  C   UNL     1      -8.422  52.783  45.135  0.00  0.00    +0.000 A 
ENDROOT
BRANCH   1  17
ATOM     12  S   UNL     1     -13.576  56.332  51.442  0.00  0.00    +0.000 S 
ATOM     13  O   UNL     1     -12.967  56.638  52.718  0.00  0.00    +0.000 OA
ATOM     14  O   UNL     1     -14.779  55.520  51.379  0.00  0.00    +0.000 OA
ATOM     15  N   UNL     1     -12.451  55.625  50.515  0.00  0.00    +0.000 N 
ATOM     16  C   UNL     1     -14.000  57.875  50.720  0.00  0.00    +0.000 A 
ATOM     17  C   UNL     1     -11.935  56.242  49.493  0.00  0.00    +0.000 C 
ATOM     18  C   UNL     1     -13.276  58.292  49.615  0.00  0.00    +0.000 A 
ATOM     19  C   UNL     1     -15.045  58.635  51.254  0.00  0.00    +0.000 A 
ATOM     20  N   UNL     1     -12.235  57.526  49.097  0.00  0.00    +0.000 N 
ATOM     21  C   UNL     1     -13.564  59.548  49.074  0.00  0.00    +0.000 A 
ATOM     22  C   UNL     1     -15.346  59.868  50.680  0.00  0.00    +0.000 A 
ATOM     23  C   UNL     1     -14.599  60.329  49.597  0.00  0.00    +0.000 A 
ATOM     24  H   UNL     1     -12.153  54.712  50.729  0.00  0.00    +0.000 HD
ATOM     25  H   UNL     1     -11.674  57.932  48.397  0.00  0.00    +0.000 HD
ENDBRANCH   1  17
BRANCH   3  26
ATOM     26  O   UNL     1     -12.333  55.491  46.712  0.00  0.00    +0.000 OA
ATOM     27  H   UNL     1     -12.416  56.348  46.344  0.00  0.00    +0.000 HD
ENDBRANCH   3  26
BRANCH   5  28
ATOM     28  C   UNL     1      -7.405  54.060  49.151  0.00  0.00    +0.000 C 
BRANCH  28  29
ATOM     29  C   UNL     1      -6.376  55.187  49.005  0.00  0.00    +0.000 C 
BRANCH  29  30
ATOM     30  O   UNL     1      -6.457  56.139  50.060  0.00  0.00    +0.000 OA
ATOM     31  H   UNL     1      -6.856  55.723  50.840  0.00  0.00    +0.000 HD
ENDBRANCH  29  30
ENDBRANCH  28  29
ENDBRANCH   5  28
TORSDOF 5
ENDMDL
MODEL 5
REMARK VINA RESULT:      -7.6      4.012      5.325
REMARK  Name = 338299
REMARK  5 active torsions:
REMARK  status: ('A' for Active; 'I' for Inactive)
REMARK    1  A    between atoms: C_6  and  C_10
REMARK    2  A    between atoms: C_14  and  O_18
REMARK    3  A    between atoms: N_17  and  C_21
REMARK    4  A    between atoms: C_21  and  C_24
REMARK    5  A    between atoms: C_24  and  O_27
REMARK                            x       y       z     vdW  Elec       q    Type
REMARK                         _______ _______ _______ _____ _____    ______ ____
ROOT
ATOM      1  C   UNL     1     -12.534  54.224  49.651  0.00  0.00    +0.000 A 
ATOM      2  C   UNL     1     -12.012  54.131  48.251  0.00  0.00    +0.000 A 
ATOM      3  C   UNL     1     -12.256  53.247  50.531  0.00  0.00    +0.000 A 
ATOM      4  O   UNL     1     -12.168  55.093  47.493  0.00  0.00    +0.000 OA
ATOM      5  N   UNL     1     -11.366  52.967  47.856  0.00  0.00    +0.000 N 
ATOM      6  C   UNL     1     -11.449  52.085  50.133  0.00  0.00    +0.000 A 
ATOM      7  C   UNL     1     -11.031  51.947  48.796  0.00  0.00    +0.000 A 
ATOM      8  C   UNL     1     -11.086  51.107  51.075  0.00  0.00    +0.000 A 
ATOM      9  C   UNL     1     -10.263  50.827  48.442  0.00  0.00    +0.000 A 
ATOM     10  C   UNL     1     -10.304  50.015  50.711  0.00  0.00    +0.000 A 
ATOM     11  C   UNL     1      -9.890  49.877  49.394  0.00  0.00    +0.000 A 
ENDROOT
BRANCH   1  17
ATOM     12  S   UNL     1     -15.374  56.463  51.193  0.00  0.00    +0.000 S 
ATOM     13  O   UNL     1     -15.273  56.575  52.633  0.00  0.00    +0.000 OA
ATOM     14  O   UNL     1     -16.669  56.290  50.559  0.00  0.00    +0.000 OA
ATOM     15  N   UNL     1     -14.424  55.237  50.726  0.00  0.00    +0.000 N 
ATOM     16  C   UNL     1     -14.716  57.955  50.541  0.00  0.00    +0.000 A 
ATOM     17  C   UNL     1     -13.318  55.452  50.075  0.00  0.00    +0.000 C 
ATOM     18  C   UNL     1     -13.501  57.889  49.877  0.00  0.00    +0.000 A 
ATOM     19  C   UNL     1     -15.418  59.155  50.690  0.00  0.00    +0.000 A 
ATOM     20  N   UNL     1     -12.812  56.688  49.740  0.00  0.00    +0.000 N 
ATOM     21  C   UNL     1     -12.939  59.082  49.411  0.00  0.00    +0.000 A 
ATOM     22  C   UNL     1     -14.863  60.329  50.187  0.00  0.00    +0.000 A 
ATOM     23  C   UNL     1     -13.619  60.294  49.557  0.00  0.00    +0.000 A 
ATOM     24  H   UNL     1     -14.688  54.313  50.937  0.00  0.00    +0.000 HD
ATOM     25  H   UNL     1     -11.898  56.725  49.376  0.00  0.00    +0.000 HD
ENDBRANCH   1  17
BRANCH   3  26
ATOM     26  O   UNL     1     -12.662  53.249  51.856  0.00  0.00    +0.000 OA
ATOM     27  H   UNL     1     -12.140  52.822  52.506  0.00  0.00    +0.000 HD
ENDBRANCH   3  26
BRANCH   5  28
ATOM     28  C   UNL     1     -11.016  52.836  46.434  0.00  0.00    +0.000 C 
BRANCH  28  29
ATOM     29  C   UNL     1     -12.127  52.228  45.571  0.00  0.00    +0.000 C 
BRANCH  29  30
ATOM     30  O   UNL     1     -11.833  52.290  44.179  0.00  0.00    +0.000 OA
ATOM     31  H   UNL     1     -11.082  51.709  43.982  0.00  0.00    +0.000 HD
ENDBRANCH  29  30
ENDBRANCH  28  29
ENDBRANCH   5  28
TORSDOF 5
ENDMDL
MODEL 6
REMARK VINA RESULT:      -7.3      2.074      2.806
REMARK  Name = 338299
REMARK  5 active torsions:
REMARK  status: ('A' for Active; 'I' for Inactive)
REMARK    1  A    between atoms: C_6  and  C_10
REMARK    2  A    between atoms: C_14  and  O_18
REMARK    3  A    between atoms: N_17  and  C_21
REMARK    4  A    between atoms: C_21  and  C_24
REMARK    5  A    between atoms: C_24  and  O_27
REMARK                            x       y       z     vdW  Elec       q    Type
REMARK                         _______ _______ _______ _____ _____    ______ ____
ROOT
ATOM      1  C   UNL     1      -9.104  55.045  51.266  0.00  0.00    +0.000 A 
ATOM      2  C   UNL     1      -7.989  55.400  50.334  0.00  0.00    +0.000 A 
ATOM      3  C   UNL     1      -8.822  54.610  52.506  0.00  0.00    +0.000 A 
ATOM      4  O   UNL     1      -8.263  55.917  49.247  0.00  0.00    +0.000 OA
ATOM      5  N   UNL     1      -6.683  55.138  50.726  0.00  0.00    +0.000 N 
ATOM      6  C   UNL     1      -7.430  54.473  52.955  0.00  0.00    +0.000 A 
ATOM      7  C   UNL     1      -6.377  54.717  52.055  0.00  0.00    +0.000 A 
ATOM      8  C   UNL     1      -7.137  54.099  54.278  0.00  0.00    +0.000 A 
ATOM      9  C   UNL     1      -5.055  54.577  52.509  0.00  0.00    +0.000 A 
ATOM     10  C   UNL     1      -5.821  53.988  54.717  0.00  0.00    +0.000 A 
ATOM     11  C   UNL     1      -4.779  54.229  53.832  0.00  0.00    +0.000 A 
ENDROOT
BRANCH   1  17
ATOM     12  S   UNL     1     -12.301  55.137  48.979  0.00  0.00    +0.000 S 
ATOM     13  O   UNL     1     -12.891  53.828  48.795  0.00  0.00    +0.000 OA
ATOM     14  O   UNL     1     -12.198  56.059  47.861  0.00  0.00    +0.000 OA
ATOM     15  N   UNL     1     -10.815  54.927  49.589  0.00  0.00    +0.000 N 
ATOM     16  C   UNL     1     -13.285  55.951  50.184  0.00  0.00    +0.000 A 
ATOM     17  C   UNL     1     -10.541  55.244  50.821  0.00  0.00    +0.000 C 
ATOM     18  C   UNL     1     -12.729  56.167  51.434  0.00  0.00    +0.000 A 
ATOM     19  C   UNL     1     -14.581  56.367  49.865  0.00  0.00    +0.000 A 
ATOM     20  N   UNL     1     -11.438  55.744  51.738  0.00  0.00    +0.000 N 
ATOM     21  C   UNL     1     -13.528  56.757  52.418  0.00  0.00    +0.000 A 
ATOM     22  C   UNL     1     -15.352  56.988  50.845  0.00  0.00    +0.000 A 
ATOM     23  C   UNL     1     -14.829  57.173  52.124  0.00  0.00    +0.000 A 
ATOM     24  H   UNL     1     -10.106  54.555  49.017  0.00  0.00    +0.000 HD
ATOM     25  H   UNL     1     -11.146  55.807  52.676  0.00  0.00    +0.000 HD
ENDBRANCH   1  17
BRANCH   3  26
ATOM     26  O   UNL     1      -9.776  54.286  53.457  0.00  0.00    +0.000 OA
ATOM     27  H   UNL     1      -9.661  53.529  53.997  0.00  0.00    +0.000 HD
ENDBRANCH   3  26
BRANCH   5  28
ATOM     28  C   UNL     1      -5.623  55.338  49.727  0.00  0.00    +0.000 C 
BRANCH  28  29
ATOM     29  C   UNL     1      -5.521  54.212  48.692  0.00  0.00    +0.000 C 
BRANCH  29  30
ATOM     30  O   UNL     1      -6.130  54.555  47.451  0.00  0.00    +0.000 OA
ATOM     31  H   UNL     1      -5.739  54.023  46.742  0.00  0.00    +0.000 HD
ENDBRANCH  29  30
ENDBRANCH  28  29
ENDBRANCH   5  28
TORSDOF 5
ENDMDL
MODEL 7
REMARK VINA RESULT:      -7.3      2.557      7.414
REMARK  Name = 338299
REMARK  5 active torsions:
REMARK  status: ('A' for Active; 'I' for Inactive)
REMARK    1  A    between atoms: C_6  and  C_10
REMARK    2  A    between atoms: C_14  and  O_18
REMARK    3  A    between atoms: N_17  and  C_21
REMARK    4  A    between atoms: C_21  and  C_24
REMARK    5  A    between atoms: C_24  and  O_27
REMARK                            x       y       z     vdW  Elec       q    Type
REMARK                         _______ _______ _______ _____ _____    ______ ____
ROOT
ATOM      1  C   UNL     1     -10.600  55.116  51.083  0.00  0.00    +0.000 A 
ATOM      2  C   UNL     1     -11.862  55.715  51.622  0.00  0.00    +0.000 A 
ATOM      3  C   UNL     1     -10.399  55.070  49.755  0.00  0.00    +0.000 A 
ATOM      4  O   UNL     1     -11.975  55.865  52.842  0.00  0.00    +0.000 OA
ATOM      5  N   UNL     1     -12.859  56.084  50.729  0.00  0.00    +0.000 N 
ATOM      6  C   UNL     1     -11.407  55.597  48.825  0.00  0.00    +0.000 A 
ATOM      7  C   UNL     1     -12.634  56.078  49.320  0.00  0.00    +0.000 A 
ATOM      8  C   UNL     1     -11.160  55.627  47.441  0.00  0.00    +0.000 A 
ATOM      9  C   UNL     1     -13.580  56.573  48.409  0.00  0.00    +0.000 A 
ATOM     10  C   UNL     1     -12.101  56.144  46.555  0.00  0.00    +0.000 A 
ATOM     11  C   UNL     1     -13.311  56.619  47.041  0.00  0.00    +0.000 A 
ENDROOT
BRANCH   1  17
ATOM     12  S   UNL     1      -7.200  54.869  53.042  0.00  0.00    +0.000 S 
ATOM     13  O   UNL     1      -7.112  55.825  54.125  0.00  0.00    +0.000 OA
ATOM     14  O   UNL     1      -6.050  54.612  52.194  0.00  0.00    +0.000 OA
ATOM     15  N   UNL     1      -8.431  55.315  52.089  0.00  0.00    +0.000 N 
ATOM     16  C   UNL     1      -7.602  53.329  53.784  0.00  0.00    +0.000 A 
ATOM     17  C   UNL     1      -9.535  54.627  52.047  0.00  0.00    +0.000 C 
ATOM     18  C   UNL     1      -8.871  52.817  53.563  0.00  0.00    +0.000 A 
ATOM     19  C   UNL     1      -6.654  52.655  54.559  0.00  0.00    +0.000 A 
ATOM     20  N   UNL     1      -9.807  53.502  52.792  0.00  0.00    +0.000 N 
ATOM     21  C   UNL     1      -9.221  51.624  54.202  0.00  0.00    +0.000 A 
ATOM     22  C   UNL     1      -7.005  51.448  55.158  0.00  0.00    +0.000 A 
ATOM     23  C   UNL     1      -8.291  50.937  54.988  0.00  0.00    +0.000 A 
ATOM     24  H   UNL     1      -8.343  56.121  51.532  0.00  0.00    +0.000 HD
ATOM     25  H   UNL     1     -10.728  53.156  52.779  0.00  0.00    +0.000 HD
ENDBRANCH   1  17
BRANCH   3  26
ATOM     26  O   UNL     1      -9.256  54.569  49.154  0.00  0.00    +0.000 OA
ATOM     27  H   UNL     1      -8.750  55.112  48.584  0.00  0.00    +0.000 HD
ENDBRANCH   3  26
BRANCH   5  28
ATOM     28  C   UNL     1     -14.149  56.509  51.292  0.00  0.00    +0.000 C 
BRANCH  28  29
ATOM     29  C   UNL     1     -14.176  57.969  51.759  0.00  0.00    +0.000 C 
BRANCH  29  30
ATOM     30  O   UNL     1     -13.892  58.103  53.147  0.00  0.00    +0.000 OA
ATOM     31  H   UNL     1     -13.302  58.860  53.284  0.00  0.00    +0.000 HD
ENDBRANCH  29  30
ENDBRANCH  28  29
ENDBRANCH   5  28
TORSDOF 5
ENDMDL
MODEL 8
REMARK VINA RESULT:      -7.3      4.913      7.443
REMARK  Name = 338299
REMARK  5 active torsions:
REMARK  status: ('A' for Active; 'I' for Inactive)
REMARK    1  A    between atoms: C_6  and  C_10
REMARK    2  A    between atoms: C_14  and  O_18
REMARK    3  A    between atoms: N_17  and  C_21
REMARK    4  A    between atoms: C_21  and  C_24
REMARK    5  A    between atoms: C_24  and  O_27
REMARK                            x       y       z     vdW  Elec       q    Type
REMARK                         _______ _______ _______ _____ _____    ______ ____
ROOT
ATOM      1  C   UNL     1     -13.015  56.055  49.317  0.00  0.00    +0.000 A 
ATOM      2  C   UNL     1     -13.626  57.195  48.564  0.00  0.00    +0.000 A 
ATOM      3  C   UNL     1     -13.140  55.996  50.654  0.00  0.00    +0.000 A 
ATOM      4  O   UNL     1     -13.611  57.169  47.330  0.00  0.00    +0.000 OA
ATOM      5  N   UNL     1     -14.191  58.240  49.281  0.00  0.00    +0.000 N 
ATOM      6  C   UNL     1     -13.867  57.043  51.386  0.00  0.00    +0.000 A 
ATOM      7  C   UNL     1     -14.365  58.163  50.696  0.00  0.00    +0.000 A 
ATOM      8  C   UNL     1     -14.072  56.937  52.773  0.00  0.00    +0.000 A 
ATOM      9  C   UNL     1     -15.054  59.150  51.420  0.00  0.00    +0.000 A 
ATOM     10  C   UNL     1     -14.778  57.913  53.470  0.00  0.00    +0.000 A 
ATOM     11  C   UNL     1     -15.271  59.020  52.792  0.00  0.00    +0.000 A 
ENDROOT
BRANCH   1  17
ATOM     12  S   UNL     1     -10.864  54.211  46.591  0.00  0.00    +0.000 S 
ATOM     13  O   UNL     1      -9.441  54.345  46.821  0.00  0.00    +0.000 OA
ATOM     14  O   UNL     1     -11.404  54.316  45.246  0.00  0.00    +0.000 OA
ATOM     15  N   UNL     1     -11.619  55.305  47.516  0.00  0.00    +0.000 N 
ATOM     16  C   UNL     1     -11.301  52.608  47.159  0.00  0.00    +0.000 A 
ATOM     17  C   UNL     1     -12.316  54.945  48.554  0.00  0.00    +0.000 C 
ATOM     18  C   UNL     1     -12.069  52.517  48.309  0.00  0.00    +0.000 A 
ATOM     19  C   UNL     1     -10.884  51.476  46.452  0.00  0.00    +0.000 A 
ATOM     20  N   UNL     1     -12.474  53.653  49.004  0.00  0.00    +0.000 N 
ATOM     21  C   UNL     1     -12.367  51.244  48.804  0.00  0.00    +0.000 A 
ATOM     22  C   UNL     1     -11.222  50.215  46.937  0.00  0.00    +0.000 A 
ATOM     23  C   UNL     1     -11.954  50.098  48.118  0.00  0.00    +0.000 A 
ATOM     24  H   UNL     1     -11.549  56.260  47.289  0.00  0.00    +0.000 HD
ATOM     25  H   UNL     1     -12.903  53.524  49.880  0.00  0.00    +0.000 HD
ENDBRANCH   1  17
BRANCH   3  26
ATOM     26  O   UNL     1     -12.643  54.972  51.443  0.00  0.00    +0.000 OA
ATOM     27  H   UNL     1     -12.133  55.171  52.203  0.00  0.00    +0.000 HD
ENDBRANCH   3  26
BRANCH   5  28
ATOM     28  C   UNL     1     -14.629  59.422  48.524  0.00  0.00    +0.000 C 
BRANCH  28  29
ATOM     29  C   UNL     1     -14.178  60.755  49.131  0.00  0.00    +0.000 C 
BRANCH  29  30
ATOM     30  O   UNL     1     -12.780  60.789  49.394  0.00  0.00    +0.000 OA
ATOM     31  H   UNL     1     -12.303  61.014  48.580  0.00  0.00    +0.000 HD
ENDBRANCH  29  30
ENDBRANCH  28  29
ENDBRANCH   5  28
TORSDOF 5
ENDMDL
MODEL 9
REMARK VINA RESULT:      -7.3      2.235      2.867
REMARK  Name = 338299
REMARK  5 active torsions:
REMARK  status: ('A' for Active; 'I' for Inactive)
REMARK    1  A    between atoms: C_6  and  C_10
REMARK    2  A    between atoms: C_14  and  O_18
REMARK    3  A    between atoms: N_17  and  C_21
REMARK    4  A    between atoms: C_21  and  C_24
REMARK    5  A    between atoms: C_24  and  O_27
REMARK                            x       y       z     vdW  Elec       q    Type
REMARK                         _______ _______ _______ _____ _____    ______ ____
ROOT
ATOM      1  C   UNL     1     -11.683  53.994  51.111  0.00  0.00    +0.000 A 
ATOM      2  C   UNL     1     -10.819  53.936  52.332  0.00  0.00    +0.000 A 
ATOM      3  C   UNL     1     -11.748  52.932  50.290  0.00  0.00    +0.000 A 
ATOM      4  O   UNL     1     -10.867  54.868  53.140  0.00  0.00    +0.000 OA
ATOM      5  N   UNL     1      -9.997  52.832  52.514  0.00  0.00    +0.000 N 
ATOM      6  C   UNL     1     -10.977  51.714  50.575  0.00  0.00    +0.000 A 
ATOM      7  C   UNL     1     -10.094  51.685  51.670  0.00  0.00    +0.000 A 
ATOM      8  C   UNL     1     -11.111  50.574  49.764  0.00  0.00    +0.000 A 
ATOM      9  C   UNL     1      -9.367  50.510  51.919  0.00  0.00    +0.000 A 
ATOM     10  C   UNL     1     -10.400  49.410  50.040  0.00  0.00    +0.000 A 
ATOM     11  C   UNL     1      -9.529  49.378  51.120  0.00  0.00    +0.000 A 
ENDROOT
BRANCH   1  17
ATOM     12  S   UNL     1     -13.293  57.062  49.252  0.00  0.00    +0.000 S 
ATOM     13  O   UNL     1     -14.389  56.676  48.389  0.00  0.00    +0.000 OA
ATOM     14  O   UNL     1     -12.329  58.056  48.814  0.00  0.00    +0.000 OA
ATOM     15  N   UNL     1     -12.478  55.719  49.645  0.00  0.00    +0.000 N 
ATOM     16  C   UNL     1     -14.025  57.713  50.709  0.00  0.00    +0.000 A 
ATOM     17  C   UNL     1     -12.524  55.230  50.850  0.00  0.00    +0.000 C 
ATOM     18  C   UNL     1     -13.914  56.971  51.874  0.00  0.00    +0.000 A 
ATOM     19  C   UNL     1     -14.684  58.945  50.672  0.00  0.00    +0.000 A 
ATOM     20  N   UNL     1     -13.258  55.743  51.895  0.00  0.00    +0.000 N 
ATOM     21  C   UNL     1     -14.549  57.450  53.024  0.00  0.00    +0.000 A 
ATOM     22  C   UNL     1     -15.279  59.428  51.835  0.00  0.00    +0.000 A 
ATOM     23  C   UNL     1     -15.221  58.676  53.008  0.00  0.00    +0.000 A 
ATOM     24  H   UNL     1     -11.938  55.264  48.959  0.00  0.00    +0.000 HD
ATOM     25  H   UNL     1     -13.325  55.204  52.716  0.00  0.00    +0.000 HD
ENDBRANCH   1  17
BRANCH   3  26
ATOM     26  O   UNL     1     -12.538  52.869  49.153  0.00  0.00    +0.000 OA
ATOM     27  H   UNL     1     -13.251  53.467  49.045  0.00  0.00    +0.000 HD
ENDBRANCH   3  26
BRANCH   5  28
ATOM     28  C   UNL     1      -9.038  52.879  53.628  0.00  0.00    +0.000 C 
BRANCH  28  29
ATOM     29  C   UNL     1      -7.798  53.735  53.349  0.00  0.00    +0.000 C 
BRANCH  29  30
ATOM     30  O   UNL     1      -7.379  54.476  54.490  0.00  0.00    +0.000 OA
ATOM     31  H   UNL     1      -6.512  54.155  54.783  0.00  0.00    +0.000 HD
ENDBRANCH  29  30
ENDBRANCH  28  29
ENDBRANCH   5  28
TORSDOF 5
ENDMDL
