MODEL 1
REMARK VINA RESULT:      -8.9      0.000      0.000
REMARK  Name = 338029
REMARK  4 active torsions:
REMARK  status: ('A' for Active; 'I' for Inactive)
REMARK    1  A    between atoms: C_6  and  C_10
REMARK    2  A    between atoms: C_14  and  O_18
REMARK    3  A    between atoms: N_17  and  C_21
REMARK    4  A    between atoms: C_21  and  C_24
REMARK                            x       y       z     vdW  Elec       q    Type
REMARK                         _______ _______ _______ _____ _____    ______ ____
ROOT
ATOM      1  C   UNL     1     -10.101  54.460  52.361  0.00  0.00    +0.000 A 
ATOM      2  C   UNL     1      -8.692  54.955  52.242  0.00  0.00    +0.000 A 
ATOM      3  C   UNL     1     -10.342  53.347  53.080  0.00  0.00    +0.000 A 
ATOM      4  O   UNL     1      -8.457  55.892  51.471  0.00  0.00    +0.000 OA
ATOM      5  N   UNL     1      -7.703  54.359  53.008  0.00  0.00    +0.000 N 
ATOM      6  C   UNL     1      -9.258  52.646  53.783  0.00  0.00    +0.000 A 
ATOM      7  C   UNL     1      -7.956  53.172  53.763  0.00  0.00    +0.000 A 
ATOM      8  C   UNL     1      -9.522  51.467  54.507  0.00  0.00    +0.000 A 
ATOM      9  C   UNL     1      -6.950  52.502  54.479  0.00  0.00    +0.000 A 
ATOM     10  C   UNL     1      -8.516  50.817  55.210  0.00  0.00    +0.000 A 
ATOM     11  C   UNL     1      -7.228  51.336  55.196  0.00  0.00    +0.000 A 
ENDROOT
BRANCH   1  17
ATOM     12  S   UNL     1     -12.412  55.960  49.541  0.00  0.00    +0.000 S 
ATOM     13  O   UNL     1     -13.264  54.935  48.976  0.00  0.00    +0.000 OA
ATOM     14  O   UNL     1     -11.781  56.945  48.681  0.00  0.00    +0.000 OA
ATOM     15  N   UNL     1     -11.241  55.230  50.383  0.00  0.00    +0.000 N 
ATOM     16  C   UNL     1     -13.413  56.864  50.659  0.00  0.00    +0.000 A 
ATOM     17  C   UNL     1     -11.229  55.235  51.687  0.00  0.00    +0.000 C 
ATOM     18  C   UNL     1     -13.175  56.704  52.017  0.00  0.00    +0.000 A 
ATOM     19  C   UNL     1     -14.414  57.707  50.170  0.00  0.00    +0.000 A 
ATOM     20  N   UNL     1     -12.160  55.873  52.478  0.00  0.00    +0.000 N 
ATOM     21  C   UNL     1     -13.998  57.390  52.912  0.00  0.00    +0.000 A 
ATOM     22  C   UNL     1     -15.214  58.396  51.075  0.00  0.00    +0.000 A 
ATOM     23  C   UNL     1     -15.011  58.234  52.445  0.00  0.00    +0.000 A 
ATOM     24  H   UNL     1     -10.519  54.768  49.900  0.00  0.00    +0.000 HD
ATOM     25  H   UNL     1     -12.100  55.729  53.450  0.00  0.00    +0.000 HD
ENDBRANCH   1  17
BRANCH   3  26
ATOM     26  O   UNL     1     -11.593  52.777  53.253  0.00  0.00    +0.000 OA
ATOM     27  H   UNL     1     -12.145  53.063  53.953  0.00  0.00    +0.000 HD
ENDBRANCH   3  26
BRANCH   5  28
ATOM     28  C   UNL     1      -6.354  54.942  52.945  0.00  0.00    +0.000 C 
BRANCH  28  29
ATOM     29  C   UNL     1      -5.460  54.272  51.923  0.00  0.00    +0.000 A 
ATOM     30  N   UNL     1      -4.603  53.323  52.384  0.00  0.00    +0.000 NA
ATOM     31  C   UNL     1      -5.580  54.568  50.565  0.00  0.00    +0.000 A 
ATOM     32  C   UNL     1      -3.910  52.614  51.468  0.00  0.00    +0.000 A 
ATOM     33  C   UNL     1      -4.868  53.806  49.645  0.00  0.00    +0.000 A 
ATOM     34  C   UNL     1      -4.029  52.798  50.101  0.00  0.00    +0.000 A 
ENDBRANCH  28  29
ENDBRANCH   5  28
TORSDOF 4
ENDMDL
MODEL 2
REMARK VINA RESULT:      -8.9      3.627      7.394
REMARK  Name = 338029
REMARK  4 active torsions:
REMARK  status: ('A' for Active; 'I' for Inactive)
REMARK    1  A    between atoms: C_6  and  C_10
REMARK    2  A    between atoms: C_14  and  O_18
REMARK    3  A    between atoms: N_17  and  C_21
REMARK    4  A    between atoms: C_21  and  C_24
REMARK                            x       y       z     vdW  Elec       q    Type
REMARK                         _______ _______ _______ _____ _____    ______ ____
ROOT
ATOM      1  C   UNL     1     -10.064  55.202  50.572  0.00  0.00    +0.000 A 
ATOM      2  C   UNL     1      -9.620  55.199  49.141  0.00  0.00    +0.000 A 
ATOM      3  C   UNL     1     -11.288  55.675  50.873  0.00  0.00    +0.000 A 
ATOM      4  O   UNL     1      -8.450  54.895  48.885  0.00  0.00    +0.000 OA
ATOM      5  N   UNL     1     -10.537  55.521  48.152  0.00  0.00    +0.000 N 
ATOM      6  C   UNL     1     -12.205  56.139  49.821  0.00  0.00    +0.000 A 
ATOM      7  C   UNL     1     -11.832  56.033  48.472  0.00  0.00    +0.000 A 
ATOM      8  C   UNL     1     -13.470  56.658  50.156  0.00  0.00    +0.000 A 
ATOM      9  C   UNL     1     -12.746  56.446  47.488  0.00  0.00    +0.000 A 
ATOM     10  C   UNL     1     -14.363  57.062  49.170  0.00  0.00    +0.000 A 
ATOM     11  C   UNL     1     -14.000  56.954  47.835  0.00  0.00    +0.000 A 
ENDROOT
BRANCH   1  17
ATOM     12  S   UNL     1      -6.949  54.840  52.961  0.00  0.00    +0.000 S 
ATOM     13  O   UNL     1      -6.991  55.833  54.014  0.00  0.00    +0.000 OA
ATOM     14  O   UNL     1      -5.696  54.523  52.301  0.00  0.00    +0.000 OA
ATOM     15  N   UNL     1      -8.003  55.279  51.816  0.00  0.00    +0.000 N 
ATOM     16  C   UNL     1      -7.510  53.344  53.681  0.00  0.00    +0.000 A 
ATOM     17  C   UNL     1      -9.133  54.652  51.648  0.00  0.00    +0.000 C 
ATOM     18  C   UNL     1      -8.761  52.875  53.309  0.00  0.00    +0.000 A 
ATOM     19  C   UNL     1      -6.702  52.671  54.601  0.00  0.00    +0.000 A 
ATOM     20  N   UNL     1      -9.538  53.554  52.376  0.00  0.00    +0.000 N 
ATOM     21  C   UNL     1      -9.228  51.705  53.911  0.00  0.00    +0.000 A 
ATOM     22  C   UNL     1      -7.176  51.498  55.179  0.00  0.00    +0.000 A 
ATOM     23  C   UNL     1      -8.440  51.018  54.840  0.00  0.00    +0.000 A 
ATOM     24  H   UNL     1      -7.786  56.039  51.231  0.00  0.00    +0.000 HD
ATOM     25  H   UNL     1     -10.452  53.222  52.223  0.00  0.00    +0.000 HD
ENDBRANCH   1  17
BRANCH   3  26
ATOM     26  O   UNL     1     -11.810  55.749  52.154  0.00  0.00    +0.000 OA
ATOM     27  H   UNL     1     -11.642  56.502  52.685  0.00  0.00    +0.000 HD
ENDBRANCH   3  26
BRANCH   5  28
ATOM     28  C   UNL     1     -10.093  55.402  46.754  0.00  0.00    +0.000 C 
BRANCH  28  29
ATOM     29  C   UNL     1     -10.447  54.069  46.127  0.00  0.00    +0.000 A 
ATOM     30  N   UNL     1      -9.606  53.031  46.376  0.00  0.00    +0.000 NA
ATOM     31  C   UNL     1     -11.626  53.912  45.398  0.00  0.00    +0.000 A 
ATOM     32  C   UNL     1      -9.987  51.807  45.949  0.00  0.00    +0.000 A 
ATOM     33  C   UNL     1     -12.000  52.636  44.991  0.00  0.00    +0.000 A 
ATOM     34  C   UNL     1     -11.175  51.559  45.285  0.00  0.00    +0.000 A 
ENDBRANCH  28  29
ENDBRANCH   5  28
TORSDOF 4
ENDMDL
MODEL 3
REMARK VINA RESULT:      -8.9      2.045      2.533
REMARK  Name = 338029
REMARK  4 active torsions:
REMARK  status: ('A' for Active; 'I' for Inactive)
REMARK    1  A    between atoms: C_6  and  C_10
REMARK    2  A    between atoms: C_14  and  O_18
REMARK    3  A    between atoms: N_17  and  C_21
REMARK    4  A    between atoms: C_21  and  C_24
REMARK                            x       y       z     vdW  Elec       q    Type
REMARK                         _______ _______ _______ _____ _____    ______ ____
ROOT
ATOM      1  C   UNL     1     -11.117  54.589  50.928  0.00  0.00    +0.000 A 
ATOM      2  C   UNL     1      -9.679  54.927  50.680  0.00  0.00    +0.000 A 
ATOM      3  C   UNL     1     -11.443  53.322  51.246  0.00  0.00    +0.000 A 
ATOM      4  O   UNL     1      -9.401  56.053  50.255  0.00  0.00    +0.000 OA
ATOM      5  N   UNL     1      -8.709  53.974  50.948  0.00  0.00    +0.000 N 
ATOM      6  C   UNL     1     -10.411  52.286  51.400  0.00  0.00    +0.000 A 
ATOM      7  C   UNL     1      -9.054  52.627  51.275  0.00  0.00    +0.000 A 
ATOM      8  C   UNL     1     -10.771  50.960  51.703  0.00  0.00    +0.000 A 
ATOM      9  C   UNL     1      -8.090  51.624  51.468  0.00  0.00    +0.000 A 
ATOM     10  C   UNL     1      -9.804  49.979  51.892  0.00  0.00    +0.000 A 
ATOM     11  C   UNL     1      -8.462  50.313  51.775  0.00  0.00    +0.000 A 
ENDROOT
BRANCH   1  17
ATOM     12  S   UNL     1     -13.527  57.311  49.403  0.00  0.00    +0.000 S 
ATOM     13  O   UNL     1     -14.635  56.687  48.712  0.00  0.00    +0.000 OA
ATOM     14  O   UNL     1     -12.868  58.473  48.834  0.00  0.00    +0.000 OA
ATOM     15  N   UNL     1     -12.394  56.185  49.654  0.00  0.00    +0.000 N 
ATOM     16  C   UNL     1     -14.149  57.821  50.960  0.00  0.00    +0.000 A 
ATOM     17  C   UNL     1     -12.173  55.686  50.837  0.00  0.00    +0.000 C 
ATOM     18  C   UNL     1     -13.732  57.125  52.084  0.00  0.00    +0.000 A 
ATOM     19  C   UNL     1     -15.040  58.895  51.033  0.00  0.00    +0.000 A 
ATOM     20  N   UNL     1     -12.830  56.071  51.986  0.00  0.00    +0.000 N 
ATOM     21  C   UNL     1     -14.258  57.502  53.321  0.00  0.00    +0.000 A 
ATOM     22  C   UNL     1     -15.542  59.269  52.276  0.00  0.00    +0.000 A 
ATOM     23  C   UNL     1     -15.157  58.570  53.418  0.00  0.00    +0.000 A 
ATOM     24  H   UNL     1     -11.858  55.867  48.893  0.00  0.00    +0.000 HD
ATOM     25  H   UNL     1     -12.644  55.558  52.806  0.00  0.00    +0.000 HD
ENDBRANCH   1  17
BRANCH   3  26
ATOM     26  O   UNL     1     -12.733  52.877  51.482  0.00  0.00    +0.000 OA
ATOM     27  H   UNL     1     -13.166  52.339  50.849  0.00  0.00    +0.000 HD
ENDBRANCH   3  26
BRANCH   5  28
ATOM     28  C   UNL     1      -7.303  54.379  50.795  0.00  0.00    +0.000 C 
BRANCH  28  29
ATOM     29  C   UNL     1      -6.595  54.593  52.117  0.00  0.00    +0.000 A 
ATOM     30  N   UNL     1      -7.316  55.171  53.113  0.00  0.00    +0.000 NA
ATOM     31  C   UNL     1      -5.290  54.139  52.311  0.00  0.00    +0.000 A 
ATOM     32  C   UNL     1      -6.748  55.230  54.337  0.00  0.00    +0.000 A 
ATOM     33  C   UNL     1      -4.741  54.195  53.587  0.00  0.00    +0.000 A 
ATOM     34  C   UNL     1      -5.488  54.735  54.626  0.00  0.00    +0.000 A 
ENDBRANCH  28  29
ENDBRANCH   5  28
TORSDOF 4
ENDMDL
MODEL 4
REMARK VINA RESULT:      -8.7      2.663      8.201
REMARK  Name = 338029
REMARK  4 active torsions:
REMARK  status: ('A' for Active; 'I' for Inactive)
REMARK    1  A    between atoms: C_6  and  C_10
REMARK    2  A    between atoms: C_14  and  O_18
REMARK    3  A    between atoms: N_17  and  C_21
REMARK    4  A    between atoms: C_21  and  C_24
REMARK                            x       y       z     vdW  Elec       q    Type
REMARK                         _______ _______ _______ _____ _____    ______ ____
ROOT
ATOM      1  C   UNL     1      -9.963  54.424  50.778  0.00  0.00    +0.000 A 
ATOM      2  C   UNL     1     -11.413  54.597  51.108  0.00  0.00    +0.000 A 
ATOM      3  C   UNL     1      -9.555  54.622  49.509  0.00  0.00    +0.000 A 
ATOM      4  O   UNL     1     -11.805  54.282  52.237  0.00  0.00    +0.000 OA
ATOM      5  N   UNL     1     -12.264  55.119  50.146  0.00  0.00    +0.000 N 
ATOM      6  C   UNL     1     -10.498  55.049  48.465  0.00  0.00    +0.000 A 
ATOM      7  C   UNL     1     -11.835  55.318  48.798  0.00  0.00    +0.000 A 
ATOM      8  C   UNL     1     -10.061  55.222  47.138  0.00  0.00    +0.000 A 
ATOM      9  C   UNL     1     -12.702  55.765  47.787  0.00  0.00    +0.000 A 
ATOM     10  C   UNL     1     -10.932  55.665  46.149  0.00  0.00    +0.000 A 
ATOM     11  C   UNL     1     -12.254  55.937  46.475  0.00  0.00    +0.000 A 
ENDROOT
BRANCH   1  17
ATOM     12  S   UNL     1      -6.806  54.531  53.138  0.00  0.00    +0.000 S 
ATOM     13  O   UNL     1      -6.918  55.610  54.097  0.00  0.00    +0.000 OA
ATOM     14  O   UNL     1      -5.538  54.256  52.488  0.00  0.00    +0.000 OA
ATOM     15  N   UNL     1      -7.903  54.778  51.976  0.00  0.00    +0.000 N 
ATOM     16  C   UNL     1      -7.237  53.067  53.998  0.00  0.00    +0.000 A 
ATOM     17  C   UNL     1      -8.980  54.051  51.883  0.00  0.00    +0.000 C 
ATOM     18  C   UNL     1      -8.450  52.468  53.691  0.00  0.00    +0.000 A 
ATOM     19  C   UNL     1      -6.369  52.547  54.962  0.00  0.00    +0.000 A 
ATOM     20  N   UNL     1      -9.288  52.995  52.714  0.00  0.00    +0.000 N 
ATOM     21  C   UNL     1      -8.816  51.325  54.405  0.00  0.00    +0.000 A 
ATOM     22  C   UNL     1      -6.741  51.398  55.652  0.00  0.00    +0.000 A 
ATOM     23  C   UNL     1      -7.966  50.790  55.379  0.00  0.00    +0.000 A 
ATOM     24  H   UNL     1      -7.753  55.497  51.321  0.00  0.00    +0.000 HD
ATOM     25  H   UNL     1     -10.174  52.579  52.607  0.00  0.00    +0.000 HD
ENDBRANCH   1  17
BRANCH   3  26
ATOM     26  O   UNL     1      -8.250  54.477  49.071  0.00  0.00    +0.000 OA
ATOM     27  H   UNL     1      -7.537  54.655  49.652  0.00  0.00    +0.000 HD
ENDBRANCH   3  26
BRANCH   5  28
ATOM     28  C   UNL     1     -13.658  55.375  50.543  0.00  0.00    +0.000 C 
BRANCH  28  29
ATOM     29  C   UNL     1     -13.874  56.768  51.096  0.00  0.00    +0.000 A 
ATOM     30  N   UNL     1     -14.153  57.749  50.198  0.00  0.00    +0.000 NA
ATOM     31  C   UNL     1     -13.864  57.001  52.472  0.00  0.00    +0.000 A 
ATOM     32  C   UNL     1     -14.495  58.961  50.688  0.00  0.00    +0.000 A 
ATOM     33  C   UNL     1     -14.241  58.253  52.945  0.00  0.00    +0.000 A 
ATOM     34  C   UNL     1     -14.579  59.249  52.039  0.00  0.00    +0.000 A 
ENDBRANCH  28  29
ENDBRANCH   5  28
TORSDOF 4
ENDMDL
MODEL 5
REMARK VINA RESULT:      -8.7      3.686      4.781
REMARK  Name = 338029
REMARK  4 active torsions:
REMARK  status: ('A' for Active; 'I' for Inactive)
REMARK    1  A    between atoms: C_6  and  C_10
REMARK    2  A    between atoms: C_14  and  O_18
REMARK    3  A    between atoms: N_17  and  C_21
REMARK    4  A    between atoms: C_21  and  C_24
REMARK                            x       y       z     vdW  Elec       q    Type
REMARK                         _______ _______ _______ _____ _____    ______ ____
ROOT
ATOM      1  C   UNL     1     -12.201  54.350  50.331  0.00  0.00    +0.000 A 
ATOM      2  C   UNL     1     -12.062  53.932  48.899  0.00  0.00    +0.000 A 
ATOM      3  C   UNL     1     -11.628  53.596  51.288  0.00  0.00    +0.000 A 
ATOM      4  O   UNL     1     -12.702  54.546  48.039  0.00  0.00    +0.000 OA
ATOM      5  N   UNL     1     -11.210  52.885  48.584  0.00  0.00    +0.000 N 
ATOM      6  C   UNL     1     -10.833  52.407  50.947  0.00  0.00    +0.000 A 
ATOM      7  C   UNL     1     -10.610  52.079  49.600  0.00  0.00    +0.000 A 
ATOM      8  C   UNL     1     -10.266  51.613  51.961  0.00  0.00    +0.000 A 
ATOM      9  C   UNL     1      -9.812  50.961  49.305  0.00  0.00    +0.000 A 
ATOM     10  C   UNL     1      -9.478  50.511  51.652  0.00  0.00    +0.000 A 
ATOM     11  C   UNL     1      -9.251  50.185  50.322  0.00  0.00    +0.000 A 
ENDROOT
BRANCH   1  17
ATOM     12  S   UNL     1     -14.487  56.907  52.276  0.00  0.00    +0.000 S 
ATOM     13  O   UNL     1     -13.789  57.451  53.422  0.00  0.00    +0.000 OA
ATOM     14  O   UNL     1     -15.885  56.534  52.378  0.00  0.00    +0.000 OA
ATOM     15  N   UNL     1     -13.674  55.606  51.765  0.00  0.00    +0.000 N 
ATOM     16  C   UNL     1     -14.402  58.133  51.027  0.00  0.00    +0.000 A 
ATOM     17  C   UNL     1     -12.967  55.625  50.670  0.00  0.00    +0.000 C 
ATOM     18  C   UNL     1     -13.579  57.893  49.937  0.00  0.00    +0.000 A 
ATOM     19  C   UNL     1     -15.148  59.308  51.156  0.00  0.00    +0.000 A 
ATOM     20  N   UNL     1     -12.861  56.707  49.823  0.00  0.00    +0.000 N 
ATOM     21  C   UNL     1     -13.476  58.886  48.961  0.00  0.00    +0.000 A 
ATOM     22  C   UNL     1     -15.048  60.280  50.165  0.00  0.00    +0.000 A 
ATOM     23  C   UNL     1     -14.209  60.073  49.072  0.00  0.00    +0.000 A 
ATOM     24  H   UNL     1     -13.712  54.778  52.296  0.00  0.00    +0.000 HD
ATOM     25  H   UNL     1     -12.224  56.634  49.076  0.00  0.00    +0.000 HD
ENDBRANCH   1  17
BRANCH   3  26
ATOM     26  O   UNL     1     -11.698  53.861  52.646  0.00  0.00    +0.000 OA
ATOM     27  H   UNL     1     -11.431  53.211  53.265  0.00  0.00    +0.000 HD
ENDBRANCH   3  26
BRANCH   5  28
ATOM     28  C   UNL     1     -11.016  52.576  47.159  0.00  0.00    +0.000 C 
BRANCH  28  29
ATOM     29  C   UNL     1      -9.825  53.286  46.550  0.00  0.00    +0.000 A 
ATOM     30  N   UNL     1      -9.448  52.896  45.304  0.00  0.00    +0.000 NA
ATOM     31  C   UNL     1      -9.204  54.342  47.217  0.00  0.00    +0.000 A 
ATOM     32  C   UNL     1      -8.486  53.618  44.691  0.00  0.00    +0.000 A 
ATOM     33  C   UNL     1      -8.231  55.079  46.552  0.00  0.00    +0.000 A 
ATOM     34  C   UNL     1      -7.875  54.724  45.258  0.00  0.00    +0.000 A 
ENDBRANCH  28  29
ENDBRANCH   5  28
TORSDOF 4
ENDMDL
MODEL 6
REMARK VINA RESULT:      -8.6      3.232      4.816
REMARK  Name = 338029
REMARK  4 active torsions:
REMARK  status: ('A' for Active; 'I' for Inactive)
REMARK    1  A    between atoms: C_6  and  C_10
REMARK    2  A    between atoms: C_14  and  O_18
REMARK    3  A    between atoms: N_17  and  C_21
REMARK    4  A    between atoms: C_21  and  C_24
REMARK                            x       y       z     vdW  Elec       q    Type
REMARK                         _______ _______ _______ _____ _____    ______ ____
ROOT
ATOM      1  C   UNL     1     -11.469  55.780  48.852  0.00  0.00    +0.000 A 
ATOM      2  C   UNL     1     -10.442  55.089  49.696  0.00  0.00    +0.000 A 
ATOM      3  C   UNL     1     -11.561  55.461  47.546  0.00  0.00    +0.000 A 
ATOM      4  O   UNL     1     -10.267  55.482  50.854  0.00  0.00    +0.000 OA
ATOM      5  N   UNL     1      -9.734  54.026  49.158  0.00  0.00    +0.000 N 
ATOM      6  C   UNL     1     -10.709  54.418  46.956  0.00  0.00    +0.000 A 
ATOM      7  C   UNL     1      -9.824  53.694  47.771  0.00  0.00    +0.000 A 
ATOM      8  C   UNL     1     -10.797  54.117  45.584  0.00  0.00    +0.000 A 
ATOM      9  C   UNL     1      -9.053  52.676  47.186  0.00  0.00    +0.000 A 
ATOM     10  C   UNL     1     -10.027  53.107  45.020  0.00  0.00    +0.000 A 
ATOM     11  C   UNL     1      -9.155  52.384  45.823  0.00  0.00    +0.000 A 
ENDROOT
BRANCH   1  17
ATOM     12  S   UNL     1     -13.484  59.121  49.420  0.00  0.00    +0.000 S 
ATOM     13  O   UNL     1     -14.606  59.205  48.510  0.00  0.00    +0.000 OA
ATOM     14  O   UNL     1     -12.674  60.293  49.697  0.00  0.00    +0.000 OA
ATOM     15  N   UNL     1     -12.492  57.960  48.887  0.00  0.00    +0.000 N 
ATOM     16  C   UNL     1     -14.144  58.613  50.962  0.00  0.00    +0.000 A 
ATOM     17  C   UNL     1     -12.397  56.808  49.489  0.00  0.00    +0.000 C 
ATOM     18  C   UNL     1     -13.872  57.323  51.391  0.00  0.00    +0.000 A 
ATOM     19  C   UNL     1     -14.921  59.502  51.710  0.00  0.00    +0.000 A 
ATOM     20  N   UNL     1     -13.079  56.464  50.636  0.00  0.00    +0.000 N 
ATOM     21  C   UNL     1     -14.431  56.901  52.599  0.00  0.00    +0.000 A 
ATOM     22  C   UNL     1     -15.457  59.071  52.920  0.00  0.00    +0.000 A 
ATOM     23  C   UNL     1     -15.218  57.771  53.362  0.00  0.00    +0.000 A 
ATOM     24  H   UNL     1     -11.946  58.128  48.086  0.00  0.00    +0.000 HD
ATOM     25  H   UNL     1     -12.998  55.534  50.948  0.00  0.00    +0.000 HD
ENDBRANCH   1  17
BRANCH   3  26
ATOM     26  O   UNL     1     -12.452  56.037  46.656  0.00  0.00    +0.000 OA
ATOM     27  H   UNL     1     -12.153  56.331  45.819  0.00  0.00    +0.000 HD
ENDBRANCH   3  26
BRANCH   5  28
ATOM     28  C   UNL     1      -8.814  53.305  50.051  0.00  0.00    +0.000 C 
BRANCH  28  29
ATOM     29  C   UNL     1      -7.363  53.691  49.852  0.00  0.00    +0.000 A 
ATOM     30  N   UNL     1      -6.476  52.678  49.671  0.00  0.00    +0.000 NA
ATOM     31  C   UNL     1      -6.984  55.032  49.782  0.00  0.00    +0.000 A 
ATOM     32  C   UNL     1      -5.209  53.012  49.344  0.00  0.00    +0.000 A 
ATOM     33  C   UNL     1      -5.676  55.343  49.424  0.00  0.00    +0.000 A 
ATOM     34  C   UNL     1      -4.774  54.316  49.183  0.00  0.00    +0.000 A 
ENDBRANCH  28  29
ENDBRANCH   5  28
TORSDOF 4
ENDMDL
MODEL 7
REMARK VINA RESULT:      -8.6      3.696      7.404
REMARK  Name = 338029
REMARK  4 active torsions:
REMARK  status: ('A' for Active; 'I' for Inactive)
REMARK    1  A    between atoms: C_6  and  C_10
REMARK    2  A    between atoms: C_14  and  O_18
REMARK    3  A    between atoms: N_17  and  C_21
REMARK    4  A    between atoms: C_21  and  C_24
REMARK                            x       y       z     vdW  Elec       q    Type
REMARK                         _______ _______ _______ _____ _____    ______ ____
ROOT
ATOM      1  C   UNL     1     -10.363  54.858  50.454  0.00  0.00    +0.000 A 
ATOM      2  C   UNL     1      -9.864  54.999  49.049  0.00  0.00    +0.000 A 
ATOM      3  C   UNL     1     -11.587  55.329  50.760  0.00  0.00    +0.000 A 
ATOM      4  O   UNL     1      -8.692  54.692  48.804  0.00  0.00    +0.000 OA
ATOM      5  N   UNL     1     -10.733  55.451  48.068  0.00  0.00    +0.000 N 
ATOM      6  C   UNL     1     -12.451  55.929  49.733  0.00  0.00    +0.000 A 
ATOM      7  C   UNL     1     -12.028  55.960  48.395  0.00  0.00    +0.000 A 
ATOM      8  C   UNL     1     -13.716  56.443  50.076  0.00  0.00    +0.000 A 
ATOM      9  C   UNL     1     -12.892  56.502  47.430  0.00  0.00    +0.000 A 
ATOM     10  C   UNL     1     -14.560  56.976  49.109  0.00  0.00    +0.000 A 
ATOM     11  C   UNL     1     -14.147  57.004  47.784  0.00  0.00    +0.000 A 
ENDROOT
BRANCH   1  17
ATOM     12  S   UNL     1      -8.973  52.099  52.903  0.00  0.00    +0.000 S 
ATOM     13  O   UNL     1      -8.293  51.055  52.167  0.00  0.00    +0.000 OA
ATOM     14  O   UNL     1      -9.842  51.765  54.017  0.00  0.00    +0.000 OA
ATOM     15  N   UNL     1      -9.843  52.967  51.853  0.00  0.00    +0.000 N 
ATOM     16  C   UNL     1      -7.717  53.129  53.560  0.00  0.00    +0.000 A 
ATOM     17  C   UNL     1      -9.488  54.169  51.496  0.00  0.00    +0.000 C 
ATOM     18  C   UNL     1      -7.559  54.392  53.008  0.00  0.00    +0.000 A 
ATOM     19  C   UNL     1      -6.913  52.663  54.604  0.00  0.00    +0.000 A 
ATOM     20  N   UNL     1      -8.386  54.839  51.983  0.00  0.00    +0.000 N 
ATOM     21  C   UNL     1      -6.532  55.199  53.501  0.00  0.00    +0.000 A 
ATOM     22  C   UNL     1      -5.905  53.487  55.095  0.00  0.00    +0.000 A 
ATOM     23  C   UNL     1      -5.710  54.751  54.540  0.00  0.00    +0.000 A 
ATOM     24  H   UNL     1     -10.662  52.577  51.471  0.00  0.00    +0.000 HD
ATOM     25  H   UNL     1      -8.166  55.705  51.571  0.00  0.00    +0.000 HD
ENDBRANCH   1  17
BRANCH   3  26
ATOM     26  O   UNL     1     -12.156  55.278  52.022  0.00  0.00    +0.000 OA
ATOM     27  H   UNL     1     -12.976  55.701  52.183  0.00  0.00    +0.000 HD
ENDBRANCH   3  26
BRANCH   5  28
ATOM     28  C   UNL     1     -10.238  55.472  46.683  0.00  0.00    +0.000 C 
BRANCH  28  29
ATOM     29  C   UNL     1     -10.441  54.159  45.956  0.00  0.00    +0.000 A 
ATOM     30  N   UNL     1      -9.364  53.335  45.864  0.00  0.00    +0.000 NA
ATOM     31  C   UNL     1     -11.699  53.792  45.480  0.00  0.00    +0.000 A 
ATOM     32  C   UNL     1      -9.567  52.102  45.353  0.00  0.00    +0.000 A 
ATOM     33  C   UNL     1     -11.881  52.507  44.978  0.00  0.00    +0.000 A 
ATOM     34  C   UNL     1     -10.800  51.638  44.928  0.00  0.00    +0.000 A 
ENDBRANCH  28  29
ENDBRANCH   5  28
TORSDOF 4
ENDMDL
MODEL 8
REMARK VINA RESULT:      -8.6      3.260      5.242
REMARK  Name = 338029
REMARK  4 active torsions:
REMARK  status: ('A' for Active; 'I' for Inactive)
REMARK    1  A    between atoms: C_6  and  C_10
REMARK    2  A    between atoms: C_14  and  O_18
REMARK    3  A    between atoms: N_17  and  C_21
REMARK    4  A    between atoms: C_21  and  C_24
REMARK                            x       y       z     vdW  Elec       q    Type
REMARK                         _______ _______ _______ _____ _____    ______ ____
ROOT
ATOM      1  C   UNL     1     -11.333  56.041  48.776  0.00  0.00    +0.000 A 
ATOM      2  C   UNL     1     -10.138  55.556  49.538  0.00  0.00    +0.000 A 
ATOM      3  C   UNL     1     -11.526  55.600  47.518  0.00  0.00    +0.000 A 
ATOM      4  O   UNL     1      -9.889  56.065  50.636  0.00  0.00    +0.000 OA
ATOM      5  N   UNL     1      -9.361  54.544  48.997  0.00  0.00    +0.000 N 
ATOM      6  C   UNL     1     -10.616  54.622  46.906  0.00  0.00    +0.000 A 
ATOM      7  C   UNL     1      -9.559  54.084  47.658  0.00  0.00    +0.000 A 
ATOM      8  C   UNL     1     -10.815  54.195  45.580  0.00  0.00    +0.000 A 
ATOM      9  C   UNL     1      -8.731  53.120  47.059  0.00  0.00    +0.000 A 
ATOM     10  C   UNL     1      -9.987  53.240  45.002  0.00  0.00    +0.000 A 
ATOM     11  C   UNL     1      -8.944  52.702  45.744  0.00  0.00    +0.000 A 
ENDROOT
BRANCH   1  17
ATOM     12  S   UNL     1     -13.526  59.249  49.441  0.00  0.00    +0.000 S 
ATOM     13  O   UNL     1     -14.659  59.292  48.541  0.00  0.00    +0.000 OA
ATOM     14  O   UNL     1     -12.781  60.458  49.739  0.00  0.00    +0.000 OA
ATOM     15  N   UNL     1     -12.476  58.159  48.872  0.00  0.00    +0.000 N 
ATOM     16  C   UNL     1     -14.144  58.669  50.974  0.00  0.00    +0.000 A 
ATOM     17  C   UNL     1     -12.311  57.000  49.446  0.00  0.00    +0.000 C 
ATOM     18  C   UNL     1     -13.796  57.386  51.370  0.00  0.00    +0.000 A 
ATOM     19  C   UNL     1     -14.963  59.494  51.749  0.00  0.00    +0.000 A 
ATOM     20  N   UNL     1     -12.964  56.591  50.589  0.00  0.00    +0.000 N 
ATOM     21  C   UNL     1     -14.321  56.905  52.571  0.00  0.00    +0.000 A 
ATOM     22  C   UNL     1     -15.464  59.006  52.952  0.00  0.00    +0.000 A 
ATOM     23  C   UNL     1     -15.149  57.711  53.360  0.00  0.00    +0.000 A 
ATOM     24  H   UNL     1     -11.947  58.376  48.071  0.00  0.00    +0.000 HD
ATOM     25  H   UNL     1     -12.829  55.659  50.877  0.00  0.00    +0.000 HD
ENDBRANCH   1  17
BRANCH   3  26
ATOM     26  O   UNL     1     -12.578  55.985  46.703  0.00  0.00    +0.000 OA
ATOM     27  H   UNL     1     -12.501  56.750  46.168  0.00  0.00    +0.000 HD
ENDBRANCH   3  26
BRANCH   5  28
ATOM     28  C   UNL     1      -8.261  54.020  49.822  0.00  0.00    +0.000 C 
BRANCH  28  29
ATOM     29  C   UNL     1      -8.727  53.066  50.902  0.00  0.00    +0.000 A 
ATOM     30  N   UNL     1      -8.492  53.432  52.189  0.00  0.00    +0.000 NA
ATOM     31  C   UNL     1      -9.434  51.908  50.577  0.00  0.00    +0.000 A 
ATOM     32  C   UNL     1      -9.032  52.667  53.162  0.00  0.00    +0.000 A 
ATOM     33  C   UNL     1      -9.995  51.152  51.601  0.00  0.00    +0.000 A 
ATOM     34  C   UNL     1      -9.807  51.546  52.918  0.00  0.00    +0.000 A 
ENDBRANCH  28  29
ENDBRANCH   5  28
TORSDOF 4
ENDMDL
MODEL 9
REMARK VINA RESULT:      -8.5      1.497      2.175
REMARK  Name = 338029
REMARK  4 active torsions:
REMARK  status: ('A' for Active; 'I' for Inactive)
REMARK    1  A    between atoms: C_6  and  C_10
REMARK    2  A    between atoms: C_14  and  O_18
REMARK    3  A    between atoms: N_17  and  C_21
REMARK    4  A    between atoms: C_21  and  C_24
REMARK                            x       y       z     vdW  Elec       q    Type
REMARK                         _______ _______ _______ _____ _____    ______ ____
ROOT
ATOM      1  C   UNL     1     -10.260  54.529  52.231  0.00  0.00    +0.000 A 
ATOM      2  C   UNL     1      -8.856  55.050  52.193  0.00  0.00    +0.000 A 
ATOM      3  C   UNL     1     -10.516  53.397  52.915  0.00  0.00    +0.000 A 
ATOM      4  O   UNL     1      -8.600  56.007  51.454  0.00  0.00    +0.000 OA
ATOM      5  N   UNL     1      -7.896  54.456  52.997  0.00  0.00    +0.000 N 
ATOM      6  C   UNL     1      -9.456  52.701  53.658  0.00  0.00    +0.000 A 
ATOM      7  C   UNL     1      -8.165  53.250  53.714  0.00  0.00    +0.000 A 
ATOM      8  C   UNL     1      -9.735  51.503  54.343  0.00  0.00    +0.000 A 
ATOM      9  C   UNL     1      -7.184  52.583  54.466  0.00  0.00    +0.000 A 
ATOM     10  C   UNL     1      -8.753  50.856  55.084  0.00  0.00    +0.000 A 
ATOM     11  C   UNL     1      -7.476  51.398  55.146  0.00  0.00    +0.000 A 
ENDROOT
BRANCH   1  17
ATOM     12  S   UNL     1     -13.546  56.626  51.642  0.00  0.00    +0.000 S 
ATOM     13  O   UNL     1     -13.364  57.997  52.070  0.00  0.00    +0.000 OA
ATOM     14  O   UNL     1     -14.786  55.927  51.927  0.00  0.00    +0.000 OA
ATOM     15  N   UNL     1     -12.340  55.744  52.259  0.00  0.00    +0.000 N 
ATOM     16  C   UNL     1     -13.384  56.634  49.897  0.00  0.00    +0.000 A 
ATOM     17  C   UNL     1     -11.366  55.298  51.516  0.00  0.00    +0.000 C 
ATOM     18  C   UNL     1     -12.244  56.067  49.349  0.00  0.00    +0.000 A 
ATOM     19  C   UNL     1     -14.387  57.207  49.110  0.00  0.00    +0.000 A 
ATOM     20  N   UNL     1     -11.269  55.486  50.154  0.00  0.00    +0.000 N 
ATOM     21  C   UNL     1     -12.092  56.109  47.962  0.00  0.00    +0.000 A 
ATOM     22  C   UNL     1     -14.228  57.226  47.728  0.00  0.00    +0.000 A 
ATOM     23  C   UNL     1     -13.079  56.683  47.154  0.00  0.00    +0.000 A 
ATOM     24  H   UNL     1     -12.340  55.539  53.222  0.00  0.00    +0.000 HD
ATOM     25  H   UNL     1     -10.442  55.183  49.715  0.00  0.00    +0.000 HD
ENDBRANCH   1  17
BRANCH   3  26
ATOM     26  O   UNL     1     -11.763  52.802  53.013  0.00  0.00    +0.000 OA
ATOM     27  H   UNL     1     -12.404  53.152  53.599  0.00  0.00    +0.000 HD
ENDBRANCH   3  26
BRANCH   5  28
ATOM     28  C   UNL     1      -6.557  55.065  53.014  0.00  0.00    +0.000 C 
BRANCH  28  29
ATOM     29  C   UNL     1      -5.564  54.348  52.122  0.00  0.00    +0.000 A 
ATOM     30  N   UNL     1      -4.640  53.564  52.737  0.00  0.00    +0.000 NA
ATOM     31  C   UNL     1      -5.657  54.436  50.733  0.00  0.00    +0.000 A 
ATOM     32  C   UNL     1      -3.847  52.805  51.951  0.00  0.00    +0.000 A 
ATOM     33  C   UNL     1      -4.841  53.626  49.951  0.00  0.00    +0.000 A 
ATOM     34  C   UNL     1      -3.929  52.781  50.569  0.00  0.00    +0.000 A 
ENDBRANCH  28  29
ENDBRANCH   5  28
TORSDOF 4
ENDMDL
