MODEL 1
REMARK VINA RESULT:      -8.4      0.000      0.000
REMARK  Name = 338240
REMARK  8 active torsions:
REMARK  status: ('A' for Active; 'I' for Inactive)
REMARK    1  A    between atoms: C_6  and  C_10
REMARK    2  A    between atoms: C_14  and  O_18
REMARK    3  A    between atoms: N_17  and  C_21
REMARK    4  A    between atoms: C_21  and  C_24
REMARK    5  A    between atoms: C_24  and  C_27
REMARK    6  A    between atoms: C_25  and  N_28
REMARK    7  A    between atoms: C_27  and  C_29
REMARK    8  A    between atoms: C_27  and  C_30
REMARK                            x       y       z     vdW  Elec       q    Type
REMARK                         _______ _______ _______ _____ _____    ______ ____
ROOT
ATOM      1  C   UNL     1     -10.278  54.568  52.184  0.00  0.00    +0.000 A 
ATOM      2  C   UNL     1      -8.894  55.119  52.041  0.00  0.00    +0.000 A 
ATOM      3  C   UNL     1     -10.486  53.452  52.902  0.00  0.00    +0.000 A 
ATOM      4  O   UNL     1      -8.756  56.208  51.476  0.00  0.00    +0.000 OA
ATOM      5  N   UNL     1      -7.828  54.397  52.567  0.00  0.00    +0.000 N 
ATOM      6  C   UNL     1      -9.362  52.769  53.563  0.00  0.00    +0.000 A 
ATOM      7  C   UNL     1      -8.057  53.261  53.405  0.00  0.00    +0.000 A 
ATOM      8  C   UNL     1      -9.589  51.650  54.388  0.00  0.00    +0.000 A 
ATOM      9  C   UNL     1      -7.023  52.643  54.122  0.00  0.00    +0.000 A 
ATOM     10  C   UNL     1      -8.542  50.993  55.034  0.00  0.00    +0.000 A 
ATOM     11  C   UNL     1      -7.265  51.530  54.931  0.00  0.00    +0.000 A 
ENDROOT
BRANCH   1  17
ATOM     12  S   UNL     1     -12.655  56.181  49.496  0.00  0.00    +0.000 S 
ATOM     13  O   UNL     1     -13.577  55.225  48.920  0.00  0.00    +0.000 OA
ATOM     14  O   UNL     1     -12.006  57.168  48.655  0.00  0.00    +0.000 OA
ATOM     15  N   UNL     1     -11.499  55.349  50.272  0.00  0.00    +0.000 N 
ATOM     16  C   UNL     1     -13.574  57.086  50.689  0.00  0.00    +0.000 A 
ATOM     17  C   UNL     1     -11.440  55.328  51.572  0.00  0.00    +0.000 C 
ATOM     18  C   UNL     1     -13.294  56.864  52.027  0.00  0.00    +0.000 A 
ATOM     19  C   UNL     1     -14.544  58.004  50.276  0.00  0.00    +0.000 A 
ATOM     20  N   UNL     1     -12.332  55.940  52.425  0.00  0.00    +0.000 N 
ATOM     21  C   UNL     1     -14.062  57.536  52.983  0.00  0.00    +0.000 A 
ATOM     22  C   UNL     1     -15.277  58.692  51.239  0.00  0.00    +0.000 A 
ATOM     23  C   UNL     1     -15.042  58.452  52.592  0.00  0.00    +0.000 A 
ATOM     24  H   UNL     1     -10.829  54.851  49.750  0.00  0.00    +0.000 HD
ATOM     25  H   UNL     1     -12.286  55.708  53.381  0.00  0.00    +0.000 HD
ENDBRANCH   1  17
BRANCH  10  26
ATOM     26  N   UNL     1      -8.803  49.982  55.963  0.00  0.00    +0.000 N 
ATOM     27  H   UNL     1      -8.072  49.618  56.514  0.00  0.00    +0.000 HD
ATOM     28  H   UNL     1      -9.718  49.634  56.067  0.00  0.00    +0.000 HD
ENDBRANCH  10  26
BRANCH   3  29
ATOM     29  O   UNL     1     -11.729  52.885  53.124  0.00  0.00    +0.000 OA
ATOM     30  H   UNL     1     -12.312  53.265  53.751  0.00  0.00    +0.000 HD
ENDBRANCH   3  29
BRANCH   5  31
ATOM     31  C   UNL     1      -6.475  54.932  52.367  0.00  0.00    +0.000 C 
BRANCH  31  32
ATOM     32  C   UNL     1      -5.670  54.316  51.211  0.00  0.00    +0.000 C 
BRANCH  32  33
ATOM     33  C   UNL     1      -4.293  53.727  51.563  0.00  0.00    +0.000 C 
ATOM     34  C   UNL     1      -3.847  54.089  52.977  0.00  0.00    +0.000 C 
ATOM     35  C   UNL     1      -4.361  52.201  51.415  0.00  0.00    +0.000 C 
ENDBRANCH  32  33
ENDBRANCH  31  32
ENDBRANCH   5  31
TORSDOF 6
ENDMDL
MODEL 2
REMARK VINA RESULT:      -8.1      4.504      6.215
REMARK  Name = 338240
REMARK  8 active torsions:
REMARK  status: ('A' for Active; 'I' for Inactive)
REMARK    1  A    between atoms: C_6  and  C_10
REMARK    2  A    between atoms: C_14  and  O_18
REMARK    3  A    between atoms: N_17  and  C_21
REMARK    4  A    between atoms: C_21  and  C_24
REMARK    5  A    between atoms: C_24  and  C_27
REMARK    6  A    between atoms: C_25  and  N_28
REMARK    7  A    between atoms: C_27  and  C_29
REMARK    8  A    between atoms: C_27  and  C_30
REMARK                            x       y       z     vdW  Elec       q    Type
REMARK                         _______ _______ _______ _____ _____    ______ ____
ROOT
ATOM      1  C   UNL     1     -11.455  56.298  48.496  0.00  0.00    +0.000 A 
ATOM      2  C   UNL     1     -11.851  55.671  47.196  0.00  0.00    +0.000 A 
ATOM      3  C   UNL     1     -10.204  56.144  48.962  0.00  0.00    +0.000 A 
ATOM      4  O   UNL     1     -12.969  55.931  46.741  0.00  0.00    +0.000 OA
ATOM      5  N   UNL     1     -10.941  54.844  46.546  0.00  0.00    +0.000 N 
ATOM      6  C   UNL     1      -9.212  55.372  48.197  0.00  0.00    +0.000 A 
ATOM      7  C   UNL     1      -9.586  54.753  46.994  0.00  0.00    +0.000 A 
ATOM      8  C   UNL     1      -7.877  55.282  48.640  0.00  0.00    +0.000 A 
ATOM      9  C   UNL     1      -8.596  54.104  46.245  0.00  0.00    +0.000 A 
ATOM     10  C   UNL     1      -6.916  54.566  47.926  0.00  0.00    +0.000 A 
ATOM     11  C   UNL     1      -7.278  54.020  46.701  0.00  0.00    +0.000 A 
ENDROOT
BRANCH   1  17
ATOM     12  S   UNL     1     -13.645  59.408  49.498  0.00  0.00    +0.000 S 
ATOM     13  O   UNL     1     -14.823  59.552  48.670  0.00  0.00    +0.000 OA
ATOM     14  O   UNL     1     -12.870  60.575  49.875  0.00  0.00    +0.000 OA
ATOM     15  N   UNL     1     -12.647  58.363  48.763  0.00  0.00    +0.000 N 
ATOM     16  C   UNL     1     -14.192  58.680  51.001  0.00  0.00    +0.000 A 
ATOM     17  C   UNL     1     -12.459  57.164  49.233  0.00  0.00    +0.000 C 
ATOM     18  C   UNL     1     -13.834  57.365  51.251  0.00  0.00    +0.000 A 
ATOM     19  C   UNL     1     -14.952  59.428  51.905  0.00  0.00    +0.000 A 
ATOM     20  N   UNL     1     -13.085  56.629  50.338  0.00  0.00    +0.000 N 
ATOM     21  C   UNL     1     -14.315  56.761  52.417  0.00  0.00    +0.000 A 
ATOM     22  C   UNL     1     -15.394  58.823  53.079  0.00  0.00    +0.000 A 
ATOM     23  C   UNL     1     -15.084  57.487  53.330  0.00  0.00    +0.000 A 
ATOM     24  H   UNL     1     -12.173  58.640  47.945  0.00  0.00    +0.000 HD
ATOM     25  H   UNL     1     -12.996  55.661  50.492  0.00  0.00    +0.000 HD
ENDBRANCH   1  17
BRANCH  10  26
ATOM     26  N   UNL     1      -5.571  54.615  48.301  0.00  0.00    +0.000 N 
ATOM     27  H   UNL     1      -4.867  54.450  47.632  0.00  0.00    +0.000 HD
ATOM     28  H   UNL     1      -5.327  54.815  49.234  0.00  0.00    +0.000 HD
ENDBRANCH  10  26
BRANCH   3  29
ATOM     29  O   UNL     1      -9.729  56.712  50.132  0.00  0.00    +0.000 OA
ATOM     30  H   UNL     1      -9.618  56.184  50.898  0.00  0.00    +0.000 HD
ENDBRANCH   3  29
BRANCH   5  31
ATOM     31  C   UNL     1     -11.374  54.199  45.300  0.00  0.00    +0.000 C 
BRANCH  31  32
ATOM     32  C   UNL     1     -11.890  52.756  45.431  0.00  0.00    +0.000 C 
BRANCH  32  33
ATOM     33  C   UNL     1     -11.168  51.684  44.597  0.00  0.00    +0.000 C 
ATOM     34  C   UNL     1     -10.289  52.288  43.504  0.00  0.00    +0.000 C 
ATOM     35  C   UNL     1     -10.310  50.828  45.537  0.00  0.00    +0.000 C 
ENDBRANCH  32  33
ENDBRANCH  31  32
ENDBRANCH   5  31
TORSDOF 6
ENDMDL
MODEL 3
REMARK VINA RESULT:      -8.0      3.617      5.481
REMARK  Name = 338240
REMARK  8 active torsions:
REMARK  status: ('A' for Active; 'I' for Inactive)
REMARK    1  A    between atoms: C_6  and  C_10
REMARK    2  A    between atoms: C_14  and  O_18
REMARK    3  A    between atoms: N_17  and  C_21
REMARK    4  A    between atoms: C_21  and  C_24
REMARK    5  A    between atoms: C_24  and  C_27
REMARK    6  A    between atoms: C_25  and  N_28
REMARK    7  A    between atoms: C_27  and  C_29
REMARK    8  A    between atoms: C_27  and  C_30
REMARK                            x       y       z     vdW  Elec       q    Type
REMARK                         _______ _______ _______ _____ _____    ______ ____
ROOT
ATOM      1  C   UNL     1     -11.693  56.009  48.687  0.00  0.00    +0.000 A 
ATOM      2  C   UNL     1     -10.610  55.364  49.495  0.00  0.00    +0.000 A 
ATOM      3  C   UNL     1     -11.866  55.664  47.400  0.00  0.00    +0.000 A 
ATOM      4  O   UNL     1     -10.556  55.616  50.702  0.00  0.00    +0.000 OA
ATOM      5  N   UNL     1      -9.728  54.495  48.861  0.00  0.00    +0.000 N 
ATOM      6  C   UNL     1     -11.005  54.646  46.778  0.00  0.00    +0.000 A 
ATOM      7  C   UNL     1      -9.966  54.061  47.520  0.00  0.00    +0.000 A 
ATOM      8  C   UNL     1     -11.240  54.219  45.455  0.00  0.00    +0.000 A 
ATOM      9  C   UNL     1      -9.226  53.029  46.928  0.00  0.00    +0.000 A 
ATOM     10  C   UNL     1     -10.446  53.247  44.848  0.00  0.00    +0.000 A 
ATOM     11  C   UNL     1      -9.468  52.623  45.613  0.00  0.00    +0.000 A 
ENDROOT
BRANCH   1  17
ATOM     12  S   UNL     1     -13.623  59.340  49.495  0.00  0.00    +0.000 S 
ATOM     13  O   UNL     1     -14.773  59.541  48.639  0.00  0.00    +0.000 OA
ATOM     14  O   UNL     1     -12.757  60.454  49.829  0.00  0.00    +0.000 OA
ATOM     15  N   UNL     1     -12.708  58.178  48.830  0.00  0.00    +0.000 N 
ATOM     16  C   UNL     1     -14.251  58.737  51.021  0.00  0.00    +0.000 A 
ATOM     17  C   UNL     1     -12.630  56.993  49.362  0.00  0.00    +0.000 C 
ATOM     18  C   UNL     1     -14.011  57.411  51.342  0.00  0.00    +0.000 A 
ATOM     19  C   UNL     1     -14.957  59.591  51.873  0.00  0.00    +0.000 A 
ATOM     20  N   UNL     1     -13.314  56.569  50.480  0.00  0.00    +0.000 N 
ATOM     21  C   UNL     1     -14.558  56.909  52.526  0.00  0.00    +0.000 A 
ATOM     22  C   UNL     1     -15.466  59.086  53.067  0.00  0.00    +0.000 A 
ATOM     23  C   UNL     1     -15.274  57.743  53.389  0.00  0.00    +0.000 A 
ATOM     24  H   UNL     1     -12.201  58.373  48.009  0.00  0.00    +0.000 HD
ATOM     25  H   UNL     1     -13.311  55.606  50.682  0.00  0.00    +0.000 HD
ENDBRANCH   1  17
BRANCH  10  26
ATOM     26  N   UNL     1     -10.787  52.732  43.594  0.00  0.00    +0.000 N 
ATOM     27  H   UNL     1     -10.083  52.518  42.941  0.00  0.00    +0.000 HD
ATOM     28  H   UNL     1     -11.733  52.584  43.364  0.00  0.00    +0.000 HD
ENDBRANCH  10  26
BRANCH   3  29
ATOM     29  O   UNL     1     -12.858  56.173  46.580  0.00  0.00    +0.000 OA
ATOM     30  H   UNL     1     -12.908  55.906  45.683  0.00  0.00    +0.000 HD
ENDBRANCH   3  29
BRANCH   5  31
ATOM     31  C   UNL     1      -8.643  53.918  49.664  0.00  0.00    +0.000 C 
BRANCH  31  32
ATOM     32  C   UNL     1      -7.300  54.665  49.621  0.00  0.00    +0.000 C 
BRANCH  32  33
ATOM     33  C   UNL     1      -6.910  55.462  50.877  0.00  0.00    +0.000 C 
ATOM     34  C   UNL     1      -7.488  56.875  50.876  0.00  0.00    +0.000 C 
ATOM     35  C   UNL     1      -7.406  54.700  52.113  0.00  0.00    +0.000 C 
ENDBRANCH  32  33
ENDBRANCH  31  32
ENDBRANCH   5  31
TORSDOF 6
ENDMDL
MODEL 4
REMARK VINA RESULT:      -7.8      4.406      6.208
REMARK  Name = 338240
REMARK  8 active torsions:
REMARK  status: ('A' for Active; 'I' for Inactive)
REMARK    1  A    between atoms: C_6  and  C_10
REMARK    2  A    between atoms: C_14  and  O_18
REMARK    3  A    between atoms: N_17  and  C_21
REMARK    4  A    between atoms: C_21  and  C_24
REMARK    5  A    between atoms: C_24  and  C_27
REMARK    6  A    between atoms: C_25  and  N_28
REMARK    7  A    between atoms: C_27  and  C_29
REMARK    8  A    between atoms: C_27  and  C_30
REMARK                            x       y       z     vdW  Elec       q    Type
REMARK                         _______ _______ _______ _____ _____    ______ ____
ROOT
ATOM      1  C   UNL     1     -10.915  55.659  48.636  0.00  0.00    +0.000 A 
ATOM      2  C   UNL     1     -11.311  55.190  47.271  0.00  0.00    +0.000 A 
ATOM      3  C   UNL     1      -9.655  55.483  49.067  0.00  0.00    +0.000 A 
ATOM      4  O   UNL     1     -12.441  55.473  46.863  0.00  0.00    +0.000 OA
ATOM      5  N   UNL     1     -10.388  54.477  46.514  0.00  0.00    +0.000 N 
ATOM      6  C   UNL     1      -8.653  54.841  48.202  0.00  0.00    +0.000 A 
ATOM      7  C   UNL     1      -9.025  54.368  46.934  0.00  0.00    +0.000 A 
ATOM      8  C   UNL     1      -7.310  54.734  48.617  0.00  0.00    +0.000 A 
ATOM      9  C   UNL     1      -8.027  53.847  46.100  0.00  0.00    +0.000 A 
ATOM     10  C   UNL     1      -6.339  54.141  47.811  0.00  0.00    +0.000 A 
ATOM     11  C   UNL     1      -6.702  53.743  46.530  0.00  0.00    +0.000 A 
ENDROOT
BRANCH   1  17
ATOM     12  S   UNL     1     -13.583  56.393  51.433  0.00  0.00    +0.000 S 
ATOM     13  O   UNL     1     -12.981  56.693  52.714  0.00  0.00    +0.000 OA
ATOM     14  O   UNL     1     -14.759  55.548  51.358  0.00  0.00    +0.000 OA
ATOM     15  N   UNL     1     -12.438  55.739  50.489  0.00  0.00    +0.000 N 
ATOM     16  C   UNL     1     -14.049  57.938  50.739  0.00  0.00    +0.000 A 
ATOM     17  C   UNL     1     -11.933  56.397  49.486  0.00  0.00    +0.000 C 
ATOM     18  C   UNL     1     -13.326  58.405  49.653  0.00  0.00    +0.000 A 
ATOM     19  C   UNL     1     -15.125  58.651  51.277  0.00  0.00    +0.000 A 
ATOM     20  N   UNL     1     -12.251  57.690  49.134  0.00  0.00    +0.000 N 
ATOM     21  C   UNL     1     -13.653  59.661  49.134  0.00  0.00    +0.000 A 
ATOM     22  C   UNL     1     -15.461  59.885  50.726  0.00  0.00    +0.000 A 
ATOM     23  C   UNL     1     -14.720  60.394  49.661  0.00  0.00    +0.000 A 
ATOM     24  H   UNL     1     -12.120  54.826  50.677  0.00  0.00    +0.000 HD
ATOM     25  H   UNL     1     -11.679  58.139  48.471  0.00  0.00    +0.000 HD
ENDBRANCH   1  17
BRANCH  10  26
ATOM     26  N   UNL     1      -4.991  54.181  48.176  0.00  0.00    +0.000 N 
ATOM     27  H   UNL     1      -4.353  54.711  47.646  0.00  0.00    +0.000 HD
ATOM     28  H   UNL     1      -4.680  53.677  48.963  0.00  0.00    +0.000 HD
ENDBRANCH  10  26
BRANCH   3  29
ATOM     29  O   UNL     1      -9.181  55.912  50.295  0.00  0.00    +0.000 OA
ATOM     30  H   UNL     1      -8.617  56.659  50.345  0.00  0.00    +0.000 HD
ENDBRANCH   3  29
BRANCH   5  31
ATOM     31  C   UNL     1     -10.819  53.982  45.200  0.00  0.00    +0.000 C 
BRANCH  31  32
ATOM     32  C   UNL     1     -11.252  52.507  45.144  0.00  0.00    +0.000 C 
BRANCH  32  33
ATOM     33  C   UNL     1     -10.641  51.649  44.023  0.00  0.00    +0.000 C 
ATOM     34  C   UNL     1      -9.897  52.486  42.986  0.00  0.00    +0.000 C 
ATOM     35  C   UNL     1      -9.682  50.631  44.654  0.00  0.00    +0.000 C 
ENDBRANCH  32  33
ENDBRANCH  31  32
ENDBRANCH   5  31
TORSDOF 6
ENDMDL
MODEL 5
REMARK VINA RESULT:      -7.7      3.353      7.469
REMARK  Name = 338240
REMARK  8 active torsions:
REMARK  status: ('A' for Active; 'I' for Inactive)
REMARK    1  A    between atoms: C_6  and  C_10
REMARK    2  A    between atoms: C_14  and  O_18
REMARK    3  A    between atoms: N_17  and  C_21
REMARK    4  A    between atoms: C_21  and  C_24
REMARK    5  A    between atoms: C_24  and  C_27
REMARK    6  A    between atoms: C_25  and  N_28
REMARK    7  A    between atoms: C_27  and  C_29
REMARK    8  A    between atoms: C_27  and  C_30
REMARK                            x       y       z     vdW  Elec       q    Type
REMARK                         _______ _______ _______ _____ _____    ______ ____
ROOT
ATOM      1  C   UNL     1     -10.164  55.206  50.947  0.00  0.00    +0.000 A 
ATOM      2  C   UNL     1      -9.832  55.181  49.487  0.00  0.00    +0.000 A 
ATOM      3  C   UNL     1     -11.383  55.598  51.351  0.00  0.00    +0.000 A 
ATOM      4  O   UNL     1      -8.746  54.704  49.145  0.00  0.00    +0.000 OA
ATOM      5  N   UNL     1     -10.763  55.674  48.580  0.00  0.00    +0.000 N 
ATOM      6  C   UNL     1     -12.404  55.994  50.369  0.00  0.00    +0.000 A 
ATOM      7  C   UNL     1     -12.089  56.006  49.001  0.00  0.00    +0.000 A 
ATOM      8  C   UNL     1     -13.710  56.322  50.784  0.00  0.00    +0.000 A 
ATOM      9  C   UNL     1     -13.110  56.298  48.086  0.00  0.00    +0.000 A 
ATOM     10  C   UNL     1     -14.698  56.689  49.871  0.00  0.00    +0.000 A 
ATOM     11  C   UNL     1     -14.398  56.627  48.516  0.00  0.00    +0.000 A 
ENDROOT
BRANCH   1  17
ATOM     12  S   UNL     1      -6.779  54.854  52.921  0.00  0.00    +0.000 S 
ATOM     13  O   UNL     1      -6.632  55.850  53.960  0.00  0.00    +0.000 OA
ATOM     14  O   UNL     1      -5.648  54.494  52.087  0.00  0.00    +0.000 OA
ATOM     15  N   UNL     1      -7.986  55.328  51.947  0.00  0.00    +0.000 N 
ATOM     16  C   UNL     1      -7.276  53.376  53.731  0.00  0.00    +0.000 A 
ATOM     17  C   UNL     1      -9.133  54.713  51.945  0.00  0.00    +0.000 C 
ATOM     18  C   UNL     1      -8.578  52.942  53.545  0.00  0.00    +0.000 A 
ATOM     19  C   UNL     1      -6.365  52.671  54.523  0.00  0.00    +0.000 A 
ATOM     20  N   UNL     1      -9.479  53.658  52.762  0.00  0.00    +0.000 N 
ATOM     21  C   UNL     1      -8.998  51.800  54.234  0.00  0.00    +0.000 A 
ATOM     22  C   UNL     1      -6.787  51.515  55.174  0.00  0.00    +0.000 A 
ATOM     23  C   UNL     1      -8.106  51.084  55.037  0.00  0.00    +0.000 A 
ATOM     24  H   UNL     1      -7.848  56.094  51.345  0.00  0.00    +0.000 HD
ATOM     25  H   UNL     1     -10.426  53.393  52.793  0.00  0.00    +0.000 HD
ENDBRANCH   1  17
BRANCH  10  26
ATOM     26  N   UNL     1     -16.021  56.863  50.287  0.00  0.00    +0.000 N 
ATOM     27  H   UNL     1     -16.408  56.260  50.963  0.00  0.00    +0.000 HD
ATOM     28  H   UNL     1     -16.566  57.588  49.905  0.00  0.00    +0.000 HD
ENDBRANCH  10  26
BRANCH   3  29
ATOM     29  O   UNL     1     -11.800  55.621  52.671  0.00  0.00    +0.000 OA
ATOM     30  H   UNL     1     -11.240  55.977  53.333  0.00  0.00    +0.000 HD
ENDBRANCH   3  29
BRANCH   5  31
ATOM     31  C   UNL     1     -10.392  55.688  47.159  0.00  0.00    +0.000 C 
BRANCH  31  32
ATOM     32  C   UNL     1     -10.684  54.400  46.372  0.00  0.00    +0.000 C 
BRANCH  32  33
ATOM     33  C   UNL     1      -9.474  53.673  45.760  0.00  0.00    +0.000 C 
ATOM     34  C   UNL     1      -9.783  53.079  44.388  0.00  0.00    +0.000 C 
ATOM     35  C   UNL     1      -8.313  54.669  45.645  0.00  0.00    +0.000 C 
ENDBRANCH  32  33
ENDBRANCH  31  32
ENDBRANCH   5  31
TORSDOF 6
ENDMDL
MODEL 6
REMARK VINA RESULT:      -7.7      3.478      4.745
REMARK  Name = 338240
REMARK  8 active torsions:
REMARK  status: ('A' for Active; 'I' for Inactive)
REMARK    1  A    between atoms: C_6  and  C_10
REMARK    2  A    between atoms: C_14  and  O_18
REMARK    3  A    between atoms: N_17  and  C_21
REMARK    4  A    between atoms: C_21  and  C_24
REMARK    5  A    between atoms: C_24  and  C_27
REMARK    6  A    between atoms: C_25  and  N_28
REMARK    7  A    between atoms: C_27  and  C_29
REMARK    8  A    between atoms: C_27  and  C_30
REMARK                            x       y       z     vdW  Elec       q    Type
REMARK                         _______ _______ _______ _____ _____    ______ ____
ROOT
ATOM      1  C   UNL     1     -12.298  54.158  50.292  0.00  0.00    +0.000 A 
ATOM      2  C   UNL     1     -12.084  53.701  48.883  0.00  0.00    +0.000 A 
ATOM      3  C   UNL     1     -11.713  53.500  51.307  0.00  0.00    +0.000 A 
ATOM      4  O   UNL     1     -12.538  54.397  47.970  0.00  0.00    +0.000 OA
ATOM      5  N   UNL     1     -11.368  52.530  48.660  0.00  0.00    +0.000 N 
ATOM      6  C   UNL     1     -10.851  52.337  51.045  0.00  0.00    +0.000 A 
ATOM      7  C   UNL     1     -10.673  51.882  49.729  0.00  0.00    +0.000 A 
ATOM      8  C   UNL     1     -10.167  51.699  52.099  0.00  0.00    +0.000 A 
ATOM      9  C   UNL     1      -9.773  50.832  49.504  0.00  0.00    +0.000 A 
ATOM     10  C   UNL     1      -9.335  50.603  51.874  0.00  0.00    +0.000 A 
ATOM     11  C   UNL     1      -9.108  50.207  50.562  0.00  0.00    +0.000 A 
ENDROOT
BRANCH   1  17
ATOM     12  S   UNL     1     -15.272  56.491  51.385  0.00  0.00    +0.000 S 
ATOM     13  O   UNL     1     -15.281  56.754  52.807  0.00  0.00    +0.000 OA
ATOM     14  O   UNL     1     -16.513  56.228  50.681  0.00  0.00    +0.000 OA
ATOM     15  N   UNL     1     -14.273  55.240  51.119  0.00  0.00    +0.000 N 
ATOM     16  C   UNL     1     -14.577  57.917  50.630  0.00  0.00    +0.000 A 
ATOM     17  C   UNL     1     -13.118  55.410  50.545  0.00  0.00    +0.000 C 
ATOM     18  C   UNL     1     -13.308  57.808  50.084  0.00  0.00    +0.000 A 
ATOM     19  C   UNL     1     -15.306  59.109  50.583  0.00  0.00    +0.000 A 
ATOM     20  N   UNL     1     -12.590  56.618  50.146  0.00  0.00    +0.000 N 
ATOM     21  C   UNL     1     -12.725  58.955  49.535  0.00  0.00    +0.000 A 
ATOM     22  C   UNL     1     -14.726  60.233  50.001  0.00  0.00    +0.000 A 
ATOM     23  C   UNL     1     -13.432  60.159  49.485  0.00  0.00    +0.000 A 
ATOM     24  H   UNL     1     -14.547  54.336  51.396  0.00  0.00    +0.000 HD
ATOM     25  H   UNL     1     -11.640  56.641  49.888  0.00  0.00    +0.000 HD
ENDBRANCH   1  17
BRANCH  10  26
ATOM     26  N   UNL     1      -8.551  50.082  52.907  0.00  0.00    +0.000 N 
ATOM     27  H   UNL     1      -7.623  50.389  53.025  0.00  0.00    +0.000 HD
ATOM     28  H   UNL     1      -8.928  49.407  53.518  0.00  0.00    +0.000 HD
ENDBRANCH  10  26
BRANCH   3  29
ATOM     29  O   UNL     1     -11.818  53.864  52.639  0.00  0.00    +0.000 OA
ATOM     30  H   UNL     1     -11.047  54.068  53.131  0.00  0.00    +0.000 HD
ENDBRANCH   3  29
BRANCH   5  31
ATOM     31  C   UNL     1     -11.219  52.075  47.272  0.00  0.00    +0.000 C 
BRANCH  31  32
ATOM     32  C   UNL     1      -9.885  52.420  46.588  0.00  0.00    +0.000 C 
BRANCH  32  33
ATOM     33  C   UNL     1      -9.909  53.564  45.561  0.00  0.00    +0.000 C 
ATOM     34  C   UNL     1     -11.265  53.702  44.871  0.00  0.00    +0.000 C 
ATOM     35  C   UNL     1      -9.558  54.874  46.279  0.00  0.00    +0.000 C 
ENDBRANCH  32  33
ENDBRANCH  31  32
ENDBRANCH   5  31
TORSDOF 6
ENDMDL
MODEL 7
REMARK VINA RESULT:      -7.5      3.947      5.678
REMARK  Name = 338240
REMARK  8 active torsions:
REMARK  status: ('A' for Active; 'I' for Inactive)
REMARK    1  A    between atoms: C_6  and  C_10
REMARK    2  A    between atoms: C_14  and  O_18
REMARK    3  A    between atoms: N_17  and  C_21
REMARK    4  A    between atoms: C_21  and  C_24
REMARK    5  A    between atoms: C_24  and  C_27
REMARK    6  A    between atoms: C_25  and  N_28
REMARK    7  A    between atoms: C_27  and  C_29
REMARK    8  A    between atoms: C_27  and  C_30
REMARK                            x       y       z     vdW  Elec       q    Type
REMARK                         _______ _______ _______ _____ _____    ______ ____
ROOT
ATOM      1  C   UNL     1     -10.772  55.609  48.237  0.00  0.00    +0.000 A 
ATOM      2  C   UNL     1      -9.329  55.484  48.615  0.00  0.00    +0.000 A 
ATOM      3  C   UNL     1     -11.210  55.090  47.078  0.00  0.00    +0.000 A 
ATOM      4  O   UNL     1      -8.986  55.865  49.738  0.00  0.00    +0.000 OA
ATOM      5  N   UNL     1      -8.443  54.925  47.700  0.00  0.00    +0.000 N 
ATOM      6  C   UNL     1     -10.284  54.386  46.178  0.00  0.00    +0.000 A 
ATOM      7  C   UNL     1      -8.923  54.294  46.509  0.00  0.00    +0.000 A 
ATOM      8  C   UNL     1     -10.757  53.766  45.004  0.00  0.00    +0.000 A 
ATOM      9  C   UNL     1      -8.086  53.538  45.678  0.00  0.00    +0.000 A 
ATOM     10  C   UNL     1      -9.901  53.082  44.141  0.00  0.00    +0.000 A 
ATOM     11  C   UNL     1      -8.571  52.934  44.515  0.00  0.00    +0.000 A 
ENDROOT
BRANCH   1  17
ATOM     12  S   UNL     1     -13.202  56.088  51.294  0.00  0.00    +0.000 S 
ATOM     13  O   UNL     1     -12.498  56.346  52.532  0.00  0.00    +0.000 OA
ATOM     14  O   UNL     1     -14.350  55.201  51.276  0.00  0.00    +0.000 OA
ATOM     15  N   UNL     1     -12.124  55.531  50.218  0.00  0.00    +0.000 N 
ATOM     16  C   UNL     1     -13.784  57.647  50.730  0.00  0.00    +0.000 A 
ATOM     17  C   UNL     1     -11.735  56.260  49.213  0.00  0.00    +0.000 C 
ATOM     18  C   UNL     1     -13.179  58.199  49.612  0.00  0.00    +0.000 A 
ATOM     19  C   UNL     1     -14.832  58.286  51.399  0.00  0.00    +0.000 A 
ATOM     20  N   UNL     1     -12.130  57.556  48.962  0.00  0.00    +0.000 N 
ATOM     21  C   UNL     1     -13.596  59.466  49.194  0.00  0.00    +0.000 A 
ATOM     22  C   UNL     1     -15.260  59.533  50.949  0.00  0.00    +0.000 A 
ATOM     23  C   UNL     1     -14.637  60.126  49.852  0.00  0.00    +0.000 A 
ATOM     24  H   UNL     1     -11.758  54.623  50.327  0.00  0.00    +0.000 HD
ATOM     25  H   UNL     1     -11.636  58.062  48.277  0.00  0.00    +0.000 HD
ENDBRANCH   1  17
BRANCH  10  26
ATOM     26  N   UNL     1     -10.411  52.349  43.067  0.00  0.00    +0.000 N 
ATOM     27  H   UNL     1     -10.397  52.730  42.159  0.00  0.00    +0.000 HD
ATOM     28  H   UNL     1     -10.786  51.451  43.218  0.00  0.00    +0.000 HD
ENDBRANCH  10  26
BRANCH   3  29
ATOM     29  O   UNL     1     -12.528  55.121  46.656  0.00  0.00    +0.000 OA
ATOM     30  H   UNL     1     -13.006  55.927  46.670  0.00  0.00    +0.000 HD
ENDBRANCH   3  29
BRANCH   5  31
ATOM     31  C   UNL     1      -7.025  54.862  48.073  0.00  0.00    +0.000 C 
BRANCH  31  32
ATOM     32  C   UNL     1      -6.604  53.655  48.929  0.00  0.00    +0.000 C 
BRANCH  32  33
ATOM     33  C   UNL     1      -6.016  53.963  50.317  0.00  0.00    +0.000 C 
ATOM     34  C   UNL     1      -6.865  53.392  51.451  0.00  0.00    +0.000 C 
ATOM     35  C   UNL     1      -4.598  53.381  50.387  0.00  0.00    +0.000 C 
ENDBRANCH  32  33
ENDBRANCH  31  32
ENDBRANCH   5  31
TORSDOF 6
ENDMDL
MODEL 8
REMARK VINA RESULT:      -7.4      4.709      7.316
REMARK  Name = 338240
REMARK  8 active torsions:
REMARK  status: ('A' for Active; 'I' for Inactive)
REMARK    1  A    between atoms: C_6  and  C_10
REMARK    2  A    between atoms: C_14  and  O_18
REMARK    3  A    between atoms: N_17  and  C_21
REMARK    4  A    between atoms: C_21  and  C_24
REMARK    5  A    between atoms: C_24  and  C_27
REMARK    6  A    between atoms: C_25  and  N_28
REMARK    7  A    between atoms: C_27  and  C_29
REMARK    8  A    between atoms: C_27  and  C_30
REMARK                            x       y       z     vdW  Elec       q    Type
REMARK                         _______ _______ _______ _____ _____    ______ ____
ROOT
ATOM      1  C   UNL     1     -10.842  54.465  48.554  0.00  0.00    +0.000 A 
ATOM      2  C   UNL     1     -10.399  54.012  49.911  0.00  0.00    +0.000 A 
ATOM      3  C   UNL     1     -11.836  55.361  48.436  0.00  0.00    +0.000 A 
ATOM      4  O   UNL     1      -9.407  53.281  49.986  0.00  0.00    +0.000 OA
ATOM      5  N   UNL     1     -11.106  54.449  51.026  0.00  0.00    +0.000 N 
ATOM      6  C   UNL     1     -12.488  55.913  49.633  0.00  0.00    +0.000 A 
ATOM      7  C   UNL     1     -12.102  55.468  50.908  0.00  0.00    +0.000 A 
ATOM      8  C   UNL     1     -13.470  56.917  49.516  0.00  0.00    +0.000 A 
ATOM      9  C   UNL     1     -12.678  56.082  52.029  0.00  0.00    +0.000 A 
ATOM     10  C   UNL     1     -14.095  57.465  50.636  0.00  0.00    +0.000 A 
ATOM     11  C   UNL     1     -13.655  57.071  51.893  0.00  0.00    +0.000 A 
ENDROOT
BRANCH   1  17
ATOM     12  S   UNL     1      -8.022  53.979  45.854  0.00  0.00    +0.000 S 
ATOM     13  O   UNL     1      -6.982  53.072  46.290  0.00  0.00    +0.000 OA
ATOM     14  O   UNL     1      -7.680  55.193  45.137  0.00  0.00    +0.000 OA
ATOM     15  N   UNL     1      -8.892  54.397  47.158  0.00  0.00    +0.000 N 
ATOM     16  C   UNL     1      -9.057  53.053  44.778  0.00  0.00    +0.000 A 
ATOM     17  C   UNL     1     -10.103  53.955  47.330  0.00  0.00    +0.000 C 
ATOM     18  C   UNL     1     -10.323  52.717  45.227  0.00  0.00    +0.000 A 
ATOM     19  C   UNL     1      -8.598  52.689  43.509  0.00  0.00    +0.000 A 
ATOM     20  N   UNL     1     -10.764  53.078  46.497  0.00  0.00    +0.000 N 
ATOM     21  C   UNL     1     -11.130  51.930  44.400  0.00  0.00    +0.000 A 
ATOM     22  C   UNL     1      -9.427  51.935  42.681  0.00  0.00    +0.000 A 
ATOM     23  C   UNL     1     -10.689  51.548  43.131  0.00  0.00    +0.000 A 
ATOM     24  H   UNL     1      -8.497  54.998  47.830  0.00  0.00    +0.000 HD
ATOM     25  H   UNL     1     -11.603  52.680  46.822  0.00  0.00    +0.000 HD
ENDBRANCH   1  17
BRANCH  10  26
ATOM     26  N   UNL     1     -14.953  58.560  50.506  0.00  0.00    +0.000 N 
ATOM     27  H   UNL     1     -15.927  58.421  50.461  0.00  0.00    +0.000 HD
ATOM     28  H   UNL     1     -14.583  59.472  50.459  0.00  0.00    +0.000 HD
ENDBRANCH  10  26
BRANCH   3  29
ATOM     29  O   UNL     1     -12.292  55.869  47.232  0.00  0.00    +0.000 OA
ATOM     30  H   UNL     1     -13.051  55.500  46.826  0.00  0.00    +0.000 HD
ENDBRANCH   3  29
BRANCH   5  31
ATOM     31  C   UNL     1     -10.685  53.948  52.341  0.00  0.00    +0.000 C 
BRANCH  31  32
ATOM     32  C   UNL     1      -9.834  54.909  53.188  0.00  0.00    +0.000 C 
BRANCH  32  33
ATOM     33  C   UNL     1      -8.320  54.915  52.916  0.00  0.00    +0.000 C 
ATOM     34  C   UNL     1      -7.925  55.914  51.832  0.00  0.00    +0.000 C 
ATOM     35  C   UNL     1      -7.590  55.251  54.223  0.00  0.00    +0.000 C 
ENDBRANCH  32  33
ENDBRANCH  31  32
ENDBRANCH   5  31
TORSDOF 6
ENDMDL
MODEL 9
REMARK VINA RESULT:      -7.4      3.196      8.183
REMARK  Name = 338240
REMARK  8 active torsions:
REMARK  status: ('A' for Active; 'I' for Inactive)
REMARK    1  A    between atoms: C_6  and  C_10
REMARK    2  A    between atoms: C_14  and  O_18
REMARK    3  A    between atoms: N_17  and  C_21
REMARK    4  A    between atoms: C_21  and  C_24
REMARK    5  A    between atoms: C_24  and  C_27
REMARK    6  A    between atoms: C_25  and  N_28
REMARK    7  A    between atoms: C_27  and  C_29
REMARK    8  A    between atoms: C_27  and  C_30
REMARK                            x       y       z     vdW  Elec       q    Type
REMARK                         _______ _______ _______ _____ _____    ______ ____
ROOT
ATOM      1  C   UNL     1      -9.783  53.891  51.038  0.00  0.00    +0.000 A 
ATOM      2  C   UNL     1     -10.815  54.944  51.297  0.00  0.00    +0.000 A 
ATOM      3  C   UNL     1      -9.593  53.429  49.791  0.00  0.00    +0.000 A 
ATOM      4  O   UNL     1     -10.880  55.430  52.429  0.00  0.00    +0.000 OA
ATOM      5  N   UNL     1     -11.640  55.345  50.251  0.00  0.00    +0.000 N 
ATOM      6  C   UNL     1     -10.386  53.957  48.671  0.00  0.00    +0.000 A 
ATOM      7  C   UNL     1     -11.380  54.919  48.910  0.00  0.00    +0.000 A 
ATOM      8  C   UNL     1     -10.129  53.537  47.350  0.00  0.00    +0.000 A 
ATOM      9  C   UNL     1     -12.052  55.469  47.810  0.00  0.00    +0.000 A 
ATOM     10  C   UNL     1     -10.859  54.032  46.269  0.00  0.00    +0.000 A 
ATOM     11  C   UNL     1     -11.789  55.037  46.508  0.00  0.00    +0.000 A 
ENDROOT
BRANCH   1  17
ATOM     12  S   UNL     1      -6.614  53.289  53.291  0.00  0.00    +0.000 S 
ATOM     13  O   UNL     1      -6.302  54.424  54.131  0.00  0.00    +0.000 OA
ATOM     14  O   UNL     1      -5.553  52.556  52.627  0.00  0.00    +0.000 OA
ATOM     15  N   UNL     1      -7.663  53.784  52.157  0.00  0.00    +0.000 N 
ATOM     16  C   UNL     1      -7.432  52.128  54.326  0.00  0.00    +0.000 A 
ATOM     17  C   UNL     1      -8.911  53.417  52.186  0.00  0.00    +0.000 C 
ATOM     18  C   UNL     1      -8.789  51.928  54.128  0.00  0.00    +0.000 A 
ATOM     19  C   UNL     1      -6.714  51.432  55.302  0.00  0.00    +0.000 A 
ATOM     20  N   UNL     1      -9.495  52.634  53.159  0.00  0.00    +0.000 N 
ATOM     21  C   UNL     1      -9.459  51.051  54.987  0.00  0.00    +0.000 A 
ATOM     22  C   UNL     1      -7.387  50.535  56.126  0.00  0.00    +0.000 A 
ATOM     23  C   UNL     1      -8.761  50.351  55.975  0.00  0.00    +0.000 A 
ATOM     24  H   UNL     1      -7.350  54.373  51.433  0.00  0.00    +0.000 HD
ATOM     25  H   UNL     1     -10.477  52.571  53.169  0.00  0.00    +0.000 HD
ENDBRANCH   1  17
BRANCH  10  26
ATOM     26  N   UNL     1     -10.490  53.718  44.959  0.00  0.00    +0.000 N 
ATOM     27  H   UNL     1     -11.180  53.596  44.268  0.00  0.00    +0.000 HD
ATOM     28  H   UNL     1      -9.538  53.617  44.727  0.00  0.00    +0.000 HD
ENDBRANCH  10  26
BRANCH   3  29
ATOM     29  O   UNL     1      -8.642  52.486  49.443  0.00  0.00    +0.000 OA
ATOM     30  H   UNL     1      -8.658  51.636  49.837  0.00  0.00    +0.000 HD
ENDBRANCH   3  29
BRANCH   5  31
ATOM     31  C   UNL     1     -12.680  56.339  50.543  0.00  0.00    +0.000 C 
BRANCH  31  32
ATOM     32  C   UNL     1     -14.011  55.786  51.079  0.00  0.00    +0.000 C 
BRANCH  32  33
ATOM     33  C   UNL     1     -15.187  56.774  51.161  0.00  0.00    +0.000 C 
ATOM     34  C   UNL     1     -16.461  56.219  50.528  0.00  0.00    +0.000 C 
ATOM     35  C   UNL     1     -15.444  57.107  52.637  0.00  0.00    +0.000 C 
ENDBRANCH  32  33
ENDBRANCH  31  32
ENDBRANCH   5  31
TORSDOF 6
ENDMDL
