MODEL 1
REMARK VINA RESULT:      -8.0      0.000      0.000
REMARK  Name = 338542
REMARK  7 active torsions:
REMARK  status: ('A' for Active; 'I' for Inactive)
REMARK    1  A    between atoms: C_6  and  C_10
REMARK    2  A    between atoms: C_14  and  O_18
REMARK    3  A    between atoms: N_17  and  C_21
REMARK    4  A    between atoms: C_21  and  C_24
REMARK    5  A    between atoms: C_24  and  N_27
REMARK    6  A    between atoms: N_27  and  C_28
REMARK    7  A    between atoms: N_27  and  C_29
REMARK                            x       y       z     vdW  Elec       q    Type
REMARK                         _______ _______ _______ _____ _____    ______ ____
ROOT
ATOM      1  C   UNL     1     -10.122  54.365  52.324  0.00  0.00    +0.000 A 
ATOM      2  C   UNL     1      -8.726  54.905  52.233  0.00  0.00    +0.000 A 
ATOM      3  C   UNL     1     -10.371  53.259  53.044  0.00  0.00    +0.000 A 
ATOM      4  O   UNL     1      -8.547  55.964  51.627  0.00  0.00    +0.000 OA
ATOM      5  N   UNL     1      -7.700  54.201  52.850  0.00  0.00    +0.000 N 
ATOM      6  C   UNL     1      -9.288  52.583  53.770  0.00  0.00    +0.000 A 
ATOM      7  C   UNL     1      -7.972  53.070  53.680  0.00  0.00    +0.000 A 
ATOM      8  C   UNL     1      -9.556  51.461  54.574  0.00  0.00    +0.000 A 
ATOM      9  C   UNL     1      -6.967  52.442  54.438  0.00  0.00    +0.000 A 
ATOM     10  C   UNL     1      -8.542  50.834  55.298  0.00  0.00    +0.000 A 
ATOM     11  C   UNL     1      -7.247  51.328  55.231  0.00  0.00    +0.000 A 
ENDROOT
BRANCH   1  17
ATOM     12  S   UNL     1     -12.379  55.957  49.527  0.00  0.00    +0.000 S 
ATOM     13  O   UNL     1     -13.282  54.998  48.923  0.00  0.00    +0.000 OA
ATOM     14  O   UNL     1     -11.692  56.935  48.702  0.00  0.00    +0.000 OA
ATOM     15  N   UNL     1     -11.263  55.129  50.358  0.00  0.00    +0.000 N 
ATOM     16  C   UNL     1     -13.344  56.883  50.665  0.00  0.00    +0.000 A 
ATOM     17  C   UNL     1     -11.247  55.136  51.658  0.00  0.00    +0.000 C 
ATOM     18  C   UNL     1     -13.109  56.691  52.017  0.00  0.00    +0.000 A 
ATOM     19  C   UNL     1     -14.302  57.789  50.199  0.00  0.00    +0.000 A 
ATOM     20  N   UNL     1     -12.158  55.779  52.467  0.00  0.00    +0.000 N 
ATOM     21  C   UNL     1     -13.914  57.379  52.931  0.00  0.00    +0.000 A 
ATOM     22  C   UNL     1     -15.071  58.495  51.122  0.00  0.00    +0.000 A 
ATOM     23  C   UNL     1     -14.884  58.283  52.487  0.00  0.00    +0.000 A 
ATOM     24  H   UNL     1     -10.582  54.611  49.869  0.00  0.00    +0.000 HD
ATOM     25  H   UNL     1     -12.135  55.580  53.431  0.00  0.00    +0.000 HD
ENDBRANCH   1  17
BRANCH   3  26
ATOM     26  O   UNL     1     -11.626  52.702  53.210  0.00  0.00    +0.000 OA
ATOM     27  H   UNL     1     -11.737  51.953  53.762  0.00  0.00    +0.000 HD
ENDBRANCH   3  26
BRANCH   5  28
ATOM     28  C   UNL     1      -6.327  54.713  52.706  0.00  0.00    +0.000 C 
BRANCH  28  29
ATOM     29  C   UNL     1      -5.563  54.132  51.490  0.00  0.00    +0.000 C 
BRANCH  29  30
ATOM     30  N   UNL     1      -6.131  54.470  50.165  0.00  0.00    +0.000 N 
ATOM     31  C   UNL     1      -5.173  55.139  49.283  0.00  0.00    +0.000 C 
ATOM     32  C   UNL     1      -6.613  53.244  49.515  0.00  0.00    +0.000 C 
ATOM     33  H   UNL     1      -6.897  55.124  50.326  0.00  0.00    +0.000 HD
ENDBRANCH  29  30
ENDBRANCH  28  29
ENDBRANCH   5  28
TORSDOF 5
ENDMDL
MODEL 2
REMARK VINA RESULT:      -8.0      2.196      3.263
REMARK  Name = 338542
REMARK  7 active torsions:
REMARK  status: ('A' for Active; 'I' for Inactive)
REMARK    1  A    between atoms: C_6  and  C_10
REMARK    2  A    between atoms: C_14  and  O_18
REMARK    3  A    between atoms: N_17  and  C_21
REMARK    4  A    between atoms: C_21  and  C_24
REMARK    5  A    between atoms: C_24  and  N_27
REMARK    6  A    between atoms: N_27  and  C_28
REMARK    7  A    between atoms: N_27  and  C_29
REMARK                            x       y       z     vdW  Elec       q    Type
REMARK                         _______ _______ _______ _____ _____    ______ ____
ROOT
ATOM      1  C   UNL     1     -11.715  54.000  51.067  0.00  0.00    +0.000 A 
ATOM      2  C   UNL     1     -10.867  53.924  52.301  0.00  0.00    +0.000 A 
ATOM      3  C   UNL     1     -11.775  52.954  50.226  0.00  0.00    +0.000 A 
ATOM      4  O   UNL     1     -10.897  54.872  53.090  0.00  0.00    +0.000 OA
ATOM      5  N   UNL     1     -10.103  52.785  52.514  0.00  0.00    +0.000 N 
ATOM      6  C   UNL     1     -11.034  51.720  50.518  0.00  0.00    +0.000 A 
ATOM      7  C   UNL     1     -10.223  51.642  51.663  0.00  0.00    +0.000 A 
ATOM      8  C   UNL     1     -11.143  50.602  49.671  0.00  0.00    +0.000 A 
ATOM      9  C   UNL     1      -9.579  50.426  51.952  0.00  0.00    +0.000 A 
ATOM     10  C   UNL     1     -10.475  49.413  49.958  0.00  0.00    +0.000 A 
ATOM     11  C   UNL     1      -9.694  49.325  51.101  0.00  0.00    +0.000 A 
ENDROOT
BRANCH   1  17
ATOM     12  S   UNL     1     -13.341  57.100  49.279  0.00  0.00    +0.000 S 
ATOM     13  O   UNL     1     -14.449  56.733  48.420  0.00  0.00    +0.000 OA
ATOM     14  O   UNL     1     -12.381  58.100  48.847  0.00  0.00    +0.000 OA
ATOM     15  N   UNL     1     -12.527  55.747  49.640  0.00  0.00    +0.000 N 
ATOM     16  C   UNL     1     -14.056  57.727  50.755  0.00  0.00    +0.000 A 
ATOM     17  C   UNL     1     -12.559  55.240  50.837  0.00  0.00    +0.000 C 
ATOM     18  C   UNL     1     -13.934  56.967  51.906  0.00  0.00    +0.000 A 
ATOM     19  C   UNL     1     -14.710  58.963  50.748  0.00  0.00    +0.000 A 
ATOM     20  N   UNL     1     -13.288  55.733  51.897  0.00  0.00    +0.000 N 
ATOM     21  C   UNL     1     -14.553  57.430  53.073  0.00  0.00    +0.000 A 
ATOM     22  C   UNL     1     -15.289  59.430  51.926  0.00  0.00    +0.000 A 
ATOM     23  C   UNL     1     -15.219  58.659  53.085  0.00  0.00    +0.000 A 
ATOM     24  H   UNL     1     -11.998  55.300  48.939  0.00  0.00    +0.000 HD
ATOM     25  H   UNL     1     -13.357  55.174  52.704  0.00  0.00    +0.000 HD
ENDBRANCH   1  17
BRANCH   3  26
ATOM     26  O   UNL     1     -12.548  52.918  49.080  0.00  0.00    +0.000 OA
ATOM     27  H   UNL     1     -13.442  53.198  49.109  0.00  0.00    +0.000 HD
ENDBRANCH   3  26
BRANCH   5  28
ATOM     28  C   UNL     1      -9.233  52.748  53.701  0.00  0.00    +0.000 C 
BRANCH  28  29
ATOM     29  C   UNL     1      -7.812  53.314  53.459  0.00  0.00    +0.000 C 
BRANCH  29  30
ATOM     30  N   UNL     1      -7.342  54.297  54.461  0.00  0.00    +0.000 N 
ATOM     31  C   UNL     1      -5.932  54.125  54.817  0.00  0.00    +0.000 C 
ATOM     32  C   UNL     1      -7.549  55.656  53.944  0.00  0.00    +0.000 C 
ATOM     33  H   UNL     1      -7.886  54.141  55.309  0.00  0.00    +0.000 HD
ENDBRANCH  29  30
ENDBRANCH  28  29
ENDBRANCH   5  28
TORSDOF 5
ENDMDL
MODEL 3
REMARK VINA RESULT:      -7.9      2.962      4.986
REMARK  Name = 338542
REMARK  7 active torsions:
REMARK  status: ('A' for Active; 'I' for Inactive)
REMARK    1  A    between atoms: C_6  and  C_10
REMARK    2  A    between atoms: C_14  and  O_18
REMARK    3  A    between atoms: N_17  and  C_21
REMARK    4  A    between atoms: C_21  and  C_24
REMARK    5  A    between atoms: C_24  and  N_27
REMARK    6  A    between atoms: N_27  and  C_28
REMARK    7  A    between atoms: N_27  and  C_29
REMARK                            x       y       z     vdW  Elec       q    Type
REMARK                         _______ _______ _______ _____ _____    ______ ____
ROOT
ATOM      1  C   UNL     1     -11.369  56.103  48.737  0.00  0.00    +0.000 A 
ATOM      2  C   UNL     1     -10.214  55.604  49.554  0.00  0.00    +0.000 A 
ATOM      3  C   UNL     1     -11.537  55.672  47.476  0.00  0.00    +0.000 A 
ATOM      4  O   UNL     1     -10.135  55.960  50.732  0.00  0.00    +0.000 OA
ATOM      5  N   UNL     1      -9.298  54.749  48.957  0.00  0.00    +0.000 N 
ATOM      6  C   UNL     1     -10.611  54.692  46.893  0.00  0.00    +0.000 A 
ATOM      7  C   UNL     1      -9.516  54.229  47.643  0.00  0.00    +0.000 A 
ATOM      8  C   UNL     1     -10.819  54.194  45.595  0.00  0.00    +0.000 A 
ATOM      9  C   UNL     1      -8.685  53.242  47.084  0.00  0.00    +0.000 A 
ATOM     10  C   UNL     1      -9.970  53.234  45.046  0.00  0.00    +0.000 A 
ATOM     11  C   UNL     1      -8.902  52.757  45.793  0.00  0.00    +0.000 A 
ENDROOT
BRANCH   1  17
ATOM     12  S   UNL     1     -13.551  59.292  49.454  0.00  0.00    +0.000 S 
ATOM     13  O   UNL     1     -14.699  59.394  48.575  0.00  0.00    +0.000 OA
ATOM     14  O   UNL     1     -12.776  60.474  49.785  0.00  0.00    +0.000 OA
ATOM     15  N   UNL     1     -12.545  58.191  48.826  0.00  0.00    +0.000 N 
ATOM     16  C   UNL     1     -14.163  58.677  50.981  0.00  0.00    +0.000 A 
ATOM     17  C   UNL     1     -12.377  57.031  49.389  0.00  0.00    +0.000 C 
ATOM     18  C   UNL     1     -13.818  57.385  51.342  0.00  0.00    +0.000 A 
ATOM     19  C   UNL     1     -14.958  59.488  51.797  0.00  0.00    +0.000 A 
ATOM     20  N   UNL     1     -13.033  56.585  50.515  0.00  0.00    +0.000 N 
ATOM     21  C   UNL     1     -14.350  56.865  52.527  0.00  0.00    +0.000 A 
ATOM     22  C   UNL     1     -15.450  58.970  52.994  0.00  0.00    +0.000 A 
ATOM     23  C   UNL     1     -15.154  57.656  53.353  0.00  0.00    +0.000 A 
ATOM     24  H   UNL     1     -12.049  58.404  48.002  0.00  0.00    +0.000 HD
ATOM     25  H   UNL     1     -12.941  55.633  50.753  0.00  0.00    +0.000 HD
ENDBRANCH   1  17
BRANCH   3  26
ATOM     26  O   UNL     1     -12.583  56.052  46.655  0.00  0.00    +0.000 OA
ATOM     27  H   UNL     1     -12.407  56.423  45.813  0.00  0.00    +0.000 HD
ENDBRANCH   3  26
BRANCH   5  28
ATOM     28  C   UNL     1      -8.140  54.312  49.754  0.00  0.00    +0.000 C 
BRANCH  28  29
ATOM     29  C   UNL     1      -6.929  55.274  49.685  0.00  0.00    +0.000 C 
BRANCH  29  30
ATOM     30  N   UNL     1      -6.132  55.380  50.928  0.00  0.00    +0.000 N 
ATOM     31  C   UNL     1      -6.944  55.277  52.142  0.00  0.00    +0.000 C 
ATOM     32  C   UNL     1      -5.107  54.328  50.940  0.00  0.00    +0.000 C 
ATOM     33  H   UNL     1      -5.705  56.306  50.931  0.00  0.00    +0.000 HD
ENDBRANCH  29  30
ENDBRANCH  28  29
ENDBRANCH   5  28
TORSDOF 5
ENDMDL
MODEL 4
REMARK VINA RESULT:      -7.6      4.052      5.203
REMARK  Name = 338542
REMARK  7 active torsions:
REMARK  status: ('A' for Active; 'I' for Inactive)
REMARK    1  A    between atoms: C_6  and  C_10
REMARK    2  A    between atoms: C_14  and  O_18
REMARK    3  A    between atoms: N_17  and  C_21
REMARK    4  A    between atoms: C_21  and  C_24
REMARK    5  A    between atoms: C_24  and  N_27
REMARK    6  A    between atoms: N_27  and  C_28
REMARK    7  A    between atoms: N_27  and  C_29
REMARK                            x       y       z     vdW  Elec       q    Type
REMARK                         _______ _______ _______ _____ _____    ______ ____
ROOT
ATOM      1  C   UNL     1     -12.553  54.234  49.585  0.00  0.00    +0.000 A 
ATOM      2  C   UNL     1     -12.048  54.181  48.174  0.00  0.00    +0.000 A 
ATOM      3  C   UNL     1     -12.257  53.245  50.444  0.00  0.00    +0.000 A 
ATOM      4  O   UNL     1     -12.274  55.142  47.436  0.00  0.00    +0.000 OA
ATOM      5  N   UNL     1     -11.332  53.063  47.767  0.00  0.00    +0.000 N 
ATOM      6  C   UNL     1     -11.417  52.118  50.021  0.00  0.00    +0.000 A 
ATOM      7  C   UNL     1     -10.950  52.048  48.697  0.00  0.00    +0.000 A 
ATOM      8  C   UNL     1     -11.054  51.112  50.935  0.00  0.00    +0.000 A 
ATOM      9  C   UNL     1     -10.093  50.992  48.339  0.00  0.00    +0.000 A 
ATOM     10  C   UNL     1     -10.225  50.057  50.556  0.00  0.00    +0.000 A 
ATOM     11  C   UNL     1      -9.743  50.000  49.256  0.00  0.00    +0.000 A 
ENDROOT
BRANCH   1  17
ATOM     12  S   UNL     1     -15.368  56.455  51.196  0.00  0.00    +0.000 S 
ATOM     13  O   UNL     1     -15.245  56.557  52.637  0.00  0.00    +0.000 OA
ATOM     14  O   UNL     1     -16.673  56.288  50.584  0.00  0.00    +0.000 OA
ATOM     15  N   UNL     1     -14.422  55.236  50.705  0.00  0.00    +0.000 N 
ATOM     16  C   UNL     1     -14.722  57.954  50.548  0.00  0.00    +0.000 A 
ATOM     17  C   UNL     1     -13.329  55.458  50.037  0.00  0.00    +0.000 C 
ATOM     18  C   UNL     1     -13.520  57.897  49.863  0.00  0.00    +0.000 A 
ATOM     19  C   UNL     1     -15.424  59.152  50.717  0.00  0.00    +0.000 A 
ATOM     20  N   UNL     1     -12.827  56.699  49.711  0.00  0.00    +0.000 N 
ATOM     21  C   UNL     1     -12.968  59.095  49.396  0.00  0.00    +0.000 A 
ATOM     22  C   UNL     1     -14.881  60.332  50.213  0.00  0.00    +0.000 A 
ATOM     23  C   UNL     1     -13.649  60.305  49.561  0.00  0.00    +0.000 A 
ATOM     24  H   UNL     1     -14.680  54.309  50.915  0.00  0.00    +0.000 HD
ATOM     25  H   UNL     1     -11.914  56.741  49.344  0.00  0.00    +0.000 HD
ENDBRANCH   1  17
BRANCH   3  26
ATOM     26  O   UNL     1     -12.653  53.218  51.769  0.00  0.00    +0.000 OA
ATOM     27  H   UNL     1     -13.497  53.545  52.013  0.00  0.00    +0.000 HD
ENDBRANCH   3  26
BRANCH   5  28
ATOM     28  C   UNL     1     -10.890  53.000  46.364  0.00  0.00    +0.000 C 
BRANCH  28  29
ATOM     29  C   UNL     1     -11.950  52.419  45.395  0.00  0.00    +0.000 C 
BRANCH  29  30
ATOM     30  N   UNL     1     -11.552  51.180  44.690  0.00  0.00    +0.000 N 
ATOM     31  C   UNL     1     -10.103  51.061  44.512  0.00  0.00    +0.000 C 
ATOM     32  C   UNL     1     -12.046  50.015  45.435  0.00  0.00    +0.000 C 
ATOM     33  H   UNL     1     -11.966  51.221  43.759  0.00  0.00    +0.000 HD
ENDBRANCH  29  30
ENDBRANCH  28  29
ENDBRANCH   5  28
TORSDOF 5
ENDMDL
MODEL 5
REMARK VINA RESULT:      -7.5      3.065      5.290
REMARK  Name = 338542
REMARK  7 active torsions:
REMARK  status: ('A' for Active; 'I' for Inactive)
REMARK    1  A    between atoms: C_6  and  C_10
REMARK    2  A    between atoms: C_14  and  O_18
REMARK    3  A    between atoms: N_17  and  C_21
REMARK    4  A    between atoms: C_21  and  C_24
REMARK    5  A    between atoms: C_24  and  N_27
REMARK    6  A    between atoms: N_27  and  C_28
REMARK    7  A    between atoms: N_27  and  C_29
REMARK                            x       y       z     vdW  Elec       q    Type
REMARK                         _______ _______ _______ _____ _____    ______ ____
ROOT
ATOM      1  C   UNL     1     -10.709  55.674  48.347  0.00  0.00    +0.000 A 
ATOM      2  C   UNL     1      -9.279  55.582  48.791  0.00  0.00    +0.000 A 
ATOM      3  C   UNL     1     -11.087  55.132  47.178  0.00  0.00    +0.000 A 
ATOM      4  O   UNL     1      -8.983  56.023  49.904  0.00  0.00    +0.000 OA
ATOM      5  N   UNL     1      -8.357  54.988  47.940  0.00  0.00    +0.000 N 
ATOM      6  C   UNL     1     -10.116  54.422  46.337  0.00  0.00    +0.000 A 
ATOM      7  C   UNL     1      -8.770  54.342  46.733  0.00  0.00    +0.000 A 
ATOM      8  C   UNL     1     -10.522  53.801  45.142  0.00  0.00    +0.000 A 
ATOM      9  C   UNL     1      -7.875  53.600  45.941  0.00  0.00    +0.000 A 
ATOM     10  C   UNL     1      -9.616  53.091  44.354  0.00  0.00    +0.000 A 
ATOM     11  C   UNL     1      -8.292  52.990  44.757  0.00  0.00    +0.000 A 
ENDROOT
BRANCH   1  17
ATOM     12  S   UNL     1     -13.248  56.137  51.312  0.00  0.00    +0.000 S 
ATOM     13  O   UNL     1     -12.591  56.398  52.577  0.00  0.00    +0.000 OA
ATOM     14  O   UNL     1     -14.391  55.244  51.252  0.00  0.00    +0.000 OA
ATOM     15  N   UNL     1     -12.130  55.589  50.278  0.00  0.00    +0.000 N 
ATOM     16  C   UNL     1     -13.823  57.692  50.734  0.00  0.00    +0.000 A 
ATOM     17  C   UNL     1     -11.722  56.315  49.278  0.00  0.00    +0.000 C 
ATOM     18  C   UNL     1     -13.197  58.242  49.628  0.00  0.00    +0.000 A 
ATOM     19  C   UNL     1     -14.889  58.330  51.377  0.00  0.00    +0.000 A 
ATOM     20  N   UNL     1     -12.131  57.601  49.003  0.00  0.00    +0.000 N 
ATOM     21  C   UNL     1     -13.609  59.509  49.197  0.00  0.00    +0.000 A 
ATOM     22  C   UNL     1     -15.314  59.573  50.914  0.00  0.00    +0.000 A 
ATOM     23  C   UNL     1     -14.667  60.167  49.831  0.00  0.00    +0.000 A 
ATOM     24  H   UNL     1     -11.751  54.689  50.407  0.00  0.00    +0.000 HD
ATOM     25  H   UNL     1     -11.635  58.102  48.316  0.00  0.00    +0.000 HD
ENDBRANCH   1  17
BRANCH   3  26
ATOM     26  O   UNL     1     -12.384  55.141  46.698  0.00  0.00    +0.000 OA
ATOM     27  H   UNL     1     -12.625  55.729  46.009  0.00  0.00    +0.000 HD
ENDBRANCH   3  26
BRANCH   5  28
ATOM     28  C   UNL     1      -6.947  54.954  48.365  0.00  0.00    +0.000 C 
BRANCH  28  29
ATOM     29  C   UNL     1      -6.619  53.819  49.367  0.00  0.00    +0.000 C 
BRANCH  29  30
ATOM     30  N   UNL     1      -6.482  54.241  50.779  0.00  0.00    +0.000 N 
ATOM     31  C   UNL     1      -7.276  53.426  51.701  0.00  0.00    +0.000 C 
ATOM     32  C   UNL     1      -5.069  54.179  51.171  0.00  0.00    +0.000 C 
ATOM     33  H   UNL     1      -6.838  55.195  50.842  0.00  0.00    +0.000 HD
ENDBRANCH  29  30
ENDBRANCH  28  29
ENDBRANCH   5  28
TORSDOF 5
ENDMDL
MODEL 6
REMARK VINA RESULT:      -7.5      2.914      7.661
REMARK  Name = 338542
REMARK  7 active torsions:
REMARK  status: ('A' for Active; 'I' for Inactive)
REMARK    1  A    between atoms: C_6  and  C_10
REMARK    2  A    between atoms: C_14  and  O_18
REMARK    3  A    between atoms: N_17  and  C_21
REMARK    4  A    between atoms: C_21  and  C_24
REMARK    5  A    between atoms: C_24  and  N_27
REMARK    6  A    between atoms: N_27  and  C_28
REMARK    7  A    between atoms: N_27  and  C_29
REMARK                            x       y       z     vdW  Elec       q    Type
REMARK                         _______ _______ _______ _____ _____    ______ ____
ROOT
ATOM      1  C   UNL     1      -9.733  54.066  50.868  0.00  0.00    +0.000 A 
ATOM      2  C   UNL     1     -10.820  55.051  51.179  0.00  0.00    +0.000 A 
ATOM      3  C   UNL     1      -9.505  53.693  49.599  0.00  0.00    +0.000 A 
ATOM      4  O   UNL     1     -10.951  55.430  52.346  0.00  0.00    +0.000 OA
ATOM      5  N   UNL     1     -11.617  55.511  50.139  0.00  0.00    +0.000 N 
ATOM      6  C   UNL     1     -10.296  54.264  48.501  0.00  0.00    +0.000 A 
ATOM      7  C   UNL     1     -11.328  55.177  48.780  0.00  0.00    +0.000 A 
ATOM      8  C   UNL     1     -10.018  53.922  47.165  0.00  0.00    +0.000 A 
ATOM      9  C   UNL     1     -12.024  55.757  47.704  0.00  0.00    +0.000 A 
ATOM     10  C   UNL     1     -10.737  54.487  46.112  0.00  0.00    +0.000 A 
ATOM     11  C   UNL     1     -11.739  55.407  46.383  0.00  0.00    +0.000 A 
ENDROOT
BRANCH   1  17
ATOM     12  S   UNL     1      -6.554  53.426  53.089  0.00  0.00    +0.000 S 
ATOM     13  O   UNL     1      -6.217  54.561  53.926  0.00  0.00    +0.000 OA
ATOM     14  O   UNL     1      -5.507  52.678  52.417  0.00  0.00    +0.000 OA
ATOM     15  N   UNL     1      -7.607  53.934  51.969  0.00  0.00    +0.000 N 
ATOM     16  C   UNL     1      -7.369  52.276  54.136  0.00  0.00    +0.000 A 
ATOM     17  C   UNL     1      -8.854  53.569  52.001  0.00  0.00    +0.000 C 
ATOM     18  C   UNL     1      -8.726  52.077  53.943  0.00  0.00    +0.000 A 
ATOM     19  C   UNL     1      -6.649  51.586  55.116  0.00  0.00    +0.000 A 
ATOM     20  N   UNL     1      -9.432  52.778  52.970  0.00  0.00    +0.000 N 
ATOM     21  C   UNL     1      -9.396  51.207  54.812  0.00  0.00    +0.000 A 
ATOM     22  C   UNL     1      -7.322  50.695  55.950  0.00  0.00    +0.000 A 
ATOM     23  C   UNL     1      -8.696  50.513  55.804  0.00  0.00    +0.000 A 
ATOM     24  H   UNL     1      -7.296  54.529  51.248  0.00  0.00    +0.000 HD
ATOM     25  H   UNL     1     -10.414  52.703  52.974  0.00  0.00    +0.000 HD
ENDBRANCH   1  17
BRANCH   3  26
ATOM     26  O   UNL     1      -8.510  52.814  49.211  0.00  0.00    +0.000 OA
ATOM     27  H   UNL     1      -8.487  52.492  48.331  0.00  0.00    +0.000 HD
ENDBRANCH   3  26
BRANCH   5  28
ATOM     28  C   UNL     1     -12.715  56.435  50.467  0.00  0.00    +0.000 C 
BRANCH  28  29
ATOM     29  C   UNL     1     -14.027  55.729  50.891  0.00  0.00    +0.000 C 
BRANCH  29  30
ATOM     30  N   UNL     1     -14.676  56.275  52.105  0.00  0.00    +0.000 N 
ATOM     31  C   UNL     1     -13.882  57.313  52.763  0.00  0.00    +0.000 C 
ATOM     32  C   UNL     1     -15.991  56.822  51.749  0.00  0.00    +0.000 C 
ATOM     33  H   UNL     1     -14.768  55.504  52.766  0.00  0.00    +0.000 HD
ENDBRANCH  29  30
ENDBRANCH  28  29
ENDBRANCH   5  28
TORSDOF 5
ENDMDL
MODEL 7
REMARK VINA RESULT:      -7.4      1.897      2.115
REMARK  Name = 338542
REMARK  7 active torsions:
REMARK  status: ('A' for Active; 'I' for Inactive)
REMARK    1  A    between atoms: C_6  and  C_10
REMARK    2  A    between atoms: C_14  and  O_18
REMARK    3  A    between atoms: N_17  and  C_21
REMARK    4  A    between atoms: C_21  and  C_24
REMARK    5  A    between atoms: C_24  and  N_27
REMARK    6  A    between atoms: N_27  and  C_28
REMARK    7  A    between atoms: N_27  and  C_29
REMARK                            x       y       z     vdW  Elec       q    Type
REMARK                         _______ _______ _______ _____ _____    ______ ____
ROOT
ATOM      1  C   UNL     1     -11.076  54.637  50.947  0.00  0.00    +0.000 A 
ATOM      2  C   UNL     1      -9.655  55.053  50.714  0.00  0.00    +0.000 A 
ATOM      3  C   UNL     1     -11.357  53.379  51.325  0.00  0.00    +0.000 A 
ATOM      4  O   UNL     1      -9.427  56.234  50.443  0.00  0.00    +0.000 OA
ATOM      5  N   UNL     1      -8.655  54.096  50.833  0.00  0.00    +0.000 N 
ATOM      6  C   UNL     1     -10.278  52.407  51.540  0.00  0.00    +0.000 A 
ATOM      7  C   UNL     1      -8.942  52.779  51.310  0.00  0.00    +0.000 A 
ATOM      8  C   UNL     1     -10.564  51.108  51.995  0.00  0.00    +0.000 A 
ATOM      9  C   UNL     1      -7.925  51.849  51.588  0.00  0.00    +0.000 A 
ATOM     10  C   UNL     1      -9.545  50.188  52.240  0.00  0.00    +0.000 A 
ATOM     11  C   UNL     1      -8.224  50.561  52.037  0.00  0.00    +0.000 A 
ENDROOT
BRANCH   1  17
ATOM     12  S   UNL     1     -13.485  57.321  49.383  0.00  0.00    +0.000 S 
ATOM     13  O   UNL     1     -14.594  56.726  48.663  0.00  0.00    +0.000 OA
ATOM     14  O   UNL     1     -12.802  58.482  48.843  0.00  0.00    +0.000 OA
ATOM     15  N   UNL     1     -12.383  56.162  49.636  0.00  0.00    +0.000 N 
ATOM     16  C   UNL     1     -14.129  57.823  50.937  0.00  0.00    +0.000 A 
ATOM     17  C   UNL     1     -12.171  55.682  50.826  0.00  0.00    +0.000 C 
ATOM     18  C   UNL     1     -13.722  57.124  52.062  0.00  0.00    +0.000 A 
ATOM     19  C   UNL     1     -15.011  58.905  51.016  0.00  0.00    +0.000 A 
ATOM     20  N   UNL     1     -12.851  56.042  51.968  0.00  0.00    +0.000 N 
ATOM     21  C   UNL     1     -14.276  57.479  53.297  0.00  0.00    +0.000 A 
ATOM     22  C   UNL     1     -15.526  59.272  52.257  0.00  0.00    +0.000 A 
ATOM     23  C   UNL     1     -15.166  58.552  53.396  0.00  0.00    +0.000 A 
ATOM     24  H   UNL     1     -11.863  55.815  48.875  0.00  0.00    +0.000 HD
ATOM     25  H   UNL     1     -12.710  55.496  52.776  0.00  0.00    +0.000 HD
ENDBRANCH   1  17
BRANCH   3  26
ATOM     26  O   UNL     1     -12.631  52.911  51.589  0.00  0.00    +0.000 OA
ATOM     27  H   UNL     1     -13.345  53.512  51.666  0.00  0.00    +0.000 HD
ENDBRANCH   3  26
BRANCH   5  28
ATOM     28  C   UNL     1      -7.270  54.506  50.548  0.00  0.00    +0.000 C 
BRANCH  28  29
ATOM     29  C   UNL     1      -6.485  54.983  51.795  0.00  0.00    +0.000 C 
BRANCH  29  30
ATOM     30  N   UNL     1      -5.023  54.751  51.751  0.00  0.00    +0.000 N 
ATOM     31  C   UNL     1      -4.477  54.283  53.026  0.00  0.00    +0.000 C 
ATOM     32  C   UNL     1      -4.718  53.769  50.703  0.00  0.00    +0.000 C 
ATOM     33  H   UNL     1      -4.585  55.649  51.549  0.00  0.00    +0.000 HD
ENDBRANCH  29  30
ENDBRANCH  28  29
ENDBRANCH   5  28
TORSDOF 5
ENDMDL
MODEL 8
REMARK VINA RESULT:      -7.4      3.663      5.379
REMARK  Name = 338542
REMARK  7 active torsions:
REMARK  status: ('A' for Active; 'I' for Inactive)
REMARK    1  A    between atoms: C_6  and  C_10
REMARK    2  A    between atoms: C_14  and  O_18
REMARK    3  A    between atoms: N_17  and  C_21
REMARK    4  A    between atoms: C_21  and  C_24
REMARK    5  A    between atoms: C_24  and  N_27
REMARK    6  A    between atoms: N_27  and  C_28
REMARK    7  A    between atoms: N_27  and  C_29
REMARK                            x       y       z     vdW  Elec       q    Type
REMARK                         _______ _______ _______ _____ _____    ______ ____
ROOT
ATOM      1  C   UNL     1     -11.551  55.689  48.882  0.00  0.00    +0.000 A 
ATOM      2  C   UNL     1     -11.655  55.371  47.420  0.00  0.00    +0.000 A 
ATOM      3  C   UNL     1     -10.595  55.115  49.630  0.00  0.00    +0.000 A 
ATOM      4  O   UNL     1     -12.495  55.975  46.749  0.00  0.00    +0.000 OA
ATOM      5  N   UNL     1     -10.789  54.429  46.882  0.00  0.00    +0.000 N 
ATOM      6  C   UNL     1      -9.627  54.193  49.022  0.00  0.00    +0.000 A 
ATOM      7  C   UNL     1      -9.723  53.875  47.656  0.00  0.00    +0.000 A 
ATOM      8  C   UNL     1      -8.587  53.638  49.789  0.00  0.00    +0.000 A 
ATOM      9  C   UNL     1      -8.743  53.042  47.087  0.00  0.00    +0.000 A 
ATOM     10  C   UNL     1      -7.639  52.792  49.215  0.00  0.00    +0.000 A 
ATOM     11  C   UNL     1      -7.717  52.496  47.861  0.00  0.00    +0.000 A 
ENDROOT
BRANCH   1  17
ATOM     12  S   UNL     1     -13.482  59.072  49.406  0.00  0.00    +0.000 S 
ATOM     13  O   UNL     1     -14.608  59.220  48.505  0.00  0.00    +0.000 OA
ATOM     14  O   UNL     1     -12.619  60.205  49.689  0.00  0.00    +0.000 OA
ATOM     15  N   UNL     1     -12.559  57.865  48.848  0.00  0.00    +0.000 N 
ATOM     16  C   UNL     1     -14.158  58.586  50.952  0.00  0.00    +0.000 A 
ATOM     17  C   UNL     1     -12.490  56.726  49.471  0.00  0.00    +0.000 C 
ATOM     18  C   UNL     1     -13.922  57.291  51.381  0.00  0.00    +0.000 A 
ATOM     19  C   UNL     1     -14.896  59.497  51.714  0.00  0.00    +0.000 A 
ATOM     20  N   UNL     1     -13.193  56.391  50.608  0.00  0.00    +0.000 N 
ATOM     21  C   UNL     1     -14.506  56.876  52.583  0.00  0.00    +0.000 A 
ATOM     22  C   UNL     1     -15.441  59.082  52.927  0.00  0.00    +0.000 A 
ATOM     23  C   UNL     1     -15.255  57.769  53.356  0.00  0.00    +0.000 A 
ATOM     24  H   UNL     1     -12.039  57.996  48.022  0.00  0.00    +0.000 HD
ATOM     25  H   UNL     1     -13.179  55.448  50.894  0.00  0.00    +0.000 HD
ENDBRANCH   1  17
BRANCH   3  26
ATOM     26  O   UNL     1     -10.403  55.365  50.976  0.00  0.00    +0.000 OA
ATOM     27  H   UNL     1     -11.140  55.500  51.538  0.00  0.00    +0.000 HD
ENDBRANCH   3  26
BRANCH   5  28
ATOM     28  C   UNL     1     -10.939  54.087  45.458  0.00  0.00    +0.000 C 
BRANCH  28  29
ATOM     29  C   UNL     1     -11.922  52.919  45.191  0.00  0.00    +0.000 C 
BRANCH  29  30
ATOM     30  N   UNL     1     -11.480  51.939  44.174  0.00  0.00    +0.000 N 
ATOM     31  C   UNL     1     -10.238  52.328  43.503  0.00  0.00    +0.000 C 
ATOM     32  C   UNL     1     -11.298  50.628  44.810  0.00  0.00    +0.000 C 
ATOM     33  H   UNL     1     -12.207  51.901  43.460  0.00  0.00    +0.000 HD
ENDBRANCH  29  30
ENDBRANCH  28  29
ENDBRANCH   5  28
TORSDOF 5
ENDMDL
MODEL 9
REMARK VINA RESULT:      -7.4      2.980      5.164
REMARK  Name = 338542
REMARK  7 active torsions:
REMARK  status: ('A' for Active; 'I' for Inactive)
REMARK    1  A    between atoms: C_6  and  C_10
REMARK    2  A    between atoms: C_14  and  O_18
REMARK    3  A    between atoms: N_17  and  C_21
REMARK    4  A    between atoms: C_21  and  C_24
REMARK    5  A    between atoms: C_24  and  N_27
REMARK    6  A    between atoms: N_27  and  C_28
REMARK    7  A    between atoms: N_27  and  C_29
REMARK                            x       y       z     vdW  Elec       q    Type
REMARK                         _______ _______ _______ _____ _____    ______ ____
ROOT
ATOM      1  C   UNL     1     -11.405  55.912  48.908  0.00  0.00    +0.000 A 
ATOM      2  C   UNL     1     -10.398  55.270  49.814  0.00  0.00    +0.000 A 
ATOM      3  C   UNL     1     -11.462  55.566  47.611  0.00  0.00    +0.000 A 
ATOM      4  O   UNL     1     -10.425  55.554  51.014  0.00  0.00    +0.000 OA
ATOM      5  N   UNL     1      -9.493  54.368  49.269  0.00  0.00    +0.000 N 
ATOM      6  C   UNL     1     -10.560  54.539  47.074  0.00  0.00    +0.000 A 
ATOM      7  C   UNL     1      -9.601  53.941  47.909  0.00  0.00    +0.000 A 
ATOM      8  C   UNL     1     -10.659  54.131  45.731  0.00  0.00    +0.000 A 
ATOM      9  C   UNL     1      -8.796  52.914  47.384  0.00  0.00    +0.000 A 
ATOM     10  C   UNL     1      -9.834  53.130  45.220  0.00  0.00    +0.000 A 
ATOM     11  C   UNL     1      -8.903  52.521  46.049  0.00  0.00    +0.000 A 
ENDROOT
BRANCH   1  17
ATOM     12  S   UNL     1     -13.525  59.178  49.448  0.00  0.00    +0.000 S 
ATOM     13  O   UNL     1     -14.658  59.266  48.548  0.00  0.00    +0.000 OA
ATOM     14  O   UNL     1     -12.728  60.356  49.736  0.00  0.00    +0.000 OA
ATOM     15  N   UNL     1     -12.535  58.027  48.885  0.00  0.00    +0.000 N 
ATOM     16  C   UNL     1     -14.171  58.647  50.992  0.00  0.00    +0.000 A 
ATOM     17  C   UNL     1     -12.401  56.891  49.502  0.00  0.00    +0.000 C 
ATOM     18  C   UNL     1     -13.861  57.365  51.415  0.00  0.00    +0.000 A 
ATOM     19  C   UNL     1     -14.959  59.511  51.758  0.00  0.00    +0.000 A 
ATOM     20  N   UNL     1     -13.083  56.511  50.638  0.00  0.00    +0.000 N 
ATOM     21  C   UNL     1     -14.421  56.912  52.615  0.00  0.00    +0.000 A 
ATOM     22  C   UNL     1     -15.479  59.059  52.969  0.00  0.00    +0.000 A 
ATOM     23  C   UNL     1     -15.219  57.757  53.392  0.00  0.00    +0.000 A 
ATOM     24  H   UNL     1     -12.023  58.192  48.059  0.00  0.00    +0.000 HD
ATOM     25  H   UNL     1     -13.016  55.570  50.919  0.00  0.00    +0.000 HD
ENDBRANCH   1  17
BRANCH   3  26
ATOM     26  O   UNL     1     -12.372  56.081  46.706  0.00  0.00    +0.000 OA
ATOM     27  H   UNL     1     -12.525  57.005  46.669  0.00  0.00    +0.000 HD
ENDBRANCH   3  26
BRANCH   5  28
ATOM     28  C   UNL     1      -8.475  53.787  50.159  0.00  0.00    +0.000 C 
BRANCH  28  29
ATOM     29  C   UNL     1      -8.904  52.454  50.821  0.00  0.00    +0.000 C 
BRANCH  29  30
ATOM     30  N   UNL     1     -10.269  52.441  51.393  0.00  0.00    +0.000 N 
ATOM     31  C   UNL     1     -11.052  51.273  50.985  0.00  0.00    +0.000 C 
ATOM     32  C   UNL     1     -10.184  52.479  52.858  0.00  0.00    +0.000 C 
ATOM     33  H   UNL     1     -10.752  53.265  51.033  0.00  0.00    +0.000 HD
ENDBRANCH  29  30
ENDBRANCH  28  29
ENDBRANCH   5  28
TORSDOF 5
ENDMDL
