MODEL 1
REMARK VINA RESULT:      -8.6      0.000      0.000
REMARK  Name = 338168
REMARK  5 active torsions:
REMARK  status: ('A' for Active; 'I' for Inactive)
REMARK    1  A    between atoms: C_6  and  C_10
REMARK    2  A    between atoms: C_14  and  O_18
REMARK    3  A    between atoms: N_17  and  C_21
REMARK    4  A    between atoms: C_21  and  C_24
REMARK    5  A    between atoms: C_24  and  C_27
REMARK                            x       y       z     vdW  Elec       q    Type
REMARK                         _______ _______ _______ _____ _____    ______ ____
ROOT
ATOM      1  C   UNL     1      -9.975  54.541  52.368  0.00  0.00    +0.000 A 
ATOM      2  C   UNL     1      -8.582  55.041  52.246  0.00  0.00    +0.000 A 
ATOM      3  C   UNL     1     -10.230  53.416  53.058  0.00  0.00    +0.000 A 
ATOM      4  O   UNL     1      -8.380  55.977  51.467  0.00  0.00    +0.000 OA
ATOM      5  N   UNL     1      -7.585  54.464  53.035  0.00  0.00    +0.000 N 
ATOM      6  C   UNL     1      -9.148  52.704  53.745  0.00  0.00    +0.000 A 
ATOM      7  C   UNL     1      -7.843  53.240  53.750  0.00  0.00    +0.000 A 
ATOM      8  C   UNL     1      -9.425  51.509  54.435  0.00  0.00    +0.000 A 
ATOM      9  C   UNL     1      -6.846  52.544  54.460  0.00  0.00    +0.000 A 
ATOM     10  C   UNL     1      -8.427  50.864  55.146  0.00  0.00    +0.000 A 
ATOM     11  C   UNL     1      -7.142  51.372  55.166  0.00  0.00    +0.000 A 
ATOM     12  F   UNL     1      -8.711  49.745  55.825  0.00  0.00    +0.000 F 
ENDROOT
BRANCH   1  18
ATOM     13  S   UNL     1     -12.362  55.785  49.431  0.00  0.00    +0.000 S 
ATOM     14  O   UNL     1     -13.041  54.541  49.143  0.00  0.00    +0.000 OA
ATOM     15  O   UNL     1     -11.923  56.680  48.385  0.00  0.00    +0.000 OA
ATOM     16  N   UNL     1     -11.041  55.450  50.360  0.00  0.00    +0.000 N 
ATOM     17  C   UNL     1     -13.354  56.690  50.539  0.00  0.00    +0.000 A 
ATOM     18  C   UNL     1     -11.116  55.273  51.735  0.00  0.00    +0.000 C 
ATOM     19  C   UNL     1     -13.092  56.548  51.898  0.00  0.00    +0.000 A 
ATOM     20  C   UNL     1     -14.349  57.546  50.054  0.00  0.00    +0.000 A 
ATOM     21  N   UNL     1     -12.103  55.716  52.452  0.00  0.00    +0.000 N 
ATOM     22  C   UNL     1     -13.855  57.311  52.788  0.00  0.00    +0.000 A 
ATOM     23  C   UNL     1     -15.104  58.286  50.958  0.00  0.00    +0.000 A 
ATOM     24  C   UNL     1     -14.853  58.175  52.325  0.00  0.00    +0.000 A 
ATOM     25  H   UNL     1     -10.163  55.374  49.921  0.00  0.00    +0.000 HD
ATOM     26  H   UNL     1     -12.159  55.466  53.402  0.00  0.00    +0.000 HD
ENDBRANCH   1  18
BRANCH   3  27
ATOM     27  O   UNL     1     -11.487  52.850  53.206  0.00  0.00    +0.000 OA
ATOM     28  H   UNL     1     -11.831  52.691  54.062  0.00  0.00    +0.000 HD
ENDBRANCH   3  27
BRANCH   5  29
ATOM     29  C   UNL     1      -6.205  55.002  52.955  0.00  0.00    +0.000 C 
BRANCH  29  30
ATOM     30  C   UNL     1      -5.211  54.217  52.080  0.00  0.00    +0.000 C 
BRANCH  30  31
ATOM     31  C   UNL     1      -5.306  54.561  50.620  0.00  0.00    +0.000 C 
ATOM     32  C   UNL     1      -6.116  53.762  49.632  0.00  0.00    +0.000 C 
ATOM     33  C   UNL     1      -4.617  53.657  49.627  0.00  0.00    +0.000 C 
ENDBRANCH  30  31
ENDBRANCH  29  30
ENDBRANCH   5  29
TORSDOF 5
ENDMDL
MODEL 2
REMARK VINA RESULT:      -8.3      3.886      7.425
REMARK  Name = 338168
REMARK  5 active torsions:
REMARK  status: ('A' for Active; 'I' for Inactive)
REMARK    1  A    between atoms: C_6  and  C_10
REMARK    2  A    between atoms: C_14  and  O_18
REMARK    3  A    between atoms: N_17  and  C_21
REMARK    4  A    between atoms: C_21  and  C_24
REMARK    5  A    between atoms: C_24  and  C_27
REMARK                            x       y       z     vdW  Elec       q    Type
REMARK                         _______ _______ _______ _____ _____    ______ ____
ROOT
ATOM      1  C   UNL     1     -10.138  55.078  50.775  0.00  0.00    +0.000 A 
ATOM      2  C   UNL     1      -9.739  55.152  49.346  0.00  0.00    +0.000 A 
ATOM      3  C   UNL     1     -11.346  55.522  51.161  0.00  0.00    +0.000 A 
ATOM      4  O   UNL     1      -8.564  54.890  49.070  0.00  0.00    +0.000 OA
ATOM      5  N   UNL     1     -10.704  55.472  48.390  0.00  0.00    +0.000 N 
ATOM      6  C   UNL     1     -12.304  56.028  50.172  0.00  0.00    +0.000 A 
ATOM      7  C   UNL     1     -11.989  55.980  48.797  0.00  0.00    +0.000 A 
ATOM      8  C   UNL     1     -13.552  56.522  50.595  0.00  0.00    +0.000 A 
ATOM      9  C   UNL     1     -12.957  56.436  47.882  0.00  0.00    +0.000 A 
ATOM     10  C   UNL     1     -14.491  56.937  49.667  0.00  0.00    +0.000 A 
ATOM     11  C   UNL     1     -14.206  56.897  48.315  0.00  0.00    +0.000 A 
ATOM     12  F   UNL     1     -15.687  57.374  50.081  0.00  0.00    +0.000 F 
ENDROOT
BRANCH   1  18
ATOM     13  S   UNL     1      -6.915  54.882  53.108  0.00  0.00    +0.000 S 
ATOM     14  O   UNL     1      -7.228  55.956  54.024  0.00  0.00    +0.000 OA
ATOM     15  O   UNL     1      -5.581  54.675  52.593  0.00  0.00    +0.000 OA
ATOM     16  N   UNL     1      -7.918  55.006  51.804  0.00  0.00    +0.000 N 
ATOM     17  C   UNL     1      -7.454  53.391  53.829  0.00  0.00    +0.000 A 
ATOM     18  C   UNL     1      -9.215  54.510  51.806  0.00  0.00    +0.000 C 
ATOM     19  C   UNL     1      -8.727  52.940  53.495  0.00  0.00    +0.000 A 
ATOM     20  C   UNL     1      -6.607  52.677  54.683  0.00  0.00    +0.000 A 
ATOM     21  N   UNL     1      -9.623  53.601  52.637  0.00  0.00    +0.000 N 
ATOM     22  C   UNL     1      -9.143  51.719  54.035  0.00  0.00    +0.000 A 
ATOM     23  C   UNL     1      -7.046  51.471  55.218  0.00  0.00    +0.000 A 
ATOM     24  C   UNL     1      -8.312  50.987  54.889  0.00  0.00    +0.000 A 
ATOM     25  H   UNL     1      -7.582  55.447  50.991  0.00  0.00    +0.000 HD
ATOM     26  H   UNL     1     -10.579  53.369  52.666  0.00  0.00    +0.000 HD
ENDBRANCH   1  18
BRANCH   3  27
ATOM     27  O   UNL     1     -11.804  55.527  52.469  0.00  0.00    +0.000 OA
ATOM     28  H   UNL     1     -12.711  55.378  52.650  0.00  0.00    +0.000 HD
ENDBRANCH   3  27
BRANCH   5  29
ATOM     29  C   UNL     1     -10.317  55.488  46.958  0.00  0.00    +0.000 C 
BRANCH  29  30
ATOM     30  C   UNL     1     -10.185  54.119  46.267  0.00  0.00    +0.000 C 
BRANCH  30  31
ATOM     31  C   UNL     1     -11.237  53.877  45.221  0.00  0.00    +0.000 C 
ATOM     32  C   UNL     1     -12.026  52.598  45.120  0.00  0.00    +0.000 C 
ATOM     33  C   UNL     1     -10.939  52.886  44.123  0.00  0.00    +0.000 C 
ENDBRANCH  30  31
ENDBRANCH  29  30
ENDBRANCH   5  29
TORSDOF 5
ENDMDL
MODEL 3
REMARK VINA RESULT:      -8.3      3.864      5.453
REMARK  Name = 338168
REMARK  5 active torsions:
REMARK  status: ('A' for Active; 'I' for Inactive)
REMARK    1  A    between atoms: C_6  and  C_10
REMARK    2  A    between atoms: C_14  and  O_18
REMARK    3  A    between atoms: N_17  and  C_21
REMARK    4  A    between atoms: C_21  and  C_24
REMARK    5  A    between atoms: C_24  and  C_27
REMARK                            x       y       z     vdW  Elec       q    Type
REMARK                         _______ _______ _______ _____ _____    ______ ____
ROOT
ATOM      1  C   UNL     1     -11.553  55.719  48.949  0.00  0.00    +0.000 A 
ATOM      2  C   UNL     1     -10.499  54.999  49.709  0.00  0.00    +0.000 A 
ATOM      3  C   UNL     1     -11.718  55.484  47.636  0.00  0.00    +0.000 A 
ATOM      4  O   UNL     1     -10.276  55.372  50.865  0.00  0.00    +0.000 OA
ATOM      5  N   UNL     1      -9.843  53.926  49.104  0.00  0.00    +0.000 N 
ATOM      6  C   UNL     1     -10.903  54.474  46.954  0.00  0.00    +0.000 A 
ATOM      7  C   UNL     1      -9.990  53.689  47.690  0.00  0.00    +0.000 A 
ATOM      8  C   UNL     1     -11.063  54.262  45.571  0.00  0.00    +0.000 A 
ATOM      9  C   UNL     1      -9.261  52.702  47.000  0.00  0.00    +0.000 A 
ATOM     10  C   UNL     1     -10.349  53.265  44.929  0.00  0.00    +0.000 A 
ATOM     11  C   UNL     1      -9.452  52.482  45.630  0.00  0.00    +0.000 A 
ATOM     12  F   UNL     1     -10.536  53.053  43.620  0.00  0.00    +0.000 F 
ENDROOT
BRANCH   1  18
ATOM     13  S   UNL     1     -13.505  59.156  49.449  0.00  0.00    +0.000 S 
ATOM     14  O   UNL     1     -14.499  59.010  48.409  0.00  0.00    +0.000 OA
ATOM     15  O   UNL     1     -12.837  60.412  49.702  0.00  0.00    +0.000 OA
ATOM     16  N   UNL     1     -12.327  58.028  49.200  0.00  0.00    +0.000 N 
ATOM     17  C   UNL     1     -14.211  58.607  50.943  0.00  0.00    +0.000 A 
ATOM     18  C   UNL     1     -12.449  56.711  49.622  0.00  0.00    +0.000 C 
ATOM     19  C   UNL     1     -13.999  57.280  51.304  0.00  0.00    +0.000 A 
ATOM     20  C   UNL     1     -14.932  59.496  51.748  0.00  0.00    +0.000 A 
ATOM     21  N   UNL     1     -13.276  56.339  50.549  0.00  0.00    +0.000 N 
ATOM     22  C   UNL     1     -14.524  56.850  52.526  0.00  0.00    +0.000 A 
ATOM     23  C   UNL     1     -15.456  59.043  52.954  0.00  0.00    +0.000 A 
ATOM     24  C   UNL     1     -15.246  57.722  53.348  0.00  0.00    +0.000 A 
ATOM     25  H   UNL     1     -11.503  58.301  48.735  0.00  0.00    +0.000 HD
ATOM     26  H   UNL     1     -13.400  55.379  50.729  0.00  0.00    +0.000 HD
ENDBRANCH   1  18
BRANCH   3  27
ATOM     27  O   UNL     1     -12.649  56.122  46.831  0.00  0.00    +0.000 OA
ATOM     28  H   UNL     1     -13.564  55.998  46.984  0.00  0.00    +0.000 HD
ENDBRANCH   3  27
BRANCH   5  29
ATOM     29  C   UNL     1      -8.832  53.171  49.883  0.00  0.00    +0.000 C 
BRANCH  29  30
ATOM     30  C   UNL     1      -7.588  53.956  50.337  0.00  0.00    +0.000 C 
BRANCH  30  31
ATOM     31  C   UNL     1      -6.988  54.798  49.246  0.00  0.00    +0.000 C 
ATOM     32  C   UNL     1      -6.087  54.244  48.173  0.00  0.00    +0.000 C 
ATOM     33  C   UNL     1      -5.504  55.068  49.287  0.00  0.00    +0.000 C 
ENDBRANCH  30  31
ENDBRANCH  29  30
ENDBRANCH   5  29
TORSDOF 5
ENDMDL
MODEL 4
REMARK VINA RESULT:      -8.2      3.673      7.278
REMARK  Name = 338168
REMARK  5 active torsions:
REMARK  status: ('A' for Active; 'I' for Inactive)
REMARK    1  A    between atoms: C_6  and  C_10
REMARK    2  A    between atoms: C_14  and  O_18
REMARK    3  A    between atoms: N_17  and  C_21
REMARK    4  A    between atoms: C_21  and  C_24
REMARK    5  A    between atoms: C_24  and  C_27
REMARK                            x       y       z     vdW  Elec       q    Type
REMARK                         _______ _______ _______ _____ _____    ______ ____
ROOT
ATOM      1  C   UNL     1     -10.179  55.438  50.472  0.00  0.00    +0.000 A 
ATOM      2  C   UNL     1     -10.348  55.692  49.019  0.00  0.00    +0.000 A 
ATOM      3  C   UNL     1     -11.215  55.610  51.311  0.00  0.00    +0.000 A 
ATOM      4  O   UNL     1      -9.331  55.685  48.319  0.00  0.00    +0.000 OA
ATOM      5  N   UNL     1     -11.633  55.887  48.510  0.00  0.00    +0.000 N 
ATOM      6  C   UNL     1     -12.534  55.990  50.796  0.00  0.00    +0.000 A 
ATOM      7  C   UNL     1     -12.741  56.105  49.405  0.00  0.00    +0.000 A 
ATOM      8  C   UNL     1     -13.601  56.200  51.690  0.00  0.00    +0.000 A 
ATOM      9  C   UNL     1     -14.036  56.429  48.955  0.00  0.00    +0.000 A 
ATOM     10  C   UNL     1     -14.867  56.491  51.212  0.00  0.00    +0.000 A 
ATOM     11  C   UNL     1     -15.095  56.605  49.854  0.00  0.00    +0.000 A 
ATOM     12  F   UNL     1     -15.880  56.656  52.072  0.00  0.00    +0.000 F 
ENDROOT
BRANCH   1  18
ATOM     13  S   UNL     1      -6.578  53.736  50.465  0.00  0.00    +0.000 S 
ATOM     14  O   UNL     1      -5.867  54.702  49.658  0.00  0.00    +0.000 OA
ATOM     15  O   UNL     1      -6.380  52.312  50.311  0.00  0.00    +0.000 OA
ATOM     16  N   UNL     1      -8.195  54.014  50.301  0.00  0.00    +0.000 N 
ATOM     17  C   UNL     1      -6.317  54.141  52.138  0.00  0.00    +0.000 A 
ATOM     18  C   UNL     1      -8.866  54.987  51.030  0.00  0.00    +0.000 C 
ATOM     19  C   UNL     1      -7.264  54.949  52.758  0.00  0.00    +0.000 A 
ATOM     20  C   UNL     1      -5.204  53.633  52.819  0.00  0.00    +0.000 A 
ATOM     21  N   UNL     1      -8.407  55.483  52.137  0.00  0.00    +0.000 N 
ATOM     22  C   UNL     1      -7.081  55.237  54.114  0.00  0.00    +0.000 A 
ATOM     23  C   UNL     1      -5.037  53.942  54.164  0.00  0.00    +0.000 A 
ATOM     24  C   UNL     1      -5.979  54.738  54.816  0.00  0.00    +0.000 A 
ATOM     25  H   UNL     1      -8.706  53.467  49.661  0.00  0.00    +0.000 HD
ATOM     26  H   UNL     1      -8.869  56.246  52.552  0.00  0.00    +0.000 HD
ENDBRANCH   1  18
BRANCH   3  27
ATOM     27  O   UNL     1     -11.156  55.430  52.684  0.00  0.00    +0.000 OA
ATOM     28  H   UNL     1     -10.387  55.067  53.077  0.00  0.00    +0.000 HD
ENDBRANCH   3  27
BRANCH   5  29
ATOM     29  C   UNL     1     -11.806  56.082  47.050  0.00  0.00    +0.000 C 
BRANCH  29  30
ATOM     30  C   UNL     1     -12.092  54.819  46.218  0.00  0.00    +0.000 C 
BRANCH  30  31
ATOM     31  C   UNL     1     -10.860  54.229  45.592  0.00  0.00    +0.000 C 
ATOM     32  C   UNL     1     -10.899  53.123  44.569  0.00  0.00    +0.000 C 
ATOM     33  C   UNL     1     -10.466  52.825  45.977  0.00  0.00    +0.000 C 
ENDBRANCH  30  31
ENDBRANCH  29  30
ENDBRANCH   5  29
TORSDOF 5
ENDMDL
MODEL 5
REMARK VINA RESULT:      -8.0      4.028      5.583
REMARK  Name = 338168
REMARK  5 active torsions:
REMARK  status: ('A' for Active; 'I' for Inactive)
REMARK    1  A    between atoms: C_6  and  C_10
REMARK    2  A    between atoms: C_14  and  O_18
REMARK    3  A    between atoms: N_17  and  C_21
REMARK    4  A    between atoms: C_21  and  C_24
REMARK    5  A    between atoms: C_24  and  C_27
REMARK                            x       y       z     vdW  Elec       q    Type
REMARK                         _______ _______ _______ _____ _____    ______ ____
ROOT
ATOM      1  C   UNL     1     -10.617  55.344  48.832  0.00  0.00    +0.000 A 
ATOM      2  C   UNL     1     -10.800  54.298  47.793  0.00  0.00    +0.000 A 
ATOM      3  C   UNL     1      -9.388  55.615  49.305  0.00  0.00    +0.000 A 
ATOM      4  O   UNL     1     -11.958  53.970  47.516  0.00  0.00    +0.000 OA
ATOM      5  N   UNL     1      -9.675  53.768  47.160  0.00  0.00    +0.000 N 
ATOM      6  C   UNL     1      -8.213  54.927  48.762  0.00  0.00    +0.000 A 
ATOM      7  C   UNL     1      -8.358  54.029  47.684  0.00  0.00    +0.000 A 
ATOM      8  C   UNL     1      -6.937  55.197  49.292  0.00  0.00    +0.000 A 
ATOM      9  C   UNL     1      -7.196  53.425  47.167  0.00  0.00    +0.000 A 
ATOM     10  C   UNL     1      -5.812  54.606  48.742  0.00  0.00    +0.000 A 
ATOM     11  C   UNL     1      -5.929  53.725  47.683  0.00  0.00    +0.000 A 
ATOM     12  F   UNL     1      -4.601  54.896  49.234  0.00  0.00    +0.000 F 
ENDROOT
BRANCH   1  18
ATOM     13  S   UNL     1     -13.916  57.573  48.700  0.00  0.00    +0.000 S 
ATOM     14  O   UNL     1     -14.841  56.585  48.192  0.00  0.00    +0.000 OA
ATOM     15  O   UNL     1     -13.923  58.942  48.238  0.00  0.00    +0.000 OA
ATOM     16  N   UNL     1     -12.382  57.004  48.485  0.00  0.00    +0.000 N 
ATOM     17  C   UNL     1     -14.048  57.586  50.436  0.00  0.00    +0.000 A 
ATOM     18  C   UNL     1     -11.782  56.115  49.367  0.00  0.00    +0.000 C 
ATOM     19  C   UNL     1     -13.164  56.786  51.154  0.00  0.00    +0.000 A 
ATOM     20  C   UNL     1     -14.995  58.404  51.063  0.00  0.00    +0.000 A 
ATOM     21  N   UNL     1     -12.184  55.951  50.589  0.00  0.00    +0.000 N 
ATOM     22  C   UNL     1     -13.237  56.832  52.549  0.00  0.00    +0.000 A 
ATOM     23  C   UNL     1     -15.057  58.424  52.452  0.00  0.00    +0.000 A 
ATOM     24  C   UNL     1     -14.173  57.644  53.197  0.00  0.00    +0.000 A 
ATOM     25  H   UNL     1     -11.872  57.308  47.700  0.00  0.00    +0.000 HD
ATOM     26  H   UNL     1     -11.794  55.229  51.133  0.00  0.00    +0.000 HD
ENDBRANCH   1  18
BRANCH   3  27
ATOM     27  O   UNL     1      -9.112  56.548  50.293  0.00  0.00    +0.000 OA
ATOM     28  H   UNL     1      -9.519  57.391  50.269  0.00  0.00    +0.000 HD
ENDBRANCH   3  27
BRANCH   5  29
ATOM     29  C   UNL     1      -9.862  52.767  46.082  0.00  0.00    +0.000 C 
BRANCH  29  30
ATOM     30  C   UNL     1      -9.886  53.306  44.641  0.00  0.00    +0.000 C 
BRANCH  30  31
ATOM     31  C   UNL     1      -8.956  52.570  43.717  0.00  0.00    +0.000 C 
ATOM     32  C   UNL     1      -8.581  53.073  42.347  0.00  0.00    +0.000 C 
ATOM     33  C   UNL     1      -9.539  51.923  42.484  0.00  0.00    +0.000 C 
ENDBRANCH  30  31
ENDBRANCH  29  30
ENDBRANCH   5  29
TORSDOF 5
ENDMDL
MODEL 6
REMARK VINA RESULT:      -8.0      4.912      7.795
REMARK  Name = 338168
REMARK  5 active torsions:
REMARK  status: ('A' for Active; 'I' for Inactive)
REMARK    1  A    between atoms: C_6  and  C_10
REMARK    2  A    between atoms: C_14  and  O_18
REMARK    3  A    between atoms: N_17  and  C_21
REMARK    4  A    between atoms: C_21  and  C_24
REMARK    5  A    between atoms: C_24  and  C_27
REMARK                            x       y       z     vdW  Elec       q    Type
REMARK                         _______ _______ _______ _____ _____    ______ ____
ROOT
ATOM      1  C   UNL     1     -11.392  54.170  47.915  0.00  0.00    +0.000 A 
ATOM      2  C   UNL     1     -11.470  53.332  49.138  0.00  0.00    +0.000 A 
ATOM      3  C   UNL     1     -12.072  55.327  47.846  0.00  0.00    +0.000 A 
ATOM      4  O   UNL     1     -10.968  52.205  49.088  0.00  0.00    +0.000 OA
ATOM      5  N   UNL     1     -12.065  53.861  50.284  0.00  0.00    +0.000 N 
ATOM      6  C   UNL     1     -12.847  55.804  48.996  0.00  0.00    +0.000 A 
ATOM      7  C   UNL     1     -12.823  55.085  50.209  0.00  0.00    +0.000 A 
ATOM      8  C   UNL     1     -13.582  57.001  48.897  0.00  0.00    +0.000 A 
ATOM      9  C   UNL     1     -13.548  55.604  51.299  0.00  0.00    +0.000 A 
ATOM     10  C   UNL     1     -14.262  57.496  49.996  0.00  0.00    +0.000 A 
ATOM     11  C   UNL     1     -14.250  56.810  51.196  0.00  0.00    +0.000 A 
ATOM     12  F   UNL     1     -14.930  58.653  49.898  0.00  0.00    +0.000 F 
ENDROOT
BRANCH   1  18
ATOM     13  S   UNL     1      -8.176  54.001  45.569  0.00  0.00    +0.000 S 
ATOM     14  O   UNL     1      -7.307  53.224  46.425  0.00  0.00    +0.000 OA
ATOM     15  O   UNL     1      -7.695  55.132  44.810  0.00  0.00    +0.000 OA
ATOM     16  N   UNL     1      -9.447  54.538  46.474  0.00  0.00    +0.000 N 
ATOM     17  C   UNL     1      -8.963  52.904  44.469  0.00  0.00    +0.000 A 
ATOM     18  C   UNL     1     -10.560  53.752  46.744  0.00  0.00    +0.000 C 
ATOM     19  C   UNL     1     -10.212  52.414  44.834  0.00  0.00    +0.000 A 
ATOM     20  C   UNL     1      -8.353  52.570  43.254  0.00  0.00    +0.000 A 
ATOM     21  N   UNL     1     -10.885  52.717  46.031  0.00  0.00    +0.000 N 
ATOM     22  C   UNL     1     -10.866  51.571  43.931  0.00  0.00    +0.000 A 
ATOM     23  C   UNL     1      -9.017  51.720  42.376  0.00  0.00    +0.000 A 
ATOM     24  C   UNL     1     -10.278  51.226  42.710  0.00  0.00    +0.000 A 
ATOM     25  H   UNL     1      -9.416  55.453  46.835  0.00  0.00    +0.000 HD
ATOM     26  H   UNL     1     -11.617  52.134  46.334  0.00  0.00    +0.000 HD
ENDBRANCH   1  18
BRANCH   3  27
ATOM     27  O   UNL     1     -12.091  56.166  46.743  0.00  0.00    +0.000 OA
ATOM     28  H   UNL     1     -12.900  56.355  46.311  0.00  0.00    +0.000 HD
ENDBRANCH   3  27
BRANCH   5  29
ATOM     29  C   UNL     1     -12.090  53.045  51.523  0.00  0.00    +0.000 C 
BRANCH  29  30
ATOM     30  C   UNL     1     -10.850  53.136  52.430  0.00  0.00    +0.000 C 
BRANCH  30  31
ATOM     31  C   UNL     1     -10.429  54.549  52.720  0.00  0.00    +0.000 C 
ATOM     32  C   UNL     1      -9.254  55.217  52.054  0.00  0.00    +0.000 C 
ATOM     33  C   UNL     1      -9.147  54.770  53.484  0.00  0.00    +0.000 C 
ENDBRANCH  30  31
ENDBRANCH  29  30
ENDBRANCH   5  29
TORSDOF 5
ENDMDL
MODEL 7
REMARK VINA RESULT:      -8.0      3.589      7.536
REMARK  Name = 338168
REMARK  5 active torsions:
REMARK  status: ('A' for Active; 'I' for Inactive)
REMARK    1  A    between atoms: C_6  and  C_10
REMARK    2  A    between atoms: C_14  and  O_18
REMARK    3  A    between atoms: N_17  and  C_21
REMARK    4  A    between atoms: C_21  and  C_24
REMARK    5  A    between atoms: C_24  and  C_27
REMARK                            x       y       z     vdW  Elec       q    Type
REMARK                         _______ _______ _______ _____ _____    ______ ____
ROOT
ATOM      1  C   UNL     1     -10.056  55.477  50.442  0.00  0.00    +0.000 A 
ATOM      2  C   UNL     1     -10.265  55.725  48.992  0.00  0.00    +0.000 A 
ATOM      3  C   UNL     1     -11.074  55.631  51.306  0.00  0.00    +0.000 A 
ATOM      4  O   UNL     1      -9.266  55.735  48.267  0.00  0.00    +0.000 OA
ATOM      5  N   UNL     1     -11.567  55.894  48.516  0.00  0.00    +0.000 N 
ATOM      6  C   UNL     1     -12.412  55.985  50.823  0.00  0.00    +0.000 A 
ATOM      7  C   UNL     1     -12.656  56.093  49.437  0.00  0.00    +0.000 A 
ATOM      8  C   UNL     1     -13.461  56.176  51.743  0.00  0.00    +0.000 A 
ATOM      9  C   UNL     1     -13.967  56.392  49.019  0.00  0.00    +0.000 A 
ATOM     10  C   UNL     1     -14.743  56.443  51.296  0.00  0.00    +0.000 A 
ATOM     11  C   UNL     1     -15.007  56.550  49.944  0.00  0.00    +0.000 A 
ATOM     12  F   UNL     1     -15.738  56.590  52.181  0.00  0.00    +0.000 F 
ENDROOT
BRANCH   1  18
ATOM     13  S   UNL     1      -7.150  54.998  53.124  0.00  0.00    +0.000 S 
ATOM     14  O   UNL     1      -7.765  53.985  53.952  0.00  0.00    +0.000 OA
ATOM     15  O   UNL     1      -6.408  56.104  53.687  0.00  0.00    +0.000 OA
ATOM     16  N   UNL     1      -8.314  55.650  52.153  0.00  0.00    +0.000 N 
ATOM     17  C   UNL     1      -6.130  54.195  51.965  0.00  0.00    +0.000 A 
ATOM     18  C   UNL     1      -8.721  55.052  50.967  0.00  0.00    +0.000 C 
ATOM     19  C   UNL     1      -6.680  53.901  50.721  0.00  0.00    +0.000 A 
ATOM     20  C   UNL     1      -4.801  53.897  52.285  0.00  0.00    +0.000 A 
ATOM     21  N   UNL     1      -8.001  54.182  50.330  0.00  0.00    +0.000 N 
ATOM     22  C   UNL     1      -5.848  53.298  49.772  0.00  0.00    +0.000 A 
ATOM     23  C   UNL     1      -3.996  53.287  51.330  0.00  0.00    +0.000 A 
ATOM     24  C   UNL     1      -4.516  52.994  50.069  0.00  0.00    +0.000 A 
ATOM     25  H   UNL     1      -8.736  56.497  52.425  0.00  0.00    +0.000 HD
ATOM     26  H   UNL     1      -8.386  53.710  49.558  0.00  0.00    +0.000 HD
ENDBRANCH   1  18
BRANCH   3  27
ATOM     27  O   UNL     1     -10.977  55.456  52.677  0.00  0.00    +0.000 OA
ATOM     28  H   UNL     1     -10.192  55.108  53.051  0.00  0.00    +0.000 HD
ENDBRANCH   3  27
BRANCH   5  29
ATOM     29  C   UNL     1     -11.779  56.083  47.060  0.00  0.00    +0.000 C 
BRANCH  29  30
ATOM     30  C   UNL     1     -12.058  54.812  46.237  0.00  0.00    +0.000 C 
BRANCH  30  31
ATOM     31  C   UNL     1     -10.827  54.242  45.591  0.00  0.00    +0.000 C 
ATOM     32  C   UNL     1     -10.864  53.123  44.582  0.00  0.00    +0.000 C 
ATOM     33  C   UNL     1     -10.394  52.851  45.983  0.00  0.00    +0.000 C 
ENDBRANCH  30  31
ENDBRANCH  29  30
ENDBRANCH   5  29
TORSDOF 5
ENDMDL
MODEL 8
REMARK VINA RESULT:      -7.9      3.500      4.599
REMARK  Name = 338168
REMARK  5 active torsions:
REMARK  status: ('A' for Active; 'I' for Inactive)
REMARK    1  A    between atoms: C_6  and  C_10
REMARK    2  A    between atoms: C_14  and  O_18
REMARK    3  A    between atoms: N_17  and  C_21
REMARK    4  A    between atoms: C_21  and  C_24
REMARK    5  A    between atoms: C_24  and  C_27
REMARK                            x       y       z     vdW  Elec       q    Type
REMARK                         _______ _______ _______ _____ _____    ______ ____
ROOT
ATOM      1  C   UNL     1     -12.111  54.403  50.330  0.00  0.00    +0.000 A 
ATOM      2  C   UNL     1     -11.915  53.897  48.948  0.00  0.00    +0.000 A 
ATOM      3  C   UNL     1     -11.596  53.731  51.374  0.00  0.00    +0.000 A 
ATOM      4  O   UNL     1     -12.547  54.452  48.044  0.00  0.00    +0.000 OA
ATOM      5  N   UNL     1     -11.011  52.856  48.730  0.00  0.00    +0.000 N 
ATOM      6  C   UNL     1     -10.787  52.527  51.157  0.00  0.00    +0.000 A 
ATOM      7  C   UNL     1     -10.481  52.110  49.844  0.00  0.00    +0.000 A 
ATOM      8  C   UNL     1     -10.283  51.815  52.261  0.00  0.00    +0.000 A 
ATOM      9  C   UNL     1      -9.665  50.974  49.686  0.00  0.00    +0.000 A 
ATOM     10  C   UNL     1      -9.461  50.717  52.069  0.00  0.00    +0.000 A 
ATOM     11  C   UNL     1      -9.146  50.292  50.793  0.00  0.00    +0.000 A 
ATOM     12  F   UNL     1      -8.962  50.068  53.129  0.00  0.00    +0.000 F 
ENDROOT
BRANCH   1  18
ATOM     13  S   UNL     1     -14.434  56.939  52.342  0.00  0.00    +0.000 S 
ATOM     14  O   UNL     1     -13.509  57.322  53.384  0.00  0.00    +0.000 OA
ATOM     15  O   UNL     1     -15.831  56.683  52.610  0.00  0.00    +0.000 OA
ATOM     16  N   UNL     1     -13.839  55.597  51.589  0.00  0.00    +0.000 N 
ATOM     17  C   UNL     1     -14.335  58.129  51.074  0.00  0.00    +0.000 A 
ATOM     18  C   UNL     1     -12.876  55.662  50.590  0.00  0.00    +0.000 C 
ATOM     19  C   UNL     1     -13.464  57.872  50.020  0.00  0.00    +0.000 A 
ATOM     20  C   UNL     1     -15.134  59.276  51.123  0.00  0.00    +0.000 A 
ATOM     21  N   UNL     1     -12.642  56.738  49.903  0.00  0.00    +0.000 N 
ATOM     22  C   UNL     1     -13.418  58.804  48.978  0.00  0.00    +0.000 A 
ATOM     23  C   UNL     1     -15.063  60.195  50.082  0.00  0.00    +0.000 A 
ATOM     24  C   UNL     1     -14.210  59.956  49.004  0.00  0.00    +0.000 A 
ATOM     25  H   UNL     1     -14.181  54.714  51.858  0.00  0.00    +0.000 HD
ATOM     26  H   UNL     1     -11.875  56.759  49.287  0.00  0.00    +0.000 HD
ENDBRANCH   1  18
BRANCH   3  27
ATOM     27  O   UNL     1     -11.747  54.100  52.701  0.00  0.00    +0.000 OA
ATOM     28  H   UNL     1     -11.182  54.747  53.075  0.00  0.00    +0.000 HD
ENDBRANCH   3  27
BRANCH   5  29
ATOM     29  C   UNL     1     -10.772  52.390  47.343  0.00  0.00    +0.000 C 
BRANCH  29  30
ATOM     30  C   UNL     1      -9.619  53.067  46.580  0.00  0.00    +0.000 C 
BRANCH  30  31
ATOM     31  C   UNL     1     -10.047  53.675  45.274  0.00  0.00    +0.000 C 
ATOM     32  C   UNL     1     -11.156  53.113  44.423  0.00  0.00    +0.000 C 
ATOM     33  C   UNL     1      -9.724  52.933  44.001  0.00  0.00    +0.000 C 
ENDBRANCH  30  31
ENDBRANCH  29  30
ENDBRANCH   5  29
TORSDOF 5
ENDMDL
MODEL 9
REMARK VINA RESULT:      -7.9      3.744      7.362
REMARK  Name = 338168
REMARK  5 active torsions:
REMARK  status: ('A' for Active; 'I' for Inactive)
REMARK    1  A    between atoms: C_6  and  C_10
REMARK    2  A    between atoms: C_14  and  O_18
REMARK    3  A    between atoms: N_17  and  C_21
REMARK    4  A    between atoms: C_21  and  C_24
REMARK    5  A    between atoms: C_24  and  C_27
REMARK                            x       y       z     vdW  Elec       q    Type
REMARK                         _______ _______ _______ _____ _____    ______ ____
ROOT
ATOM      1  C   UNL     1     -10.423  55.091  50.695  0.00  0.00    +0.000 A 
ATOM      2  C   UNL     1     -10.126  55.168  49.242  0.00  0.00    +0.000 A 
ATOM      3  C   UNL     1     -11.554  55.630  51.181  0.00  0.00    +0.000 A 
ATOM      4  O   UNL     1      -9.004  54.812  48.871  0.00  0.00    +0.000 OA
ATOM      5  N   UNL     1     -11.127  55.599  48.369  0.00  0.00    +0.000 N 
ATOM      6  C   UNL     1     -12.533  56.246  50.279  0.00  0.00    +0.000 A 
ATOM      7  C   UNL     1     -12.327  56.208  48.884  0.00  0.00    +0.000 A 
ATOM      8  C   UNL     1     -13.697  56.836  50.807  0.00  0.00    +0.000 A 
ATOM      9  C   UNL     1     -13.315  56.774  48.055  0.00  0.00    +0.000 A 
ATOM     10  C   UNL     1     -14.660  57.359  49.962  0.00  0.00    +0.000 A 
ATOM     11  C   UNL     1     -14.481  57.331  48.592  0.00  0.00    +0.000 A 
ATOM     12  F   UNL     1     -15.778  57.889  50.476  0.00  0.00    +0.000 F 
ENDROOT
BRANCH   1  18
ATOM     13  S   UNL     1      -8.854  52.091  52.794  0.00  0.00    +0.000 S 
ATOM     14  O   UNL     1      -8.259  51.339  51.713  0.00  0.00    +0.000 OA
ATOM     15  O   UNL     1      -9.547  51.448  53.888  0.00  0.00    +0.000 OA
ATOM     16  N   UNL     1      -9.900  53.190  52.146  0.00  0.00    +0.000 N 
ATOM     17  C   UNL     1      -7.625  53.125  53.466  0.00  0.00    +0.000 A 
ATOM     18  C   UNL     1      -9.482  54.415  51.640  0.00  0.00    +0.000 C 
ATOM     19  C   UNL     1      -7.538  54.423  52.973  0.00  0.00    +0.000 A 
ATOM     20  C   UNL     1      -6.789  52.654  54.484  0.00  0.00    +0.000 A 
ATOM     21  N   UNL     1      -8.351  54.964  51.961  0.00  0.00    +0.000 N 
ATOM     22  C   UNL     1      -6.583  55.270  53.544  0.00  0.00    +0.000 A 
ATOM     23  C   UNL     1      -5.838  53.510  55.029  0.00  0.00    +0.000 A 
ATOM     24  C   UNL     1      -5.739  54.821  54.565  0.00  0.00    +0.000 A 
ATOM     25  H   UNL     1     -10.858  52.970  52.119  0.00  0.00    +0.000 HD
ATOM     26  H   UNL     1      -8.058  55.775  51.488  0.00  0.00    +0.000 HD
ENDBRANCH   1  18
BRANCH   3  27
ATOM     27  O   UNL     1     -11.911  55.639  52.521  0.00  0.00    +0.000 OA
ATOM     28  H   UNL     1     -11.353  56.047  53.152  0.00  0.00    +0.000 HD
ENDBRANCH   3  27
BRANCH   5  29
ATOM     29  C   UNL     1     -10.848  55.621  46.912  0.00  0.00    +0.000 C 
BRANCH  29  30
ATOM     30  C   UNL     1     -11.477  54.491  46.076  0.00  0.00    +0.000 C 
BRANCH  30  31
ATOM     31  C   UNL     1     -10.532  53.354  45.808  0.00  0.00    +0.000 C 
ATOM     32  C   UNL     1      -9.118  53.548  45.325  0.00  0.00    +0.000 C 
ATOM     33  C   UNL     1     -10.171  53.048  44.376  0.00  0.00    +0.000 C 
ENDBRANCH  30  31
ENDBRANCH  29  30
ENDBRANCH   5  29
TORSDOF 5
ENDMDL
