MODEL 1
REMARK VINA RESULT:      -8.2      0.000      0.000
REMARK  Name = 338161
REMARK  8 active torsions:
REMARK  status: ('A' for Active; 'I' for Inactive)
REMARK    1  A    between atoms: C_6  and  C_10
REMARK    2  A    between atoms: C_14  and  O_18
REMARK    3  A    between atoms: N_17  and  C_21
REMARK    4  A    between atoms: C_21  and  C_24
REMARK    5  A    between atoms: C_24  and  C_27
REMARK    6  A    between atoms: C_25  and  N_28
REMARK    7  A    between atoms: C_27  and  C_29
REMARK    8  A    between atoms: C_27  and  C_30
REMARK                            x       y       z     vdW  Elec       q    Type
REMARK                         _______ _______ _______ _____ _____    ______ ____
ROOT
ATOM      1  C   UNL     1      -9.967  54.440  52.172  0.00  0.00    +0.000 A 
ATOM      2  C   UNL     1      -8.600  55.028  52.025  0.00  0.00    +0.000 A 
ATOM      3  C   UNL     1     -10.153  53.361  52.951  0.00  0.00    +0.000 A 
ATOM      4  O   UNL     1      -8.482  56.077  51.387  0.00  0.00    +0.000 OA
ATOM      5  N   UNL     1      -7.523  54.385  52.631  0.00  0.00    +0.000 N 
ATOM      6  C   UNL     1      -9.027  52.758  53.679  0.00  0.00    +0.000 A 
ATOM      7  C   UNL     1      -7.733  53.295  53.533  0.00  0.00    +0.000 A 
ATOM      8  C   UNL     1      -9.239  51.663  54.541  0.00  0.00    +0.000 A 
ATOM      9  C   UNL     1      -6.690  52.755  54.303  0.00  0.00    +0.000 A 
ATOM     10  C   UNL     1      -8.173  51.118  55.264  0.00  0.00    +0.000 A 
ATOM     11  C   UNL     1      -6.897  51.665  55.150  0.00  0.00    +0.000 A 
ENDROOT
BRANCH   1  17
ATOM     12  S   UNL     1     -12.293  55.864  49.338  0.00  0.00    +0.000 S 
ATOM     13  O   UNL     1     -13.128  54.847  48.731  0.00  0.00    +0.000 OA
ATOM     14  O   UNL     1     -11.659  56.878  48.518  0.00  0.00    +0.000 OA
ATOM     15  N   UNL     1     -11.135  55.110  50.187  0.00  0.00    +0.000 N 
ATOM     16  C   UNL     1     -13.324  56.730  50.464  0.00  0.00    +0.000 A 
ATOM     17  C   UNL     1     -11.138  55.121  51.488  0.00  0.00    +0.000 C 
ATOM     18  C   UNL     1     -13.098  56.554  51.819  0.00  0.00    +0.000 A 
ATOM     19  C   UNL     1     -14.328  57.578  49.983  0.00  0.00    +0.000 A 
ATOM     20  N   UNL     1     -12.102  55.701  52.285  0.00  0.00    +0.000 N 
ATOM     21  C   UNL     1     -13.954  57.197  52.721  0.00  0.00    +0.000 A 
ATOM     22  C   UNL     1     -15.149  58.240  50.894  0.00  0.00    +0.000 A 
ATOM     23  C   UNL     1     -14.968  58.042  52.263  0.00  0.00    +0.000 A 
ATOM     24  H   UNL     1     -10.416  54.636  49.710  0.00  0.00    +0.000 HD
ATOM     25  H   UNL     1     -12.083  55.498  53.248  0.00  0.00    +0.000 HD
ENDBRANCH   1  17
BRANCH  10  26
ATOM     26  N   UNL     1      -8.400  49.982  56.166  0.00  0.00    +0.000 N 
ATOM     27  O   UNL     1      -9.437  49.326  56.022  0.00  0.00    +0.000 OA
ATOM     28  O   UNL     1      -7.530  49.750  57.020  0.00  0.00    +0.000 OA
ENDBRANCH  10  26
BRANCH   3  29
ATOM     29  O   UNL     1     -11.380  52.766  53.181  0.00  0.00    +0.000 OA
ATOM     30  H   UNL     1     -12.170  53.251  53.046  0.00  0.00    +0.000 HD
ENDBRANCH   3  29
BRANCH   5  31
ATOM     31  C   UNL     1      -6.185  54.952  52.417  0.00  0.00    +0.000 C 
BRANCH  31  32
ATOM     32  C   UNL     1      -5.262  54.171  51.465  0.00  0.00    +0.000 C 
BRANCH  32  33
ATOM     33  C   UNL     1      -5.909  53.575  50.205  0.00  0.00    +0.000 C 
ATOM     34  C   UNL     1      -5.162  53.953  48.929  0.00  0.00    +0.000 C 
ATOM     35  C   UNL     1      -5.944  52.047  50.350  0.00  0.00    +0.000 C 
ENDBRANCH  32  33
ENDBRANCH  31  32
ENDBRANCH   5  31
TORSDOF 6
ENDMDL
MODEL 2
REMARK VINA RESULT:      -8.2      4.794      6.256
REMARK  Name = 338161
REMARK  8 active torsions:
REMARK  status: ('A' for Active; 'I' for Inactive)
REMARK    1  A    between atoms: C_6  and  C_10
REMARK    2  A    between atoms: C_14  and  O_18
REMARK    3  A    between atoms: N_17  and  C_21
REMARK    4  A    between atoms: C_21  and  C_24
REMARK    5  A    between atoms: C_24  and  C_27
REMARK    6  A    between atoms: C_25  and  N_28
REMARK    7  A    between atoms: C_27  and  C_29
REMARK    8  A    between atoms: C_27  and  C_30
REMARK                            x       y       z     vdW  Elec       q    Type
REMARK                         _______ _______ _______ _____ _____    ______ ____
ROOT
ATOM      1  C   UNL     1     -11.438  56.307  48.535  0.00  0.00    +0.000 A 
ATOM      2  C   UNL     1     -11.819  55.693  47.225  0.00  0.00    +0.000 A 
ATOM      3  C   UNL     1     -10.196  56.138  49.019  0.00  0.00    +0.000 A 
ATOM      4  O   UNL     1     -12.932  55.955  46.761  0.00  0.00    +0.000 OA
ATOM      5  N   UNL     1     -10.899  54.876  46.574  0.00  0.00    +0.000 N 
ATOM      6  C   UNL     1      -9.196  55.367  48.266  0.00  0.00    +0.000 A 
ATOM      7  C   UNL     1      -9.552  54.771  47.040  0.00  0.00    +0.000 A 
ATOM      8  C   UNL     1      -7.878  55.242  48.750  0.00  0.00    +0.000 A 
ATOM      9  C   UNL     1      -8.557  54.111  46.300  0.00  0.00    +0.000 A 
ATOM     10  C   UNL     1      -6.918  54.543  48.012  0.00  0.00    +0.000 A 
ATOM     11  C   UNL     1      -7.254  53.980  46.783  0.00  0.00    +0.000 A 
ENDROOT
BRANCH   1  17
ATOM     12  S   UNL     1     -13.645  59.416  49.503  0.00  0.00    +0.000 S 
ATOM     13  O   UNL     1     -14.823  59.550  48.670  0.00  0.00    +0.000 OA
ATOM     14  O   UNL     1     -12.873  60.585  49.877  0.00  0.00    +0.000 OA
ATOM     15  N   UNL     1     -12.644  58.366  48.776  0.00  0.00    +0.000 N 
ATOM     16  C   UNL     1     -14.196  58.699  51.008  0.00  0.00    +0.000 A 
ATOM     17  C   UNL     1     -12.448  57.175  49.263  0.00  0.00    +0.000 C 
ATOM     18  C   UNL     1     -13.829  57.390  51.276  0.00  0.00    +0.000 A 
ATOM     19  C   UNL     1     -14.967  59.450  51.900  0.00  0.00    +0.000 A 
ATOM     20  N   UNL     1     -13.068  56.650  50.376  0.00  0.00    +0.000 N 
ATOM     21  C   UNL     1     -14.312  56.795  52.447  0.00  0.00    +0.000 A 
ATOM     22  C   UNL     1     -15.411  58.855  53.079  0.00  0.00    +0.000 A 
ATOM     23  C   UNL     1     -15.091  57.524  53.348  0.00  0.00    +0.000 A 
ATOM     24  H   UNL     1     -12.177  58.634  47.952  0.00  0.00    +0.000 HD
ATOM     25  H   UNL     1     -12.964  55.685  50.545  0.00  0.00    +0.000 HD
ENDBRANCH   1  17
BRANCH  10  26
ATOM     26  N   UNL     1      -5.546  54.422  48.517  0.00  0.00    +0.000 N 
ATOM     27  O   UNL     1      -5.147  55.269  49.325  0.00  0.00    +0.000 OA
ATOM     28  O   UNL     1      -4.866  53.471  48.100  0.00  0.00    +0.000 OA
ENDBRANCH  10  26
BRANCH   3  29
ATOM     29  O   UNL     1      -9.735  56.693  50.199  0.00  0.00    +0.000 OA
ATOM     30  H   UNL     1     -10.253  56.639  50.978  0.00  0.00    +0.000 HD
ENDBRANCH   3  29
BRANCH   5  31
ATOM     31  C   UNL     1     -11.325  54.237  45.322  0.00  0.00    +0.000 C 
BRANCH  31  32
ATOM     32  C   UNL     1     -11.785  52.773  45.428  0.00  0.00    +0.000 C 
BRANCH  32  33
ATOM     33  C   UNL     1     -11.084  51.757  44.513  0.00  0.00    +0.000 C 
ATOM     34  C   UNL     1     -10.229  52.428  43.442  0.00  0.00    +0.000 C 
ATOM     35  C   UNL     1     -10.205  50.843  45.379  0.00  0.00    +0.000 C 
ENDBRANCH  32  33
ENDBRANCH  31  32
ENDBRANCH   5  31
TORSDOF 6
ENDMDL
MODEL 3
REMARK VINA RESULT:      -8.0      3.621      6.163
REMARK  Name = 338161
REMARK  8 active torsions:
REMARK  status: ('A' for Active; 'I' for Inactive)
REMARK    1  A    between atoms: C_6  and  C_10
REMARK    2  A    between atoms: C_14  and  O_18
REMARK    3  A    between atoms: N_17  and  C_21
REMARK    4  A    between atoms: C_21  and  C_24
REMARK    5  A    between atoms: C_24  and  C_27
REMARK    6  A    between atoms: C_25  and  N_28
REMARK    7  A    between atoms: C_27  and  C_29
REMARK    8  A    between atoms: C_27  and  C_30
REMARK                            x       y       z     vdW  Elec       q    Type
REMARK                         _______ _______ _______ _____ _____    ______ ____
ROOT
ATOM      1  C   UNL     1     -11.416  55.715  48.966  0.00  0.00    +0.000 A 
ATOM      2  C   UNL     1     -10.550  54.959  49.922  0.00  0.00    +0.000 A 
ATOM      3  C   UNL     1     -11.356  55.447  47.651  0.00  0.00    +0.000 A 
ATOM      4  O   UNL     1     -10.705  55.157  51.130  0.00  0.00    +0.000 OA
ATOM      5  N   UNL     1      -9.627  54.048  49.416  0.00  0.00    +0.000 N 
ATOM      6  C   UNL     1     -10.459  54.400  47.138  0.00  0.00    +0.000 A 
ATOM      7  C   UNL     1      -9.628  53.695  48.030  0.00  0.00    +0.000 A 
ATOM      8  C   UNL     1     -10.444  54.082  45.765  0.00  0.00    +0.000 A 
ATOM      9  C   UNL     1      -8.842  52.645  47.529  0.00  0.00    +0.000 A 
ATOM     10  C   UNL     1      -9.620  53.060  45.287  0.00  0.00    +0.000 A 
ATOM     11  C   UNL     1      -8.820  52.335  46.168  0.00  0.00    +0.000 A 
ENDROOT
BRANCH   1  17
ATOM     12  S   UNL     1     -13.443  59.058  49.400  0.00  0.00    +0.000 S 
ATOM     13  O   UNL     1     -14.550  59.169  48.473  0.00  0.00    +0.000 OA
ATOM     14  O   UNL     1     -12.611  60.210  49.692  0.00  0.00    +0.000 OA
ATOM     15  N   UNL     1     -12.478  57.864  48.876  0.00  0.00    +0.000 N 
ATOM     16  C   UNL     1     -14.142  58.567  50.934  0.00  0.00    +0.000 A 
ATOM     17  C   UNL     1     -12.403  56.731  49.511  0.00  0.00    +0.000 C 
ATOM     18  C   UNL     1     -13.892  57.279  51.379  0.00  0.00    +0.000 A 
ATOM     19  C   UNL     1     -14.912  59.471  51.673  0.00  0.00    +0.000 A 
ATOM     20  N   UNL     1     -13.132  56.386  50.630  0.00  0.00    +0.000 N 
ATOM     21  C   UNL     1     -14.494  56.865  52.572  0.00  0.00    +0.000 A 
ATOM     22  C   UNL     1     -15.474  59.055  52.877  0.00  0.00    +0.000 A 
ATOM     23  C   UNL     1     -15.274  57.748  53.322  0.00  0.00    +0.000 A 
ATOM     24  H   UNL     1     -11.938  57.998  48.064  0.00  0.00    +0.000 HD
ATOM     25  H   UNL     1     -13.112  55.445  50.917  0.00  0.00    +0.000 HD
ENDBRANCH   1  17
BRANCH  10  26
ATOM     26  N   UNL     1      -9.612  52.727  43.857  0.00  0.00    +0.000 N 
ATOM     27  O   UNL     1      -8.699  53.185  43.160  0.00  0.00    +0.000 OA
ATOM     28  O   UNL     1     -10.527  52.003  43.435  0.00  0.00    +0.000 OA
ENDBRANCH  10  26
BRANCH   3  29
ATOM     29  O   UNL     1     -12.139  56.063  46.691  0.00  0.00    +0.000 OA
ATOM     30  H   UNL     1     -12.498  56.913  46.853  0.00  0.00    +0.000 HD
ENDBRANCH   3  29
BRANCH   5  31
ATOM     31  C   UNL     1      -8.748  53.367  50.376  0.00  0.00    +0.000 C 
BRANCH  31  32
ATOM     32  C   UNL     1      -7.460  54.113  50.765  0.00  0.00    +0.000 C 
BRANCH  32  33
ATOM     33  C   UNL     1      -7.118  55.375  49.958  0.00  0.00    +0.000 C 
ATOM     34  C   UNL     1      -7.380  56.658  50.740  0.00  0.00    +0.000 C 
ATOM     35  C   UNL     1      -5.639  55.310  49.551  0.00  0.00    +0.000 C 
ENDBRANCH  32  33
ENDBRANCH  31  32
ENDBRANCH   5  31
TORSDOF 6
ENDMDL
MODEL 4
REMARK VINA RESULT:      -7.8      3.385      7.858
REMARK  Name = 338161
REMARK  8 active torsions:
REMARK  status: ('A' for Active; 'I' for Inactive)
REMARK    1  A    between atoms: C_6  and  C_10
REMARK    2  A    between atoms: C_14  and  O_18
REMARK    3  A    between atoms: N_17  and  C_21
REMARK    4  A    between atoms: C_21  and  C_24
REMARK    5  A    between atoms: C_24  and  C_27
REMARK    6  A    between atoms: C_25  and  N_28
REMARK    7  A    between atoms: C_27  and  C_29
REMARK    8  A    between atoms: C_27  and  C_30
REMARK                            x       y       z     vdW  Elec       q    Type
REMARK                         _______ _______ _______ _____ _____    ______ ____
ROOT
ATOM      1  C   UNL     1     -10.004  54.381  50.636  0.00  0.00    +0.000 A 
ATOM      2  C   UNL     1      -9.881  54.645  49.169  0.00  0.00    +0.000 A 
ATOM      3  C   UNL     1     -11.119  54.746  51.293  0.00  0.00    +0.000 A 
ATOM      4  O   UNL     1      -8.892  54.205  48.579  0.00  0.00    +0.000 OA
ATOM      5  N   UNL     1     -10.894  55.353  48.527  0.00  0.00    +0.000 N 
ATOM      6  C   UNL     1     -12.232  55.390  50.580  0.00  0.00    +0.000 A 
ATOM      7  C   UNL     1     -12.117  55.659  49.202  0.00  0.00    +0.000 A 
ATOM      8  C   UNL     1     -13.422  55.717  51.262  0.00  0.00    +0.000 A 
ATOM      9  C   UNL     1     -13.225  56.198  48.527  0.00  0.00    +0.000 A 
ATOM     10  C   UNL     1     -14.494  56.293  50.573  0.00  0.00    +0.000 A 
ATOM     11  C   UNL     1     -14.400  56.530  49.204  0.00  0.00    +0.000 A 
ENDROOT
BRANCH   1  17
ATOM     12  S   UNL     1      -8.158  51.788  52.947  0.00  0.00    +0.000 S 
ATOM     13  O   UNL     1      -7.999  50.491  52.322  0.00  0.00    +0.000 OA
ATOM     14  O   UNL     1      -8.526  51.889  54.346  0.00  0.00    +0.000 OA
ATOM     15  N   UNL     1      -9.247  52.623  52.081  0.00  0.00    +0.000 N 
ATOM     16  C   UNL     1      -6.604  52.592  52.798  0.00  0.00    +0.000 A 
ATOM     17  C   UNL     1      -8.889  53.635  51.346  0.00  0.00    +0.000 C 
ATOM     18  C   UNL     1      -6.508  53.665  51.927  0.00  0.00    +0.000 A 
ATOM     19  C   UNL     1      -5.514  52.154  53.557  0.00  0.00    +0.000 A 
ATOM     20  N   UNL     1      -7.598  54.086  51.170  0.00  0.00    +0.000 N 
ATOM     21  C   UNL     1      -5.259  54.272  51.762  0.00  0.00    +0.000 A 
ATOM     22  C   UNL     1      -4.285  52.792  53.409  0.00  0.00    +0.000 A 
ATOM     23  C   UNL     1      -4.155  53.846  52.504  0.00  0.00    +0.000 A 
ATOM     24  H   UNL     1     -10.195  52.360  52.112  0.00  0.00    +0.000 HD
ATOM     25  H   UNL     1      -7.437  54.750  50.462  0.00  0.00    +0.000 HD
ENDBRANCH   1  17
BRANCH  10  26
ATOM     26  N   UNL     1     -15.733  56.625  51.286  0.00  0.00    +0.000 N 
ATOM     27  O   UNL     1     -16.808  56.364  50.734  0.00  0.00    +0.000 OA
ATOM     28  O   UNL     1     -15.625  57.151  52.405  0.00  0.00    +0.000 OA
ENDBRANCH  10  26
BRANCH   3  29
ATOM     29  O   UNL     1     -11.345  54.514  52.637  0.00  0.00    +0.000 OA
ATOM     30  H   UNL     1     -12.042  53.948  52.905  0.00  0.00    +0.000 HD
ENDBRANCH   3  29
BRANCH   5  31
ATOM     31  C   UNL     1     -10.715  55.651  47.100  0.00  0.00    +0.000 C 
BRANCH  31  32
ATOM     32  C   UNL     1     -11.544  54.803  46.120  0.00  0.00    +0.000 C 
BRANCH  32  33
ATOM     33  C   UNL     1     -11.137  53.329  45.962  0.00  0.00    +0.000 C 
ATOM     34  C   UNL     1     -12.061  52.383  46.723  0.00  0.00    +0.000 C 
ATOM     35  C   UNL     1     -11.151  52.975  44.468  0.00  0.00    +0.000 C 
ENDBRANCH  32  33
ENDBRANCH  31  32
ENDBRANCH   5  31
TORSDOF 6
ENDMDL
MODEL 5
REMARK VINA RESULT:      -7.7      3.152      8.309
REMARK  Name = 338161
REMARK  8 active torsions:
REMARK  status: ('A' for Active; 'I' for Inactive)
REMARK    1  A    between atoms: C_6  and  C_10
REMARK    2  A    between atoms: C_14  and  O_18
REMARK    3  A    between atoms: N_17  and  C_21
REMARK    4  A    between atoms: C_21  and  C_24
REMARK    5  A    between atoms: C_24  and  C_27
REMARK    6  A    between atoms: C_25  and  N_28
REMARK    7  A    between atoms: C_27  and  C_29
REMARK    8  A    between atoms: C_27  and  C_30
REMARK                            x       y       z     vdW  Elec       q    Type
REMARK                         _______ _______ _______ _____ _____    ______ ____
ROOT
ATOM      1  C   UNL     1      -9.729  53.938  51.235  0.00  0.00    +0.000 A 
ATOM      2  C   UNL     1     -10.768  54.984  51.491  0.00  0.00    +0.000 A 
ATOM      3  C   UNL     1      -9.516  53.497  49.984  0.00  0.00    +0.000 A 
ATOM      4  O   UNL     1     -10.866  55.440  52.633  0.00  0.00    +0.000 OA
ATOM      5  N   UNL     1     -11.561  55.415  50.432  0.00  0.00    +0.000 N 
ATOM      6  C   UNL     1     -10.282  54.044  48.855  0.00  0.00    +0.000 A 
ATOM      7  C   UNL     1     -11.274  55.016  49.089  0.00  0.00    +0.000 A 
ATOM      8  C   UNL     1     -10.012  53.620  47.538  0.00  0.00    +0.000 A 
ATOM      9  C   UNL     1     -11.933  55.584  47.986  0.00  0.00    +0.000 A 
ATOM     10  C   UNL     1     -10.714  54.172  46.462  0.00  0.00    +0.000 A 
ATOM     11  C   UNL     1     -11.673  55.158  46.682  0.00  0.00    +0.000 A 
ENDROOT
BRANCH   1  17
ATOM     12  S   UNL     1      -6.626  53.363  53.583  0.00  0.00    +0.000 S 
ATOM     13  O   UNL     1      -6.395  54.468  54.491  0.00  0.00    +0.000 OA
ATOM     14  O   UNL     1      -5.512  52.708  52.925  0.00  0.00    +0.000 OA
ATOM     15  N   UNL     1      -7.654  53.873  52.436  0.00  0.00    +0.000 N 
ATOM     16  C   UNL     1      -7.428  52.119  54.526  0.00  0.00    +0.000 A 
ATOM     17  C   UNL     1      -8.882  53.443  52.393  0.00  0.00    +0.000 C 
ATOM     18  C   UNL     1      -8.764  51.862  54.262  0.00  0.00    +0.000 A 
ATOM     19  C   UNL     1      -6.716  51.411  55.500  0.00  0.00    +0.000 A 
ATOM     20  N   UNL     1      -9.463  52.579  53.296  0.00  0.00    +0.000 N 
ATOM     21  C   UNL     1      -9.422  50.912  55.050  0.00  0.00    +0.000 A 
ATOM     22  C   UNL     1      -7.376  50.442  56.252  0.00  0.00    +0.000 A 
ATOM     23  C   UNL     1      -8.732  50.199  56.033  0.00  0.00    +0.000 A 
ATOM     24  H   UNL     1      -7.345  54.519  51.761  0.00  0.00    +0.000 HD
ATOM     25  H   UNL     1     -10.440  52.462  53.254  0.00  0.00    +0.000 HD
ENDBRANCH   1  17
BRANCH  10  26
ATOM     26  N   UNL     1     -10.425  53.732  45.091  0.00  0.00    +0.000 N 
ATOM     27  O   UNL     1     -11.372  53.353  44.392  0.00  0.00    +0.000 OA
ATOM     28  O   UNL     1      -9.243  53.770  44.717  0.00  0.00    +0.000 OA
ENDBRANCH  10  26
BRANCH   3  29
ATOM     29  O   UNL     1      -8.556  52.562  49.638  0.00  0.00    +0.000 OA
ATOM     30  H   UNL     1      -7.778  52.475  50.153  0.00  0.00    +0.000 HD
ENDBRANCH   3  29
BRANCH   5  31
ATOM     31  C   UNL     1     -12.613  56.397  50.727  0.00  0.00    +0.000 C 
BRANCH  31  32
ATOM     32  C   UNL     1     -13.957  55.826  51.214  0.00  0.00    +0.000 C 
BRANCH  32  33
ATOM     33  C   UNL     1     -14.924  56.810  51.892  0.00  0.00    +0.000 C 
ATOM     34  C   UNL     1     -14.261  57.600  53.016  0.00  0.00    +0.000 C 
ATOM     35  C   UNL     1     -15.464  57.776  50.829  0.00  0.00    +0.000 C 
ENDBRANCH  32  33
ENDBRANCH  31  32
ENDBRANCH   5  31
TORSDOF 6
ENDMDL
MODEL 6
REMARK VINA RESULT:      -7.7      3.174      7.635
REMARK  Name = 338161
REMARK  8 active torsions:
REMARK  status: ('A' for Active; 'I' for Inactive)
REMARK    1  A    between atoms: C_6  and  C_10
REMARK    2  A    between atoms: C_14  and  O_18
REMARK    3  A    between atoms: N_17  and  C_21
REMARK    4  A    between atoms: C_21  and  C_24
REMARK    5  A    between atoms: C_24  and  C_27
REMARK    6  A    between atoms: C_25  and  N_28
REMARK    7  A    between atoms: C_27  and  C_29
REMARK    8  A    between atoms: C_27  and  C_30
REMARK                            x       y       z     vdW  Elec       q    Type
REMARK                         _______ _______ _______ _____ _____    ______ ____
ROOT
ATOM      1  C   UNL     1      -9.806  55.000  51.061  0.00  0.00    +0.000 A 
ATOM      2  C   UNL     1      -9.480  54.994  49.602  0.00  0.00    +0.000 A 
ATOM      3  C   UNL     1     -11.012  55.420  51.478  0.00  0.00    +0.000 A 
ATOM      4  O   UNL     1      -8.404  54.505  49.247  0.00  0.00    +0.000 OA
ATOM      5  N   UNL     1     -10.408  55.516  48.704  0.00  0.00    +0.000 N 
ATOM      6  C   UNL     1     -12.028  55.861  50.510  0.00  0.00    +0.000 A 
ATOM      7  C   UNL     1     -11.723  55.876  49.135  0.00  0.00    +0.000 A 
ATOM      8  C   UNL     1     -13.312  56.245  50.948  0.00  0.00    +0.000 A 
ATOM      9  C   UNL     1     -12.736  56.221  48.225  0.00  0.00    +0.000 A 
ATOM     10  C   UNL     1     -14.288  56.625  50.023  0.00  0.00    +0.000 A 
ATOM     11  C   UNL     1     -14.005  56.609  48.659  0.00  0.00    +0.000 A 
ENDROOT
BRANCH   1  17
ATOM     12  S   UNL     1      -6.391  54.432  52.930  0.00  0.00    +0.000 S 
ATOM     13  O   UNL     1      -6.111  55.458  53.913  0.00  0.00    +0.000 OA
ATOM     14  O   UNL     1      -5.335  53.928  52.074  0.00  0.00    +0.000 OA
ATOM     15  N   UNL     1      -7.591  54.973  51.980  0.00  0.00    +0.000 N 
ATOM     16  C   UNL     1      -6.985  53.047  53.830  0.00  0.00    +0.000 A 
ATOM     17  C   UNL     1      -8.785  54.460  52.046  0.00  0.00    +0.000 C 
ATOM     18  C   UNL     1      -8.326  52.719  53.708  0.00  0.00    +0.000 A 
ATOM     19  C   UNL     1      -6.109  52.303  54.628  0.00  0.00    +0.000 A 
ATOM     20  N   UNL     1      -9.189  53.472  52.918  0.00  0.00    +0.000 N 
ATOM     21  C   UNL     1      -8.816  51.651  54.468  0.00  0.00    +0.000 A 
ATOM     22  C   UNL     1      -6.605  51.220  55.350  0.00  0.00    +0.000 A 
ATOM     23  C   UNL     1      -7.961  50.899  55.277  0.00  0.00    +0.000 A 
ATOM     24  H   UNL     1      -7.413  55.702  51.343  0.00  0.00    +0.000 HD
ATOM     25  H   UNL     1     -10.153  53.287  52.986  0.00  0.00    +0.000 HD
ENDBRANCH   1  17
BRANCH  10  26
ATOM     26  N   UNL     1     -15.626  57.018  50.483  0.00  0.00    +0.000 N 
ATOM     27  O   UNL     1     -16.532  56.179  50.415  0.00  0.00    +0.000 OA
ATOM     28  O   UNL     1     -15.765  58.173  50.914  0.00  0.00    +0.000 OA
ENDBRANCH  10  26
BRANCH   3  29
ATOM     29  O   UNL     1     -11.424  55.430  52.798  0.00  0.00    +0.000 OA
ATOM     30  H   UNL     1     -12.311  55.639  53.012  0.00  0.00    +0.000 HD
ENDBRANCH   3  29
BRANCH   5  31
ATOM     31  C   UNL     1     -10.033  55.553  47.285  0.00  0.00    +0.000 C 
BRANCH  31  32
ATOM     32  C   UNL     1     -10.278  54.263  46.483  0.00  0.00    +0.000 C 
BRANCH  32  33
ATOM     33  C   UNL     1      -9.068  53.661  45.751  0.00  0.00    +0.000 C 
ATOM     34  C   UNL     1      -9.429  53.122  44.370  0.00  0.00    +0.000 C 
ATOM     35  C   UNL     1      -7.989  54.745  45.616  0.00  0.00    +0.000 C 
ENDBRANCH  32  33
ENDBRANCH  31  32
ENDBRANCH   5  31
TORSDOF 6
ENDMDL
MODEL 7
REMARK VINA RESULT:      -7.7      3.636      7.950
REMARK  Name = 338161
REMARK  8 active torsions:
REMARK  status: ('A' for Active; 'I' for Inactive)
REMARK    1  A    between atoms: C_6  and  C_10
REMARK    2  A    between atoms: C_14  and  O_18
REMARK    3  A    between atoms: N_17  and  C_21
REMARK    4  A    between atoms: C_21  and  C_24
REMARK    5  A    between atoms: C_24  and  C_27
REMARK    6  A    between atoms: C_25  and  N_28
REMARK    7  A    between atoms: C_27  and  C_29
REMARK    8  A    between atoms: C_27  and  C_30
REMARK                            x       y       z     vdW  Elec       q    Type
REMARK                         _______ _______ _______ _____ _____    ______ ____
ROOT
ATOM      1  C   UNL     1      -8.862  54.521  50.212  0.00  0.00    +0.000 A 
ATOM      2  C   UNL     1      -8.261  54.177  48.887  0.00  0.00    +0.000 A 
ATOM      3  C   UNL     1     -10.041  55.164  50.268  0.00  0.00    +0.000 A 
ATOM      4  O   UNL     1      -7.232  53.497  48.873  0.00  0.00    +0.000 OA
ATOM      5  N   UNL     1      -8.896  54.614  47.727  0.00  0.00    +0.000 N 
ATOM      6  C   UNL     1     -10.760  55.519  49.035  0.00  0.00    +0.000 A 
ATOM      7  C   UNL     1     -10.193  55.214  47.783  0.00  0.00    +0.000 A 
ATOM      8  C   UNL     1     -12.024  56.140  49.101  0.00  0.00    +0.000 A 
ATOM      9  C   UNL     1     -10.937  55.487  46.623  0.00  0.00    +0.000 A 
ATOM     10  C   UNL     1     -12.724  56.439  47.928  0.00  0.00    +0.000 A 
ATOM     11  C   UNL     1     -12.185  56.110  46.687  0.00  0.00    +0.000 A 
ENDROOT
BRANCH   1  17
ATOM     12  S   UNL     1      -6.067  54.070  52.943  0.00  0.00    +0.000 S 
ATOM     13  O   UNL     1      -5.973  55.201  53.843  0.00  0.00    +0.000 OA
ATOM     14  O   UNL     1      -4.867  53.424  52.447  0.00  0.00    +0.000 OA
ATOM     15  N   UNL     1      -6.953  54.530  51.664  0.00  0.00    +0.000 N 
ATOM     16  C   UNL     1      -6.957  52.831  53.811  0.00  0.00    +0.000 A 
ATOM     17  C   UNL     1      -8.157  54.073  51.479  0.00  0.00    +0.000 C 
ATOM     18  C   UNL     1      -8.244  52.539  53.389  0.00  0.00    +0.000 A 
ATOM     19  C   UNL     1      -6.360  52.162  54.885  0.00  0.00    +0.000 A 
ATOM     20  N   UNL     1      -8.831  53.217  52.324  0.00  0.00    +0.000 N 
ATOM     21  C   UNL     1      -8.979  51.594  54.113  0.00  0.00    +0.000 A 
ATOM     22  C   UNL     1      -7.091  51.197  55.573  0.00  0.00    +0.000 A 
ATOM     23  C   UNL     1      -8.404  50.919  55.193  0.00  0.00    +0.000 A 
ATOM     24  H   UNL     1      -6.573  55.166  51.016  0.00  0.00    +0.000 HD
ATOM     25  H   UNL     1      -9.792  53.078  52.164  0.00  0.00    +0.000 HD
ENDBRANCH   1  17
BRANCH  10  26
ATOM     26  N   UNL     1     -14.043  57.080  48.001  0.00  0.00    +0.000 N 
ATOM     27  O   UNL     1     -14.346  57.886  47.114  0.00  0.00    +0.000 OA
ATOM     28  O   UNL     1     -14.776  56.770  48.953  0.00  0.00    +0.000 OA
ENDBRANCH  10  26
BRANCH   3  29
ATOM     29  O   UNL     1     -10.696  55.494  51.440  0.00  0.00    +0.000 OA
ATOM     30  H   UNL     1     -10.951  54.822  52.041  0.00  0.00    +0.000 HD
ENDBRANCH   3  29
BRANCH   5  31
ATOM     31  C   UNL     1      -8.249  54.313  46.444  0.00  0.00    +0.000 C 
BRANCH  31  32
ATOM     32  C   UNL     1      -8.699  53.019  45.742  0.00  0.00    +0.000 C 
BRANCH  32  33
ATOM     33  C   UNL     1      -9.210  53.155  44.299  0.00  0.00    +0.000 C 
ATOM     34  C   UNL     1      -8.484  52.223  43.332  0.00  0.00    +0.000 C 
ATOM     35  C   UNL     1     -10.714  52.848  44.282  0.00  0.00    +0.000 C 
ENDBRANCH  32  33
ENDBRANCH  31  32
ENDBRANCH   5  31
TORSDOF 6
ENDMDL
MODEL 8
REMARK VINA RESULT:      -7.6      4.210      7.757
REMARK  Name = 338161
REMARK  8 active torsions:
REMARK  status: ('A' for Active; 'I' for Inactive)
REMARK    1  A    between atoms: C_6  and  C_10
REMARK    2  A    between atoms: C_14  and  O_18
REMARK    3  A    between atoms: N_17  and  C_21
REMARK    4  A    between atoms: C_21  and  C_24
REMARK    5  A    between atoms: C_24  and  C_27
REMARK    6  A    between atoms: C_25  and  N_28
REMARK    7  A    between atoms: C_27  and  C_29
REMARK    8  A    between atoms: C_27  and  C_30
REMARK                            x       y       z     vdW  Elec       q    Type
REMARK                         _______ _______ _______ _____ _____    ______ ____
ROOT
ATOM      1  C   UNL     1     -10.785  54.443  48.677  0.00  0.00    +0.000 A 
ATOM      2  C   UNL     1     -10.498  53.910  50.045  0.00  0.00    +0.000 A 
ATOM      3  C   UNL     1     -11.646  55.462  48.522  0.00  0.00    +0.000 A 
ATOM      4  O   UNL     1      -9.626  53.045  50.162  0.00  0.00    +0.000 OA
ATOM      5  N   UNL     1     -11.204  54.425  51.128  0.00  0.00    +0.000 N 
ATOM      6  C   UNL     1     -12.300  56.076  49.687  0.00  0.00    +0.000 A 
ATOM      7  C   UNL     1     -12.049  55.569  50.977  0.00  0.00    +0.000 A 
ATOM      8  C   UNL     1     -13.157  57.183  49.523  0.00  0.00    +0.000 A 
ATOM      9  C   UNL     1     -12.619  56.224  52.080  0.00  0.00    +0.000 A 
ATOM     10  C   UNL     1     -13.746  57.790  50.637  0.00  0.00    +0.000 A 
ATOM     11  C   UNL     1     -13.475  57.316  51.918  0.00  0.00    +0.000 A 
ENDROOT
BRANCH   1  17
ATOM     12  S   UNL     1      -7.882  53.660  46.141  0.00  0.00    +0.000 S 
ATOM     13  O   UNL     1      -6.978  52.634  46.620  0.00  0.00    +0.000 OA
ATOM     14  O   UNL     1      -7.367  54.835  45.465  0.00  0.00    +0.000 OA
ATOM     15  N   UNL     1      -8.774  54.159  47.401  0.00  0.00    +0.000 N 
ATOM     16  C   UNL     1      -8.947  52.870  44.991  0.00  0.00    +0.000 A 
ATOM     17  C   UNL     1     -10.038  53.863  47.489  0.00  0.00    +0.000 C 
ATOM     18  C   UNL     1     -10.272  52.684  45.354  0.00  0.00    +0.000 A 
ATOM     19  C   UNL     1      -8.455  52.463  43.747  0.00  0.00    +0.000 A 
ATOM     20  N   UNL     1     -10.747  53.086  46.599  0.00  0.00    +0.000 N 
ATOM     21  C   UNL     1     -11.111  52.003  44.465  0.00  0.00    +0.000 A 
ATOM     22  C   UNL     1      -9.312  51.819  42.857  0.00  0.00    +0.000 A 
ATOM     23  C   UNL     1     -10.638  51.581  43.220  0.00  0.00    +0.000 A 
ATOM     24  H   UNL     1      -8.353  54.695  48.111  0.00  0.00    +0.000 HD
ATOM     25  H   UNL     1     -11.650  52.796  46.861  0.00  0.00    +0.000 HD
ENDBRANCH   1  17
BRANCH  10  26
ATOM     26  N   UNL     1     -14.632  58.947  50.462  0.00  0.00    +0.000 N 
ATOM     27  O   UNL     1     -15.417  59.220  51.378  0.00  0.00    +0.000 OA
ATOM     28  O   UNL     1     -14.538  59.584  49.402  0.00  0.00    +0.000 OA
ENDBRANCH  10  26
BRANCH   3  29
ATOM     29  O   UNL     1     -11.951  56.050  47.307  0.00  0.00    +0.000 OA
ATOM     30  H   UNL     1     -12.836  56.281  47.106  0.00  0.00    +0.000 HD
ENDBRANCH   3  29
BRANCH   5  31
ATOM     31  C   UNL     1     -10.944  53.838  52.449  0.00  0.00    +0.000 C 
BRANCH  31  32
ATOM     32  C   UNL     1     -10.034  54.650  53.387  0.00  0.00    +0.000 C 
BRANCH  32  33
ATOM     33  C   UNL     1      -8.518  54.487  53.194  0.00  0.00    +0.000 C 
ATOM     34  C   UNL     1      -7.711  55.422  54.090  0.00  0.00    +0.000 C 
ATOM     35  C   UNL     1      -8.140  53.030  53.495  0.00  0.00    +0.000 C 
ENDBRANCH  32  33
ENDBRANCH  31  32
ENDBRANCH   5  31
TORSDOF 6
ENDMDL
MODEL 9
REMARK VINA RESULT:      -7.5      3.786      8.510
REMARK  Name = 338161
REMARK  8 active torsions:
REMARK  status: ('A' for Active; 'I' for Inactive)
REMARK    1  A    between atoms: C_6  and  C_10
REMARK    2  A    between atoms: C_14  and  O_18
REMARK    3  A    between atoms: N_17  and  C_21
REMARK    4  A    between atoms: C_21  and  C_24
REMARK    5  A    between atoms: C_24  and  C_27
REMARK    6  A    between atoms: C_25  and  N_28
REMARK    7  A    between atoms: C_27  and  C_29
REMARK    8  A    between atoms: C_27  and  C_30
REMARK                            x       y       z     vdW  Elec       q    Type
REMARK                         _______ _______ _______ _____ _____    ______ ____
ROOT
ATOM      1  C   UNL     1      -9.429  54.231  49.681  0.00  0.00    +0.000 A 
ATOM      2  C   UNL     1     -10.463  55.310  49.663  0.00  0.00    +0.000 A 
ATOM      3  C   UNL     1      -9.275  53.431  48.612  0.00  0.00    +0.000 A 
ATOM      4  O   UNL     1     -10.508  56.090  50.617  0.00  0.00    +0.000 OA
ATOM      5  N   UNL     1     -11.315  55.406  48.565  0.00  0.00    +0.000 N 
ATOM      6  C   UNL     1     -10.103  53.616  47.411  0.00  0.00    +0.000 A 
ATOM      7  C   UNL     1     -11.092  54.619  47.393  0.00  0.00    +0.000 A 
ATOM      8  C   UNL     1      -9.897  52.813  46.271  0.00  0.00    +0.000 A 
ATOM      9  C   UNL     1     -11.813  54.831  46.206  0.00  0.00    +0.000 A 
ATOM     10  C   UNL     1     -10.659  53.018  45.117  0.00  0.00    +0.000 A 
ATOM     11  C   UNL     1     -11.615  54.031  45.079  0.00  0.00    +0.000 A 
ENDROOT
BRANCH   1  17
ATOM     12  S   UNL     1      -8.226  54.078  53.423  0.00  0.00    +0.000 S 
ATOM     13  O   UNL     1      -8.444  52.781  54.031  0.00  0.00    +0.000 OA
ATOM     14  O   UNL     1      -8.489  55.293  54.169  0.00  0.00    +0.000 OA
ATOM     15  N   UNL     1      -9.095  54.133  52.053  0.00  0.00    +0.000 N 
ATOM     16  C   UNL     1      -6.524  54.133  52.996  0.00  0.00    +0.000 A 
ATOM     17  C   UNL     1      -8.517  54.104  50.888  0.00  0.00    +0.000 C 
ATOM     18  C   UNL     1      -6.189  54.088  51.652  0.00  0.00    +0.000 A 
ATOM     19  C   UNL     1      -5.554  54.234  53.999  0.00  0.00    +0.000 A 
ATOM     20  N   UNL     1      -7.163  53.978  50.664  0.00  0.00    +0.000 N 
ATOM     21  C   UNL     1      -4.833  54.073  51.310  0.00  0.00    +0.000 A 
ATOM     22  C   UNL     1      -4.209  54.256  53.640  0.00  0.00    +0.000 A 
ATOM     23  C   UNL     1      -3.847  54.166  52.295  0.00  0.00    +0.000 A 
ATOM     24  H   UNL     1     -10.077  54.190  52.105  0.00  0.00    +0.000 HD
ATOM     25  H   UNL     1      -6.866  53.799  49.743  0.00  0.00    +0.000 HD
ENDBRANCH   1  17
BRANCH  10  26
ATOM     26  N   UNL     1     -10.436  52.184  43.929  0.00  0.00    +0.000 N 
ATOM     27  O   UNL     1     -10.041  52.738  42.897  0.00  0.00    +0.000 OA
ATOM     28  O   UNL     1     -10.659  50.968  44.036  0.00  0.00    +0.000 OA
ENDBRANCH  10  26
BRANCH   3  29
ATOM     29  O   UNL     1      -8.324  52.431  48.514  0.00  0.00    +0.000 OA
ATOM     30  H   UNL     1      -8.572  51.575  48.224  0.00  0.00    +0.000 HD
ENDBRANCH   3  29
BRANCH   5  31
ATOM     31  C   UNL     1     -12.361  56.436  48.606  0.00  0.00    +0.000 C 
BRANCH  31  32
ATOM     32  C   UNL     1     -13.749  55.977  49.085  0.00  0.00    +0.000 C 
BRANCH  32  33
ATOM     33  C   UNL     1     -14.314  56.666  50.337  0.00  0.00    +0.000 C 
ATOM     34  C   UNL     1     -15.823  56.485  50.474  0.00  0.00    +0.000 C 
ATOM     35  C   UNL     1     -13.610  56.091  51.573  0.00  0.00    +0.000 C 
ENDBRANCH  32  33
ENDBRANCH  31  32
ENDBRANCH   5  31
TORSDOF 6
ENDMDL
