MODEL 1
REMARK VINA RESULT:      -8.1      0.000      0.000
REMARK  Name = 338639
REMARK  6 active torsions:
REMARK  status: ('A' for Active; 'I' for Inactive)
REMARK    1  A    between atoms: C_6  and  C_10
REMARK    2  A    between atoms: C_14  and  O_18
REMARK    3  A    between atoms: N_17  and  C_21
REMARK    4  A    between atoms: C_21  and  C_24
REMARK    5  A    between atoms: C_24  and  O_27
REMARK    6  A    between atoms: O_27  and  C_28
REMARK                            x       y       z     vdW  Elec       q    Type
REMARK                         _______ _______ _______ _____ _____    ______ ____
ROOT
ATOM      1  C   UNL     1     -10.136  54.309  52.339  0.00  0.00    +0.000 A 
ATOM      2  C   UNL     1      -8.736  54.831  52.290  0.00  0.00    +0.000 A 
ATOM      3  C   UNL     1     -10.415  53.201  53.048  0.00  0.00    +0.000 A 
ATOM      4  O   UNL     1      -8.544  55.921  51.740  0.00  0.00    +0.000 OA
ATOM      5  N   UNL     1      -7.723  54.097  52.900  0.00  0.00    +0.000 N 
ATOM      6  C   UNL     1      -9.355  52.506  53.793  0.00  0.00    +0.000 A 
ATOM      7  C   UNL     1      -8.028  52.970  53.726  0.00  0.00    +0.000 A 
ATOM      8  C   UNL     1      -9.661  51.391  54.594  0.00  0.00    +0.000 A 
ATOM      9  C   UNL     1      -7.054  52.327  54.507  0.00  0.00    +0.000 A 
ATOM     10  C   UNL     1      -8.672  50.744  55.333  0.00  0.00    +0.000 A 
ATOM     11  C   UNL     1      -7.369  51.216  55.292  0.00  0.00    +0.000 A 
ENDROOT
BRANCH   1  17
ATOM     12  S   UNL     1     -12.326  55.955  49.516  0.00  0.00    +0.000 S 
ATOM     13  O   UNL     1     -13.235  55.008  48.889  0.00  0.00    +0.000 OA
ATOM     14  O   UNL     1     -11.615  56.923  48.707  0.00  0.00    +0.000 OA
ATOM     15  N   UNL     1     -11.234  55.103  50.357  0.00  0.00    +0.000 N 
ATOM     16  C   UNL     1     -13.297  56.883  50.646  0.00  0.00    +0.000 A 
ATOM     17  C   UNL     1     -11.245  55.094  51.656  0.00  0.00    +0.000 C 
ATOM     18  C   UNL     1     -13.095  56.667  51.999  0.00  0.00    +0.000 A 
ATOM     19  C   UNL     1     -14.226  57.813  50.171  0.00  0.00    +0.000 A 
ATOM     20  N   UNL     1     -12.168  55.735  52.457  0.00  0.00    +0.000 N 
ATOM     21  C   UNL     1     -13.908  57.358  52.904  0.00  0.00    +0.000 A 
ATOM     22  C   UNL     1     -15.002  58.522  51.085  0.00  0.00    +0.000 A 
ATOM     23  C   UNL     1     -14.851  58.286  52.452  0.00  0.00    +0.000 A 
ATOM     24  H   UNL     1     -10.550  54.583  49.875  0.00  0.00    +0.000 HD
ATOM     25  H   UNL     1     -12.172  55.518  53.417  0.00  0.00    +0.000 HD
ENDBRANCH   1  17
BRANCH   3  26
ATOM     26  O   UNL     1     -11.682  52.662  53.191  0.00  0.00    +0.000 OA
ATOM     27  H   UNL     1     -12.000  52.434  54.043  0.00  0.00    +0.000 HD
ENDBRANCH   3  26
BRANCH   5  28
ATOM     28  C   UNL     1      -6.347  54.606  52.774  0.00  0.00    +0.000 C 
BRANCH  28  29
ATOM     29  C   UNL     1      -5.874  55.583  53.864  0.00  0.00    +0.000 C 
BRANCH  29  30
ATOM     30  O   UNL     1      -4.763  55.075  54.602  0.00  0.00    +0.000 OA
ATOM     31  C   UNL     1      -3.847  54.412  53.732  0.00  0.00    +0.000 C 
ENDBRANCH  29  30
ENDBRANCH  28  29
ENDBRANCH   5  28
TORSDOF 5
ENDMDL
MODEL 2
REMARK VINA RESULT:      -7.8      3.550      5.307
REMARK  Name = 338639
REMARK  6 active torsions:
REMARK  status: ('A' for Active; 'I' for Inactive)
REMARK    1  A    between atoms: C_6  and  C_10
REMARK    2  A    between atoms: C_14  and  O_18
REMARK    3  A    between atoms: N_17  and  C_21
REMARK    4  A    between atoms: C_21  and  C_24
REMARK    5  A    between atoms: C_24  and  O_27
REMARK    6  A    between atoms: O_27  and  C_28
REMARK                            x       y       z     vdW  Elec       q    Type
REMARK                         _______ _______ _______ _____ _____    ______ ____
ROOT
ATOM      1  C   UNL     1     -11.499  56.118  48.670  0.00  0.00    +0.000 A 
ATOM      2  C   UNL     1     -10.331  55.598  49.444  0.00  0.00    +0.000 A 
ATOM      3  C   UNL     1     -11.715  55.692  47.413  0.00  0.00    +0.000 A 
ATOM      4  O   UNL     1     -10.241  55.910  50.637  0.00  0.00    +0.000 OA
ATOM      5  N   UNL     1      -9.423  54.755  48.809  0.00  0.00    +0.000 N 
ATOM      6  C   UNL     1     -10.818  54.702  46.798  0.00  0.00    +0.000 A 
ATOM      7  C   UNL     1      -9.697  54.231  47.506  0.00  0.00    +0.000 A 
ATOM      8  C   UNL     1     -11.087  54.200  45.511  0.00  0.00    +0.000 A 
ATOM      9  C   UNL     1      -8.904  53.233  46.918  0.00  0.00    +0.000 A 
ATOM     10  C   UNL     1     -10.266  53.236  44.930  0.00  0.00    +0.000 A 
ATOM     11  C   UNL     1      -9.176  52.750  45.636  0.00  0.00    +0.000 A 
ENDROOT
BRANCH   1  17
ATOM     12  S   UNL     1     -13.593  59.345  49.490  0.00  0.00    +0.000 S 
ATOM     13  O   UNL     1     -14.755  59.493  48.627  0.00  0.00    +0.000 OA
ATOM     14  O   UNL     1     -12.787  60.501  49.827  0.00  0.00    +0.000 OA
ATOM     15  N   UNL     1     -12.623  58.234  48.819  0.00  0.00    +0.000 N 
ATOM     16  C   UNL     1     -14.197  58.711  51.011  0.00  0.00    +0.000 A 
ATOM     17  C   UNL     1     -12.482  57.057  49.351  0.00  0.00    +0.000 C 
ATOM     18  C   UNL     1     -13.888  57.399  51.330  0.00  0.00    +0.000 A 
ATOM     19  C   UNL     1     -14.949  59.527  51.861  0.00  0.00    +0.000 A 
ATOM     20  N   UNL     1     -13.141  56.597  50.473  0.00  0.00    +0.000 N 
ATOM     21  C   UNL     1     -14.418  56.868  52.512  0.00  0.00    +0.000 A 
ATOM     22  C   UNL     1     -15.437  58.996  53.052  0.00  0.00    +0.000 A 
ATOM     23  C   UNL     1     -15.181  57.663  53.372  0.00  0.00    +0.000 A 
ATOM     24  H   UNL     1     -12.131  58.455  47.995  0.00  0.00    +0.000 HD
ATOM     25  H   UNL     1     -13.079  55.637  50.680  0.00  0.00    +0.000 HD
ENDBRANCH   1  17
BRANCH   3  26
ATOM     26  O   UNL     1     -12.788  56.078  46.629  0.00  0.00    +0.000 OA
ATOM     27  H   UNL     1     -13.360  56.761  46.922  0.00  0.00    +0.000 HD
ENDBRANCH   3  26
BRANCH   5  28
ATOM     28  C   UNL     1      -8.249  54.316  49.581  0.00  0.00    +0.000 C 
BRANCH  28  29
ATOM     29  C   UNL     1      -6.990  55.195  49.473  0.00  0.00    +0.000 C 
BRANCH  29  30
ATOM     30  O   UNL     1      -6.839  56.065  50.595  0.00  0.00    +0.000 OA
ATOM     31  C   UNL     1      -6.951  55.331  51.813  0.00  0.00    +0.000 C 
ENDBRANCH  29  30
ENDBRANCH  28  29
ENDBRANCH   5  28
TORSDOF 5
ENDMDL
MODEL 3
REMARK VINA RESULT:      -7.6      2.178      2.883
REMARK  Name = 338639
REMARK  6 active torsions:
REMARK  status: ('A' for Active; 'I' for Inactive)
REMARK    1  A    between atoms: C_6  and  C_10
REMARK    2  A    between atoms: C_14  and  O_18
REMARK    3  A    between atoms: N_17  and  C_21
REMARK    4  A    between atoms: C_21  and  C_24
REMARK    5  A    between atoms: C_24  and  O_27
REMARK    6  A    between atoms: O_27  and  C_28
REMARK                            x       y       z     vdW  Elec       q    Type
REMARK                         _______ _______ _______ _____ _____    ______ ____
ROOT
ATOM      1  C   UNL     1     -11.641  54.007  51.084  0.00  0.00    +0.000 A 
ATOM      2  C   UNL     1     -10.736  53.978  52.273  0.00  0.00    +0.000 A 
ATOM      3  C   UNL     1     -11.737  52.929  50.287  0.00  0.00    +0.000 A 
ATOM      4  O   UNL     1     -10.775  54.936  53.054  0.00  0.00    +0.000 OA
ATOM      5  N   UNL     1      -9.927  52.864  52.476  0.00  0.00    +0.000 N 
ATOM      6  C   UNL     1     -10.969  51.710  50.586  0.00  0.00    +0.000 A 
ATOM      7  C   UNL     1     -10.091  51.684  51.685  0.00  0.00    +0.000 A 
ATOM      8  C   UNL     1     -11.127  50.557  49.796  0.00  0.00    +0.000 A 
ATOM      9  C   UNL     1      -9.430  50.482  51.985  0.00  0.00    +0.000 A 
ATOM     10  C   UNL     1     -10.434  49.385  50.089  0.00  0.00    +0.000 A 
ATOM     11  C   UNL     1      -9.588  49.347  51.187  0.00  0.00    +0.000 A 
ENDROOT
BRANCH   1  17
ATOM     12  S   UNL     1     -13.333  57.064  49.278  0.00  0.00    +0.000 S 
ATOM     13  O   UNL     1     -14.454  56.669  48.438  0.00  0.00    +0.000 OA
ATOM     14  O   UNL     1     -12.397  58.068  48.814  0.00  0.00    +0.000 OA
ATOM     15  N   UNL     1     -12.497  55.726  49.641  0.00  0.00    +0.000 N 
ATOM     16  C   UNL     1     -14.036  57.700  50.755  0.00  0.00    +0.000 A 
ATOM     17  C   UNL     1     -12.511  55.231  50.843  0.00  0.00    +0.000 C 
ATOM     18  C   UNL     1     -13.897  56.948  51.910  0.00  0.00    +0.000 A 
ATOM     19  C   UNL     1     -14.695  58.933  50.743  0.00  0.00    +0.000 A 
ATOM     20  N   UNL     1     -13.241  55.721  51.906  0.00  0.00    +0.000 N 
ATOM     21  C   UNL     1     -14.508  57.419  53.078  0.00  0.00    +0.000 A 
ATOM     22  C   UNL     1     -15.265  59.407  51.922  0.00  0.00    +0.000 A 
ATOM     23  C   UNL     1     -15.181  58.644  53.088  0.00  0.00    +0.000 A 
ATOM     24  H   UNL     1     -11.968  55.279  48.941  0.00  0.00    +0.000 HD
ATOM     25  H   UNL     1     -13.301  55.166  52.717  0.00  0.00    +0.000 HD
ENDBRANCH   1  17
BRANCH   3  26
ATOM     26  O   UNL     1     -12.574  52.839  49.188  0.00  0.00    +0.000 OA
ATOM     27  H   UNL     1     -12.947  52.012  48.950  0.00  0.00    +0.000 HD
ENDBRANCH   3  26
BRANCH   5  28
ATOM     28  C   UNL     1      -8.999  52.898  53.619  0.00  0.00    +0.000 C 
BRANCH  28  29
ATOM     29  C   UNL     1      -7.559  53.352  53.321  0.00  0.00    +0.000 C 
BRANCH  29  30
ATOM     30  O   UNL     1      -7.044  54.218  54.332  0.00  0.00    +0.000 OA
ATOM     31  C   UNL     1      -7.519  55.549  54.139  0.00  0.00    +0.000 C 
ENDBRANCH  29  30
ENDBRANCH  28  29
ENDBRANCH   5  28
TORSDOF 5
ENDMDL
MODEL 4
REMARK VINA RESULT:      -7.5      3.860      5.477
REMARK  Name = 338639
REMARK  6 active torsions:
REMARK  status: ('A' for Active; 'I' for Inactive)
REMARK    1  A    between atoms: C_6  and  C_10
REMARK    2  A    between atoms: C_14  and  O_18
REMARK    3  A    between atoms: N_17  and  C_21
REMARK    4  A    between atoms: C_21  and  C_24
REMARK    5  A    between atoms: C_24  and  O_27
REMARK    6  A    between atoms: O_27  and  C_28
REMARK                            x       y       z     vdW  Elec       q    Type
REMARK                         _______ _______ _______ _____ _____    ______ ____
ROOT
ATOM      1  C   UNL     1     -10.953  55.435  48.535  0.00  0.00    +0.000 A 
ATOM      2  C   UNL     1      -9.665  54.960  49.129  0.00  0.00    +0.000 A 
ATOM      3  C   UNL     1     -11.269  55.109  47.270  0.00  0.00    +0.000 A 
ATOM      4  O   UNL     1      -9.471  55.168  50.332  0.00  0.00    +0.000 OA
ATOM      5  N   UNL     1      -8.766  54.271  48.321  0.00  0.00    +0.000 N 
ATOM      6  C   UNL     1     -10.364  54.271  46.467  0.00  0.00    +0.000 A 
ATOM      7  C   UNL     1      -9.136  53.846  47.006  0.00  0.00    +0.000 A 
ATOM      8  C   UNL     1     -10.730  53.868  45.170  0.00  0.00    +0.000 A 
ATOM      9  C   UNL     1      -8.330  52.988  46.241  0.00  0.00    +0.000 A 
ATOM     10  C   UNL     1      -9.900  53.045  44.413  0.00  0.00    +0.000 A 
ATOM     11  C   UNL     1      -8.701  52.602  44.950  0.00  0.00    +0.000 A 
ENDROOT
BRANCH   1  17
ATOM     12  S   UNL     1     -13.519  56.273  51.395  0.00  0.00    +0.000 S 
ATOM     13  O   UNL     1     -12.869  56.563  52.664  0.00  0.00    +0.000 OA
ATOM     14  O   UNL     1     -14.722  55.466  51.364  0.00  0.00    +0.000 OA
ATOM     15  N   UNL     1     -12.421  55.577  50.430  0.00  0.00    +0.000 N 
ATOM     16  C   UNL     1     -13.958  57.827  50.709  0.00  0.00    +0.000 A 
ATOM     17  C   UNL     1     -11.930  56.208  49.405  0.00  0.00    +0.000 C 
ATOM     18  C   UNL     1     -13.255  58.262  49.597  0.00  0.00    +0.000 A 
ATOM     19  C   UNL     1     -14.994  58.576  51.275  0.00  0.00    +0.000 A 
ATOM     20  N   UNL     1     -12.224  57.508  49.046  0.00  0.00    +0.000 N 
ATOM     21  C   UNL     1     -13.558  59.528  49.082  0.00  0.00    +0.000 A 
ATOM     22  C   UNL     1     -15.310  59.817  50.728  0.00  0.00    +0.000 A 
ATOM     23  C   UNL     1     -14.584  60.298  49.638  0.00  0.00    +0.000 A 
ATOM     24  H   UNL     1     -12.120  54.659  50.622  0.00  0.00    +0.000 HD
ATOM     25  H   UNL     1     -11.666  57.930  48.354  0.00  0.00    +0.000 HD
ENDBRANCH   1  17
BRANCH   3  26
ATOM     26  O   UNL     1     -12.452  55.462  46.642  0.00  0.00    +0.000 OA
ATOM     27  H   UNL     1     -12.446  55.710  45.738  0.00  0.00    +0.000 HD
ENDBRANCH   3  26
BRANCH   5  28
ATOM     28  C   UNL     1      -7.479  53.877  48.920  0.00  0.00    +0.000 C 
BRANCH  28  29
ATOM     29  C   UNL     1      -6.287  54.815  48.661  0.00  0.00    +0.000 C 
BRANCH  29  30
ATOM     30  O   UNL     1      -5.867  55.495  49.844  0.00  0.00    +0.000 OA
ATOM     31  C   UNL     1      -5.986  54.641  50.980  0.00  0.00    +0.000 C 
ENDBRANCH  29  30
ENDBRANCH  28  29
ENDBRANCH   5  28
TORSDOF 5
ENDMDL
MODEL 5
REMARK VINA RESULT:      -7.4      2.649      7.712
REMARK  Name = 338639
REMARK  6 active torsions:
REMARK  status: ('A' for Active; 'I' for Inactive)
REMARK    1  A    between atoms: C_6  and  C_10
REMARK    2  A    between atoms: C_14  and  O_18
REMARK    3  A    between atoms: N_17  and  C_21
REMARK    4  A    between atoms: C_21  and  C_24
REMARK    5  A    between atoms: C_24  and  O_27
REMARK    6  A    between atoms: O_27  and  C_28
REMARK                            x       y       z     vdW  Elec       q    Type
REMARK                         _______ _______ _______ _____ _____    ______ ____
ROOT
ATOM      1  C   UNL     1     -10.286  54.900  50.958  0.00  0.00    +0.000 A 
ATOM      2  C   UNL     1     -11.578  55.497  51.416  0.00  0.00    +0.000 A 
ATOM      3  C   UNL     1     -10.024  54.795  49.643  0.00  0.00    +0.000 A 
ATOM      4  O   UNL     1     -11.725  55.698  52.627  0.00  0.00    +0.000 OA
ATOM      5  N   UNL     1     -12.535  55.841  50.466  0.00  0.00    +0.000 N 
ATOM      6  C   UNL     1     -10.994  55.280  48.649  0.00  0.00    +0.000 A 
ATOM      7  C   UNL     1     -12.226  55.814  49.070  0.00  0.00    +0.000 A 
ATOM      8  C   UNL     1     -10.687  55.239  47.277  0.00  0.00    +0.000 A 
ATOM      9  C   UNL     1     -13.096  56.334  48.099  0.00  0.00    +0.000 A 
ATOM     10  C   UNL     1     -11.581  55.728  46.326  0.00  0.00    +0.000 A 
ATOM     11  C   UNL     1     -12.784  56.279  46.738  0.00  0.00    +0.000 A 
ENDROOT
BRANCH   1  17
ATOM     12  S   UNL     1      -6.953  54.855  53.046  0.00  0.00    +0.000 S 
ATOM     13  O   UNL     1      -6.930  55.873  54.086  0.00  0.00    +0.000 OA
ATOM     14  O   UNL     1      -5.766  54.595  52.258  0.00  0.00    +0.000 OA
ATOM     15  N   UNL     1      -8.162  55.219  52.031  0.00  0.00    +0.000 N 
ATOM     16  C   UNL     1      -7.341  53.346  53.855  0.00  0.00    +0.000 A 
ATOM     17  C   UNL     1      -9.245  54.501  51.991  0.00  0.00    +0.000 C 
ATOM     18  C   UNL     1      -8.591  52.795  53.626  0.00  0.00    +0.000 A 
ATOM     19  C   UNL     1      -6.398  52.733  54.685  0.00  0.00    +0.000 A 
ATOM     20  N   UNL     1      -9.522  53.418  52.800  0.00  0.00    +0.000 N 
ATOM     21  C   UNL     1      -8.930  51.625  54.316  0.00  0.00    +0.000 A 
ATOM     22  C   UNL     1      -6.735  51.549  55.334  0.00  0.00    +0.000 A 
ATOM     23  C   UNL     1      -8.006  51.000  55.158  0.00  0.00    +0.000 A 
ATOM     24  H   UNL     1      -8.075  55.997  51.433  0.00  0.00    +0.000 HD
ATOM     25  H   UNL     1     -10.439  53.062  52.792  0.00  0.00    +0.000 HD
ENDBRANCH   1  17
BRANCH   3  26
ATOM     26  O   UNL     1      -8.844  54.298  49.117  0.00  0.00    +0.000 OA
ATOM     27  H   UNL     1      -8.086  54.219  49.663  0.00  0.00    +0.000 HD
ENDBRANCH   3  26
BRANCH   5  28
ATOM     28  C   UNL     1     -13.821  56.363  50.957  0.00  0.00    +0.000 C 
BRANCH  28  29
ATOM     29  C   UNL     1     -13.945  57.894  51.061  0.00  0.00    +0.000 C 
BRANCH  29  30
ATOM     30  O   UNL     1     -14.071  58.336  52.412  0.00  0.00    +0.000 OA
ATOM     31  C   UNL     1     -15.167  57.682  53.051  0.00  0.00    +0.000 C 
ENDBRANCH  29  30
ENDBRANCH  28  29
ENDBRANCH   5  28
TORSDOF 5
ENDMDL
MODEL 6
REMARK VINA RESULT:      -7.3      3.069      7.436
REMARK  Name = 338639
REMARK  6 active torsions:
REMARK  status: ('A' for Active; 'I' for Inactive)
REMARK    1  A    between atoms: C_6  and  C_10
REMARK    2  A    between atoms: C_14  and  O_18
REMARK    3  A    between atoms: N_17  and  C_21
REMARK    4  A    between atoms: C_21  and  C_24
REMARK    5  A    between atoms: C_24  and  O_27
REMARK    6  A    between atoms: O_27  and  C_28
REMARK                            x       y       z     vdW  Elec       q    Type
REMARK                         _______ _______ _______ _____ _____    ______ ____
ROOT
ATOM      1  C   UNL     1     -10.096  55.165  50.642  0.00  0.00    +0.000 A 
ATOM      2  C   UNL     1      -9.654  55.028  49.220  0.00  0.00    +0.000 A 
ATOM      3  C   UNL     1     -11.302  55.691  50.923  0.00  0.00    +0.000 A 
ATOM      4  O   UNL     1      -8.601  54.421  48.997  0.00  0.00    +0.000 OA
ATOM      5  N   UNL     1     -10.462  55.546  48.212  0.00  0.00    +0.000 N 
ATOM      6  C   UNL     1     -12.199  56.118  49.838  0.00  0.00    +0.000 A 
ATOM      7  C   UNL     1     -11.779  56.024  48.499  0.00  0.00    +0.000 A 
ATOM      8  C   UNL     1     -13.489  56.598  50.129  0.00  0.00    +0.000 A 
ATOM      9  C   UNL     1     -12.688  56.371  47.487  0.00  0.00    +0.000 A 
ATOM     10  C   UNL     1     -14.363  56.972  49.111  0.00  0.00    +0.000 A 
ATOM     11  C   UNL     1     -13.963  56.855  47.788  0.00  0.00    +0.000 A 
ENDROOT
BRANCH   1  17
ATOM     12  S   UNL     1      -6.998  54.676  53.015  0.00  0.00    +0.000 S 
ATOM     13  O   UNL     1      -6.951  55.660  54.085  0.00  0.00    +0.000 OA
ATOM     14  O   UNL     1      -5.782  54.293  52.327  0.00  0.00    +0.000 OA
ATOM     15  N   UNL     1      -8.057  55.204  51.910  0.00  0.00    +0.000 N 
ATOM     16  C   UNL     1      -7.633  53.207  53.736  0.00  0.00    +0.000 A 
ATOM     17  C   UNL     1      -9.209  54.622  51.750  0.00  0.00    +0.000 C 
ATOM     18  C   UNL     1      -8.912  52.815  53.380  0.00  0.00    +0.000 A 
ATOM     19  C   UNL     1      -6.848  52.468  54.626  0.00  0.00    +0.000 A 
ATOM     20  N   UNL     1      -9.683  53.562  52.495  0.00  0.00    +0.000 N 
ATOM     21  C   UNL     1      -9.448  51.679  53.998  0.00  0.00    +0.000 A 
ATOM     22  C   UNL     1      -7.380  51.318  55.204  0.00  0.00    +0.000 A 
ATOM     23  C   UNL     1      -8.685  50.929  54.899  0.00  0.00    +0.000 A 
ATOM     24  H   UNL     1      -7.825  55.979  51.347  0.00  0.00    +0.000 HD
ATOM     25  H   UNL     1     -10.632  53.318  52.394  0.00  0.00    +0.000 HD
ENDBRANCH   1  17
BRANCH   3  26
ATOM     26  O   UNL     1     -11.821  55.822  52.199  0.00  0.00    +0.000 OA
ATOM     27  H   UNL     1     -12.259  56.613  52.447  0.00  0.00    +0.000 HD
ENDBRANCH   3  26
BRANCH   5  28
ATOM     28  C   UNL     1      -9.964  55.454  46.829  0.00  0.00    +0.000 C 
BRANCH  28  29
ATOM     29  C   UNL     1     -10.216  54.125  46.096  0.00  0.00    +0.000 C 
BRANCH  29  30
ATOM     30  O   UNL     1      -9.052  53.649  45.422  0.00  0.00    +0.000 OA
ATOM     31  C   UNL     1      -8.012  54.625  45.472  0.00  0.00    +0.000 C 
ENDBRANCH  29  30
ENDBRANCH  28  29
ENDBRANCH   5  28
TORSDOF 5
ENDMDL
MODEL 7
REMARK VINA RESULT:      -7.2      1.589      2.305
REMARK  Name = 338639
REMARK  6 active torsions:
REMARK  status: ('A' for Active; 'I' for Inactive)
REMARK    1  A    between atoms: C_6  and  C_10
REMARK    2  A    between atoms: C_14  and  O_18
REMARK    3  A    between atoms: N_17  and  C_21
REMARK    4  A    between atoms: C_21  and  C_24
REMARK    5  A    between atoms: C_24  and  O_27
REMARK    6  A    between atoms: O_27  and  C_28
REMARK                            x       y       z     vdW  Elec       q    Type
REMARK                         _______ _______ _______ _____ _____    ______ ____
ROOT
ATOM      1  C   UNL     1     -10.156  54.401  52.235  0.00  0.00    +0.000 A 
ATOM      2  C   UNL     1      -8.747  54.901  52.231  0.00  0.00    +0.000 A 
ATOM      3  C   UNL     1     -10.474  53.297  52.933  0.00  0.00    +0.000 A 
ATOM      4  O   UNL     1      -8.520  55.988  51.689  0.00  0.00    +0.000 OA
ATOM      5  N   UNL     1      -7.765  54.150  52.871  0.00  0.00    +0.000 N 
ATOM      6  C   UNL     1      -9.449  52.584  53.710  0.00  0.00    +0.000 A 
ATOM      7  C   UNL     1      -8.114  53.028  53.686  0.00  0.00    +0.000 A 
ATOM      8  C   UNL     1      -9.797  51.474  54.500  0.00  0.00    +0.000 A 
ATOM      9  C   UNL     1      -7.175  52.369  54.496  0.00  0.00    +0.000 A 
ATOM     10  C   UNL     1      -8.843  50.811  55.269  0.00  0.00    +0.000 A 
ATOM     11  C   UNL     1      -7.532  51.262  55.269  0.00  0.00    +0.000 A 
ENDROOT
BRANCH   1  17
ATOM     12  S   UNL     1     -13.465  56.425  51.583  0.00  0.00    +0.000 S 
ATOM     13  O   UNL     1     -13.373  57.807  52.027  0.00  0.00    +0.000 OA
ATOM     14  O   UNL     1     -14.676  55.666  51.816  0.00  0.00    +0.000 OA
ATOM     15  N   UNL     1     -12.228  55.614  52.244  0.00  0.00    +0.000 N 
ATOM     16  C   UNL     1     -13.240  56.460  49.842  0.00  0.00    +0.000 A 
ATOM     17  C   UNL     1     -11.230  55.204  51.519  0.00  0.00    +0.000 C 
ATOM     18  C   UNL     1     -12.059  55.946  49.334  0.00  0.00    +0.000 A 
ATOM     19  C   UNL     1     -14.241  56.981  49.017  0.00  0.00    +0.000 A 
ATOM     20  N   UNL     1     -11.069  55.434  50.168  0.00  0.00    +0.000 N 
ATOM     21  C   UNL     1     -11.847  56.027  47.953  0.00  0.00    +0.000 A 
ATOM     22  C   UNL     1     -14.032  57.020  47.641  0.00  0.00    +0.000 A 
ATOM     23  C   UNL     1     -12.829  56.553  47.110  0.00  0.00    +0.000 A 
ATOM     24  H   UNL     1     -12.232  55.428  53.211  0.00  0.00    +0.000 HD
ATOM     25  H   UNL     1     -10.196  55.220  49.766  0.00  0.00    +0.000 HD
ENDBRANCH   1  17
BRANCH   3  26
ATOM     26  O   UNL     1     -11.754  52.778  53.036  0.00  0.00    +0.000 OA
ATOM     27  H   UNL     1     -12.346  53.116  53.679  0.00  0.00    +0.000 HD
ENDBRANCH   3  26
BRANCH   5  28
ATOM     28  C   UNL     1      -6.377  54.637  52.789  0.00  0.00    +0.000 C 
BRANCH  28  29
ATOM     29  C   UNL     1      -5.853  55.421  54.005  0.00  0.00    +0.000 C 
BRANCH  29  30
ATOM     30  O   UNL     1      -4.596  54.927  54.467  0.00  0.00    +0.000 OA
ATOM     31  C   UNL     1      -3.847  54.378  53.384  0.00  0.00    +0.000 C 
ENDBRANCH  29  30
ENDBRANCH  28  29
ENDBRANCH   5  28
TORSDOF 5
ENDMDL
MODEL 8
REMARK VINA RESULT:      -7.1      3.845      5.639
REMARK  Name = 338639
REMARK  6 active torsions:
REMARK  status: ('A' for Active; 'I' for Inactive)
REMARK    1  A    between atoms: C_6  and  C_10
REMARK    2  A    between atoms: C_14  and  O_18
REMARK    3  A    between atoms: N_17  and  C_21
REMARK    4  A    between atoms: C_21  and  C_24
REMARK    5  A    between atoms: C_24  and  O_27
REMARK    6  A    between atoms: O_27  and  C_28
REMARK                            x       y       z     vdW  Elec       q    Type
REMARK                         _______ _______ _______ _____ _____    ______ ____
ROOT
ATOM      1  C   UNL     1     -11.813  54.791  48.693  0.00  0.00    +0.000 A 
ATOM      2  C   UNL     1     -11.164  53.707  49.492  0.00  0.00    +0.000 A 
ATOM      3  C   UNL     1     -11.640  54.838  47.361  0.00  0.00    +0.000 A 
ATOM      4  O   UNL     1     -11.453  53.619  50.691  0.00  0.00    +0.000 OA
ATOM      5  N   UNL     1     -10.303  52.821  48.851  0.00  0.00    +0.000 N 
ATOM      6  C   UNL     1     -10.829  53.819  46.678  0.00  0.00    +0.000 A 
ATOM      7  C   UNL     1     -10.187  52.814  47.425  0.00  0.00    +0.000 A 
ATOM      8  C   UNL     1     -10.710  53.825  45.276  0.00  0.00    +0.000 A 
ATOM      9  C   UNL     1      -9.481  51.815  46.736  0.00  0.00    +0.000 A 
ATOM     10  C   UNL     1      -9.974  52.845  44.613  0.00  0.00    +0.000 A 
ATOM     11  C   UNL     1      -9.363  51.837  45.344  0.00  0.00    +0.000 A 
ENDROOT
BRANCH   1  17
ATOM     12  S   UNL     1     -14.784  56.211  50.844  0.00  0.00    +0.000 S 
ATOM     13  O   UNL     1     -14.522  56.148  52.274  0.00  0.00    +0.000 OA
ATOM     14  O   UNL     1     -16.097  55.876  50.331  0.00  0.00    +0.000 OA
ATOM     15  N   UNL     1     -13.698  55.266  50.104  0.00  0.00    +0.000 N 
ATOM     16  C   UNL     1     -14.488  57.875  50.371  0.00  0.00    +0.000 A 
ATOM     17  C   UNL     1     -12.737  55.776  49.392  0.00  0.00    +0.000 C 
ATOM     18  C   UNL     1     -13.368  58.136  49.598  0.00  0.00    +0.000 A 
ATOM     19  C   UNL     1     -15.374  58.884  50.762  0.00  0.00    +0.000 A 
ATOM     20  N   UNL     1     -12.493  57.122  49.220  0.00  0.00    +0.000 N 
ATOM     21  C   UNL     1     -13.092  59.468  49.270  0.00  0.00    +0.000 A 
ATOM     22  C   UNL     1     -15.106  60.200  50.395  0.00  0.00    +0.000 A 
ATOM     23  C   UNL     1     -13.958  60.494  49.658  0.00  0.00    +0.000 A 
ATOM     24  H   UNL     1     -13.767  54.287  50.193  0.00  0.00    +0.000 HD
ATOM     25  H   UNL     1     -11.642  57.384  48.800  0.00  0.00    +0.000 HD
ENDBRANCH   1  17
BRANCH   3  26
ATOM     26  O   UNL     1     -12.231  55.773  46.527  0.00  0.00    +0.000 OA
ATOM     27  H   UNL     1     -11.808  56.596  46.375  0.00  0.00    +0.000 HD
ENDBRANCH   3  26
BRANCH   5  28
ATOM     28  C   UNL     1      -9.628  51.809  49.680  0.00  0.00    +0.000 C 
BRANCH  28  29
ATOM     29  C   UNL     1      -8.214  52.160  50.175  0.00  0.00    +0.000 C 
BRANCH  29  30
ATOM     30  O   UNL     1      -7.844  53.500  49.852  0.00  0.00    +0.000 OA
ATOM     31  C   UNL     1      -6.652  53.513  49.068  0.00  0.00    +0.000 C 
ENDBRANCH  29  30
ENDBRANCH  28  29
ENDBRANCH   5  28
TORSDOF 5
ENDMDL
MODEL 9
REMARK VINA RESULT:      -7.1      4.245      6.217
REMARK  Name = 338639
REMARK  6 active torsions:
REMARK  status: ('A' for Active; 'I' for Inactive)
REMARK    1  A    between atoms: C_6  and  C_10
REMARK    2  A    between atoms: C_14  and  O_18
REMARK    3  A    between atoms: N_17  and  C_21
REMARK    4  A    between atoms: C_21  and  C_24
REMARK    5  A    between atoms: C_24  and  O_27
REMARK    6  A    between atoms: O_27  and  C_28
REMARK                            x       y       z     vdW  Elec       q    Type
REMARK                         _______ _______ _______ _____ _____    ______ ____
ROOT
ATOM      1  C   UNL     1     -10.731  55.662  48.754  0.00  0.00    +0.000 A 
ATOM      2  C   UNL     1     -11.061  55.160  47.385  0.00  0.00    +0.000 A 
ATOM      3  C   UNL     1      -9.479  55.544  49.230  0.00  0.00    +0.000 A 
ATOM      4  O   UNL     1     -12.185  55.406  46.934  0.00  0.00    +0.000 OA
ATOM      5  N   UNL     1     -10.082  54.482  46.664  0.00  0.00    +0.000 N 
ATOM      6  C   UNL     1      -8.423  54.938  48.404  0.00  0.00    +0.000 A 
ATOM      7  C   UNL     1      -8.730  54.433  47.127  0.00  0.00    +0.000 A 
ATOM      8  C   UNL     1      -7.097  54.882  48.872  0.00  0.00    +0.000 A 
ATOM      9  C   UNL     1      -7.685  53.928  46.338  0.00  0.00    +0.000 A 
ATOM     10  C   UNL     1      -6.080  54.343  48.087  0.00  0.00    +0.000 A 
ATOM     11  C   UNL     1      -6.374  53.870  46.817  0.00  0.00    +0.000 A 
ENDROOT
BRANCH   1  17
ATOM     12  S   UNL     1     -13.519  56.365  51.439  0.00  0.00    +0.000 S 
ATOM     13  O   UNL     1     -12.969  56.686  52.747  0.00  0.00    +0.000 OA
ATOM     14  O   UNL     1     -14.675  55.499  51.330  0.00  0.00    +0.000 OA
ATOM     15  N   UNL     1     -12.326  55.727  50.548  0.00  0.00    +0.000 N 
ATOM     16  C   UNL     1     -13.989  57.897  50.723  0.00  0.00    +0.000 A 
ATOM     17  C   UNL     1     -11.802  56.384  49.557  0.00  0.00    +0.000 C 
ATOM     18  C   UNL     1     -13.238  58.368  49.659  0.00  0.00    +0.000 A 
ATOM     19  C   UNL     1     -15.096  58.592  51.218  0.00  0.00    +0.000 A 
ATOM     20  N   UNL     1     -12.136  57.668  49.178  0.00  0.00    +0.000 N 
ATOM     21  C   UNL     1     -13.569  59.619  49.123  0.00  0.00    +0.000 A 
ATOM     22  C   UNL     1     -15.437  59.816  50.650  0.00  0.00    +0.000 A 
ATOM     23  C   UNL     1     -14.666  60.336  49.609  0.00  0.00    +0.000 A 
ATOM     24  H   UNL     1     -11.992  54.825  50.761  0.00  0.00    +0.000 HD
ATOM     25  H   UNL     1     -11.556  58.119  48.523  0.00  0.00    +0.000 HD
ENDBRANCH   1  17
BRANCH   3  26
ATOM     26  O   UNL     1      -9.062  56.013  50.464  0.00  0.00    +0.000 OA
ATOM     27  H   UNL     1      -8.646  56.850  50.530  0.00  0.00    +0.000 HD
ENDBRANCH   3  26
BRANCH   5  28
ATOM     28  C   UNL     1     -10.462  53.942  45.347  0.00  0.00    +0.000 C 
BRANCH  28  29
ATOM     29  C   UNL     1     -10.751  52.433  45.282  0.00  0.00    +0.000 C 
BRANCH  29  30
ATOM     30  O   UNL     1     -11.468  51.969  46.427  0.00  0.00    +0.000 OA
ATOM     31  C   UNL     1     -12.357  50.913  46.065  0.00  0.00    +0.000 C 
ENDBRANCH  29  30
ENDBRANCH  28  29
ENDBRANCH   5  28
TORSDOF 5
ENDMDL
