MODEL 1
REMARK VINA RESULT:      -8.8      0.000      0.000
REMARK  Name = 338063
REMARK  8 active torsions:
REMARK  status: ('A' for Active; 'I' for Inactive)
REMARK    1  A    between atoms: C_6  and  C_10
REMARK    2  A    between atoms: C_14  and  O_18
REMARK    3  A    between atoms: N_17  and  C_21
REMARK    4  A    between atoms: C_21  and  C_24
REMARK    5  A    between atoms: C_24  and  C_27
REMARK    6  A    between atoms: C_25  and  C_28
REMARK    7  A    between atoms: C_27  and  C_29
REMARK    8  A    between atoms: C_27  and  C_30
REMARK                            x       y       z     vdW  Elec       q    Type
REMARK                         _______ _______ _______ _____ _____    ______ ____
ROOT
ATOM      1  C   UNL     1     -10.228  54.523  52.233  0.00  0.00    +0.000 A 
ATOM      2  C   UNL     1      -8.845  55.084  52.133  0.00  0.00    +0.000 A 
ATOM      3  C   UNL     1     -10.449  53.403  52.943  0.00  0.00    +0.000 A 
ATOM      4  O   UNL     1      -8.698  56.172  51.565  0.00  0.00    +0.000 OA
ATOM      5  N   UNL     1      -7.791  54.374  52.698  0.00  0.00    +0.000 N 
ATOM      6  C   UNL     1      -9.342  52.732  53.639  0.00  0.00    +0.000 A 
ATOM      7  C   UNL     1      -8.036  53.237  53.531  0.00  0.00    +0.000 A 
ATOM      8  C   UNL     1      -9.583  51.596  54.435  0.00  0.00    +0.000 A 
ATOM      9  C   UNL     1      -7.016  52.622  54.272  0.00  0.00    +0.000 A 
ATOM     10  C   UNL     1      -8.551  50.963  55.134  0.00  0.00    +0.000 A 
ATOM     11  C   UNL     1      -7.265  51.492  55.051  0.00  0.00    +0.000 A 
ATOM     12  C   UNL     1      -8.814  49.764  55.992  0.00  0.00    +0.000 C 
ENDROOT
BRANCH   1  18
ATOM     13  S   UNL     1     -12.553  56.075  49.469  0.00  0.00    +0.000 S 
ATOM     14  O   UNL     1     -13.457  55.100  48.890  0.00  0.00    +0.000 OA
ATOM     15  O   UNL     1     -11.898  57.053  48.623  0.00  0.00    +0.000 OA
ATOM     16  N   UNL     1     -11.409  55.268  50.282  0.00  0.00    +0.000 N 
ATOM     17  C   UNL     1     -13.505  56.994  50.624  0.00  0.00    +0.000 A 
ATOM     18  C   UNL     1     -11.379  55.269  51.581  0.00  0.00    +0.000 C 
ATOM     19  C   UNL     1     -13.254  56.796  51.971  0.00  0.00    +0.000 A 
ATOM     20  C   UNL     1     -14.470  57.900  50.174  0.00  0.00    +0.000 A 
ATOM     21  N   UNL     1     -12.294  55.887  52.407  0.00  0.00    +0.000 N 
ATOM     22  C   UNL     1     -14.050  57.478  52.899  0.00  0.00    +0.000 A 
ATOM     23  C   UNL     1     -15.229  58.601  51.107  0.00  0.00    +0.000 A 
ATOM     24  C   UNL     1     -15.024  58.381  52.470  0.00  0.00    +0.000 A 
ATOM     25  H   UNL     1     -10.724  54.766  49.783  0.00  0.00    +0.000 HD
ATOM     26  H   UNL     1     -12.266  55.672  53.368  0.00  0.00    +0.000 HD
ENDBRANCH   1  18
BRANCH   3  27
ATOM     27  O   UNL     1     -11.695  52.827  53.127  0.00  0.00    +0.000 OA
ATOM     28  H   UNL     1     -12.469  53.303  52.900  0.00  0.00    +0.000 HD
ENDBRANCH   3  27
BRANCH   5  29
ATOM     29  C   UNL     1      -6.434  54.907  52.520  0.00  0.00    +0.000 C 
BRANCH  29  30
ATOM     30  C   UNL     1      -5.575  54.221  51.443  0.00  0.00    +0.000 C 
BRANCH  30  31
ATOM     31  C   UNL     1      -4.147  53.823  51.846  0.00  0.00    +0.000 C 
ATOM     32  C   UNL     1      -3.849  54.123  53.313  0.00  0.00    +0.000 C 
ATOM     33  C   UNL     1      -3.961  52.322  51.579  0.00  0.00    +0.000 C 
ENDBRANCH  30  31
ENDBRANCH  29  30
ENDBRANCH   5  29
TORSDOF 5
ENDMDL
MODEL 2
REMARK VINA RESULT:      -8.3      3.692      5.346
REMARK  Name = 338063
REMARK  8 active torsions:
REMARK  status: ('A' for Active; 'I' for Inactive)
REMARK    1  A    between atoms: C_6  and  C_10
REMARK    2  A    between atoms: C_14  and  O_18
REMARK    3  A    between atoms: N_17  and  C_21
REMARK    4  A    between atoms: C_21  and  C_24
REMARK    5  A    between atoms: C_24  and  C_27
REMARK    6  A    between atoms: C_25  and  C_28
REMARK    7  A    between atoms: C_27  and  C_29
REMARK    8  A    between atoms: C_27  and  C_30
REMARK                            x       y       z     vdW  Elec       q    Type
REMARK                         _______ _______ _______ _____ _____    ______ ____
ROOT
ATOM      1  C   UNL     1     -11.355  56.140  48.735  0.00  0.00    +0.000 A 
ATOM      2  C   UNL     1     -10.162  55.700  49.525  0.00  0.00    +0.000 A 
ATOM      3  C   UNL     1     -11.541  55.677  47.487  0.00  0.00    +0.000 A 
ATOM      4  O   UNL     1     -10.082  56.059  50.704  0.00  0.00    +0.000 OA
ATOM      5  N   UNL     1      -9.211  54.894  48.909  0.00  0.00    +0.000 N 
ATOM      6  C   UNL     1     -10.589  54.726  46.895  0.00  0.00    +0.000 A 
ATOM      7  C   UNL     1      -9.454  54.327  47.619  0.00  0.00    +0.000 A 
ATOM      8  C   UNL     1     -10.818  54.192  45.613  0.00  0.00    +0.000 A 
ATOM      9  C   UNL     1      -8.609  53.358  47.059  0.00  0.00    +0.000 A 
ATOM     10  C   UNL     1      -9.944  53.259  45.045  0.00  0.00    +0.000 A 
ATOM     11  C   UNL     1      -8.841  52.840  45.784  0.00  0.00    +0.000 A 
ATOM     12  C   UNL     1     -10.200  52.682  43.687  0.00  0.00    +0.000 C 
ENDROOT
BRANCH   1  18
ATOM     13  S   UNL     1     -13.559  59.311  49.470  0.00  0.00    +0.000 S 
ATOM     14  O   UNL     1     -14.706  59.408  48.588  0.00  0.00    +0.000 OA
ATOM     15  O   UNL     1     -12.797  60.498  49.807  0.00  0.00    +0.000 OA
ATOM     16  N   UNL     1     -12.540  58.224  48.837  0.00  0.00    +0.000 N 
ATOM     17  C   UNL     1     -14.166  58.678  50.992  0.00  0.00    +0.000 A 
ATOM     18  C   UNL     1     -12.377  57.056  49.385  0.00  0.00    +0.000 C 
ATOM     19  C   UNL     1     -13.826  57.379  51.332  0.00  0.00    +0.000 A 
ATOM     20  C   UNL     1     -14.952  59.482  51.822  0.00  0.00    +0.000 A 
ATOM     21  N   UNL     1     -13.047  56.586  50.494  0.00  0.00    +0.000 N 
ATOM     22  C   UNL     1     -14.357  56.846  52.513  0.00  0.00    +0.000 A 
ATOM     23  C   UNL     1     -15.442  58.951  53.012  0.00  0.00    +0.000 A 
ATOM     24  C   UNL     1     -15.151  57.629  53.351  0.00  0.00    +0.000 A 
ATOM     25  H   UNL     1     -12.034  58.451  48.023  0.00  0.00    +0.000 HD
ATOM     26  H   UNL     1     -12.968  55.628  50.708  0.00  0.00    +0.000 HD
ENDBRANCH   1  18
BRANCH   3  27
ATOM     27  O   UNL     1     -12.629  55.993  46.690  0.00  0.00    +0.000 OA
ATOM     28  H   UNL     1     -12.522  56.075  45.763  0.00  0.00    +0.000 HD
ENDBRANCH   3  27
BRANCH   5  29
ATOM     29  C   UNL     1      -8.012  54.540  49.681  0.00  0.00    +0.000 C 
BRANCH  29  30
ATOM     30  C   UNL     1      -6.849  55.546  49.623  0.00  0.00    +0.000 C 
BRANCH  30  31
ATOM     31  C   UNL     1      -5.428  54.965  49.671  0.00  0.00    +0.000 C 
ATOM     32  C   UNL     1      -5.131  54.256  50.989  0.00  0.00    +0.000 C 
ATOM     33  C   UNL     1      -5.261  53.979  48.505  0.00  0.00    +0.000 C 
ENDBRANCH  30  31
ENDBRANCH  29  30
ENDBRANCH   5  29
TORSDOF 5
ENDMDL
MODEL 3
REMARK VINA RESULT:      -8.2      1.557      2.249
REMARK  Name = 338063
REMARK  8 active torsions:
REMARK  status: ('A' for Active; 'I' for Inactive)
REMARK    1  A    between atoms: C_6  and  C_10
REMARK    2  A    between atoms: C_14  and  O_18
REMARK    3  A    between atoms: N_17  and  C_21
REMARK    4  A    between atoms: C_21  and  C_24
REMARK    5  A    between atoms: C_24  and  C_27
REMARK    6  A    between atoms: C_25  and  C_28
REMARK    7  A    between atoms: C_27  and  C_29
REMARK    8  A    between atoms: C_27  and  C_30
REMARK                            x       y       z     vdW  Elec       q    Type
REMARK                         _______ _______ _______ _____ _____    ______ ____
ROOT
ATOM      1  C   UNL     1     -10.155  54.524  52.157  0.00  0.00    +0.000 A 
ATOM      2  C   UNL     1      -8.756  55.054  52.123  0.00  0.00    +0.000 A 
ATOM      3  C   UNL     1     -10.434  53.409  52.854  0.00  0.00    +0.000 A 
ATOM      4  O   UNL     1      -8.558  56.139  51.565  0.00  0.00    +0.000 OA
ATOM      5  N   UNL     1      -7.746  54.320  52.735  0.00  0.00    +0.000 N 
ATOM      6  C   UNL     1      -9.376  52.712  53.599  0.00  0.00    +0.000 A 
ATOM      7  C   UNL     1      -8.055  53.187  53.552  0.00  0.00    +0.000 A 
ATOM      8  C   UNL     1      -9.679  51.581  54.380  0.00  0.00    +0.000 A 
ATOM      9  C   UNL     1      -7.085  52.549  54.338  0.00  0.00    +0.000 A 
ATOM     10  C   UNL     1      -8.695  50.923  55.124  0.00  0.00    +0.000 A 
ATOM     11  C   UNL     1      -7.395  51.423  55.103  0.00  0.00    +0.000 A 
ATOM     12  C   UNL     1      -9.026  49.730  55.966  0.00  0.00    +0.000 C 
ENDROOT
BRANCH   1  18
ATOM     13  S   UNL     1     -13.524  56.455  51.548  0.00  0.00    +0.000 S 
ATOM     14  O   UNL     1     -13.463  57.834  51.990  0.00  0.00    +0.000 OA
ATOM     15  O   UNL     1     -14.714  55.664  51.794  0.00  0.00    +0.000 OA
ATOM     16  N   UNL     1     -12.261  55.673  52.190  0.00  0.00    +0.000 N 
ATOM     17  C   UNL     1     -13.321  56.493  49.804  0.00  0.00    +0.000 A 
ATOM     18  C   UNL     1     -11.257  55.298  51.454  0.00  0.00    +0.000 C 
ATOM     19  C   UNL     1     -12.130  56.016  49.282  0.00  0.00    +0.000 A 
ATOM     20  C   UNL     1     -14.347  56.980  48.989  0.00  0.00    +0.000 A 
ATOM     21  N   UNL     1     -11.114  55.539  50.105  0.00  0.00    +0.000 N 
ATOM     22  C   UNL     1     -11.935  56.101  47.899  0.00  0.00    +0.000 A 
ATOM     23  C   UNL     1     -14.154  57.022  47.611  0.00  0.00    +0.000 A 
ATOM     24  C   UNL     1     -12.943  56.591  47.068  0.00  0.00    +0.000 A 
ATOM     25  H   UNL     1     -12.252  55.479  53.156  0.00  0.00    +0.000 HD
ATOM     26  H   UNL     1     -10.235  55.361  49.696  0.00  0.00    +0.000 HD
ENDBRANCH   1  18
BRANCH   3  27
ATOM     27  O   UNL     1     -11.699  52.861  52.978  0.00  0.00    +0.000 OA
ATOM     28  H   UNL     1     -12.028  52.629  53.824  0.00  0.00    +0.000 HD
ENDBRANCH   3  27
BRANCH   5  29
ATOM     29  C   UNL     1      -6.370  54.822  52.622  0.00  0.00    +0.000 C 
BRANCH  29  30
ATOM     30  C   UNL     1      -5.558  54.303  51.421  0.00  0.00    +0.000 C 
BRANCH  30  31
ATOM     31  C   UNL     1      -4.364  53.389  51.736  0.00  0.00    +0.000 C 
ATOM     32  C   UNL     1      -3.848  53.573  53.160  0.00  0.00    +0.000 C 
ATOM     33  C   UNL     1      -4.794  51.930  51.526  0.00  0.00    +0.000 C 
ENDBRANCH  30  31
ENDBRANCH  29  30
ENDBRANCH   5  29
TORSDOF 5
ENDMDL
MODEL 4
REMARK VINA RESULT:      -8.1      3.877      5.494
REMARK  Name = 338063
REMARK  8 active torsions:
REMARK  status: ('A' for Active; 'I' for Inactive)
REMARK    1  A    between atoms: C_6  and  C_10
REMARK    2  A    between atoms: C_14  and  O_18
REMARK    3  A    between atoms: N_17  and  C_21
REMARK    4  A    between atoms: C_21  and  C_24
REMARK    5  A    between atoms: C_24  and  C_27
REMARK    6  A    between atoms: C_25  and  C_28
REMARK    7  A    between atoms: C_27  and  C_29
REMARK    8  A    between atoms: C_27  and  C_30
REMARK                            x       y       z     vdW  Elec       q    Type
REMARK                         _______ _______ _______ _____ _____    ______ ____
ROOT
ATOM      1  C   UNL     1     -10.898  55.517  48.722  0.00  0.00    +0.000 A 
ATOM      2  C   UNL     1      -9.625  55.074  49.373  0.00  0.00    +0.000 A 
ATOM      3  C   UNL     1     -11.155  55.176  47.447  0.00  0.00    +0.000 A 
ATOM      4  O   UNL     1      -9.473  55.311  50.576  0.00  0.00    +0.000 OA
ATOM      5  N   UNL     1      -8.680  54.399  48.606  0.00  0.00    +0.000 N 
ATOM      6  C   UNL     1     -10.200  54.355  46.689  0.00  0.00    +0.000 A 
ATOM      7  C   UNL     1      -8.991  53.956  47.282  0.00  0.00    +0.000 A 
ATOM      8  C   UNL     1     -10.497  53.945  45.376  0.00  0.00    +0.000 A 
ATOM      9  C   UNL     1      -8.139  53.107  46.561  0.00  0.00    +0.000 A 
ATOM     10  C   UNL     1      -9.619  53.135  44.648  0.00  0.00    +0.000 A 
ATOM     11  C   UNL     1      -8.440  52.713  45.257  0.00  0.00    +0.000 A 
ATOM     12  C   UNL     1      -9.947  52.689  43.257  0.00  0.00    +0.000 C 
ENDROOT
BRANCH   1  18
ATOM     13  S   UNL     1     -13.583  56.366  51.465  0.00  0.00    +0.000 S 
ATOM     14  O   UNL     1     -12.987  56.686  52.747  0.00  0.00    +0.000 OA
ATOM     15  O   UNL     1     -14.776  55.544  51.402  0.00  0.00    +0.000 OA
ATOM     16  N   UNL     1     -12.444  55.667  50.550  0.00  0.00    +0.000 N 
ATOM     17  C   UNL     1     -14.014  57.902  50.731  0.00  0.00    +0.000 A 
ATOM     18  C   UNL     1     -11.917  56.292  49.540  0.00  0.00    +0.000 C 
ATOM     19  C   UNL     1     -13.271  58.329  49.643  0.00  0.00    +0.000 A 
ATOM     20  C   UNL     1     -15.085  58.644  51.237  0.00  0.00    +0.000 A 
ATOM     21  N   UNL     1     -12.204  57.583  49.151  0.00  0.00    +0.000 N 
ATOM     22  C   UNL     1     -13.569  59.581  49.091  0.00  0.00    +0.000 A 
ATOM     23  C   UNL     1     -15.394  59.871  50.654  0.00  0.00    +0.000 A 
ATOM     24  C   UNL     1     -14.628  60.342  49.586  0.00  0.00    +0.000 A 
ATOM     25  H   UNL     1     -12.145  54.754  50.764  0.00  0.00    +0.000 HD
ATOM     26  H   UNL     1     -11.616  58.004  48.483  0.00  0.00    +0.000 HD
ENDBRANCH   1  18
BRANCH   3  27
ATOM     27  O   UNL     1     -12.317  55.504  46.770  0.00  0.00    +0.000 OA
ATOM     28  H   UNL     1     -12.730  54.871  46.216  0.00  0.00    +0.000 HD
ENDBRANCH   3  27
BRANCH   5  29
ATOM     29  C   UNL     1      -7.408  54.044  49.247  0.00  0.00    +0.000 C 
BRANCH  29  30
ATOM     30  C   UNL     1      -6.291  55.099  49.164  0.00  0.00    +0.000 C 
BRANCH  30  31
ATOM     31  C   UNL     1      -4.845  54.585  49.251  0.00  0.00    +0.000 C 
ATOM     32  C   UNL     1      -4.530  53.958  50.607  0.00  0.00    +0.000 C 
ATOM     33  C   UNL     1      -4.623  53.550  48.139  0.00  0.00    +0.000 C 
ENDBRANCH  30  31
ENDBRANCH  29  30
ENDBRANCH   5  29
TORSDOF 5
ENDMDL
MODEL 5
REMARK VINA RESULT:      -8.0      3.646      4.730
REMARK  Name = 338063
REMARK  8 active torsions:
REMARK  status: ('A' for Active; 'I' for Inactive)
REMARK    1  A    between atoms: C_6  and  C_10
REMARK    2  A    between atoms: C_14  and  O_18
REMARK    3  A    between atoms: N_17  and  C_21
REMARK    4  A    between atoms: C_21  and  C_24
REMARK    5  A    between atoms: C_24  and  C_27
REMARK    6  A    between atoms: C_25  and  C_28
REMARK    7  A    between atoms: C_27  and  C_29
REMARK    8  A    between atoms: C_27  and  C_30
REMARK                            x       y       z     vdW  Elec       q    Type
REMARK                         _______ _______ _______ _____ _____    ______ ____
ROOT
ATOM      1  C   UNL     1     -12.427  54.285  49.939  0.00  0.00    +0.000 A 
ATOM      2  C   UNL     1     -12.112  54.015  48.501  0.00  0.00    +0.000 A 
ATOM      3  C   UNL     1     -11.934  53.481  50.897  0.00  0.00    +0.000 A 
ATOM      4  O   UNL     1     -12.489  54.836  47.659  0.00  0.00    +0.000 OA
ATOM      5  N   UNL     1     -11.395  52.868  48.177  0.00  0.00    +0.000 N 
ATOM      6  C   UNL     1     -11.074  52.342  50.545  0.00  0.00    +0.000 A 
ATOM      7  C   UNL     1     -10.794  52.065  49.197  0.00  0.00    +0.000 A 
ATOM      8  C   UNL     1     -10.507  51.538  51.551  0.00  0.00    +0.000 A 
ATOM      9  C   UNL     1      -9.905  51.023  48.898  0.00  0.00    +0.000 A 
ATOM     10  C   UNL     1      -9.658  50.472  51.240  0.00  0.00    +0.000 A 
ATOM     11  C   UNL     1      -9.355  50.226  49.902  0.00  0.00    +0.000 A 
ATOM     12  C   UNL     1      -9.045  49.628  52.314  0.00  0.00    +0.000 C 
ENDROOT
BRANCH   1  18
ATOM     13  S   UNL     1     -15.363  56.518  51.296  0.00  0.00    +0.000 S 
ATOM     14  O   UNL     1     -15.312  56.691  52.735  0.00  0.00    +0.000 OA
ATOM     15  O   UNL     1     -16.634  56.294  50.635  0.00  0.00    +0.000 OA
ATOM     16  N   UNL     1     -14.374  55.297  50.909  0.00  0.00    +0.000 N 
ATOM     17  C   UNL     1     -14.712  57.996  50.604  0.00  0.00    +0.000 A 
ATOM     18  C   UNL     1     -13.246  55.512  50.300  0.00  0.00    +0.000 C 
ATOM     19  C   UNL     1     -13.467  57.933  50.001  0.00  0.00    +0.000 A 
ATOM     20  C   UNL     1     -15.451  59.181  50.661  0.00  0.00    +0.000 A 
ATOM     21  N   UNL     1     -12.739  56.747  49.955  0.00  0.00    +0.000 N 
ATOM     22  C   UNL     1     -12.915  59.118  49.502  0.00  0.00    +0.000 A 
ATOM     23  C   UNL     1     -14.905  60.345  50.127  0.00  0.00    +0.000 A 
ATOM     24  C   UNL     1     -13.632  60.314  49.556  0.00  0.00    +0.000 A 
ATOM     25  H   UNL     1     -14.631  54.375  51.140  0.00  0.00    +0.000 HD
ATOM     26  H   UNL     1     -11.802  56.793  49.658  0.00  0.00    +0.000 HD
ENDBRANCH   1  18
BRANCH   3  27
ATOM     27  O   UNL     1     -12.136  53.668  52.254  0.00  0.00    +0.000 OA
ATOM     28  H   UNL     1     -12.960  53.987  52.566  0.00  0.00    +0.000 HD
ENDBRANCH   3  27
BRANCH   5  29
ATOM     29  C   UNL     1     -11.166  52.584  46.754  0.00  0.00    +0.000 C 
BRANCH  29  30
ATOM     30  C   UNL     1     -10.195  53.529  46.024  0.00  0.00    +0.000 C 
BRANCH  30  31
ATOM     31  C   UNL     1      -8.887  53.875  46.754  0.00  0.00    +0.000 C 
ATOM     32  C   UNL     1      -7.651  53.563  45.916  0.00  0.00    +0.000 C 
ATOM     33  C   UNL     1      -8.905  55.368  47.111  0.00  0.00    +0.000 C 
ENDBRANCH  30  31
ENDBRANCH  29  30
ENDBRANCH   5  29
TORSDOF 5
ENDMDL
MODEL 6
REMARK VINA RESULT:      -7.9      4.274      6.182
REMARK  Name = 338063
REMARK  8 active torsions:
REMARK  status: ('A' for Active; 'I' for Inactive)
REMARK    1  A    between atoms: C_6  and  C_10
REMARK    2  A    between atoms: C_14  and  O_18
REMARK    3  A    between atoms: N_17  and  C_21
REMARK    4  A    between atoms: C_21  and  C_24
REMARK    5  A    between atoms: C_24  and  C_27
REMARK    6  A    between atoms: C_25  and  C_28
REMARK    7  A    between atoms: C_27  and  C_29
REMARK    8  A    between atoms: C_27  and  C_30
REMARK                            x       y       z     vdW  Elec       q    Type
REMARK                         _______ _______ _______ _____ _____    ______ ____
ROOT
ATOM      1  C   UNL     1     -10.755  55.687  48.747  0.00  0.00    +0.000 A 
ATOM      2  C   UNL     1     -11.077  55.233  47.359  0.00  0.00    +0.000 A 
ATOM      3  C   UNL     1      -9.517  55.511  49.241  0.00  0.00    +0.000 A 
ATOM      4  O   UNL     1     -12.191  55.509  46.900  0.00  0.00    +0.000 OA
ATOM      5  N   UNL     1     -10.109  54.541  46.638  0.00  0.00    +0.000 N 
ATOM      6  C   UNL     1      -8.469  54.889  48.420  0.00  0.00    +0.000 A 
ATOM      7  C   UNL     1      -8.768  54.436  47.125  0.00  0.00    +0.000 A 
ATOM      8  C   UNL     1      -7.157  54.763  48.914  0.00  0.00    +0.000 A 
ATOM      9  C   UNL     1      -7.728  53.922  46.338  0.00  0.00    +0.000 A 
ATOM     10  C   UNL     1      -6.136  54.206  48.137  0.00  0.00    +0.000 A 
ATOM     11  C   UNL     1      -6.432  53.794  46.840  0.00  0.00    +0.000 A 
ATOM     12  C   UNL     1      -4.738  54.088  48.661  0.00  0.00    +0.000 C 
ENDROOT
BRANCH   1  18
ATOM     13  S   UNL     1     -13.531  56.374  51.445  0.00  0.00    +0.000 S 
ATOM     14  O   UNL     1     -12.976  56.688  52.747  0.00  0.00    +0.000 OA
ATOM     15  O   UNL     1     -14.690  55.511  51.337  0.00  0.00    +0.000 OA
ATOM     16  N   UNL     1     -12.346  55.739  50.542  0.00  0.00    +0.000 N 
ATOM     17  C   UNL     1     -14.003  57.909  50.734  0.00  0.00    +0.000 A 
ATOM     18  C   UNL     1     -11.820  56.405  49.557  0.00  0.00    +0.000 C 
ATOM     19  C   UNL     1     -13.253  58.388  49.673  0.00  0.00    +0.000 A 
ATOM     20  C   UNL     1     -15.112  58.600  51.231  0.00  0.00    +0.000 A 
ATOM     21  N   UNL     1     -12.148  57.693  49.190  0.00  0.00    +0.000 N 
ATOM     22  C   UNL     1     -13.585  59.639  49.141  0.00  0.00    +0.000 A 
ATOM     23  C   UNL     1     -15.454  59.826  50.667  0.00  0.00    +0.000 A 
ATOM     24  C   UNL     1     -14.683  60.349  49.628  0.00  0.00    +0.000 A 
ATOM     25  H   UNL     1     -12.018  54.833  50.744  0.00  0.00    +0.000 HD
ATOM     26  H   UNL     1     -11.561  58.150  48.544  0.00  0.00    +0.000 HD
ENDBRANCH   1  18
BRANCH   3  27
ATOM     27  O   UNL     1      -9.110  55.929  50.497  0.00  0.00    +0.000 OA
ATOM     28  H   UNL     1      -8.910  56.832  50.648  0.00  0.00    +0.000 HD
ENDBRANCH   3  27
BRANCH   5  29
ATOM     29  C   UNL     1     -10.475  54.038  45.308  0.00  0.00    +0.000 C 
BRANCH  29  30
ATOM     30  C   UNL     1     -11.017  52.598  45.255  0.00  0.00    +0.000 C 
BRANCH  30  31
ATOM     31  C   UNL     1     -10.439  51.682  44.165  0.00  0.00    +0.000 C 
ATOM     32  C   UNL     1      -9.942  52.461  42.950  0.00  0.00    +0.000 C 
ATOM     33  C   UNL     1      -9.283  50.871  44.767  0.00  0.00    +0.000 C 
ENDBRANCH  30  31
ENDBRANCH  29  30
ENDBRANCH   5  29
TORSDOF 5
ENDMDL
MODEL 7
REMARK VINA RESULT:      -7.8      3.118      7.664
REMARK  Name = 338063
REMARK  8 active torsions:
REMARK  status: ('A' for Active; 'I' for Inactive)
REMARK    1  A    between atoms: C_6  and  C_10
REMARK    2  A    between atoms: C_14  and  O_18
REMARK    3  A    between atoms: N_17  and  C_21
REMARK    4  A    between atoms: C_21  and  C_24
REMARK    5  A    between atoms: C_24  and  C_27
REMARK    6  A    between atoms: C_25  and  C_28
REMARK    7  A    between atoms: C_27  and  C_29
REMARK    8  A    between atoms: C_27  and  C_30
REMARK                            x       y       z     vdW  Elec       q    Type
REMARK                         _______ _______ _______ _____ _____    ______ ____
ROOT
ATOM      1  C   UNL     1     -10.042  55.154  51.020  0.00  0.00    +0.000 A 
ATOM      2  C   UNL     1      -9.743  55.165  49.553  0.00  0.00    +0.000 A 
ATOM      3  C   UNL     1     -11.260  55.514  51.460  0.00  0.00    +0.000 A 
ATOM      4  O   UNL     1      -8.651  54.724  49.179  0.00  0.00    +0.000 OA
ATOM      5  N   UNL     1     -10.708  55.650  48.677  0.00  0.00    +0.000 N 
ATOM      6  C   UNL     1     -12.310  55.905  50.508  0.00  0.00    +0.000 A 
ATOM      7  C   UNL     1     -12.031  55.944  49.133  0.00  0.00    +0.000 A 
ATOM      8  C   UNL     1     -13.604  56.221  50.963  0.00  0.00    +0.000 A 
ATOM      9  C   UNL     1     -13.076  56.242  48.246  0.00  0.00    +0.000 A 
ATOM     10  C   UNL     1     -14.627  56.562  50.074  0.00  0.00    +0.000 A 
ATOM     11  C   UNL     1     -14.353  56.562  48.708  0.00  0.00    +0.000 A 
ATOM     12  C   UNL     1     -16.006  56.882  50.562  0.00  0.00    +0.000 C 
ENDROOT
BRANCH   1  18
ATOM     13  S   UNL     1      -6.599  54.812  52.885  0.00  0.00    +0.000 S 
ATOM     14  O   UNL     1      -6.415  55.827  53.905  0.00  0.00    +0.000 OA
ATOM     15  O   UNL     1      -5.493  54.436  52.026  0.00  0.00    +0.000 OA
ATOM     16  N   UNL     1      -7.831  55.276  51.943  0.00  0.00    +0.000 N 
ATOM     17  C   UNL     1      -7.073  53.349  53.733  0.00  0.00    +0.000 A 
ATOM     18  C   UNL     1      -8.978  54.667  51.988  0.00  0.00    +0.000 C 
ATOM     19  C   UNL     1      -8.382  52.919  53.597  0.00  0.00    +0.000 A 
ATOM     20  C   UNL     1      -6.137  52.651  54.503  0.00  0.00    +0.000 A 
ATOM     21  N   UNL     1      -9.305  53.626  52.831  0.00  0.00    +0.000 N 
ATOM     22  C   UNL     1      -8.784  51.789  54.318  0.00  0.00    +0.000 A 
ATOM     23  C   UNL     1      -6.542  51.507  55.185  0.00  0.00    +0.000 A 
ATOM     24  C   UNL     1      -7.869  51.082  55.099  0.00  0.00    +0.000 A 
ATOM     25  H   UNL     1      -7.709  56.032  51.325  0.00  0.00    +0.000 HD
ATOM     26  H   UNL     1     -10.252  53.366  52.895  0.00  0.00    +0.000 HD
ENDBRANCH   1  18
BRANCH   3  27
ATOM     27  O   UNL     1     -11.646  55.501  52.789  0.00  0.00    +0.000 OA
ATOM     28  H   UNL     1     -12.513  55.762  53.028  0.00  0.00    +0.000 HD
ENDBRANCH   3  27
BRANCH   5  29
ATOM     29  C   UNL     1     -10.362  55.723  47.251  0.00  0.00    +0.000 C 
BRANCH  29  30
ATOM     30  C   UNL     1     -10.277  54.379  46.506  0.00  0.00    +0.000 C 
BRANCH  30  31
ATOM     31  C   UNL     1     -11.607  53.743  46.072  0.00  0.00    +0.000 C 
ATOM     32  C   UNL     1     -11.507  53.047  44.718  0.00  0.00    +0.000 C 
ATOM     33  C   UNL     1     -12.041  52.731  47.142  0.00  0.00    +0.000 C 
ENDBRANCH  30  31
ENDBRANCH  29  30
ENDBRANCH   5  29
TORSDOF 5
ENDMDL
MODEL 8
REMARK VINA RESULT:      -7.8      4.594      7.177
REMARK  Name = 338063
REMARK  8 active torsions:
REMARK  status: ('A' for Active; 'I' for Inactive)
REMARK    1  A    between atoms: C_6  and  C_10
REMARK    2  A    between atoms: C_14  and  O_18
REMARK    3  A    between atoms: N_17  and  C_21
REMARK    4  A    between atoms: C_21  and  C_24
REMARK    5  A    between atoms: C_24  and  C_27
REMARK    6  A    between atoms: C_25  and  C_28
REMARK    7  A    between atoms: C_27  and  C_29
REMARK    8  A    between atoms: C_27  and  C_30
REMARK                            x       y       z     vdW  Elec       q    Type
REMARK                         _______ _______ _______ _____ _____    ______ ____
ROOT
ATOM      1  C   UNL     1     -10.776  54.459  48.686  0.00  0.00    +0.000 A 
ATOM      2  C   UNL     1     -10.281  54.024  50.030  0.00  0.00    +0.000 A 
ATOM      3  C   UNL     1     -11.793  55.333  48.596  0.00  0.00    +0.000 A 
ATOM      4  O   UNL     1      -9.275  53.307  50.075  0.00  0.00    +0.000 OA
ATOM      5  N   UNL     1     -10.957  54.458  51.165  0.00  0.00    +0.000 N 
ATOM      6  C   UNL     1     -12.417  55.878  49.810  0.00  0.00    +0.000 A 
ATOM      7  C   UNL     1     -11.976  55.456  51.075  0.00  0.00    +0.000 A 
ATOM      8  C   UNL     1     -13.439  56.841  49.717  0.00  0.00    +0.000 A 
ATOM      9  C   UNL     1     -12.535  56.056  52.213  0.00  0.00    +0.000 A 
ATOM     10  C   UNL     1     -14.022  57.399  50.858  0.00  0.00    +0.000 A 
ATOM     11  C   UNL     1     -13.554  57.003  52.109  0.00  0.00    +0.000 A 
ATOM     12  C   UNL     1     -15.099  58.434  50.753  0.00  0.00    +0.000 C 
ENDROOT
BRANCH   1  18
ATOM     13  S   UNL     1      -8.030  53.979  45.915  0.00  0.00    +0.000 S 
ATOM     14  O   UNL     1      -6.979  53.066  46.324  0.00  0.00    +0.000 OA
ATOM     15  O   UNL     1      -7.700  55.190  45.190  0.00  0.00    +0.000 OA
ATOM     16  N   UNL     1      -8.865  54.397  47.237  0.00  0.00    +0.000 N 
ATOM     17  C   UNL     1      -9.091  53.058  44.861  0.00  0.00    +0.000 A 
ATOM     18  C   UNL     1     -10.071  53.956  47.439  0.00  0.00    +0.000 C 
ATOM     19  C   UNL     1     -10.346  52.723  45.341  0.00  0.00    +0.000 A 
ATOM     20  C   UNL     1      -8.666  52.700  43.578  0.00  0.00    +0.000 A 
ATOM     21  N   UNL     1     -10.755  53.081  46.622  0.00  0.00    +0.000 N 
ATOM     22  C   UNL     1     -11.174  51.936  44.531  0.00  0.00    +0.000 A 
ATOM     23  C   UNL     1      -9.515  51.950  42.769  0.00  0.00    +0.000 A 
ATOM     24  C   UNL     1     -10.766  51.561  43.251  0.00  0.00    +0.000 A 
ATOM     25  H   UNL     1      -8.451  54.995  47.901  0.00  0.00    +0.000 HD
ATOM     26  H   UNL     1     -11.588  52.685  46.967  0.00  0.00    +0.000 HD
ENDBRANCH   1  18
BRANCH   3  27
ATOM     27  O   UNL     1     -12.298  55.825  47.404  0.00  0.00    +0.000 OA
ATOM     28  H   UNL     1     -11.954  55.518  46.588  0.00  0.00    +0.000 HD
ENDBRANCH   3  27
BRANCH   5  29
ATOM     29  C   UNL     1     -10.499  53.955  52.467  0.00  0.00    +0.000 C 
BRANCH  29  30
ATOM     30  C   UNL     1      -9.612  54.908  53.287  0.00  0.00    +0.000 C 
BRANCH  30  31
ATOM     31  C   UNL     1      -8.110  54.906  52.963  0.00  0.00    +0.000 C 
ATOM     32  C   UNL     1      -7.737  55.950  51.913  0.00  0.00    +0.000 C 
ATOM     33  C   UNL     1      -7.328  55.173  54.257  0.00  0.00    +0.000 C 
ENDBRANCH  30  31
ENDBRANCH  29  30
ENDBRANCH   5  29
TORSDOF 5
ENDMDL
MODEL 9
REMARK VINA RESULT:      -7.7      3.132      7.713
REMARK  Name = 338063
REMARK  8 active torsions:
REMARK  status: ('A' for Active; 'I' for Inactive)
REMARK    1  A    between atoms: C_6  and  C_10
REMARK    2  A    between atoms: C_14  and  O_18
REMARK    3  A    between atoms: N_17  and  C_21
REMARK    4  A    between atoms: C_21  and  C_24
REMARK    5  A    between atoms: C_24  and  C_27
REMARK    6  A    between atoms: C_25  and  C_28
REMARK    7  A    between atoms: C_27  and  C_29
REMARK    8  A    between atoms: C_27  and  C_30
REMARK                            x       y       z     vdW  Elec       q    Type
REMARK                         _______ _______ _______ _____ _____    ______ ____
ROOT
ATOM      1  C   UNL     1     -10.096  54.149  51.169  0.00  0.00    +0.000 A 
ATOM      2  C   UNL     1     -10.580  53.863  49.783  0.00  0.00    +0.000 A 
ATOM      3  C   UNL     1     -10.806  54.956  51.976  0.00  0.00    +0.000 A 
ATOM      4  O   UNL     1      -9.962  53.031  49.110  0.00  0.00    +0.000 OA
ATOM      5  N   UNL     1     -11.712  54.525  49.319  0.00  0.00    +0.000 N 
ATOM      6  C   UNL     1     -12.068  55.551  51.512  0.00  0.00    +0.000 A 
ATOM      7  C   UNL     1     -12.517  55.309  50.204  0.00  0.00    +0.000 A 
ATOM      8  C   UNL     1     -12.843  56.345  52.377  0.00  0.00    +0.000 A 
ATOM      9  C   UNL     1     -13.764  55.823  49.818  0.00  0.00    +0.000 A 
ATOM     10  C   UNL     1     -14.064  56.891  51.968  0.00  0.00    +0.000 A 
ATOM     11  C   UNL     1     -14.521  56.616  50.681  0.00  0.00    +0.000 A 
ATOM     12  C   UNL     1     -14.893  57.723  52.897  0.00  0.00    +0.000 C 
ENDROOT
BRANCH   1  18
ATOM     13  S   UNL     1      -7.735  51.734  53.181  0.00  0.00    +0.000 S 
ATOM     14  O   UNL     1      -7.688  50.401  52.613  0.00  0.00    +0.000 OA
ATOM     15  O   UNL     1      -7.791  51.911  54.619  0.00  0.00    +0.000 OA
ATOM     16  N   UNL     1      -9.002  52.504  52.531  0.00  0.00    +0.000 N 
ATOM     17  C   UNL     1      -6.268  52.541  52.652  0.00  0.00    +0.000 A 
ATOM     18  C   UNL     1      -8.836  53.463  51.669  0.00  0.00    +0.000 C 
ATOM     19  C   UNL     1      -6.389  53.549  51.710  0.00  0.00    +0.000 A 
ATOM     20  C   UNL     1      -5.031  52.170  53.188  0.00  0.00    +0.000 A 
ATOM     21  N   UNL     1      -7.626  53.906  51.180  0.00  0.00    +0.000 N 
ATOM     22  C   UNL     1      -5.219  54.155  51.237  0.00  0.00    +0.000 A 
ATOM     23  C   UNL     1      -3.879  52.807  52.735  0.00  0.00    +0.000 A 
ATOM     24  C   UNL     1      -3.974  53.794  51.753  0.00  0.00    +0.000 A 
ATOM     25  H   UNL     1      -9.914  52.241  52.792  0.00  0.00    +0.000 HD
ATOM     26  H   UNL     1      -7.637  54.515  50.406  0.00  0.00    +0.000 HD
ENDBRANCH   1  18
BRANCH   3  27
ATOM     27  O   UNL     1     -10.462  55.252  53.284  0.00  0.00    +0.000 OA
ATOM     28  H   UNL     1      -9.566  55.405  53.510  0.00  0.00    +0.000 HD
ENDBRANCH   3  27
BRANCH   5  29
ATOM     29  C   UNL     1     -12.123  54.286  47.929  0.00  0.00    +0.000 C 
BRANCH  29  30
ATOM     30  C   UNL     1     -11.636  55.315  46.894  0.00  0.00    +0.000 C 
BRANCH  30  31
ATOM     31  C   UNL     1     -10.474  54.885  45.984  0.00  0.00    +0.000 C 
ATOM     32  C   UNL     1      -9.110  55.208  46.588  0.00  0.00    +0.000 C 
ATOM     33  C   UNL     1     -10.582  53.375  45.729  0.00  0.00    +0.000 C 
ENDBRANCH  30  31
ENDBRANCH  29  30
ENDBRANCH   5  29
TORSDOF 5
ENDMDL
