MODEL 1
REMARK VINA RESULT:      -8.2      0.000      0.000
REMARK  Name = 338328
REMARK  12 active torsions:
REMARK  status: ('A' for Active; 'I' for Inactive)
REMARK    1  A    between atoms: C_6  and  C_10
REMARK    2  A    between atoms: C_14  and  O_18
REMARK    3  A    between atoms: N_17  and  C_21
REMARK    4  A    between atoms: C_21  and  C_24
REMARK    5  A    between atoms: C_24  and  C_27
REMARK    6  A    between atoms: C_25  and  N_28
REMARK    7  A    between atoms: C_27  and  C_29
REMARK    8  A    between atoms: C_27  and  C_30
REMARK    9  A    between atoms: C_27  and  C_31
REMARK   10  A    between atoms: N_28  and  C_32
REMARK   11  A    between atoms: C_32  and  C_33
REMARK   12  A    between atoms: C_33  and  O_34
REMARK                            x       y       z     vdW  Elec       q    Type
REMARK                         _______ _______ _______ _____ _____    ______ ____
ROOT
ATOM      1  C   UNL     1     -10.801  54.430  48.456  0.00  0.00    +0.000 A 
ATOM      2  C   UNL     1     -10.376  53.924  49.798  0.00  0.00    +0.000 A 
ATOM      3  C   UNL     1     -11.846  55.272  48.358  0.00  0.00    +0.000 A 
ATOM      4  O   UNL     1      -9.460  53.097  49.850  0.00  0.00    +0.000 OA
ATOM      5  N   UNL     1     -11.034  54.396  50.928  0.00  0.00    +0.000 N 
ATOM      6  C   UNL     1     -12.516  55.775  49.564  0.00  0.00    +0.000 A 
ATOM      7  C   UNL     1     -12.083  55.359  50.828  0.00  0.00    +0.000 A 
ATOM      8  C   UNL     1     -13.544  56.729  49.463  0.00  0.00    +0.000 A 
ATOM      9  C   UNL     1     -12.690  55.916  51.961  0.00  0.00    +0.000 A 
ATOM     10  C   UNL     1     -14.107  57.324  50.594  0.00  0.00    +0.000 A 
ATOM     11  C   UNL     1     -13.703  56.868  51.843  0.00  0.00    +0.000 A 
ENDROOT
BRANCH   1  17
ATOM     12  S   UNL     1      -7.969  53.894  45.784  0.00  0.00    +0.000 S 
ATOM     13  O   UNL     1      -6.950  52.992  46.286  0.00  0.00    +0.000 OA
ATOM     14  O   UNL     1      -7.594  55.076  45.032  0.00  0.00    +0.000 OA
ATOM     15  N   UNL     1      -8.874  54.390  47.031  0.00  0.00    +0.000 N 
ATOM     16  C   UNL     1      -8.981  52.937  44.718  0.00  0.00    +0.000 A 
ATOM     17  C   UNL     1     -10.084  53.944  47.210  0.00  0.00    +0.000 C 
ATOM     18  C   UNL     1     -10.251  52.602  45.161  0.00  0.00    +0.000 A 
ATOM     19  C   UNL     1      -8.489  52.531  43.475  0.00  0.00    +0.000 A 
ATOM     20  N   UNL     1     -10.745  53.079  46.368  0.00  0.00    +0.000 N 
ATOM     21  C   UNL     1     -11.061  51.846  44.307  0.00  0.00    +0.000 A 
ATOM     22  C   UNL     1      -9.303  51.770  42.644  0.00  0.00    +0.000 A 
ATOM     23  C   UNL     1     -10.591  51.429  43.058  0.00  0.00    +0.000 A 
ATOM     24  H   UNL     1      -8.502  55.042  47.667  0.00  0.00    +0.000 HD
ATOM     25  H   UNL     1     -11.640  52.775  46.643  0.00  0.00    +0.000 HD
ENDBRANCH   1  17
BRANCH   3  26
ATOM     26  O   UNL     1     -12.357  55.752  47.165  0.00  0.00    +0.000 OA
ATOM     27  H   UNL     1     -13.171  55.422  46.838  0.00  0.00    +0.000 HD
ENDBRANCH   3  26
BRANCH  10  28
ATOM     28  N   UNL     1     -15.081  58.315  50.403  0.00  0.00    +0.000 N 
ATOM     29  H   UNL     1     -15.961  58.101  50.017  0.00  0.00    +0.000 HD
BRANCH  28  30
ATOM     30  C   UNL     1     -14.734  59.683  50.798  0.00  0.00    +0.000 C 
BRANCH  30  31
ATOM     31  C   UNL     1     -13.682  60.232  49.834  0.00  0.00    +0.000 C 
BRANCH  31  32
ATOM     32  O   UNL     1     -14.308  60.941  48.767  0.00  0.00    +0.000 OA
ATOM     33  H   UNL     1     -14.571  60.316  48.073  0.00  0.00    +0.000 HD
ENDBRANCH  31  32
ENDBRANCH  30  31
ENDBRANCH  28  30
ENDBRANCH  10  28
BRANCH   5  34
ATOM     34  C   UNL     1     -10.566  53.941  52.244  0.00  0.00    +0.000 C 
BRANCH  34  35
ATOM     35  C   UNL     1      -9.768  55.000  53.030  0.00  0.00    +0.000 C 
BRANCH  35  36
ATOM     36  C   UNL     1      -8.225  54.822  52.969  0.00  0.00    +0.000 C 
ATOM     37  C   UNL     1      -7.618  55.525  51.742  0.00  0.00    +0.000 C 
ATOM     38  C   UNL     1      -7.608  55.453  54.233  0.00  0.00    +0.000 C 
ATOM     39  C   UNL     1      -7.861  53.330  52.937  0.00  0.00    +0.000 C 
ENDBRANCH  35  36
ENDBRANCH  34  35
ENDBRANCH   5  34
TORSDOF 9
ENDMDL
MODEL 2
REMARK VINA RESULT:      -8.2      2.718      7.744
REMARK  Name = 338328
REMARK  12 active torsions:
REMARK  status: ('A' for Active; 'I' for Inactive)
REMARK    1  A    between atoms: C_6  and  C_10
REMARK    2  A    between atoms: C_14  and  O_18
REMARK    3  A    between atoms: N_17  and  C_21
REMARK    4  A    between atoms: C_21  and  C_24
REMARK    5  A    between atoms: C_24  and  C_27
REMARK    6  A    between atoms: C_25  and  N_28
REMARK    7  A    between atoms: C_27  and  C_29
REMARK    8  A    between atoms: C_27  and  C_30
REMARK    9  A    between atoms: C_27  and  C_31
REMARK   10  A    between atoms: N_28  and  C_32
REMARK   11  A    between atoms: C_32  and  C_33
REMARK   12  A    between atoms: C_33  and  O_34
REMARK                            x       y       z     vdW  Elec       q    Type
REMARK                         _______ _______ _______ _____ _____    ______ ____
ROOT
ATOM      1  C   UNL     1     -11.192  55.882  49.035  0.00  0.00    +0.000 A 
ATOM      2  C   UNL     1     -10.136  55.308  49.926  0.00  0.00    +0.000 A 
ATOM      3  C   UNL     1     -11.206  55.570  47.726  0.00  0.00    +0.000 A 
ATOM      4  O   UNL     1     -10.105  55.670  51.106  0.00  0.00    +0.000 OA
ATOM      5  N   UNL     1      -9.229  54.402  49.388  0.00  0.00    +0.000 N 
ATOM      6  C   UNL     1     -10.253  54.595  47.180  0.00  0.00    +0.000 A 
ATOM      7  C   UNL     1      -9.303  54.001  48.020  0.00  0.00    +0.000 A 
ATOM      8  C   UNL     1     -10.333  54.197  45.834  0.00  0.00    +0.000 A 
ATOM      9  C   UNL     1      -8.460  53.018  47.487  0.00  0.00    +0.000 A 
ATOM     10  C   UNL     1      -9.530  53.177  45.322  0.00  0.00    +0.000 A 
ATOM     11  C   UNL     1      -8.558  52.629  46.152  0.00  0.00    +0.000 A 
ENDROOT
BRANCH   1  17
ATOM     12  S   UNL     1     -13.442  59.082  49.416  0.00  0.00    +0.000 S 
ATOM     13  O   UNL     1     -14.538  59.057  48.466  0.00  0.00    +0.000 OA
ATOM     14  O   UNL     1     -12.727  60.316  49.676  0.00  0.00    +0.000 OA
ATOM     15  N   UNL     1     -12.345  57.982  48.961  0.00  0.00    +0.000 N 
ATOM     16  C   UNL     1     -14.122  58.576  50.952  0.00  0.00    +0.000 A 
ATOM     17  C   UNL     1     -12.203  56.859  49.605  0.00  0.00    +0.000 C 
ATOM     18  C   UNL     1     -13.795  57.312  51.418  0.00  0.00    +0.000 A 
ATOM     19  C   UNL     1     -14.970  59.438  51.652  0.00  0.00    +0.000 A 
ATOM     20  N   UNL     1     -12.892  56.503  50.741  0.00  0.00    +0.000 N 
ATOM     21  C   UNL     1     -14.329  56.912  52.647  0.00  0.00    +0.000 A 
ATOM     22  C   UNL     1     -15.502  59.020  52.867  0.00  0.00    +0.000 A 
ATOM     23  C   UNL     1     -15.180  57.758  53.367  0.00  0.00    +0.000 A 
ATOM     24  H   UNL     1     -11.775  58.165  48.181  0.00  0.00    +0.000 HD
ATOM     25  H   UNL     1     -12.731  55.602  51.104  0.00  0.00    +0.000 HD
ENDBRANCH   1  17
BRANCH   3  26
ATOM     26  O   UNL     1     -12.099  56.089  46.805  0.00  0.00    +0.000 OA
ATOM     27  H   UNL     1     -12.694  56.766  47.060  0.00  0.00    +0.000 HD
ENDBRANCH   3  26
BRANCH  10  28
ATOM     28  N   UNL     1      -9.719  52.795  43.985  0.00  0.00    +0.000 N 
ATOM     29  H   UNL     1     -10.406  53.222  43.423  0.00  0.00    +0.000 HD
BRANCH  28  30
ATOM     30  C   UNL     1      -8.854  51.735  43.460  0.00  0.00    +0.000 C 
BRANCH  30  31
ATOM     31  C   UNL     1      -9.608  50.964  42.376  0.00  0.00    +0.000 C 
BRANCH  31  32
ATOM     32  O   UNL     1     -11.014  51.126  42.538  0.00  0.00    +0.000 OA
ATOM     33  H   UNL     1     -11.278  52.004  42.221  0.00  0.00    +0.000 HD
ENDBRANCH  31  32
ENDBRANCH  30  31
ENDBRANCH  28  30
ENDBRANCH  10  28
BRANCH   5  34
ATOM     34  C   UNL     1      -8.238  53.796  50.287  0.00  0.00    +0.000 C 
BRANCH  34  35
ATOM     35  C   UNL     1      -6.927  54.599  50.411  0.00  0.00    +0.000 C 
BRANCH  35  36
ATOM     36  C   UNL     1      -5.639  53.778  50.127  0.00  0.00    +0.000 C 
ATOM     37  C   UNL     1      -5.019  54.144  48.766  0.00  0.00    +0.000 C 
ATOM     38  C   UNL     1      -4.602  54.095  51.223  0.00  0.00    +0.000 C 
ATOM     39  C   UNL     1      -5.946  52.273  50.161  0.00  0.00    +0.000 C 
ENDBRANCH  35  36
ENDBRANCH  34  35
ENDBRANCH   5  34
TORSDOF 9
ENDMDL
MODEL 3
REMARK VINA RESULT:      -8.1      2.857      7.713
REMARK  Name = 338328
REMARK  12 active torsions:
REMARK  status: ('A' for Active; 'I' for Inactive)
REMARK    1  A    between atoms: C_6  and  C_10
REMARK    2  A    between atoms: C_14  and  O_18
REMARK    3  A    between atoms: N_17  and  C_21
REMARK    4  A    between atoms: C_21  and  C_24
REMARK    5  A    between atoms: C_24  and  C_27
REMARK    6  A    between atoms: C_25  and  N_28
REMARK    7  A    between atoms: C_27  and  C_29
REMARK    8  A    between atoms: C_27  and  C_30
REMARK    9  A    between atoms: C_27  and  C_31
REMARK   10  A    between atoms: N_28  and  C_32
REMARK   11  A    between atoms: C_32  and  C_33
REMARK   12  A    between atoms: C_33  and  O_34
REMARK                            x       y       z     vdW  Elec       q    Type
REMARK                         _______ _______ _______ _____ _____    ______ ____
ROOT
ATOM      1  C   UNL     1      -9.823  53.960  50.960  0.00  0.00    +0.000 A 
ATOM      2  C   UNL     1     -10.902  54.944  51.285  0.00  0.00    +0.000 A 
ATOM      3  C   UNL     1      -9.689  53.503  49.702  0.00  0.00    +0.000 A 
ATOM      4  O   UNL     1     -11.045  55.289  52.462  0.00  0.00    +0.000 OA
ATOM      5  N   UNL     1     -11.704  55.419  50.254  0.00  0.00    +0.000 N 
ATOM      6  C   UNL     1     -10.532  54.031  48.622  0.00  0.00    +0.000 A 
ATOM      7  C   UNL     1     -11.501  55.002  48.904  0.00  0.00    +0.000 A 
ATOM      8  C   UNL     1     -10.326  53.624  47.292  0.00  0.00    +0.000 A 
ATOM      9  C   UNL     1     -12.235  55.543  47.841  0.00  0.00    +0.000 A 
ATOM     10  C   UNL     1     -11.020  54.207  46.230  0.00  0.00    +0.000 A 
ATOM     11  C   UNL     1     -12.012  55.135  46.527  0.00  0.00    +0.000 A 
ENDROOT
BRANCH   1  17
ATOM     12  S   UNL     1      -6.629  53.406  53.183  0.00  0.00    +0.000 S 
ATOM     13  O   UNL     1      -6.364  54.571  54.004  0.00  0.00    +0.000 OA
ATOM     14  O   UNL     1      -5.537  52.702  52.536  0.00  0.00    +0.000 OA
ATOM     15  N   UNL     1      -7.679  53.823  52.025  0.00  0.00    +0.000 N 
ATOM     16  C   UNL     1      -7.408  52.239  54.235  0.00  0.00    +0.000 A 
ATOM     17  C   UNL     1      -8.923  53.441  52.067  0.00  0.00    +0.000 C 
ATOM     18  C   UNL     1      -8.764  52.012  54.057  0.00  0.00    +0.000 A 
ATOM     19  C   UNL     1      -6.661  51.585  55.219  0.00  0.00    +0.000 A 
ATOM     20  N   UNL     1      -9.468  52.619  53.026  0.00  0.00    +0.000 N 
ATOM     21  C   UNL     1      -9.384  51.075  54.890  0.00  0.00    +0.000 A 
ATOM     22  C   UNL     1      -7.295  50.665  56.046  0.00  0.00    +0.000 A 
ATOM     23  C   UNL     1      -8.656  50.407  55.882  0.00  0.00    +0.000 A 
ATOM     24  H   UNL     1      -7.371  54.378  51.273  0.00  0.00    +0.000 HD
ATOM     25  H   UNL     1     -10.437  52.446  52.976  0.00  0.00    +0.000 HD
ENDBRANCH   1  17
BRANCH   3  26
ATOM     26  O   UNL     1      -8.767  52.550  49.306  0.00  0.00    +0.000 OA
ATOM     27  H   UNL     1      -7.852  52.696  49.450  0.00  0.00    +0.000 HD
ENDBRANCH   3  26
BRANCH  10  28
ATOM     28  N   UNL     1     -10.706  53.789  44.928  0.00  0.00    +0.000 N 
ATOM     29  H   UNL     1     -10.365  54.422  44.255  0.00  0.00    +0.000 HD
BRANCH  28  30
ATOM     30  C   UNL     1     -10.908  52.373  44.610  0.00  0.00    +0.000 C 
BRANCH  30  31
ATOM     31  C   UNL     1     -10.180  52.043  43.307  0.00  0.00    +0.000 C 
BRANCH  31  32
ATOM     32  O   UNL     1     -10.943  51.124  42.530  0.00  0.00    +0.000 OA
ATOM     33  H   UNL     1     -11.878  51.379  42.552  0.00  0.00    +0.000 HD
ENDBRANCH  31  32
ENDBRANCH  30  31
ENDBRANCH  28  30
ENDBRANCH  10  28
BRANCH   5  34
ATOM     34  C   UNL     1     -12.717  56.432  50.574  0.00  0.00    +0.000 C 
BRANCH  34  35
ATOM     35  C   UNL     1     -14.045  55.851  51.100  0.00  0.00    +0.000 C 
BRANCH  35  36
ATOM     36  C   UNL     1     -15.189  56.891  51.252  0.00  0.00    +0.000 C 
ATOM     37  C   UNL     1     -16.516  56.366  50.675  0.00  0.00    +0.000 C 
ATOM     38  C   UNL     1     -15.401  57.174  52.752  0.00  0.00    +0.000 C 
ATOM     39  C   UNL     1     -14.812  58.206  50.552  0.00  0.00    +0.000 C 
ENDBRANCH  35  36
ENDBRANCH  34  35
ENDBRANCH   5  34
TORSDOF 9
ENDMDL
MODEL 4
REMARK VINA RESULT:      -7.9      2.653      6.457
REMARK  Name = 338328
REMARK  12 active torsions:
REMARK  status: ('A' for Active; 'I' for Inactive)
REMARK    1  A    between atoms: C_6  and  C_10
REMARK    2  A    between atoms: C_14  and  O_18
REMARK    3  A    between atoms: N_17  and  C_21
REMARK    4  A    between atoms: C_21  and  C_24
REMARK    5  A    between atoms: C_24  and  C_27
REMARK    6  A    between atoms: C_25  and  N_28
REMARK    7  A    between atoms: C_27  and  C_29
REMARK    8  A    between atoms: C_27  and  C_30
REMARK    9  A    between atoms: C_27  and  C_31
REMARK   10  A    between atoms: N_28  and  C_32
REMARK   11  A    between atoms: C_32  and  C_33
REMARK   12  A    between atoms: C_33  and  O_34
REMARK                            x       y       z     vdW  Elec       q    Type
REMARK                         _______ _______ _______ _____ _____    ______ ____
ROOT
ATOM      1  C   UNL     1      -9.933  55.089  50.748  0.00  0.00    +0.000 A 
ATOM      2  C   UNL     1      -9.598  55.112  49.290  0.00  0.00    +0.000 A 
ATOM      3  C   UNL     1     -11.114  55.574  51.172  0.00  0.00    +0.000 A 
ATOM      4  O   UNL     1      -8.478  54.728  48.939  0.00  0.00    +0.000 OA
ATOM      5  N   UNL     1     -10.554  55.576  48.393  0.00  0.00    +0.000 N 
ATOM      6  C   UNL     1     -12.119  56.040  50.209  0.00  0.00    +0.000 A 
ATOM      7  C   UNL     1     -11.841  56.004  48.837  0.00  0.00    +0.000 A 
ATOM      8  C   UNL     1     -13.389  56.455  50.648  0.00  0.00    +0.000 A 
ATOM      9  C   UNL     1     -12.848  56.382  47.940  0.00  0.00    +0.000 A 
ATOM     10  C   UNL     1     -14.408  56.776  49.749  0.00  0.00    +0.000 A 
ATOM     11  C   UNL     1     -14.106  56.783  48.392  0.00  0.00    +0.000 A 
ENDROOT
BRANCH   1  17
ATOM     12  S   UNL     1      -6.599  54.765  52.805  0.00  0.00    +0.000 S 
ATOM     13  O   UNL     1      -6.504  55.815  53.801  0.00  0.00    +0.000 OA
ATOM     14  O   UNL     1      -5.432  54.376  52.037  0.00  0.00    +0.000 OA
ATOM     15  N   UNL     1      -7.754  55.167  51.745  0.00  0.00    +0.000 N 
ATOM     16  C   UNL     1      -7.121  53.327  53.664  0.00  0.00    +0.000 A 
ATOM     17  C   UNL     1      -8.911  54.570  51.743  0.00  0.00    +0.000 C 
ATOM     18  C   UNL     1      -8.423  52.896  53.471  0.00  0.00    +0.000 A 
ATOM     19  C   UNL     1      -6.231  52.669  54.517  0.00  0.00    +0.000 A 
ATOM     20  N   UNL     1      -9.265  53.523  52.562  0.00  0.00    +0.000 N 
ATOM     21  C   UNL     1      -8.836  51.744  54.149  0.00  0.00    +0.000 A 
ATOM     22  C   UNL     1      -6.661  51.532  55.193  0.00  0.00    +0.000 A 
ATOM     23  C   UNL     1      -7.963  51.067  55.008  0.00  0.00    +0.000 A 
ATOM     24  H   UNL     1      -7.579  55.880  51.089  0.00  0.00    +0.000 HD
ATOM     25  H   UNL     1     -10.190  53.191  52.499  0.00  0.00    +0.000 HD
ENDBRANCH   1  17
BRANCH   3  26
ATOM     26  O   UNL     1     -11.498  55.654  52.499  0.00  0.00    +0.000 OA
ATOM     27  H   UNL     1     -10.918  55.359  53.174  0.00  0.00    +0.000 HD
ENDBRANCH   3  26
BRANCH  10  28
ATOM     28  N   UNL     1     -15.665  57.116  50.271  0.00  0.00    +0.000 N 
ATOM     29  H   UNL     1     -16.483  57.033  49.730  0.00  0.00    +0.000 HD
BRANCH  28  30
ATOM     30  C   UNL     1     -15.710  57.603  51.653  0.00  0.00    +0.000 C 
BRANCH  30  31
ATOM     31  C   UNL     1     -15.120  59.013  51.706  0.00  0.00    +0.000 C 
BRANCH  31  32
ATOM     32  O   UNL     1     -14.282  59.158  52.850  0.00  0.00    +0.000 OA
ATOM     33  H   UNL     1     -13.355  59.208  52.568  0.00  0.00    +0.000 HD
ENDBRANCH  31  32
ENDBRANCH  30  31
ENDBRANCH  28  30
ENDBRANCH  10  28
BRANCH   5  34
ATOM     34  C   UNL     1     -10.238  55.534  46.960  0.00  0.00    +0.000 C 
BRANCH  34  35
ATOM     35  C   UNL     1     -10.650  54.222  46.262  0.00  0.00    +0.000 C 
BRANCH  35  36
ATOM     36  C   UNL     1      -9.480  53.456  45.585  0.00  0.00    +0.000 C 
ATOM     37  C   UNL     1      -8.243  54.354  45.400  0.00  0.00    +0.000 C 
ATOM     38  C   UNL     1      -9.078  52.274  46.489  0.00  0.00    +0.000 C 
ATOM     39  C   UNL     1      -9.921  52.905  44.221  0.00  0.00    +0.000 C 
ENDBRANCH  35  36
ENDBRANCH  34  35
ENDBRANCH   5  34
TORSDOF 9
ENDMDL
MODEL 5
REMARK VINA RESULT:      -7.8      2.694      7.594
REMARK  Name = 338328
REMARK  12 active torsions:
REMARK  status: ('A' for Active; 'I' for Inactive)
REMARK    1  A    between atoms: C_6  and  C_10
REMARK    2  A    between atoms: C_14  and  O_18
REMARK    3  A    between atoms: N_17  and  C_21
REMARK    4  A    between atoms: C_21  and  C_24
REMARK    5  A    between atoms: C_24  and  C_27
REMARK    6  A    between atoms: C_25  and  N_28
REMARK    7  A    between atoms: C_27  and  C_29
REMARK    8  A    between atoms: C_27  and  C_30
REMARK    9  A    between atoms: C_27  and  C_31
REMARK   10  A    between atoms: N_28  and  C_32
REMARK   11  A    between atoms: C_32  and  C_33
REMARK   12  A    between atoms: C_33  and  O_34
REMARK                            x       y       z     vdW  Elec       q    Type
REMARK                         _______ _______ _______ _____ _____    ______ ____
ROOT
ATOM      1  C   UNL     1     -11.235  55.164  48.796  0.00  0.00    +0.000 A 
ATOM      2  C   UNL     1     -10.202  54.526  49.670  0.00  0.00    +0.000 A 
ATOM      3  C   UNL     1     -11.161  55.025  47.460  0.00  0.00    +0.000 A 
ATOM      4  O   UNL     1     -10.255  54.732  50.886  0.00  0.00    +0.000 OA
ATOM      5  N   UNL     1      -9.220  53.739  49.077  0.00  0.00    +0.000 N 
ATOM      6  C   UNL     1     -10.129  54.173  46.854  0.00  0.00    +0.000 A 
ATOM      7  C   UNL     1      -9.198  53.517  47.668  0.00  0.00    +0.000 A 
ATOM      8  C   UNL     1     -10.113  53.951  45.465  0.00  0.00    +0.000 A 
ATOM      9  C   UNL     1      -8.276  52.651  47.067  0.00  0.00    +0.000 A 
ATOM     10  C   UNL     1      -9.230  53.043  44.877  0.00  0.00    +0.000 A 
ATOM     11  C   UNL     1      -8.279  52.435  45.689  0.00  0.00    +0.000 A 
ENDROOT
BRANCH   1  17
ATOM     12  S   UNL     1     -14.417  56.158  50.877  0.00  0.00    +0.000 S 
ATOM     13  O   UNL     1     -14.140  56.104  52.300  0.00  0.00    +0.000 OA
ATOM     14  O   UNL     1     -15.678  55.662  50.358  0.00  0.00    +0.000 OA
ATOM     15  N   UNL     1     -13.238  55.371  50.096  0.00  0.00    +0.000 N 
ATOM     16  C   UNL     1     -14.335  57.852  50.431  0.00  0.00    +0.000 A 
ATOM     17  C   UNL     1     -12.326  56.012  49.422  0.00  0.00    +0.000 C 
ATOM     18  C   UNL     1     -13.241  58.274  49.693  0.00  0.00    +0.000 A 
ATOM     19  C   UNL     1     -15.351  58.724  50.833  0.00  0.00    +0.000 A 
ATOM     20  N   UNL     1     -12.283  57.375  49.242  0.00  0.00    +0.000 N 
ATOM     21  C   UNL     1     -13.180  59.623  49.329  0.00  0.00    +0.000 A 
ATOM     22  C   UNL     1     -15.269  60.065  50.473  0.00  0.00    +0.000 A 
ATOM     23  C   UNL     1     -14.186  60.515  49.719  0.00  0.00    +0.000 A 
ATOM     24  H   UNL     1     -13.209  54.388  50.131  0.00  0.00    +0.000 HD
ATOM     25  H   UNL     1     -11.511  57.743  48.755  0.00  0.00    +0.000 HD
ENDBRANCH   1  17
BRANCH   3  26
ATOM     26  O   UNL     1     -12.026  55.619  46.559  0.00  0.00    +0.000 OA
ATOM     27  H   UNL     1     -11.707  55.917  45.730  0.00  0.00    +0.000 HD
ENDBRANCH   3  26
BRANCH  10  28
ATOM     28  N   UNL     1      -9.325  52.832  43.493  0.00  0.00    +0.000 N 
ATOM     29  H   UNL     1      -9.901  53.395  42.927  0.00  0.00    +0.000 HD
BRANCH  28  30
ATOM     30  C   UNL     1      -8.533  51.737  42.926  0.00  0.00    +0.000 C 
BRANCH  30  31
ATOM     31  C   UNL     1      -9.457  50.802  42.145  0.00  0.00    +0.000 C 
BRANCH  31  32
ATOM     32  O   UNL     1     -10.822  51.098  42.432  0.00  0.00    +0.000 OA
ATOM     33  H   UNL     1     -11.318  50.271  42.535  0.00  0.00    +0.000 HD
ENDBRANCH  31  32
ENDBRANCH  30  31
ENDBRANCH  28  30
ENDBRANCH  10  28
BRANCH   5  34
ATOM     34  C   UNL     1      -8.251  53.066  49.951  0.00  0.00    +0.000 C 
BRANCH  34  35
ATOM     35  C   UNL     1      -6.991  53.902  50.256  0.00  0.00    +0.000 C 
BRANCH  35  36
ATOM     36  C   UNL     1      -6.722  54.135  51.768  0.00  0.00    +0.000 C 
ATOM     37  C   UNL     1      -7.151  55.545  52.213  0.00  0.00    +0.000 C 
ATOM     38  C   UNL     1      -7.542  53.111  52.578  0.00  0.00    +0.000 C 
ATOM     39  C   UNL     1      -5.232  53.930  52.083  0.00  0.00    +0.000 C 
ENDBRANCH  35  36
ENDBRANCH  34  35
ENDBRANCH   5  34
TORSDOF 9
ENDMDL
MODEL 6
REMARK VINA RESULT:      -7.7      2.472      6.464
REMARK  Name = 338328
REMARK  12 active torsions:
REMARK  status: ('A' for Active; 'I' for Inactive)
REMARK    1  A    between atoms: C_6  and  C_10
REMARK    2  A    between atoms: C_14  and  O_18
REMARK    3  A    between atoms: N_17  and  C_21
REMARK    4  A    between atoms: C_21  and  C_24
REMARK    5  A    between atoms: C_24  and  C_27
REMARK    6  A    between atoms: C_25  and  N_28
REMARK    7  A    between atoms: C_27  and  C_29
REMARK    8  A    between atoms: C_27  and  C_30
REMARK    9  A    between atoms: C_27  and  C_31
REMARK   10  A    between atoms: N_28  and  C_32
REMARK   11  A    between atoms: C_32  and  C_33
REMARK   12  A    between atoms: C_33  and  O_34
REMARK                            x       y       z     vdW  Elec       q    Type
REMARK                         _______ _______ _______ _____ _____    ______ ____
ROOT
ATOM      1  C   UNL     1      -9.930  54.919  50.492  0.00  0.00    +0.000 A 
ATOM      2  C   UNL     1      -9.914  55.096  49.006  0.00  0.00    +0.000 A 
ATOM      3  C   UNL     1     -11.008  55.300  51.200  0.00  0.00    +0.000 A 
ATOM      4  O   UNL     1      -8.883  54.804  48.392  0.00  0.00    +0.000 OA
ATOM      5  N   UNL     1     -11.053  55.590  48.381  0.00  0.00    +0.000 N 
ATOM      6  C   UNL     1     -12.209  55.801  50.521  0.00  0.00    +0.000 A 
ATOM      7  C   UNL     1     -12.229  55.908  49.125  0.00  0.00    +0.000 A 
ATOM      8  C   UNL     1     -13.369  56.107  51.255  0.00  0.00    +0.000 A 
ATOM      9  C   UNL     1     -13.415  56.315  48.501  0.00  0.00    +0.000 A 
ATOM     10  C   UNL     1     -14.566  56.457  50.626  0.00  0.00    +0.000 A 
ATOM     11  C   UNL     1     -14.559  56.606  49.244  0.00  0.00    +0.000 A 
ENDROOT
BRANCH   1  17
ATOM     12  S   UNL     1      -7.100  52.417  51.577  0.00  0.00    +0.000 S 
ATOM     13  O   UNL     1      -6.125  52.249  50.516  0.00  0.00    +0.000 OA
ATOM     14  O   UNL     1      -7.546  51.272  52.348  0.00  0.00    +0.000 OA
ATOM     15  N   UNL     1      -8.421  53.115  50.954  0.00  0.00    +0.000 N 
ATOM     16  C   UNL     1      -6.381  53.530  52.725  0.00  0.00    +0.000 A 
ATOM     17  C   UNL     1      -8.705  54.363  51.193  0.00  0.00    +0.000 C 
ATOM     18  C   UNL     1      -6.888  54.818  52.781  0.00  0.00    +0.000 A 
ATOM     19  C   UNL     1      -5.324  53.105  53.535  0.00  0.00    +0.000 A 
ATOM     20  N   UNL     1      -7.987  55.196  52.020  0.00  0.00    +0.000 N 
ATOM     21  C   UNL     1      -6.321  55.704  53.703  0.00  0.00    +0.000 A 
ATOM     22  C   UNL     1      -4.763  54.001  54.438  0.00  0.00    +0.000 A 
ATOM     23  C   UNL     1      -5.262  55.301  54.524  0.00  0.00    +0.000 A 
ATOM     24  H   UNL     1      -9.021  52.586  50.381  0.00  0.00    +0.000 HD
ATOM     25  H   UNL     1      -8.276  56.136  52.078  0.00  0.00    +0.000 HD
ENDBRANCH   1  17
BRANCH   3  26
ATOM     26  O   UNL     1     -11.105  55.236  52.579  0.00  0.00    +0.000 OA
ATOM     27  H   UNL     1     -10.568  54.636  53.059  0.00  0.00    +0.000 HD
ENDBRANCH   3  26
BRANCH  10  28
ATOM     28  N   UNL     1     -15.693  56.681  51.430  0.00  0.00    +0.000 N 
ATOM     29  H   UNL     1     -16.600  56.470  51.111  0.00  0.00    +0.000 HD
BRANCH  28  30
ATOM     30  C   UNL     1     -15.466  57.246  52.763  0.00  0.00    +0.000 C 
BRANCH  30  31
ATOM     31  C   UNL     1     -15.076  58.718  52.624  0.00  0.00    +0.000 C 
BRANCH  31  32
ATOM     32  O   UNL     1     -15.497  59.454  53.770  0.00  0.00    +0.000 OA
ATOM     33  H   UNL     1     -14.732  59.894  54.171  0.00  0.00    +0.000 HD
ENDBRANCH  31  32
ENDBRANCH  30  31
ENDBRANCH  28  30
ENDBRANCH  10  28
BRANCH   5  34
ATOM     34  C   UNL     1     -11.048  55.699  46.917  0.00  0.00    +0.000 C 
BRANCH  34  35
ATOM     35  C   UNL     1     -11.721  54.514  46.194  0.00  0.00    +0.000 C 
BRANCH  35  36
ATOM     36  C   UNL     1     -10.732  53.456  45.632  0.00  0.00    +0.000 C 
ATOM     37  C   UNL     1     -11.221  52.875  44.293  0.00  0.00    +0.000 C 
ATOM     38  C   UNL     1      -9.371  54.136  45.386  0.00  0.00    +0.000 C 
ATOM     39  C   UNL     1     -10.537  52.317  46.643  0.00  0.00    +0.000 C 
ENDBRANCH  35  36
ENDBRANCH  34  35
ENDBRANCH   5  34
TORSDOF 9
ENDMDL
MODEL 7
REMARK VINA RESULT:      -7.7      2.667      7.745
REMARK  Name = 338328
REMARK  12 active torsions:
REMARK  status: ('A' for Active; 'I' for Inactive)
REMARK    1  A    between atoms: C_6  and  C_10
REMARK    2  A    between atoms: C_14  and  O_18
REMARK    3  A    between atoms: N_17  and  C_21
REMARK    4  A    between atoms: C_21  and  C_24
REMARK    5  A    between atoms: C_24  and  C_27
REMARK    6  A    between atoms: C_25  and  N_28
REMARK    7  A    between atoms: C_27  and  C_29
REMARK    8  A    between atoms: C_27  and  C_30
REMARK    9  A    between atoms: C_27  and  C_31
REMARK   10  A    between atoms: N_28  and  C_32
REMARK   11  A    between atoms: C_32  and  C_33
REMARK   12  A    between atoms: C_33  and  O_34
REMARK                            x       y       z     vdW  Elec       q    Type
REMARK                         _______ _______ _______ _____ _____    ______ ____
ROOT
ATOM      1  C   UNL     1      -9.885  53.912  50.021  0.00  0.00    +0.000 A 
ATOM      2  C   UNL     1     -10.827  55.062  50.197  0.00  0.00    +0.000 A 
ATOM      3  C   UNL     1      -9.832  53.264  48.843  0.00  0.00    +0.000 A 
ATOM      4  O   UNL     1     -10.905  55.589  51.311  0.00  0.00    +0.000 OA
ATOM      5  N   UNL     1     -11.581  55.479  49.106  0.00  0.00    +0.000 N 
ATOM      6  C   UNL     1     -10.621  53.732  47.697  0.00  0.00    +0.000 A 
ATOM      7  C   UNL     1     -11.456  54.849  47.832  0.00  0.00    +0.000 A 
ATOM      8  C   UNL     1     -10.491  53.113  46.441  0.00  0.00    +0.000 A 
ATOM      9  C   UNL     1     -12.134  55.318  46.701  0.00  0.00    +0.000 A 
ATOM     10  C   UNL     1     -11.124  53.619  45.304  0.00  0.00    +0.000 A 
ATOM     11  C   UNL     1     -11.987  54.698  45.461  0.00  0.00    +0.000 A 
ENDROOT
BRANCH   1  17
ATOM     12  S   UNL     1      -8.371  51.593  52.809  0.00  0.00    +0.000 S 
ATOM     13  O   UNL     1      -7.462  50.620  52.234  0.00  0.00    +0.000 OA
ATOM     14  O   UNL     1      -9.292  51.202  53.859  0.00  0.00    +0.000 OA
ATOM     15  N   UNL     1      -9.254  52.238  51.617  0.00  0.00    +0.000 N 
ATOM     16  C   UNL     1      -7.361  52.856  53.489  0.00  0.00    +0.000 A 
ATOM     17  C   UNL     1      -9.039  53.451  51.193  0.00  0.00    +0.000 C 
ATOM     18  C   UNL     1      -7.321  54.075  52.831  0.00  0.00    +0.000 A 
ATOM     19  C   UNL     1      -6.626  52.605  54.651  0.00  0.00    +0.000 A 
ATOM     20  N   UNL     1      -8.117  54.324  51.721  0.00  0.00    +0.000 N 
ATOM     21  C   UNL     1      -6.523  55.085  53.378  0.00  0.00    +0.000 A 
ATOM     22  C   UNL     1      -5.829  53.617  55.175  0.00  0.00    +0.000 A 
ATOM     23  C   UNL     1      -5.778  54.858  54.541  0.00  0.00    +0.000 A 
ATOM     24  H   UNL     1      -9.968  51.703  51.202  0.00  0.00    +0.000 HD
ATOM     25  H   UNL     1      -8.014  55.197  51.277  0.00  0.00    +0.000 HD
ENDBRANCH   1  17
BRANCH   3  26
ATOM     26  O   UNL     1      -9.043  52.155  48.592  0.00  0.00    +0.000 OA
ATOM     27  H   UNL     1      -8.746  51.980  47.721  0.00  0.00    +0.000 HD
ENDBRANCH   3  26
BRANCH  10  28
ATOM     28  N   UNL     1     -10.888  52.980  44.077  0.00  0.00    +0.000 N 
ATOM     29  H   UNL     1     -11.593  52.907  43.394  0.00  0.00    +0.000 HD
BRANCH  28  30
ATOM     30  C   UNL     1      -9.549  52.425  43.856  0.00  0.00    +0.000 C 
BRANCH  30  31
ATOM     31  C   UNL     1      -9.678  51.069  43.161  0.00  0.00    +0.000 C 
BRANCH  31  32
ATOM     32  O   UNL     1     -10.876  51.017  42.390  0.00  0.00    +0.000 OA
ATOM     33  H   UNL     1     -11.097  51.908  42.075  0.00  0.00    +0.000 HD
ENDBRANCH  31  32
ENDBRANCH  30  31
ENDBRANCH  28  30
ENDBRANCH  10  28
BRANCH   5  34
ATOM     34  C   UNL     1     -12.453  56.648  49.274  0.00  0.00    +0.000 C 
BRANCH  34  35
ATOM     35  C   UNL     1     -13.923  56.299  49.583  0.00  0.00    +0.000 C 
BRANCH  35  36
ATOM     36  C   UNL     1     -14.563  57.145  50.718  0.00  0.00    +0.000 C 
ATOM     37  C   UNL     1     -14.531  58.649  50.395  0.00  0.00    +0.000 C 
ATOM     38  C   UNL     1     -16.038  56.724  50.873  0.00  0.00    +0.000 C 
ATOM     39  C   UNL     1     -13.837  56.891  52.047  0.00  0.00    +0.000 C 
ENDBRANCH  35  36
ENDBRANCH  34  35
ENDBRANCH   5  34
TORSDOF 9
ENDMDL
MODEL 8
REMARK VINA RESULT:      -7.6      2.878      7.585
REMARK  Name = 338328
REMARK  12 active torsions:
REMARK  status: ('A' for Active; 'I' for Inactive)
REMARK    1  A    between atoms: C_6  and  C_10
REMARK    2  A    between atoms: C_14  and  O_18
REMARK    3  A    between atoms: N_17  and  C_21
REMARK    4  A    between atoms: C_21  and  C_24
REMARK    5  A    between atoms: C_24  and  C_27
REMARK    6  A    between atoms: C_25  and  N_28
REMARK    7  A    between atoms: C_27  and  C_29
REMARK    8  A    between atoms: C_27  and  C_30
REMARK    9  A    between atoms: C_27  and  C_31
REMARK   10  A    between atoms: N_28  and  C_32
REMARK   11  A    between atoms: C_32  and  C_33
REMARK   12  A    between atoms: C_33  and  O_34
REMARK                            x       y       z     vdW  Elec       q    Type
REMARK                         _______ _______ _______ _____ _____    ______ ____
ROOT
ATOM      1  C   UNL     1     -11.703  54.690  49.422  0.00  0.00    +0.000 A 
ATOM      2  C   UNL     1     -11.241  53.680  50.425  0.00  0.00    +0.000 A 
ATOM      3  C   UNL     1     -11.174  54.698  48.186  0.00  0.00    +0.000 A 
ATOM      4  O   UNL     1     -11.692  53.744  51.573  0.00  0.00    +0.000 OA
ATOM      5  N   UNL     1     -10.317  52.719  50.027  0.00  0.00    +0.000 N 
ATOM      6  C   UNL     1     -10.215  53.663  47.778  0.00  0.00    +0.000 A 
ATOM      7  C   UNL     1      -9.826  52.673  48.688  0.00  0.00    +0.000 A 
ATOM      8  C   UNL     1      -9.737  53.615  46.456  0.00  0.00    +0.000 A 
ATOM      9  C   UNL     1      -8.971  51.656  48.245  0.00  0.00    +0.000 A 
ATOM     10  C   UNL     1      -8.932  52.568  46.004  0.00  0.00    +0.000 A 
ATOM     11  C   UNL     1      -8.514  51.618  46.928  0.00  0.00    +0.000 A 
ENDROOT
BRANCH   1  17
ATOM     12  S   UNL     1     -14.955  56.300  50.931  0.00  0.00    +0.000 S 
ATOM     13  O   UNL     1     -14.902  56.308  52.381  0.00  0.00    +0.000 OA
ATOM     14  O   UNL     1     -16.189  55.965  50.246  0.00  0.00    +0.000 OA
ATOM     15  N   UNL     1     -13.816  55.291  50.382  0.00  0.00    +0.000 N 
ATOM     16  C   UNL     1     -14.539  57.926  50.423  0.00  0.00    +0.000 A 
ATOM     17  C   UNL     1     -12.724  55.736  49.829  0.00  0.00    +0.000 C 
ATOM     18  C   UNL     1     -13.295  58.124  49.845  0.00  0.00    +0.000 A 
ATOM     19  C   UNL     1     -15.449  58.968  50.619  0.00  0.00    +0.000 A 
ATOM     20  N   UNL     1     -12.437  57.061  49.593  0.00  0.00    +0.000 N 
ATOM     21  C   UNL     1     -12.966  59.419  49.431  0.00  0.00    +0.000 A 
ATOM     22  C   UNL     1     -15.102  60.252  50.212  0.00  0.00    +0.000 A 
ATOM     23  C   UNL     1     -13.862  60.478  49.616  0.00  0.00    +0.000 A 
ATOM     24  H   UNL     1     -13.950  54.320  50.469  0.00  0.00    +0.000 HD
ATOM     25  H   UNL     1     -11.553  57.272  49.215  0.00  0.00    +0.000 HD
ENDBRANCH   1  17
BRANCH   3  26
ATOM     26  O   UNL     1     -11.485  55.622  47.204  0.00  0.00    +0.000 OA
ATOM     27  H   UNL     1     -11.810  55.332  46.374  0.00  0.00    +0.000 HD
ENDBRANCH   3  26
BRANCH  10  28
ATOM     28  N   UNL     1      -8.554  52.562  44.653  0.00  0.00    +0.000 N 
ATOM     29  H   UNL     1      -8.004  53.284  44.271  0.00  0.00    +0.000 HD
BRANCH  28  30
ATOM     30  C   UNL     1      -9.013  51.437  43.832  0.00  0.00    +0.000 C 
BRANCH  30  31
ATOM     31  C   UNL     1      -9.928  51.964  42.726  0.00  0.00    +0.000 C 
BRANCH  31  32
ATOM     32  O   UNL     1     -10.989  51.045  42.480  0.00  0.00    +0.000 OA
ATOM     33  H   UNL     1     -11.750  51.521  42.111  0.00  0.00    +0.000 HD
ENDBRANCH  31  32
ENDBRANCH  30  31
ENDBRANCH  28  30
ENDBRANCH  10  28
BRANCH   5  34
ATOM     34  C   UNL     1      -9.920  51.694  51.000  0.00  0.00    +0.000 C 
BRANCH  34  35
ATOM     35  C   UNL     1      -8.727  52.098  51.889  0.00  0.00    +0.000 C 
BRANCH  35  36
ATOM     36  C   UNL     1      -8.781  51.538  53.337  0.00  0.00    +0.000 C 
ATOM     37  C   UNL     1      -9.974  52.109  54.124  0.00  0.00    +0.000 C 
ATOM     38  C   UNL     1      -8.947  50.007  53.266  0.00  0.00    +0.000 C 
ATOM     39  C   UNL     1      -7.477  51.857  54.082  0.00  0.00    +0.000 C 
ENDBRANCH  35  36
ENDBRANCH  34  35
ENDBRANCH   5  34
TORSDOF 9
ENDMDL
MODEL 9
REMARK VINA RESULT:      -7.4      1.656      2.105
REMARK  Name = 338328
REMARK  12 active torsions:
REMARK  status: ('A' for Active; 'I' for Inactive)
REMARK    1  A    between atoms: C_6  and  C_10
REMARK    2  A    between atoms: C_14  and  O_18
REMARK    3  A    between atoms: N_17  and  C_21
REMARK    4  A    between atoms: C_21  and  C_24
REMARK    5  A    between atoms: C_24  and  C_27
REMARK    6  A    between atoms: C_25  and  N_28
REMARK    7  A    between atoms: C_27  and  C_29
REMARK    8  A    between atoms: C_27  and  C_30
REMARK    9  A    between atoms: C_27  and  C_31
REMARK   10  A    between atoms: N_28  and  C_32
REMARK   11  A    between atoms: C_32  and  C_33
REMARK   12  A    between atoms: C_33  and  O_34
REMARK                            x       y       z     vdW  Elec       q    Type
REMARK                         _______ _______ _______ _____ _____    ______ ____
ROOT
ATOM      1  C   UNL     1     -11.131  53.543  49.028  0.00  0.00    +0.000 A 
ATOM      2  C   UNL     1     -10.639  53.295  50.420  0.00  0.00    +0.000 A 
ATOM      3  C   UNL     1     -12.093  54.457  48.811  0.00  0.00    +0.000 A 
ATOM      4  O   UNL     1      -9.808  52.399  50.597  0.00  0.00    +0.000 OA
ATOM      5  N   UNL     1     -11.145  54.074  51.455  0.00  0.00    +0.000 N 
ATOM      6  C   UNL     1     -12.601  55.284  49.913  0.00  0.00    +0.000 A 
ATOM      7  C   UNL     1     -12.099  55.106  51.208  0.00  0.00    +0.000 A 
ATOM      8  C   UNL     1     -13.536  56.305  49.667  0.00  0.00    +0.000 A 
ATOM      9  C   UNL     1     -12.546  55.962  52.223  0.00  0.00    +0.000 A 
ATOM     10  C   UNL     1     -13.935  57.192  50.668  0.00  0.00    +0.000 A 
ATOM     11  C   UNL     1     -13.467  56.976  51.959  0.00  0.00    +0.000 A 
ENDROOT
BRANCH   1  17
ATOM     12  S   UNL     1     -10.003  50.428  46.914  0.00  0.00    +0.000 S 
ATOM     13  O   UNL     1     -11.154  49.705  46.407  0.00  0.00    +0.000 OA
ATOM     14  O   UNL     1      -8.857  49.707  47.434  0.00  0.00    +0.000 OA
ATOM     15  N   UNL     1     -10.503  51.433  48.080  0.00  0.00    +0.000 N 
ATOM     16  C   UNL     1      -9.409  51.392  45.575  0.00  0.00    +0.000 A 
ATOM     17  C   UNL     1     -10.579  52.718  47.881  0.00  0.00    +0.000 C 
ATOM     18  C   UNL     1      -9.621  52.761  45.621  0.00  0.00    +0.000 A 
ATOM     19  C   UNL     1      -8.758  50.769  44.507  0.00  0.00    +0.000 A 
ATOM     20  N   UNL     1     -10.203  53.366  46.727  0.00  0.00    +0.000 N 
ATOM     21  C   UNL     1      -9.139  53.532  44.558  0.00  0.00    +0.000 A 
ATOM     22  C   UNL     1      -8.296  51.549  43.452  0.00  0.00    +0.000 A 
ATOM     23  C   UNL     1      -8.484  52.931  43.477  0.00  0.00    +0.000 A 
ATOM     24  H   UNL     1     -10.755  51.066  48.957  0.00  0.00    +0.000 HD
ATOM     25  H   UNL     1     -10.360  54.337  46.682  0.00  0.00    +0.000 HD
ENDBRANCH   1  17
BRANCH   3  26
ATOM     26  O   UNL     1     -12.660  54.722  47.577  0.00  0.00    +0.000 OA
ATOM     27  H   UNL     1     -12.973  55.584  47.380  0.00  0.00    +0.000 HD
ENDBRANCH   3  26
BRANCH  10  28
ATOM     28  N   UNL     1     -14.821  58.224  50.322  0.00  0.00    +0.000 N 
ATOM     29  H   UNL     1     -15.639  58.044  49.806  0.00  0.00    +0.000 HD
BRANCH  28  30
ATOM     30  C   UNL     1     -14.477  59.580  50.760  0.00  0.00    +0.000 C 
BRANCH  30  31
ATOM     31  C   UNL     1     -13.430  60.162  49.810  0.00  0.00    +0.000 C 
BRANCH  31  32
ATOM     32  O   UNL     1     -14.049  61.017  48.851  0.00  0.00    +0.000 OA
ATOM     33  H   UNL     1     -14.139  61.908  49.223  0.00  0.00    +0.000 HD
ENDBRANCH  31  32
ENDBRANCH  30  31
ENDBRANCH  28  30
ENDBRANCH  10  28
BRANCH   5  34
ATOM     34  C   UNL     1     -10.608  53.866  52.805  0.00  0.00    +0.000 C 
BRANCH  34  35
ATOM     35  C   UNL     1      -9.591  54.936  53.251  0.00  0.00    +0.000 C 
BRANCH  35  36
ATOM     36  C   UNL     1      -8.113  54.458  53.262  0.00  0.00    +0.000 C 
ATOM     37  C   UNL     1      -8.003  52.954  53.573  0.00  0.00    +0.000 C 
ATOM     38  C   UNL     1      -7.507  54.701  51.866  0.00  0.00    +0.000 C 
ATOM     39  C   UNL     1      -7.302  55.254  54.296  0.00  0.00    +0.000 C 
ENDBRANCH  35  36
ENDBRANCH  34  35
ENDBRANCH   5  34
TORSDOF 9
ENDMDL
