MODEL 1
REMARK VINA RESULT:      -8.6      0.000      0.000
REMARK  Name = 338063
REMARK  8 active torsions:
REMARK  status: ('A' for Active; 'I' for Inactive)
REMARK    1  A    between atoms: C_6  and  C_10
REMARK    2  A    between atoms: C_14  and  O_18
REMARK    3  A    between atoms: N_17  and  C_21
REMARK    4  A    between atoms: C_21  and  C_24
REMARK    5  A    between atoms: C_24  and  C_27
REMARK    6  A    between atoms: C_25  and  C_28
REMARK    7  A    between atoms: C_27  and  C_29
REMARK    8  A    between atoms: C_27  and  C_30
REMARK                            x       y       z     vdW  Elec       q    Type
REMARK                         _______ _______ _______ _____ _____    ______ ____
ROOT
ATOM      1  C   UNL     1     -10.147  54.414  52.206  0.00  0.00    +0.000 A 
ATOM      2  C   UNL     1      -8.779  55.015  52.146  0.00  0.00    +0.000 A 
ATOM      3  C   UNL     1     -10.361  53.298  52.926  0.00  0.00    +0.000 A 
ATOM      4  O   UNL     1      -8.647  56.102  51.574  0.00  0.00    +0.000 OA
ATOM      5  N   UNL     1      -7.724  54.341  52.748  0.00  0.00    +0.000 N 
ATOM      6  C   UNL     1      -9.258  52.668  53.664  0.00  0.00    +0.000 A 
ATOM      7  C   UNL     1      -7.963  53.209  53.589  0.00  0.00    +0.000 A 
ATOM      8  C   UNL     1      -9.491  51.536  54.468  0.00  0.00    +0.000 A 
ATOM      9  C   UNL     1      -6.949  52.632  54.368  0.00  0.00    +0.000 A 
ATOM     10  C   UNL     1      -8.462  50.943  55.204  0.00  0.00    +0.000 A 
ATOM     11  C   UNL     1      -7.190  51.505  55.152  0.00  0.00    +0.000 A 
ATOM     12  C   UNL     1      -8.720  49.749  56.071  0.00  0.00    +0.000 C 
ENDROOT
BRANCH   1  18
ATOM     13  S   UNL     1     -12.393  55.894  49.344  0.00  0.00    +0.000 S 
ATOM     14  O   UNL     1     -13.239  54.895  48.713  0.00  0.00    +0.000 OA
ATOM     15  O   UNL     1     -11.724  56.898  48.540  0.00  0.00    +0.000 OA
ATOM     16  N   UNL     1     -11.266  55.113  50.206  0.00  0.00    +0.000 N 
ATOM     17  C   UNL     1     -13.428  56.774  50.454  0.00  0.00    +0.000 A 
ATOM     18  C   UNL     1     -11.292  55.116  51.506  0.00  0.00    +0.000 C 
ATOM     19  C   UNL     1     -13.229  56.585  51.813  0.00  0.00    +0.000 A 
ATOM     20  C   UNL     1     -14.404  57.645  49.963  0.00  0.00    +0.000 A 
ATOM     21  N   UNL     1     -12.259  55.707  52.289  0.00  0.00    +0.000 N 
ATOM     22  C   UNL     1     -14.085  57.239  52.704  0.00  0.00    +0.000 A 
ATOM     23  C   UNL     1     -15.227  58.317  50.863  0.00  0.00    +0.000 A 
ATOM     24  C   UNL     1     -15.073  58.107  52.233  0.00  0.00    +0.000 A 
ATOM     25  H   UNL     1     -10.549  54.627  49.738  0.00  0.00    +0.000 HD
ATOM     26  H   UNL     1     -12.266  55.493  53.250  0.00  0.00    +0.000 HD
ENDBRANCH   1  18
BRANCH   3  27
ATOM     27  O   UNL     1     -11.596  52.691  53.079  0.00  0.00    +0.000 OA
ATOM     28  H   UNL     1     -12.360  53.083  52.705  0.00  0.00    +0.000 HD
ENDBRANCH   3  27
BRANCH   5  29
ATOM     29  C   UNL     1      -6.378  54.913  52.611  0.00  0.00    +0.000 C 
BRANCH  29  30
ATOM     30  C   UNL     1      -5.436  54.191  51.633  0.00  0.00    +0.000 C 
BRANCH  30  31
ATOM     31  C   UNL     1      -4.066  53.760  52.179  0.00  0.00    +0.000 C 
ATOM     32  C   UNL     1      -3.847  54.206  53.623  0.00  0.00    +0.000 C 
ATOM     33  C   UNL     1      -3.962  52.232  52.087  0.00  0.00    +0.000 C 
ENDBRANCH  30  31
ENDBRANCH  29  30
ENDBRANCH   5  29
TORSDOF 5
ENDMDL
MODEL 2
REMARK VINA RESULT:      -8.3      3.678      5.437
REMARK  Name = 338063
REMARK  8 active torsions:
REMARK  status: ('A' for Active; 'I' for Inactive)
REMARK    1  A    between atoms: C_6  and  C_10
REMARK    2  A    between atoms: C_14  and  O_18
REMARK    3  A    between atoms: N_17  and  C_21
REMARK    4  A    between atoms: C_21  and  C_24
REMARK    5  A    between atoms: C_24  and  C_27
REMARK    6  A    between atoms: C_25  and  C_28
REMARK    7  A    between atoms: C_27  and  C_29
REMARK    8  A    between atoms: C_27  and  C_30
REMARK                            x       y       z     vdW  Elec       q    Type
REMARK                         _______ _______ _______ _____ _____    ______ ____
ROOT
ATOM      1  C   UNL     1     -11.342  56.141  48.731  0.00  0.00    +0.000 A 
ATOM      2  C   UNL     1     -10.152  55.711  49.528  0.00  0.00    +0.000 A 
ATOM      3  C   UNL     1     -11.523  55.674  47.484  0.00  0.00    +0.000 A 
ATOM      4  O   UNL     1     -10.082  56.067  50.708  0.00  0.00    +0.000 OA
ATOM      5  N   UNL     1      -9.189  54.917  48.916  0.00  0.00    +0.000 N 
ATOM      6  C   UNL     1     -10.560  54.732  46.897  0.00  0.00    +0.000 A 
ATOM      7  C   UNL     1      -9.423  54.345  47.626  0.00  0.00    +0.000 A 
ATOM      8  C   UNL     1     -10.780  54.192  45.616  0.00  0.00    +0.000 A 
ATOM      9  C   UNL     1      -8.566  53.384  47.071  0.00  0.00    +0.000 A 
ATOM     10  C   UNL     1      -9.893  53.269  45.055  0.00  0.00    +0.000 A 
ATOM     11  C   UNL     1      -8.787  52.864  45.797  0.00  0.00    +0.000 A 
ATOM     12  C   UNL     1     -10.140  52.685  43.698  0.00  0.00    +0.000 C 
ENDROOT
BRANCH   1  18
ATOM     13  S   UNL     1     -13.551  59.307  49.464  0.00  0.00    +0.000 S 
ATOM     14  O   UNL     1     -14.701  59.411  48.583  0.00  0.00    +0.000 OA
ATOM     15  O   UNL     1     -12.781  60.487  49.804  0.00  0.00    +0.000 OA
ATOM     16  N   UNL     1     -12.537  58.217  48.824  0.00  0.00    +0.000 N 
ATOM     17  C   UNL     1     -14.160  58.672  50.982  0.00  0.00    +0.000 A 
ATOM     18  C   UNL     1     -12.369  57.051  49.375  0.00  0.00    +0.000 C 
ATOM     19  C   UNL     1     -13.815  57.375  51.326  0.00  0.00    +0.000 A 
ATOM     20  C   UNL     1     -14.951  59.472  51.809  0.00  0.00    +0.000 A 
ATOM     21  N   UNL     1     -13.033  56.584  50.488  0.00  0.00    +0.000 N 
ATOM     22  C   UNL     1     -14.341  56.842  52.507  0.00  0.00    +0.000 A 
ATOM     23  C   UNL     1     -15.441  58.941  53.000  0.00  0.00    +0.000 A 
ATOM     24  C   UNL     1     -15.143  57.622  53.344  0.00  0.00    +0.000 A 
ATOM     25  H   UNL     1     -12.040  58.441  48.005  0.00  0.00    +0.000 HD
ATOM     26  H   UNL     1     -12.950  55.627  50.705  0.00  0.00    +0.000 HD
ENDBRANCH   1  18
BRANCH   3  27
ATOM     27  O   UNL     1     -12.612  55.978  46.685  0.00  0.00    +0.000 OA
ATOM     28  H   UNL     1     -13.227  55.309  46.457  0.00  0.00    +0.000 HD
ENDBRANCH   3  27
BRANCH   5  29
ATOM     29  C   UNL     1      -7.993  54.570  49.694  0.00  0.00    +0.000 C 
BRANCH  29  30
ATOM     30  C   UNL     1      -6.811  55.549  49.586  0.00  0.00    +0.000 C 
BRANCH  30  31
ATOM     31  C   UNL     1      -5.402  54.953  49.722  0.00  0.00    +0.000 C 
ATOM     32  C   UNL     1      -5.203  54.221  51.047  0.00  0.00    +0.000 C 
ATOM     33  C   UNL     1      -5.166  53.984  48.555  0.00  0.00    +0.000 C 
ENDBRANCH  30  31
ENDBRANCH  29  30
ENDBRANCH   5  29
TORSDOF 5
ENDMDL
MODEL 3
REMARK VINA RESULT:      -8.2      1.557      2.247
REMARK  Name = 338063
REMARK  8 active torsions:
REMARK  status: ('A' for Active; 'I' for Inactive)
REMARK    1  A    between atoms: C_6  and  C_10
REMARK    2  A    between atoms: C_14  and  O_18
REMARK    3  A    between atoms: N_17  and  C_21
REMARK    4  A    between atoms: C_21  and  C_24
REMARK    5  A    between atoms: C_24  and  C_27
REMARK    6  A    between atoms: C_25  and  C_28
REMARK    7  A    between atoms: C_27  and  C_29
REMARK    8  A    between atoms: C_27  and  C_30
REMARK                            x       y       z     vdW  Elec       q    Type
REMARK                         _______ _______ _______ _____ _____    ______ ____
ROOT
ATOM      1  C   UNL     1     -10.122  54.527  52.153  0.00  0.00    +0.000 A 
ATOM      2  C   UNL     1      -8.722  55.047  52.098  0.00  0.00    +0.000 A 
ATOM      3  C   UNL     1     -10.403  53.424  52.869  0.00  0.00    +0.000 A 
ATOM      4  O   UNL     1      -8.524  56.125  51.530  0.00  0.00    +0.000 OA
ATOM      5  N   UNL     1      -7.709  54.311  52.701  0.00  0.00    +0.000 N 
ATOM      6  C   UNL     1      -9.341  52.728  53.608  0.00  0.00    +0.000 A 
ATOM      7  C   UNL     1      -8.017  53.191  53.538  0.00  0.00    +0.000 A 
ATOM      8  C   UNL     1      -9.643  51.610  54.408  0.00  0.00    +0.000 A 
ATOM      9  C   UNL     1      -7.041  52.554  54.317  0.00  0.00    +0.000 A 
ATOM     10  C   UNL     1      -8.653  50.955  55.145  0.00  0.00    +0.000 A 
ATOM     11  C   UNL     1      -7.349  51.441  55.098  0.00  0.00    +0.000 A 
ATOM     12  C   UNL     1      -8.982  49.776  56.007  0.00  0.00    +0.000 C 
ENDROOT
BRANCH   1  18
ATOM     13  S   UNL     1     -13.499  56.439  51.540  0.00  0.00    +0.000 S 
ATOM     14  O   UNL     1     -13.455  57.822  51.981  0.00  0.00    +0.000 OA
ATOM     15  O   UNL     1     -14.678  55.630  51.784  0.00  0.00    +0.000 OA
ATOM     16  N   UNL     1     -12.226  55.674  52.187  0.00  0.00    +0.000 N 
ATOM     17  C   UNL     1     -13.292  56.479  49.798  0.00  0.00    +0.000 A 
ATOM     18  C   UNL     1     -11.223  55.298  51.452  0.00  0.00    +0.000 C 
ATOM     19  C   UNL     1     -12.099  56.004  49.276  0.00  0.00    +0.000 A 
ATOM     20  C   UNL     1     -14.317  56.964  48.981  0.00  0.00    +0.000 A 
ATOM     21  N   UNL     1     -11.082  55.532  50.102  0.00  0.00    +0.000 N 
ATOM     22  C   UNL     1     -11.904  56.083  47.894  0.00  0.00    +0.000 A 
ATOM     23  C   UNL     1     -14.122  57.005  47.602  0.00  0.00    +0.000 A 
ATOM     24  C   UNL     1     -12.912  56.573  47.060  0.00  0.00    +0.000 A 
ATOM     25  H   UNL     1     -12.213  55.490  53.154  0.00  0.00    +0.000 HD
ATOM     26  H   UNL     1     -10.204  55.355  49.693  0.00  0.00    +0.000 HD
ENDBRANCH   1  18
BRANCH   3  27
ATOM     27  O   UNL     1     -11.672  52.890  53.018  0.00  0.00    +0.000 OA
ATOM     28  H   UNL     1     -12.069  52.854  53.866  0.00  0.00    +0.000 HD
ENDBRANCH   3  27
BRANCH   5  29
ATOM     29  C   UNL     1      -6.332  54.802  52.568  0.00  0.00    +0.000 C 
BRANCH  29  30
ATOM     30  C   UNL     1      -5.617  54.458  51.251  0.00  0.00    +0.000 C 
BRANCH  30  31
ATOM     31  C   UNL     1      -4.607  53.302  51.291  0.00  0.00    +0.000 C 
ATOM     32  C   UNL     1      -3.848  53.235  52.614  0.00  0.00    +0.000 C 
ATOM     33  C   UNL     1      -5.361  51.985  51.059  0.00  0.00    +0.000 C 
ENDBRANCH  30  31
ENDBRANCH  29  30
ENDBRANCH   5  29
TORSDOF 5
ENDMDL
MODEL 4
REMARK VINA RESULT:      -8.1      3.801      4.837
REMARK  Name = 338063
REMARK  8 active torsions:
REMARK  status: ('A' for Active; 'I' for Inactive)
REMARK    1  A    between atoms: C_6  and  C_10
REMARK    2  A    between atoms: C_14  and  O_18
REMARK    3  A    between atoms: N_17  and  C_21
REMARK    4  A    between atoms: C_21  and  C_24
REMARK    5  A    between atoms: C_24  and  C_27
REMARK    6  A    between atoms: C_25  and  C_28
REMARK    7  A    between atoms: C_27  and  C_29
REMARK    8  A    between atoms: C_27  and  C_30
REMARK                            x       y       z     vdW  Elec       q    Type
REMARK                         _______ _______ _______ _____ _____    ______ ____
ROOT
ATOM      1  C   UNL     1     -12.363  54.337  49.854  0.00  0.00    +0.000 A 
ATOM      2  C   UNL     1     -11.897  54.198  48.440  0.00  0.00    +0.000 A 
ATOM      3  C   UNL     1     -11.992  53.432  50.777  0.00  0.00    +0.000 A 
ATOM      4  O   UNL     1     -12.159  55.110  47.649  0.00  0.00    +0.000 OA
ATOM      5  N   UNL     1     -11.176  53.066  48.080  0.00  0.00    +0.000 N 
ATOM      6  C   UNL     1     -11.122  52.308  50.407  0.00  0.00    +0.000 A 
ATOM      7  C   UNL     1     -10.704  52.152  49.075  0.00  0.00    +0.000 A 
ATOM      8  C   UNL     1     -10.682  51.394  51.383  0.00  0.00    +0.000 A 
ATOM      9  C   UNL     1      -9.810  51.115  48.769  0.00  0.00    +0.000 A 
ATOM     10  C   UNL     1      -9.827  50.338  51.057  0.00  0.00    +0.000 A 
ATOM     11  C   UNL     1      -9.389  50.211  49.742  0.00  0.00    +0.000 A 
ATOM     12  C   UNL     1      -9.348  49.379  52.103  0.00  0.00    +0.000 C 
ENDROOT
BRANCH   1  18
ATOM     13  S   UNL     1     -15.327  56.503  51.252  0.00  0.00    +0.000 S 
ATOM     14  O   UNL     1     -15.285  56.657  52.696  0.00  0.00    +0.000 OA
ATOM     15  O   UNL     1     -16.589  56.264  50.579  0.00  0.00    +0.000 OA
ATOM     16  N   UNL     1     -14.315  55.302  50.854  0.00  0.00    +0.000 N 
ATOM     17  C   UNL     1     -14.699  57.999  50.585  0.00  0.00    +0.000 A 
ATOM     18  C   UNL     1     -13.195  55.543  50.241  0.00  0.00    +0.000 C 
ATOM     19  C   UNL     1     -13.456  57.964  49.974  0.00  0.00    +0.000 A 
ATOM     20  C   UNL     1     -15.452  59.173  50.666  0.00  0.00    +0.000 A 
ATOM     21  N   UNL     1     -12.712  56.789  49.909  0.00  0.00    +0.000 N 
ATOM     22  C   UNL     1     -12.924  59.163  49.490  0.00  0.00    +0.000 A 
ATOM     23  C   UNL     1     -14.925  60.354  50.149  0.00  0.00    +0.000 A 
ATOM     24  C   UNL     1     -13.656  60.350  49.568  0.00  0.00    +0.000 A 
ATOM     25  H   UNL     1     -14.552  54.374  51.080  0.00  0.00    +0.000 HD
ATOM     26  H   UNL     1     -11.777  56.855  49.606  0.00  0.00    +0.000 HD
ENDBRANCH   1  18
BRANCH   3  27
ATOM     27  O   UNL     1     -12.334  53.497  52.117  0.00  0.00    +0.000 OA
ATOM     28  H   UNL     1     -12.832  52.805  52.507  0.00  0.00    +0.000 HD
ENDBRANCH   3  27
BRANCH   5  29
ATOM     29  C   UNL     1     -10.796  52.915  46.670  0.00  0.00    +0.000 C 
BRANCH  29  30
ATOM     30  C   UNL     1      -9.330  53.233  46.330  0.00  0.00    +0.000 C 
BRANCH  30  31
ATOM     31  C   UNL     1      -8.955  54.717  46.193  0.00  0.00    +0.000 C 
ATOM     32  C   UNL     1      -8.517  55.333  47.519  0.00  0.00    +0.000 C 
ATOM     33  C   UNL     1      -7.823  54.842  45.164  0.00  0.00    +0.000 C 
ENDBRANCH  30  31
ENDBRANCH  29  30
ENDBRANCH   5  29
TORSDOF 5
ENDMDL
MODEL 5
REMARK VINA RESULT:      -8.1      3.882      5.564
REMARK  Name = 338063
REMARK  8 active torsions:
REMARK  status: ('A' for Active; 'I' for Inactive)
REMARK    1  A    between atoms: C_6  and  C_10
REMARK    2  A    between atoms: C_14  and  O_18
REMARK    3  A    between atoms: N_17  and  C_21
REMARK    4  A    between atoms: C_21  and  C_24
REMARK    5  A    between atoms: C_24  and  C_27
REMARK    6  A    between atoms: C_25  and  C_28
REMARK    7  A    between atoms: C_27  and  C_29
REMARK    8  A    between atoms: C_27  and  C_30
REMARK                            x       y       z     vdW  Elec       q    Type
REMARK                         _______ _______ _______ _____ _____    ______ ____
ROOT
ATOM      1  C   UNL     1     -10.890  55.533  48.736  0.00  0.00    +0.000 A 
ATOM      2  C   UNL     1      -9.619  55.093  49.390  0.00  0.00    +0.000 A 
ATOM      3  C   UNL     1     -11.145  55.190  47.461  0.00  0.00    +0.000 A 
ATOM      4  O   UNL     1      -9.475  55.325  50.594  0.00  0.00    +0.000 OA
ATOM      5  N   UNL     1      -8.668  54.429  48.626  0.00  0.00    +0.000 N 
ATOM      6  C   UNL     1     -10.184  54.377  46.704  0.00  0.00    +0.000 A 
ATOM      7  C   UNL     1      -8.973  53.984  47.300  0.00  0.00    +0.000 A 
ATOM      8  C   UNL     1     -10.475  53.964  45.390  0.00  0.00    +0.000 A 
ATOM      9  C   UNL     1      -8.113  53.142  46.581  0.00  0.00    +0.000 A 
ATOM     10  C   UNL     1      -9.589  53.162  44.667  0.00  0.00    +0.000 A 
ATOM     11  C   UNL     1      -8.408  52.748  45.276  0.00  0.00    +0.000 A 
ATOM     12  C   UNL     1      -9.912  52.712  43.275  0.00  0.00    +0.000 C 
ENDROOT
BRANCH   1  18
ATOM     13  S   UNL     1     -13.593  56.371  51.461  0.00  0.00    +0.000 S 
ATOM     14  O   UNL     1     -13.013  56.690  52.754  0.00  0.00    +0.000 OA
ATOM     15  O   UNL     1     -14.781  55.544  51.375  0.00  0.00    +0.000 OA
ATOM     16  N   UNL     1     -12.438  55.680  50.560  0.00  0.00    +0.000 N 
ATOM     17  C   UNL     1     -14.019  57.908  50.729  0.00  0.00    +0.000 A 
ATOM     18  C   UNL     1     -11.909  56.305  49.550  0.00  0.00    +0.000 C 
ATOM     19  C   UNL     1     -13.273  58.337  49.644  0.00  0.00    +0.000 A 
ATOM     20  C   UNL     1     -15.091  58.650  51.232  0.00  0.00    +0.000 A 
ATOM     21  N   UNL     1     -12.201  57.592  49.159  0.00  0.00    +0.000 N 
ATOM     22  C   UNL     1     -13.571  59.586  49.089  0.00  0.00    +0.000 A 
ATOM     23  C   UNL     1     -15.399  59.877  50.648  0.00  0.00    +0.000 A 
ATOM     24  C   UNL     1     -14.632  60.349  49.582  0.00  0.00    +0.000 A 
ATOM     25  H   UNL     1     -12.131  54.771  50.780  0.00  0.00    +0.000 HD
ATOM     26  H   UNL     1     -11.613  58.015  48.492  0.00  0.00    +0.000 HD
ENDBRANCH   1  18
BRANCH   3  27
ATOM     27  O   UNL     1     -12.308  55.511  46.782  0.00  0.00    +0.000 OA
ATOM     28  H   UNL     1     -12.262  55.895  45.929  0.00  0.00    +0.000 HD
ENDBRANCH   3  27
BRANCH   5  29
ATOM     29  C   UNL     1      -7.397  54.075  49.270  0.00  0.00    +0.000 C 
BRANCH  29  30
ATOM     30  C   UNL     1      -6.287  55.137  49.201  0.00  0.00    +0.000 C 
BRANCH  30  31
ATOM     31  C   UNL     1      -4.842  54.643  49.376  0.00  0.00    +0.000 C 
ATOM     32  C   UNL     1      -4.616  53.966  50.725  0.00  0.00    +0.000 C 
ATOM     33  C   UNL     1      -4.522  53.660  48.242  0.00  0.00    +0.000 C 
ENDBRANCH  30  31
ENDBRANCH  29  30
ENDBRANCH   5  29
TORSDOF 5
ENDMDL
MODEL 6
REMARK VINA RESULT:      -7.9      4.291      6.319
REMARK  Name = 338063
REMARK  8 active torsions:
REMARK  status: ('A' for Active; 'I' for Inactive)
REMARK    1  A    between atoms: C_6  and  C_10
REMARK    2  A    between atoms: C_14  and  O_18
REMARK    3  A    between atoms: N_17  and  C_21
REMARK    4  A    between atoms: C_21  and  C_24
REMARK    5  A    between atoms: C_24  and  C_27
REMARK    6  A    between atoms: C_25  and  C_28
REMARK    7  A    between atoms: C_27  and  C_29
REMARK    8  A    between atoms: C_27  and  C_30
REMARK                            x       y       z     vdW  Elec       q    Type
REMARK                         _______ _______ _______ _____ _____    ______ ____
ROOT
ATOM      1  C   UNL     1     -10.765  55.691  48.750  0.00  0.00    +0.000 A 
ATOM      2  C   UNL     1     -11.102  55.230  47.368  0.00  0.00    +0.000 A 
ATOM      3  C   UNL     1      -9.523  55.519  49.234  0.00  0.00    +0.000 A 
ATOM      4  O   UNL     1     -12.216  55.512  46.916  0.00  0.00    +0.000 OA
ATOM      5  N   UNL     1     -10.145  54.526  46.646  0.00  0.00    +0.000 N 
ATOM      6  C   UNL     1      -8.486  54.886  48.408  0.00  0.00    +0.000 A 
ATOM      7  C   UNL     1      -8.799  54.423  47.119  0.00  0.00    +0.000 A 
ATOM      8  C   UNL     1      -7.168  54.761  48.889  0.00  0.00    +0.000 A 
ATOM      9  C   UNL     1      -7.769  53.897  46.327  0.00  0.00    +0.000 A 
ATOM     10  C   UNL     1      -6.160  54.193  48.105  0.00  0.00    +0.000 A 
ATOM     11  C   UNL     1      -6.471  53.768  46.817  0.00  0.00    +0.000 A 
ATOM     12  C   UNL     1      -4.757  54.077  48.615  0.00  0.00    +0.000 C 
ENDROOT
BRANCH   1  18
ATOM     13  S   UNL     1     -13.533  56.386  51.451  0.00  0.00    +0.000 S 
ATOM     14  O   UNL     1     -12.983  56.701  52.758  0.00  0.00    +0.000 OA
ATOM     15  O   UNL     1     -14.690  55.521  51.333  0.00  0.00    +0.000 OA
ATOM     16  N   UNL     1     -12.342  55.752  50.554  0.00  0.00    +0.000 N 
ATOM     17  C   UNL     1     -14.002  57.920  50.740  0.00  0.00    +0.000 A 
ATOM     18  C   UNL     1     -11.821  56.413  49.563  0.00  0.00    +0.000 C 
ATOM     19  C   UNL     1     -13.256  58.395  49.673  0.00  0.00    +0.000 A 
ATOM     20  C   UNL     1     -15.106  58.616  51.240  0.00  0.00    +0.000 A 
ATOM     21  N   UNL     1     -12.153  57.696  49.190  0.00  0.00    +0.000 N 
ATOM     22  C   UNL     1     -13.590  59.643  49.137  0.00  0.00    +0.000 A 
ATOM     23  C   UNL     1     -15.448  59.842  50.674  0.00  0.00    +0.000 A 
ATOM     24  C   UNL     1     -14.684  60.359  49.628  0.00  0.00    +0.000 A 
ATOM     25  H   UNL     1     -12.007  54.850  50.763  0.00  0.00    +0.000 HD
ATOM     26  H   UNL     1     -11.570  58.151  48.540  0.00  0.00    +0.000 HD
ENDBRANCH   1  18
BRANCH   3  27
ATOM     27  O   UNL     1      -9.103  55.948  50.482  0.00  0.00    +0.000 OA
ATOM     28  H   UNL     1      -8.754  56.812  50.587  0.00  0.00    +0.000 HD
ENDBRANCH   3  27
BRANCH   5  29
ATOM     29  C   UNL     1     -10.524  54.019  45.321  0.00  0.00    +0.000 C 
BRANCH  29  30
ATOM     30  C   UNL     1     -11.073  52.582  45.281  0.00  0.00    +0.000 C 
BRANCH  30  31
ATOM     31  C   UNL     1     -10.630  51.704  44.101  0.00  0.00    +0.000 C 
ATOM     32  C   UNL     1      -9.902  52.499  43.021  0.00  0.00    +0.000 C 
ATOM     33  C   UNL     1      -9.713  50.594  44.635  0.00  0.00    +0.000 C 
ENDBRANCH  30  31
ENDBRANCH  29  30
ENDBRANCH   5  29
TORSDOF 5
ENDMDL
MODEL 7
REMARK VINA RESULT:      -7.8      4.505      7.091
REMARK  Name = 338063
REMARK  8 active torsions:
REMARK  status: ('A' for Active; 'I' for Inactive)
REMARK    1  A    between atoms: C_6  and  C_10
REMARK    2  A    between atoms: C_14  and  O_18
REMARK    3  A    between atoms: N_17  and  C_21
REMARK    4  A    between atoms: C_21  and  C_24
REMARK    5  A    between atoms: C_24  and  C_27
REMARK    6  A    between atoms: C_25  and  C_28
REMARK    7  A    between atoms: C_27  and  C_29
REMARK    8  A    between atoms: C_27  and  C_30
REMARK                            x       y       z     vdW  Elec       q    Type
REMARK                         _______ _______ _______ _____ _____    ______ ____
ROOT
ATOM      1  C   UNL     1     -10.779  54.457  48.688  0.00  0.00    +0.000 A 
ATOM      2  C   UNL     1     -10.292  54.019  50.032  0.00  0.00    +0.000 A 
ATOM      3  C   UNL     1     -11.790  55.338  48.592  0.00  0.00    +0.000 A 
ATOM      4  O   UNL     1      -9.287  53.303  50.081  0.00  0.00    +0.000 OA
ATOM      5  N   UNL     1     -10.973  54.450  51.164  0.00  0.00    +0.000 N 
ATOM      6  C   UNL     1     -12.416  55.884  49.803  0.00  0.00    +0.000 A 
ATOM      7  C   UNL     1     -11.985  55.456  51.071  0.00  0.00    +0.000 A 
ATOM      8  C   UNL     1     -13.432  56.854  49.707  0.00  0.00    +0.000 A 
ATOM      9  C   UNL     1     -12.548  56.055  52.208  0.00  0.00    +0.000 A 
ATOM     10  C   UNL     1     -14.016  57.409  50.848  0.00  0.00    +0.000 A 
ATOM     11  C   UNL     1     -13.561  57.006  52.100  0.00  0.00    +0.000 A 
ATOM     12  C   UNL     1     -15.086  58.453  50.740  0.00  0.00    +0.000 C 
ENDROOT
BRANCH   1  18
ATOM     13  S   UNL     1      -8.031  53.962  45.924  0.00  0.00    +0.000 S 
ATOM     14  O   UNL     1      -6.981  53.043  46.327  0.00  0.00    +0.000 OA
ATOM     15  O   UNL     1      -7.703  55.179  45.206  0.00  0.00    +0.000 OA
ATOM     16  N   UNL     1      -8.862  54.375  47.252  0.00  0.00    +0.000 N 
ATOM     17  C   UNL     1      -9.095  53.050  44.868  0.00  0.00    +0.000 A 
ATOM     18  C   UNL     1     -10.074  53.947  47.447  0.00  0.00    +0.000 C 
ATOM     19  C   UNL     1     -10.356  52.726  45.342  0.00  0.00    +0.000 A 
ATOM     20  C   UNL     1      -8.669  52.687  43.588  0.00  0.00    +0.000 A 
ATOM     21  N   UNL     1     -10.765  53.086  46.623  0.00  0.00    +0.000 N 
ATOM     22  C   UNL     1     -11.189  51.952  44.528  0.00  0.00    +0.000 A 
ATOM     23  C   UNL     1      -9.522  51.945  42.774  0.00  0.00    +0.000 A 
ATOM     24  C   UNL     1     -10.779  51.570  43.249  0.00  0.00    +0.000 A 
ATOM     25  H   UNL     1      -8.442  54.961  47.923  0.00  0.00    +0.000 HD
ATOM     26  H   UNL     1     -11.603  52.698  46.964  0.00  0.00    +0.000 HD
ENDBRANCH   1  18
BRANCH   3  27
ATOM     27  O   UNL     1     -12.283  55.836  47.398  0.00  0.00    +0.000 OA
ATOM     28  H   UNL     1     -12.735  56.657  47.383  0.00  0.00    +0.000 HD
ENDBRANCH   3  27
BRANCH   5  29
ATOM     29  C   UNL     1     -10.522  53.947  52.468  0.00  0.00    +0.000 C 
BRANCH  29  30
ATOM     30  C   UNL     1      -9.641  54.901  53.291  0.00  0.00    +0.000 C 
BRANCH  30  31
ATOM     31  C   UNL     1      -8.138  54.911  52.968  0.00  0.00    +0.000 C 
ATOM     32  C   UNL     1      -7.776  55.946  51.907  0.00  0.00    +0.000 C 
ATOM     33  C   UNL     1      -7.363  55.201  54.261  0.00  0.00    +0.000 C 
ENDBRANCH  30  31
ENDBRANCH  29  30
ENDBRANCH   5  29
TORSDOF 5
ENDMDL
MODEL 8
REMARK VINA RESULT:      -7.7      3.039      7.736
REMARK  Name = 338063
REMARK  8 active torsions:
REMARK  status: ('A' for Active; 'I' for Inactive)
REMARK    1  A    between atoms: C_6  and  C_10
REMARK    2  A    between atoms: C_14  and  O_18
REMARK    3  A    between atoms: N_17  and  C_21
REMARK    4  A    between atoms: C_21  and  C_24
REMARK    5  A    between atoms: C_24  and  C_27
REMARK    6  A    between atoms: C_25  and  C_28
REMARK    7  A    between atoms: C_27  and  C_29
REMARK    8  A    between atoms: C_27  and  C_30
REMARK                            x       y       z     vdW  Elec       q    Type
REMARK                         _______ _______ _______ _____ _____    ______ ____
ROOT
ATOM      1  C   UNL     1     -10.117  54.135  51.161  0.00  0.00    +0.000 A 
ATOM      2  C   UNL     1     -10.607  53.853  49.777  0.00  0.00    +0.000 A 
ATOM      3  C   UNL     1     -10.820  54.943  51.973  0.00  0.00    +0.000 A 
ATOM      4  O   UNL     1      -9.999  53.016  49.103  0.00  0.00    +0.000 OA
ATOM      5  N   UNL     1     -11.732  54.527  49.315  0.00  0.00    +0.000 N 
ATOM      6  C   UNL     1     -12.077  55.547  51.513  0.00  0.00    +0.000 A 
ATOM      7  C   UNL     1     -12.531  55.312  50.204  0.00  0.00    +0.000 A 
ATOM      8  C   UNL     1     -12.847  56.343  52.382  0.00  0.00    +0.000 A 
ATOM      9  C   UNL     1     -13.774  55.838  49.821  0.00  0.00    +0.000 A 
ATOM     10  C   UNL     1     -14.063  56.898  51.974  0.00  0.00    +0.000 A 
ATOM     11  C   UNL     1     -14.523  56.633  50.687  0.00  0.00    +0.000 A 
ATOM     12  C   UNL     1     -14.886  57.730  52.908  0.00  0.00    +0.000 C 
ENDROOT
BRANCH   1  18
ATOM     13  S   UNL     1      -7.757  51.709  53.156  0.00  0.00    +0.000 S 
ATOM     14  O   UNL     1      -7.704  50.374  52.586  0.00  0.00    +0.000 OA
ATOM     15  O   UNL     1      -7.819  51.889  54.594  0.00  0.00    +0.000 OA
ATOM     16  N   UNL     1      -9.025  52.475  52.502  0.00  0.00    +0.000 N 
ATOM     17  C   UNL     1      -6.291  52.518  52.631  0.00  0.00    +0.000 A 
ATOM     18  C   UNL     1      -8.860  53.444  51.651  0.00  0.00    +0.000 C 
ATOM     19  C   UNL     1      -6.412  53.536  51.699  0.00  0.00    +0.000 A 
ATOM     20  C   UNL     1      -5.054  52.142  53.160  0.00  0.00    +0.000 A 
ATOM     21  N   UNL     1      -7.650  53.895  51.172  0.00  0.00    +0.000 N 
ATOM     22  C   UNL     1      -5.245  54.149  51.233  0.00  0.00    +0.000 A 
ATOM     23  C   UNL     1      -3.902  52.784  52.713  0.00  0.00    +0.000 A 
ATOM     24  C   UNL     1      -3.997  53.782  51.743  0.00  0.00    +0.000 A 
ATOM     25  H   UNL     1      -9.937  52.203  52.753  0.00  0.00    +0.000 HD
ATOM     26  H   UNL     1      -7.661  54.512  50.404  0.00  0.00    +0.000 HD
ENDBRANCH   1  18
BRANCH   3  27
ATOM     27  O   UNL     1     -10.472  55.230  53.283  0.00  0.00    +0.000 OA
ATOM     28  H   UNL     1     -10.237  54.537  53.868  0.00  0.00    +0.000 HD
ENDBRANCH   3  27
BRANCH   5  29
ATOM     29  C   UNL     1     -12.150  54.290  47.928  0.00  0.00    +0.000 C 
BRANCH  29  30
ATOM     30  C   UNL     1     -11.671  55.324  46.894  0.00  0.00    +0.000 C 
BRANCH  30  31
ATOM     31  C   UNL     1     -10.511  54.903  45.978  0.00  0.00    +0.000 C 
ATOM     32  C   UNL     1      -9.146  55.213  46.586  0.00  0.00    +0.000 C 
ATOM     33  C   UNL     1     -10.627  53.397  45.704  0.00  0.00    +0.000 C 
ENDBRANCH  30  31
ENDBRANCH  29  30
ENDBRANCH   5  29
TORSDOF 5
ENDMDL
MODEL 9
REMARK VINA RESULT:      -7.7      3.126      8.091
REMARK  Name = 338063
REMARK  8 active torsions:
REMARK  status: ('A' for Active; 'I' for Inactive)
REMARK    1  A    between atoms: C_6  and  C_10
REMARK    2  A    between atoms: C_14  and  O_18
REMARK    3  A    between atoms: N_17  and  C_21
REMARK    4  A    between atoms: C_21  and  C_24
REMARK    5  A    between atoms: C_24  and  C_27
REMARK    6  A    between atoms: C_25  and  C_28
REMARK    7  A    between atoms: C_27  and  C_29
REMARK    8  A    between atoms: C_27  and  C_30
REMARK                            x       y       z     vdW  Elec       q    Type
REMARK                         _______ _______ _______ _____ _____    ______ ____
ROOT
ATOM      1  C   UNL     1      -9.835  53.978  50.840  0.00  0.00    +0.000 A 
ATOM      2  C   UNL     1     -10.855  55.040  51.104  0.00  0.00    +0.000 A 
ATOM      3  C   UNL     1      -9.674  53.493  49.597  0.00  0.00    +0.000 A 
ATOM      4  O   UNL     1     -10.892  55.544  52.230  0.00  0.00    +0.000 OA
ATOM      5  N   UNL     1     -11.700  55.427  50.071  0.00  0.00    +0.000 N 
ATOM      6  C   UNL     1     -10.489  54.006  48.488  0.00  0.00    +0.000 A 
ATOM      7  C   UNL     1     -11.471  54.982  48.731  0.00  0.00    +0.000 A 
ATOM      8  C   UNL     1     -10.280  53.544  47.174  0.00  0.00    +0.000 A 
ATOM      9  C   UNL     1     -12.177  55.508  47.639  0.00  0.00    +0.000 A 
ATOM     10  C   UNL     1     -11.022  54.045  46.102  0.00  0.00    +0.000 A 
ATOM     11  C   UNL     1     -11.969  55.036  46.345  0.00  0.00    +0.000 A 
ATOM     12  C   UNL     1     -10.784  53.562  44.704  0.00  0.00    +0.000 C 
ENDROOT
BRANCH   1  18
ATOM     13  S   UNL     1      -6.629  53.359  53.024  0.00  0.00    +0.000 S 
ATOM     14  O   UNL     1      -6.263  54.509  53.833  0.00  0.00    +0.000 OA
ATOM     15  O   UNL     1      -5.605  52.585  52.349  0.00  0.00    +0.000 OA
ATOM     16  N   UNL     1      -7.694  53.858  51.911  0.00  0.00    +0.000 N 
ATOM     17  C   UNL     1      -7.443  52.244  54.107  0.00  0.00    +0.000 A 
ATOM     18  C   UNL     1      -8.946  53.513  51.976  0.00  0.00    +0.000 C 
ATOM     19  C   UNL     1      -8.807  52.064  53.946  0.00  0.00    +0.000 A 
ATOM     20  C   UNL     1      -6.715  51.558  55.083  0.00  0.00    +0.000 A 
ATOM     21  N   UNL     1      -9.522  52.762  52.976  0.00  0.00    +0.000 N 
ATOM     22  C   UNL     1      -9.473  51.220  54.840  0.00  0.00    +0.000 A 
ATOM     23  C   UNL     1      -7.385  50.693  55.945  0.00  0.00    +0.000 A 
ATOM     24  C   UNL     1      -8.766  50.531  55.829  0.00  0.00    +0.000 A 
ATOM     25  H   UNL     1      -7.389  54.431  51.171  0.00  0.00    +0.000 HD
ATOM     26  H   UNL     1     -10.505  52.715  53.008  0.00  0.00    +0.000 HD
ENDBRANCH   1  18
BRANCH   3  27
ATOM     27  O   UNL     1      -8.730  52.543  49.244  0.00  0.00    +0.000 OA
ATOM     28  H   UNL     1      -8.396  52.517  48.369  0.00  0.00    +0.000 HD
ENDBRANCH   3  27
BRANCH   5  29
ATOM     29  C   UNL     1     -12.742  56.416  50.373  0.00  0.00    +0.000 C 
BRANCH  29  30
ATOM     30  C   UNL     1     -13.986  55.882  51.105  0.00  0.00    +0.000 C 
BRANCH  30  31
ATOM     31  C   UNL     1     -14.822  56.905  51.889  0.00  0.00    +0.000 C 
ATOM     32  C   UNL     1     -14.023  57.584  52.999  0.00  0.00    +0.000 C 
ATOM     33  C   UNL     1     -15.347  57.962  50.907  0.00  0.00    +0.000 C 
ENDBRANCH  30  31
ENDBRANCH  29  30
ENDBRANCH   5  29
TORSDOF 5
ENDMDL
