MODEL 1
REMARK VINA RESULT:      -8.6      0.000      0.000
REMARK  Name = 338168
REMARK  5 active torsions:
REMARK  status: ('A' for Active; 'I' for Inactive)
REMARK    1  A    between atoms: C_6  and  C_10
REMARK    2  A    between atoms: C_14  and  O_18
REMARK    3  A    between atoms: N_17  and  C_21
REMARK    4  A    between atoms: C_21  and  C_24
REMARK    5  A    between atoms: C_24  and  C_27
REMARK                            x       y       z     vdW  Elec       q    Type
REMARK                         _______ _______ _______ _____ _____    ______ ____
ROOT
ATOM      1  C   UNL     1      -9.984  54.548  52.373  0.00  0.00    +0.000 A 
ATOM      2  C   UNL     1      -8.589  55.053  52.259  0.00  0.00    +0.000 A 
ATOM      3  C   UNL     1     -10.237  53.417  53.052  0.00  0.00    +0.000 A 
ATOM      4  O   UNL     1      -8.388  55.990  51.484  0.00  0.00    +0.000 OA
ATOM      5  N   UNL     1      -7.595  54.475  53.050  0.00  0.00    +0.000 N 
ATOM      6  C   UNL     1      -9.156  52.706  53.743  0.00  0.00    +0.000 A 
ATOM      7  C   UNL     1      -7.854  53.248  53.759  0.00  0.00    +0.000 A 
ATOM      8  C   UNL     1      -9.434  51.509  54.428  0.00  0.00    +0.000 A 
ATOM      9  C   UNL     1      -6.859  52.554  54.475  0.00  0.00    +0.000 A 
ATOM     10  C   UNL     1      -8.440  50.867  55.146  0.00  0.00    +0.000 A 
ATOM     11  C   UNL     1      -7.155  51.380  55.178  0.00  0.00    +0.000 A 
ATOM     12  F   UNL     1      -8.725  49.747  55.821  0.00  0.00    +0.000 F 
ENDROOT
BRANCH   1  18
ATOM     13  S   UNL     1     -12.362  55.783  49.435  0.00  0.00    +0.000 S 
ATOM     14  O   UNL     1     -13.040  54.535  49.156  0.00  0.00    +0.000 OA
ATOM     15  O   UNL     1     -11.930  56.675  48.381  0.00  0.00    +0.000 OA
ATOM     16  N   UNL     1     -11.043  55.461  50.364  0.00  0.00    +0.000 N 
ATOM     17  C   UNL     1     -13.361  56.690  50.537  0.00  0.00    +0.000 A 
ATOM     18  C   UNL     1     -11.122  55.278  51.741  0.00  0.00    +0.000 C 
ATOM     19  C   UNL     1     -13.101  56.550  51.897  0.00  0.00    +0.000 A 
ATOM     20  C   UNL     1     -14.350  57.547  50.049  0.00  0.00    +0.000 A 
ATOM     21  N   UNL     1     -12.114  55.719  52.452  0.00  0.00    +0.000 N 
ATOM     22  C   UNL     1     -13.863  57.316  52.784  0.00  0.00    +0.000 A 
ATOM     23  C   UNL     1     -15.106  58.290  50.950  0.00  0.00    +0.000 A 
ATOM     24  C   UNL     1     -14.858  58.182  52.317  0.00  0.00    +0.000 A 
ATOM     25  H   UNL     1     -10.163  55.396  49.929  0.00  0.00    +0.000 HD
ATOM     26  H   UNL     1     -12.176  55.466  53.401  0.00  0.00    +0.000 HD
ENDBRANCH   1  18
BRANCH   3  27
ATOM     27  O   UNL     1     -11.493  52.846  53.191  0.00  0.00    +0.000 OA
ATOM     28  H   UNL     1     -12.194  53.343  53.562  0.00  0.00    +0.000 HD
ENDBRANCH   3  27
BRANCH   5  29
ATOM     29  C   UNL     1      -6.219  55.020  52.982  0.00  0.00    +0.000 C 
BRANCH  29  30
ATOM     30  C   UNL     1      -5.208  54.224  52.133  0.00  0.00    +0.000 C 
BRANCH  30  31
ATOM     31  C   UNL     1      -5.319  54.503  50.661  0.00  0.00    +0.000 C 
ATOM     32  C   UNL     1      -6.135  53.660  49.716  0.00  0.00    +0.000 C 
ATOM     33  C   UNL     1      -4.637  53.561  49.702  0.00  0.00    +0.000 C 
ENDBRANCH  30  31
ENDBRANCH  29  30
ENDBRANCH   5  29
TORSDOF 5
ENDMDL
MODEL 2
REMARK VINA RESULT:      -8.3      3.856      7.421
REMARK  Name = 338168
REMARK  5 active torsions:
REMARK  status: ('A' for Active; 'I' for Inactive)
REMARK    1  A    between atoms: C_6  and  C_10
REMARK    2  A    between atoms: C_14  and  O_18
REMARK    3  A    between atoms: N_17  and  C_21
REMARK    4  A    between atoms: C_21  and  C_24
REMARK    5  A    between atoms: C_24  and  C_27
REMARK                            x       y       z     vdW  Elec       q    Type
REMARK                         _______ _______ _______ _____ _____    ______ ____
ROOT
ATOM      1  C   UNL     1     -10.171  55.115  50.862  0.00  0.00    +0.000 A 
ATOM      2  C   UNL     1      -9.819  55.181  49.419  0.00  0.00    +0.000 A 
ATOM      3  C   UNL     1     -11.361  55.574  51.287  0.00  0.00    +0.000 A 
ATOM      4  O   UNL     1      -8.657  54.912  49.107  0.00  0.00    +0.000 OA
ATOM      5  N   UNL     1     -10.814  55.503  48.495  0.00  0.00    +0.000 N 
ATOM      6  C   UNL     1     -12.348  56.081  50.327  0.00  0.00    +0.000 A 
ATOM      7  C   UNL     1     -12.081  56.021  48.943  0.00  0.00    +0.000 A 
ATOM      8  C   UNL     1     -13.578  56.582  50.790  0.00  0.00    +0.000 A 
ATOM      9  C   UNL     1     -13.079  56.475  48.059  0.00  0.00    +0.000 A 
ATOM     10  C   UNL     1     -14.548  56.994  49.893  0.00  0.00    +0.000 A 
ATOM     11  C   UNL     1     -14.310  56.943  48.531  0.00  0.00    +0.000 A 
ATOM     12  F   UNL     1     -15.727  57.437  50.345  0.00  0.00    +0.000 F 
ENDROOT
BRANCH   1  18
ATOM     13  S   UNL     1      -6.876  54.907  53.078  0.00  0.00    +0.000 S 
ATOM     14  O   UNL     1      -7.155  55.991  53.997  0.00  0.00    +0.000 OA
ATOM     15  O   UNL     1      -5.557  54.689  52.526  0.00  0.00    +0.000 OA
ATOM     16  N   UNL     1      -7.916  55.023  51.808  0.00  0.00    +0.000 N 
ATOM     17  C   UNL     1      -7.400  53.428  53.834  0.00  0.00    +0.000 A 
ATOM     18  C   UNL     1      -9.222  54.546  51.863  0.00  0.00    +0.000 C 
ATOM     19  C   UNL     1      -8.688  52.987  53.549  0.00  0.00    +0.000 A 
ATOM     20  C   UNL     1      -6.528  52.712  54.658  0.00  0.00    +0.000 A 
ATOM     21  N   UNL     1      -9.607  53.650  52.719  0.00  0.00    +0.000 N 
ATOM     22  C   UNL     1      -9.095  51.773  54.110  0.00  0.00    +0.000 A 
ATOM     23  C   UNL     1      -6.959  51.512  55.217  0.00  0.00    +0.000 A 
ATOM     24  C   UNL     1      -8.239  51.038  54.937  0.00  0.00    +0.000 A 
ATOM     25  H   UNL     1      -7.602  55.445  50.977  0.00  0.00    +0.000 HD
ATOM     26  H   UNL     1     -10.564  53.431  52.790  0.00  0.00    +0.000 HD
ENDBRANCH   1  18
BRANCH   3  27
ATOM     27  O   UNL     1     -11.774  55.589  52.610  0.00  0.00    +0.000 OA
ATOM     28  H   UNL     1     -11.139  55.605  53.298  0.00  0.00    +0.000 HD
ENDBRANCH   3  27
BRANCH   5  29
ATOM     29  C   UNL     1     -10.477  55.507  47.052  0.00  0.00    +0.000 C 
BRANCH  29  30
ATOM     30  C   UNL     1     -10.312  54.129  46.381  0.00  0.00    +0.000 C 
BRANCH  30  31
ATOM     31  C   UNL     1     -11.293  53.888  45.270  0.00  0.00    +0.000 C 
ATOM     32  C   UNL     1     -12.014  52.581  45.068  0.00  0.00    +0.000 C 
ATOM     33  C   UNL     1     -10.890  52.965  44.148  0.00  0.00    +0.000 C 
ENDBRANCH  30  31
ENDBRANCH  29  30
ENDBRANCH   5  29
TORSDOF 5
ENDMDL
MODEL 3
REMARK VINA RESULT:      -8.3      3.823      5.407
REMARK  Name = 338168
REMARK  5 active torsions:
REMARK  status: ('A' for Active; 'I' for Inactive)
REMARK    1  A    between atoms: C_6  and  C_10
REMARK    2  A    between atoms: C_14  and  O_18
REMARK    3  A    between atoms: N_17  and  C_21
REMARK    4  A    between atoms: C_21  and  C_24
REMARK    5  A    between atoms: C_24  and  C_27
REMARK                            x       y       z     vdW  Elec       q    Type
REMARK                         _______ _______ _______ _____ _____    ______ ____
ROOT
ATOM      1  C   UNL     1     -11.470  55.810  48.982  0.00  0.00    +0.000 A 
ATOM      2  C   UNL     1     -10.381  55.138  49.742  0.00  0.00    +0.000 A 
ATOM      3  C   UNL     1     -11.638  55.550  47.674  0.00  0.00    +0.000 A 
ATOM      4  O   UNL     1     -10.159  55.538  50.886  0.00  0.00    +0.000 OA
ATOM      5  N   UNL     1      -9.697  54.078  49.146  0.00  0.00    +0.000 N 
ATOM      6  C   UNL     1     -10.796  54.557  46.998  0.00  0.00    +0.000 A 
ATOM      7  C   UNL     1      -9.853  53.813  47.738  0.00  0.00    +0.000 A 
ATOM      8  C   UNL     1     -10.968  54.316  45.623  0.00  0.00    +0.000 A 
ATOM      9  C   UNL     1      -9.101  52.837  47.055  0.00  0.00    +0.000 A 
ATOM     10  C   UNL     1     -10.233  53.330  44.989  0.00  0.00    +0.000 A 
ATOM     11  C   UNL     1      -9.303  52.586  45.693  0.00  0.00    +0.000 A 
ATOM     12  F   UNL     1     -10.430  53.088  43.688  0.00  0.00    +0.000 F 
ENDROOT
BRANCH   1  18
ATOM     13  S   UNL     1     -13.512  59.188  49.453  0.00  0.00    +0.000 S 
ATOM     14  O   UNL     1     -14.503  58.998  48.414  0.00  0.00    +0.000 OA
ATOM     15  O   UNL     1     -12.887  60.471  49.692  0.00  0.00    +0.000 OA
ATOM     16  N   UNL     1     -12.301  58.099  49.222  0.00  0.00    +0.000 N 
ATOM     17  C   UNL     1     -14.208  58.636  50.951  0.00  0.00    +0.000 A 
ATOM     18  C   UNL     1     -12.391  56.777  49.648  0.00  0.00    +0.000 C 
ATOM     19  C   UNL     1     -13.959  57.318  51.322  0.00  0.00    +0.000 A 
ATOM     20  C   UNL     1     -14.948  59.512  51.749  0.00  0.00    +0.000 A 
ATOM     21  N   UNL     1     -13.212  56.393  50.575  0.00  0.00    +0.000 N 
ATOM     22  C   UNL     1     -14.469  56.884  52.550  0.00  0.00    +0.000 A 
ATOM     23  C   UNL     1     -15.457  59.055  52.961  0.00  0.00    +0.000 A 
ATOM     24  C   UNL     1     -15.212  57.744  53.366  0.00  0.00    +0.000 A 
ATOM     25  H   UNL     1     -11.481  58.393  48.764  0.00  0.00    +0.000 HD
ATOM     26  H   UNL     1     -13.315  55.431  50.759  0.00  0.00    +0.000 HD
ENDBRANCH   1  18
BRANCH   3  27
ATOM     27  O   UNL     1     -12.598  56.144  46.870  0.00  0.00    +0.000 OA
ATOM     28  H   UNL     1     -13.505  55.956  47.007  0.00  0.00    +0.000 HD
ENDBRANCH   3  27
BRANCH   5  29
ATOM     29  C   UNL     1      -8.655  53.369  49.926  0.00  0.00    +0.000 C 
BRANCH  29  30
ATOM     30  C   UNL     1      -7.448  54.212  50.381  0.00  0.00    +0.000 C 
BRANCH  30  31
ATOM     31  C   UNL     1      -6.720  54.870  49.244  0.00  0.00    +0.000 C 
ATOM     32  C   UNL     1      -5.776  54.136  48.327  0.00  0.00    +0.000 C 
ATOM     33  C   UNL     1      -5.230  55.070  49.369  0.00  0.00    +0.000 C 
ENDBRANCH  30  31
ENDBRANCH  29  30
ENDBRANCH   5  29
TORSDOF 5
ENDMDL
MODEL 4
REMARK VINA RESULT:      -8.2      3.674      7.281
REMARK  Name = 338168
REMARK  5 active torsions:
REMARK  status: ('A' for Active; 'I' for Inactive)
REMARK    1  A    between atoms: C_6  and  C_10
REMARK    2  A    between atoms: C_14  and  O_18
REMARK    3  A    between atoms: N_17  and  C_21
REMARK    4  A    between atoms: C_21  and  C_24
REMARK    5  A    between atoms: C_24  and  C_27
REMARK                            x       y       z     vdW  Elec       q    Type
REMARK                         _______ _______ _______ _____ _____    ______ ____
ROOT
ATOM      1  C   UNL     1     -10.173  55.452  50.470  0.00  0.00    +0.000 A 
ATOM      2  C   UNL     1     -10.344  55.706  49.014  0.00  0.00    +0.000 A 
ATOM      3  C   UNL     1     -11.208  55.626  51.309  0.00  0.00    +0.000 A 
ATOM      4  O   UNL     1      -9.328  55.702  48.315  0.00  0.00    +0.000 OA
ATOM      5  N   UNL     1     -11.631  55.896  48.508  0.00  0.00    +0.000 N 
ATOM      6  C   UNL     1     -12.529  56.003  50.795  0.00  0.00    +0.000 A 
ATOM      7  C   UNL     1     -12.739  56.111  49.404  0.00  0.00    +0.000 A 
ATOM      8  C   UNL     1     -13.595  56.206  51.689  0.00  0.00    +0.000 A 
ATOM      9  C   UNL     1     -14.035  56.427  48.955  0.00  0.00    +0.000 A 
ATOM     10  C   UNL     1     -14.864  56.488  51.214  0.00  0.00    +0.000 A 
ATOM     11  C   UNL     1     -15.094  56.598  49.854  0.00  0.00    +0.000 A 
ATOM     12  F   UNL     1     -15.876  56.646  52.074  0.00  0.00    +0.000 F 
ENDROOT
BRANCH   1  18
ATOM     13  S   UNL     1      -6.572  53.766  50.451  0.00  0.00    +0.000 S 
ATOM     14  O   UNL     1      -5.869  54.749  49.653  0.00  0.00    +0.000 OA
ATOM     15  O   UNL     1      -6.358  52.345  50.284  0.00  0.00    +0.000 OA
ATOM     16  N   UNL     1      -8.189  54.031  50.295  0.00  0.00    +0.000 N 
ATOM     17  C   UNL     1      -6.307  54.162  52.126  0.00  0.00    +0.000 A 
ATOM     18  C   UNL     1      -8.863  55.004  51.026  0.00  0.00    +0.000 C 
ATOM     19  C   UNL     1      -7.257  54.963  52.751  0.00  0.00    +0.000 A 
ATOM     20  C   UNL     1      -5.197  53.650  52.803  0.00  0.00    +0.000 A 
ATOM     21  N   UNL     1      -8.401  55.496  52.134  0.00  0.00    +0.000 N 
ATOM     22  C   UNL     1      -7.078  55.239  54.110  0.00  0.00    +0.000 A 
ATOM     23  C   UNL     1      -5.031  53.949  54.152  0.00  0.00    +0.000 A 
ATOM     24  C   UNL     1      -5.975  54.737  54.809  0.00  0.00    +0.000 A 
ATOM     25  H   UNL     1      -8.699  53.479  49.659  0.00  0.00    +0.000 HD
ATOM     26  H   UNL     1      -8.861  56.260  52.551  0.00  0.00    +0.000 HD
ENDBRANCH   1  18
BRANCH   3  27
ATOM     27  O   UNL     1     -11.147  55.449  52.683  0.00  0.00    +0.000 OA
ATOM     28  H   UNL     1     -10.320  55.479  53.122  0.00  0.00    +0.000 HD
ENDBRANCH   3  27
BRANCH   5  29
ATOM     29  C   UNL     1     -11.805  56.087  47.049  0.00  0.00    +0.000 C 
BRANCH  29  30
ATOM     30  C   UNL     1     -12.091  54.819  46.221  0.00  0.00    +0.000 C 
BRANCH  30  31
ATOM     31  C   UNL     1     -10.864  54.243  45.573  0.00  0.00    +0.000 C 
ATOM     32  C   UNL     1     -10.905  53.117  44.573  0.00  0.00    +0.000 C 
ATOM     33  C   UNL     1     -10.428  52.856  45.974  0.00  0.00    +0.000 C 
ENDBRANCH  30  31
ENDBRANCH  29  30
ENDBRANCH   5  29
TORSDOF 5
ENDMDL
MODEL 5
REMARK VINA RESULT:      -8.0      3.552      7.939
REMARK  Name = 338168
REMARK  5 active torsions:
REMARK  status: ('A' for Active; 'I' for Inactive)
REMARK    1  A    between atoms: C_6  and  C_10
REMARK    2  A    between atoms: C_14  and  O_18
REMARK    3  A    between atoms: N_17  and  C_21
REMARK    4  A    between atoms: C_21  and  C_24
REMARK    5  A    between atoms: C_24  and  C_27
REMARK                            x       y       z     vdW  Elec       q    Type
REMARK                         _______ _______ _______ _____ _____    ______ ____
ROOT
ATOM      1  C   UNL     1      -9.938  54.437  50.637  0.00  0.00    +0.000 A 
ATOM      2  C   UNL     1     -11.053  55.389  50.889  0.00  0.00    +0.000 A 
ATOM      3  C   UNL     1      -9.733  53.952  49.400  0.00  0.00    +0.000 A 
ATOM      4  O   UNL     1     -11.306  55.666  52.063  0.00  0.00    +0.000 OA
ATOM      5  N   UNL     1     -11.727  55.944  49.800  0.00  0.00    +0.000 N 
ATOM      6  C   UNL     1     -10.562  54.405  48.277  0.00  0.00    +0.000 A 
ATOM      7  C   UNL     1     -11.531  55.410  48.476  0.00  0.00    +0.000 A 
ATOM      8  C   UNL     1     -10.352  53.868  46.994  0.00  0.00    +0.000 A 
ATOM      9  C   UNL     1     -12.269  55.846  47.359  0.00  0.00    +0.000 A 
ATOM     10  C   UNL     1     -11.074  54.339  45.911  0.00  0.00    +0.000 A 
ATOM     11  C   UNL     1     -12.030  55.325  46.082  0.00  0.00    +0.000 A 
ATOM     12  F   UNL     1     -10.841  53.844  44.690  0.00  0.00    +0.000 F 
ENDROOT
BRANCH   1  18
ATOM     13  S   UNL     1      -6.749  54.542  53.009  0.00  0.00    +0.000 S 
ATOM     14  O   UNL     1      -7.084  55.719  53.782  0.00  0.00    +0.000 OA
ATOM     15  O   UNL     1      -5.402  54.284  52.547  0.00  0.00    +0.000 OA
ATOM     16  N   UNL     1      -7.729  54.492  51.688  0.00  0.00    +0.000 N 
ATOM     17  C   UNL     1      -7.290  53.151  53.907  0.00  0.00    +0.000 A 
ATOM     18  C   UNL     1      -9.030  54.003  51.739  0.00  0.00    +0.000 C 
ATOM     19  C   UNL     1      -8.559  52.658  53.617  0.00  0.00    +0.000 A 
ATOM     20  C   UNL     1      -6.451  52.549  54.847  0.00  0.00    +0.000 A 
ATOM     21  N   UNL     1      -9.445  53.205  52.675  0.00  0.00    +0.000 N 
ATOM     22  C   UNL     1      -8.978  51.510  54.296  0.00  0.00    +0.000 A 
ATOM     23  C   UNL     1      -6.894  51.415  55.521  0.00  0.00    +0.000 A 
ATOM     24  C   UNL     1      -8.153  50.890  55.240  0.00  0.00    +0.000 A 
ATOM     25  H   UNL     1      -7.381  54.821  50.829  0.00  0.00    +0.000 HD
ATOM     26  H   UNL     1     -10.402  52.980  52.726  0.00  0.00    +0.000 HD
ENDBRANCH   1  18
BRANCH   3  27
ATOM     27  O   UNL     1      -8.746  53.039  49.065  0.00  0.00    +0.000 OA
ATOM     28  H   UNL     1      -8.508  52.916  48.168  0.00  0.00    +0.000 HD
ENDBRANCH   3  27
BRANCH   5  29
ATOM     29  C   UNL     1     -12.796  56.939  50.051  0.00  0.00    +0.000 C 
BRANCH  29  30
ATOM     30  C   UNL     1     -14.165  56.380  50.485  0.00  0.00    +0.000 C 
BRANCH  30  31
ATOM     31  C   UNL     1     -14.998  57.373  51.245  0.00  0.00    +0.000 C 
ATOM     32  C   UNL     1     -14.551  58.021  52.529  0.00  0.00    +0.000 C 
ATOM     33  C   UNL     1     -15.598  56.944  52.560  0.00  0.00    +0.000 C 
ENDBRANCH  30  31
ENDBRANCH  29  30
ENDBRANCH   5  29
TORSDOF 5
ENDMDL
MODEL 6
REMARK VINA RESULT:      -8.0      3.984      5.541
REMARK  Name = 338168
REMARK  5 active torsions:
REMARK  status: ('A' for Active; 'I' for Inactive)
REMARK    1  A    between atoms: C_6  and  C_10
REMARK    2  A    between atoms: C_14  and  O_18
REMARK    3  A    between atoms: N_17  and  C_21
REMARK    4  A    between atoms: C_21  and  C_24
REMARK    5  A    between atoms: C_24  and  C_27
REMARK                            x       y       z     vdW  Elec       q    Type
REMARK                         _______ _______ _______ _____ _____    ______ ____
ROOT
ATOM      1  C   UNL     1     -10.613  55.383  48.916  0.00  0.00    +0.000 A 
ATOM      2  C   UNL     1     -10.782  54.334  47.875  0.00  0.00    +0.000 A 
ATOM      3  C   UNL     1      -9.391  55.654  49.407  0.00  0.00    +0.000 A 
ATOM      4  O   UNL     1     -11.934  54.003  47.587  0.00  0.00    +0.000 OA
ATOM      5  N   UNL     1      -9.648  53.809  47.255  0.00  0.00    +0.000 N 
ATOM      6  C   UNL     1      -8.207  54.969  48.876  0.00  0.00    +0.000 A 
ATOM      7  C   UNL     1      -8.338  54.074  47.793  0.00  0.00    +0.000 A 
ATOM      8  C   UNL     1      -6.939  55.246  49.418  0.00  0.00    +0.000 A 
ATOM      9  C   UNL     1      -7.167  53.477  47.286  0.00  0.00    +0.000 A 
ATOM     10  C   UNL     1      -5.806  54.664  48.878  0.00  0.00    +0.000 A 
ATOM     11  C   UNL     1      -5.908  53.784  47.815  0.00  0.00    +0.000 A 
ATOM     12  F   UNL     1      -4.602  54.961  49.380  0.00  0.00    +0.000 F 
ENDROOT
BRANCH   1  18
ATOM     13  S   UNL     1     -13.904  57.607  48.739  0.00  0.00    +0.000 S 
ATOM     14  O   UNL     1     -14.818  56.612  48.218  0.00  0.00    +0.000 OA
ATOM     15  O   UNL     1     -13.916  58.978  48.276  0.00  0.00    +0.000 OA
ATOM     16  N   UNL     1     -12.368  57.049  48.550  0.00  0.00    +0.000 N 
ATOM     17  C   UNL     1     -14.069  57.617  50.473  0.00  0.00    +0.000 A 
ATOM     18  C   UNL     1     -11.783  56.150  49.436  0.00  0.00    +0.000 C 
ATOM     19  C   UNL     1     -13.196  56.816  51.201  0.00  0.00    +0.000 A 
ATOM     20  C   UNL     1     -15.021  58.437  51.084  0.00  0.00    +0.000 A 
ATOM     21  N   UNL     1     -12.209  55.983  50.650  0.00  0.00    +0.000 N 
ATOM     22  C   UNL     1     -13.288  56.861  52.596  0.00  0.00    +0.000 A 
ATOM     23  C   UNL     1     -15.103  58.456  52.473  0.00  0.00    +0.000 A 
ATOM     24  C   UNL     1     -14.232  57.675  53.231  0.00  0.00    +0.000 A 
ATOM     25  H   UNL     1     -11.842  57.363  47.780  0.00  0.00    +0.000 HD
ATOM     26  H   UNL     1     -11.833  55.256  51.197  0.00  0.00    +0.000 HD
ENDBRANCH   1  18
BRANCH   3  27
ATOM     27  O   UNL     1      -9.129  56.586  50.398  0.00  0.00    +0.000 OA
ATOM     28  H   UNL     1      -9.307  56.380  51.294  0.00  0.00    +0.000 HD
ENDBRANCH   3  27
BRANCH   5  29
ATOM     29  C   UNL     1      -9.821  52.809  46.174  0.00  0.00    +0.000 C 
BRANCH  29  30
ATOM     30  C   UNL     1      -9.835  53.354  44.733  0.00  0.00    +0.000 C 
BRANCH  30  31
ATOM     31  C   UNL     1      -9.024  52.526  43.777  0.00  0.00    +0.000 C 
ATOM     32  C   UNL     1      -8.597  53.011  42.416  0.00  0.00    +0.000 C 
ATOM     33  C   UNL     1      -9.700  51.998  42.537  0.00  0.00    +0.000 C 
ENDBRANCH  30  31
ENDBRANCH  29  30
ENDBRANCH   5  29
TORSDOF 5
ENDMDL
MODEL 7
REMARK VINA RESULT:      -8.0      4.916      7.803
REMARK  Name = 338168
REMARK  5 active torsions:
REMARK  status: ('A' for Active; 'I' for Inactive)
REMARK    1  A    between atoms: C_6  and  C_10
REMARK    2  A    between atoms: C_14  and  O_18
REMARK    3  A    between atoms: N_17  and  C_21
REMARK    4  A    between atoms: C_21  and  C_24
REMARK    5  A    between atoms: C_24  and  C_27
REMARK                            x       y       z     vdW  Elec       q    Type
REMARK                         _______ _______ _______ _____ _____    ______ ____
ROOT
ATOM      1  C   UNL     1     -11.430  54.227  47.915  0.00  0.00    +0.000 A 
ATOM      2  C   UNL     1     -11.530  53.391  49.142  0.00  0.00    +0.000 A 
ATOM      3  C   UNL     1     -12.096  55.391  47.837  0.00  0.00    +0.000 A 
ATOM      4  O   UNL     1     -11.046  52.259  49.097  0.00  0.00    +0.000 OA
ATOM      5  N   UNL     1     -12.124  53.934  50.282  0.00  0.00    +0.000 N 
ATOM      6  C   UNL     1     -12.873  55.883  48.981  0.00  0.00    +0.000 A 
ATOM      7  C   UNL     1     -12.863  55.169  50.198  0.00  0.00    +0.000 A 
ATOM      8  C   UNL     1     -13.585  57.090  48.874  0.00  0.00    +0.000 A 
ATOM      9  C   UNL     1     -13.584  55.704  51.282  0.00  0.00    +0.000 A 
ATOM     10  C   UNL     1     -14.261  57.603  49.968  0.00  0.00    +0.000 A 
ATOM     11  C   UNL     1     -14.265  56.922  51.172  0.00  0.00    +0.000 A 
ATOM     12  F   UNL     1     -14.907  58.771  49.863  0.00  0.00    +0.000 F 
ENDROOT
BRANCH   1  18
ATOM     13  S   UNL     1      -8.200  54.009  45.607  0.00  0.00    +0.000 S 
ATOM     14  O   UNL     1      -7.358  53.213  46.475  0.00  0.00    +0.000 OA
ATOM     15  O   UNL     1      -7.683  55.130  44.851  0.00  0.00    +0.000 OA
ATOM     16  N   UNL     1      -9.472  54.569  46.488  0.00  0.00    +0.000 N 
ATOM     17  C   UNL     1      -8.987  52.922  44.496  0.00  0.00    +0.000 A 
ATOM     18  C   UNL     1     -10.597  53.796  46.754  0.00  0.00    +0.000 C 
ATOM     19  C   UNL     1     -10.248  52.451  44.850  0.00  0.00    +0.000 A 
ATOM     20  C   UNL     1      -8.373  52.584  43.288  0.00  0.00    +0.000 A 
ATOM     21  N   UNL     1     -10.926  52.764  46.039  0.00  0.00    +0.000 N 
ATOM     22  C   UNL     1     -10.908  51.622  43.938  0.00  0.00    +0.000 A 
ATOM     23  C   UNL     1      -9.043  51.746  42.401  0.00  0.00    +0.000 A 
ATOM     24  C   UNL     1     -10.313  51.271  42.721  0.00  0.00    +0.000 A 
ATOM     25  H   UNL     1      -9.435  55.487  46.841  0.00  0.00    +0.000 HD
ATOM     26  H   UNL     1     -11.666  52.187  46.337  0.00  0.00    +0.000 HD
ENDBRANCH   1  18
BRANCH   3  27
ATOM     27  O   UNL     1     -12.097  56.227  46.731  0.00  0.00    +0.000 OA
ATOM     28  H   UNL     1     -11.758  55.921  45.914  0.00  0.00    +0.000 HD
ENDBRANCH   3  27
BRANCH   5  29
ATOM     29  C   UNL     1     -12.167  53.124  51.522  0.00  0.00    +0.000 C 
BRANCH  29  30
ATOM     30  C   UNL     1     -10.917  53.179  52.421  0.00  0.00    +0.000 C 
BRANCH  30  31
ATOM     31  C   UNL     1     -10.461  54.578  52.720  0.00  0.00    +0.000 C 
ATOM     32  C   UNL     1      -9.263  55.218  52.068  0.00  0.00    +0.000 C 
ATOM     33  C   UNL     1      -9.182  54.763  53.497  0.00  0.00    +0.000 C 
ENDBRANCH  30  31
ENDBRANCH  29  30
ENDBRANCH   5  29
TORSDOF 5
ENDMDL
MODEL 8
REMARK VINA RESULT:      -8.0      3.594      7.538
REMARK  Name = 338168
REMARK  5 active torsions:
REMARK  status: ('A' for Active; 'I' for Inactive)
REMARK    1  A    between atoms: C_6  and  C_10
REMARK    2  A    between atoms: C_14  and  O_18
REMARK    3  A    between atoms: N_17  and  C_21
REMARK    4  A    between atoms: C_21  and  C_24
REMARK    5  A    between atoms: C_24  and  C_27
REMARK                            x       y       z     vdW  Elec       q    Type
REMARK                         _______ _______ _______ _____ _____    ______ ____
ROOT
ATOM      1  C   UNL     1     -10.028  55.466  50.444  0.00  0.00    +0.000 A 
ATOM      2  C   UNL     1     -10.233  55.716  48.992  0.00  0.00    +0.000 A 
ATOM      3  C   UNL     1     -11.048  55.621  51.305  0.00  0.00    +0.000 A 
ATOM      4  O   UNL     1      -9.233  55.730  48.273  0.00  0.00    +0.000 OA
ATOM      5  N   UNL     1     -11.534  55.883  48.513  0.00  0.00    +0.000 N 
ATOM      6  C   UNL     1     -12.387  55.974  50.818  0.00  0.00    +0.000 A 
ATOM      7  C   UNL     1     -12.627  56.078  49.431  0.00  0.00    +0.000 A 
ATOM      8  C   UNL     1     -13.437  56.158  51.734  0.00  0.00    +0.000 A 
ATOM      9  C   UNL     1     -13.938  56.371  49.009  0.00  0.00    +0.000 A 
ATOM     10  C   UNL     1     -14.720  56.417  51.285  0.00  0.00    +0.000 A 
ATOM     11  C   UNL     1     -14.981  56.523  49.930  0.00  0.00    +0.000 A 
ATOM     12  F   UNL     1     -15.718  56.557  52.166  0.00  0.00    +0.000 F 
ENDROOT
BRANCH   1  18
ATOM     13  S   UNL     1      -7.140  54.996  53.135  0.00  0.00    +0.000 S 
ATOM     14  O   UNL     1      -7.764  53.981  53.959  0.00  0.00    +0.000 OA
ATOM     15  O   UNL     1      -6.395  56.097  53.707  0.00  0.00    +0.000 OA
ATOM     16  N   UNL     1      -8.289  55.649  52.156  0.00  0.00    +0.000 N 
ATOM     17  C   UNL     1      -6.113  54.183  51.987  0.00  0.00    +0.000 A 
ATOM     18  C   UNL     1      -8.699  55.041  50.973  0.00  0.00    +0.000 C 
ATOM     19  C   UNL     1      -6.658  53.884  50.743  0.00  0.00    +0.000 A 
ATOM     20  C   UNL     1      -4.786  53.891  52.313  0.00  0.00    +0.000 A 
ATOM     21  N   UNL     1      -7.976  54.164  50.347  0.00  0.00    +0.000 N 
ATOM     22  C   UNL     1      -5.823  53.281  49.798  0.00  0.00    +0.000 A 
ATOM     23  C   UNL     1      -3.976  53.278  51.361  0.00  0.00    +0.000 A 
ATOM     24  C   UNL     1      -4.491  52.980  50.101  0.00  0.00    +0.000 A 
ATOM     25  H   UNL     1      -8.703  56.502  52.417  0.00  0.00    +0.000 HD
ATOM     26  H   UNL     1      -8.360  53.684  49.578  0.00  0.00    +0.000 HD
ENDBRANCH   1  18
BRANCH   3  27
ATOM     27  O   UNL     1     -10.956  55.445  52.677  0.00  0.00    +0.000 OA
ATOM     28  H   UNL     1     -11.493  55.954  53.251  0.00  0.00    +0.000 HD
ENDBRANCH   3  27
BRANCH   5  29
ATOM     29  C   UNL     1     -11.742  56.070  47.057  0.00  0.00    +0.000 C 
BRANCH  29  30
ATOM     30  C   UNL     1     -12.031  54.798  46.237  0.00  0.00    +0.000 C 
BRANCH  30  31
ATOM     31  C   UNL     1     -10.805  54.215  45.593  0.00  0.00    +0.000 C 
ATOM     32  C   UNL     1     -10.851  53.106  44.575  0.00  0.00    +0.000 C 
ATOM     33  C   UNL     1     -10.394  52.815  45.976  0.00  0.00    +0.000 C 
ENDBRANCH  30  31
ENDBRANCH  29  30
ENDBRANCH   5  29
TORSDOF 5
ENDMDL
MODEL 9
REMARK VINA RESULT:      -8.0      3.809      7.393
REMARK  Name = 338168
REMARK  5 active torsions:
REMARK  status: ('A' for Active; 'I' for Inactive)
REMARK    1  A    between atoms: C_6  and  C_10
REMARK    2  A    between atoms: C_14  and  O_18
REMARK    3  A    between atoms: N_17  and  C_21
REMARK    4  A    between atoms: C_21  and  C_24
REMARK    5  A    between atoms: C_24  and  C_27
REMARK                            x       y       z     vdW  Elec       q    Type
REMARK                         _______ _______ _______ _____ _____    ______ ____
ROOT
ATOM      1  C   UNL     1     -10.413  55.040  50.655  0.00  0.00    +0.000 A 
ATOM      2  C   UNL     1     -10.116  55.108  49.199  0.00  0.00    +0.000 A 
ATOM      3  C   UNL     1     -11.540  55.589  51.139  0.00  0.00    +0.000 A 
ATOM      4  O   UNL     1      -8.996  54.748  48.832  0.00  0.00    +0.000 OA
ATOM      5  N   UNL     1     -11.118  55.534  48.325  0.00  0.00    +0.000 N 
ATOM      6  C   UNL     1     -12.519  56.200  50.233  0.00  0.00    +0.000 A 
ATOM      7  C   UNL     1     -12.316  56.148  48.838  0.00  0.00    +0.000 A 
ATOM      8  C   UNL     1     -13.682  56.793  50.758  0.00  0.00    +0.000 A 
ATOM      9  C   UNL     1     -13.307  56.705  48.006  0.00  0.00    +0.000 A 
ATOM     10  C   UNL     1     -14.649  57.306  49.912  0.00  0.00    +0.000 A 
ATOM     11  C   UNL     1     -14.473  57.266  48.540  0.00  0.00    +0.000 A 
ATOM     12  F   UNL     1     -15.766  57.837  50.423  0.00  0.00    +0.000 F 
ENDROOT
BRANCH   1  18
ATOM     13  S   UNL     1      -8.837  52.043  52.739  0.00  0.00    +0.000 S 
ATOM     14  O   UNL     1      -8.219  51.314  51.651  0.00  0.00    +0.000 OA
ATOM     15  O   UNL     1      -9.528  51.372  53.818  0.00  0.00    +0.000 OA
ATOM     16  N   UNL     1      -9.887  53.137  52.101  0.00  0.00    +0.000 N 
ATOM     17  C   UNL     1      -7.622  53.080  53.434  0.00  0.00    +0.000 A 
ATOM     18  C   UNL     1      -9.476  54.369  51.603  0.00  0.00    +0.000 C 
ATOM     19  C   UNL     1      -7.544  54.383  52.954  0.00  0.00    +0.000 A 
ATOM     20  C   UNL     1      -6.797  52.609  54.459  0.00  0.00    +0.000 A 
ATOM     21  N   UNL     1      -8.352  54.923  51.940  0.00  0.00    +0.000 N 
ATOM     22  C   UNL     1      -6.608  55.236  53.546  0.00  0.00    +0.000 A 
ATOM     23  C   UNL     1      -5.862  53.471  55.024  0.00  0.00    +0.000 A 
ATOM     24  C   UNL     1      -5.772  54.787  54.575  0.00  0.00    +0.000 A 
ATOM     25  H   UNL     1     -10.845  52.911  52.071  0.00  0.00    +0.000 HD
ATOM     26  H   UNL     1      -8.057  55.738  51.474  0.00  0.00    +0.000 HD
ENDBRANCH   1  18
BRANCH   3  27
ATOM     27  O   UNL     1     -11.895  55.609  52.479  0.00  0.00    +0.000 OA
ATOM     28  H   UNL     1     -12.185  54.823  52.898  0.00  0.00    +0.000 HD
ENDBRANCH   3  27
BRANCH   5  29
ATOM     29  C   UNL     1     -10.842  55.542  46.869  0.00  0.00    +0.000 C 
BRANCH  29  30
ATOM     30  C   UNL     1     -11.493  54.417  46.041  0.00  0.00    +0.000 C 
BRANCH  30  31
ATOM     31  C   UNL     1     -10.533  53.324  45.665  0.00  0.00    +0.000 C 
ATOM     32  C   UNL     1      -9.260  53.566  44.898  0.00  0.00    +0.000 C 
ATOM     33  C   UNL     1     -10.435  52.927  44.214  0.00  0.00    +0.000 C 
ENDBRANCH  30  31
ENDBRANCH  29  30
ENDBRANCH   5  29
TORSDOF 5
ENDMDL
