MODEL 1
REMARK VINA RESULT:      -8.8      0.000      0.000
REMARK  Name = 338249
REMARK  5 active torsions:
REMARK  status: ('A' for Active; 'I' for Inactive)
REMARK    1  A    between atoms: C_6  and  C_10
REMARK    2  A    between atoms: C_14  and  O_18
REMARK    3  A    between atoms: N_17  and  C_21
REMARK    4  A    between atoms: C_21  and  C_24
REMARK    5  A    between atoms: C_27  and  C_29
REMARK                            x       y       z     vdW  Elec       q    Type
REMARK                         _______ _______ _______ _____ _____    ______ ____
ROOT
ATOM      1  C   UNL     1     -10.242  55.325  50.691  0.00  0.00    +0.000 A 
ATOM      2  C   UNL     1      -9.751  55.405  49.292  0.00  0.00    +0.000 A 
ATOM      3  C   UNL     1     -11.493  55.695  51.002  0.00  0.00    +0.000 A 
ATOM      4  O   UNL     1      -8.570  55.131  49.070  0.00  0.00    +0.000 OA
ATOM      5  N   UNL     1     -10.666  55.701  48.286  0.00  0.00    +0.000 N 
ATOM      6  C   UNL     1     -12.412  56.143  49.944  0.00  0.00    +0.000 A 
ATOM      7  C   UNL     1     -12.005  56.102  48.595  0.00  0.00    +0.000 A 
ATOM      8  C   UNL     1     -13.707  56.586  50.267  0.00  0.00    +0.000 A 
ATOM      9  C   UNL     1     -12.925  56.483  47.603  0.00  0.00    +0.000 A 
ATOM     10  C   UNL     1     -14.600  56.974  49.270  0.00  0.00    +0.000 A 
ATOM     11  C   UNL     1     -14.209  56.918  47.939  0.00  0.00    +0.000 A 
ENDROOT
BRANCH   1  17
ATOM     12  S   UNL     1      -7.154  54.791  53.019  0.00  0.00    +0.000 S 
ATOM     13  O   UNL     1      -7.137  55.701  54.145  0.00  0.00    +0.000 OA
ATOM     14  O   UNL     1      -5.934  54.479  52.303  0.00  0.00    +0.000 OA
ATOM     15  N   UNL     1      -8.237  55.356  51.959  0.00  0.00    +0.000 N 
ATOM     16  C   UNL     1      -7.745  53.260  53.653  0.00  0.00    +0.000 A 
ATOM     17  C   UNL     1      -9.350  54.727  51.744  0.00  0.00    +0.000 C 
ATOM     18  C   UNL     1      -9.008  52.841  53.268  0.00  0.00    +0.000 A 
ATOM     19  C   UNL     1      -6.941  52.512  54.520  0.00  0.00    +0.000 A 
ATOM     20  N   UNL     1      -9.790  53.595  52.396  0.00  0.00    +0.000 N 
ATOM     21  C   UNL     1      -9.505  51.658  53.832  0.00  0.00    +0.000 A 
ATOM     22  C   UNL     1      -7.436  51.321  55.045  0.00  0.00    +0.000 A 
ATOM     23  C   UNL     1      -8.722  50.901  54.710  0.00  0.00    +0.000 A 
ATOM     24  H   UNL     1      -8.048  56.190  51.471  0.00  0.00    +0.000 HD
ATOM     25  H   UNL     1     -10.715  53.300  52.235  0.00  0.00    +0.000 HD
ENDBRANCH   1  17
BRANCH   3  26
ATOM     26  O   UNL     1     -12.030  55.629  52.276  0.00  0.00    +0.000 OA
ATOM     27  H   UNL     1     -12.155  56.414  52.773  0.00  0.00    +0.000 HD
ENDBRANCH   3  26
BRANCH   5  28
ATOM     28  C   UNL     1     -10.175  55.672  46.904  0.00  0.00    +0.000 C 
BRANCH  28  29
ATOM     29  C   UNL     1     -10.387  54.355  46.158  0.00  0.00    +0.000 A 
ATOM     30  C   UNL     1      -9.311  53.484  45.877  0.00  0.00    +0.000 A 
ATOM     31  C   UNL     1     -11.690  53.887  45.897  0.00  0.00    +0.000 A 
ATOM     32  C   UNL     1      -9.555  52.183  45.404  0.00  0.00    +0.000 A 
ATOM     33  C   UNL     1     -11.925  52.590  45.437  0.00  0.00    +0.000 A 
ATOM     34  C   UNL     1     -10.858  51.732  45.208  0.00  0.00    +0.000 A 
BRANCH  30  35
ATOM     35  C   UNL     1      -7.949  53.881  46.079  0.00  0.00    +0.000 C 
ATOM     36  N   UNL     1      -6.847  54.200  46.270  0.00  0.00    +0.000 NA
ENDBRANCH  30  35
ENDBRANCH  28  29
ENDBRANCH   5  28
TORSDOF 5
ENDMDL
MODEL 2
REMARK VINA RESULT:      -8.7      1.446      2.015
REMARK  Name = 338249
REMARK  5 active torsions:
REMARK  status: ('A' for Active; 'I' for Inactive)
REMARK    1  A    between atoms: C_6  and  C_10
REMARK    2  A    between atoms: C_14  and  O_18
REMARK    3  A    between atoms: N_17  and  C_21
REMARK    4  A    between atoms: C_21  and  C_24
REMARK    5  A    between atoms: C_27  and  C_29
REMARK                            x       y       z     vdW  Elec       q    Type
REMARK                         _______ _______ _______ _____ _____    ______ ____
ROOT
ATOM      1  C   UNL     1     -10.376  54.999  50.520  0.00  0.00    +0.000 A 
ATOM      2  C   UNL     1      -9.919  55.139  49.114  0.00  0.00    +0.000 A 
ATOM      3  C   UNL     1     -11.587  55.435  50.896  0.00  0.00    +0.000 A 
ATOM      4  O   UNL     1      -8.768  54.798  48.837  0.00  0.00    +0.000 OA
ATOM      5  N   UNL     1     -10.838  55.567  48.160  0.00  0.00    +0.000 N 
ATOM      6  C   UNL     1     -12.501  56.018  49.900  0.00  0.00    +0.000 A 
ATOM      7  C   UNL     1     -12.135  56.040  48.538  0.00  0.00    +0.000 A 
ATOM      8  C   UNL     1     -13.750  56.529  50.292  0.00  0.00    +0.000 A 
ATOM      9  C   UNL     1     -13.051  56.551  47.604  0.00  0.00    +0.000 A 
ATOM     10  C   UNL     1     -14.639  57.046  49.352  0.00  0.00    +0.000 A 
ATOM     11  C   UNL     1     -14.290  57.052  48.009  0.00  0.00    +0.000 A 
ENDROOT
BRANCH   1  17
ATOM     12  S   UNL     1      -9.074  52.193  52.903  0.00  0.00    +0.000 S 
ATOM     13  O   UNL     1      -8.429  51.109  52.192  0.00  0.00    +0.000 OA
ATOM     14  O   UNL     1      -9.957  51.922  54.019  0.00  0.00    +0.000 OA
ATOM     15  N   UNL     1      -9.884  53.070  51.812  0.00  0.00    +0.000 N 
ATOM     16  C   UNL     1      -7.770  53.181  53.549  0.00  0.00    +0.000 A 
ATOM     17  C   UNL     1      -9.501  54.270  51.502  0.00  0.00    +0.000 C 
ATOM     18  C   UNL     1      -7.568  54.435  52.997  0.00  0.00    +0.000 A 
ATOM     19  C   UNL     1      -6.976  52.687  54.590  0.00  0.00    +0.000 A 
ATOM     20  N   UNL     1      -8.375  54.915  51.967  0.00  0.00    +0.000 N 
ATOM     21  C   UNL     1      -6.484  55.189  53.464  0.00  0.00    +0.000 A 
ATOM     22  C   UNL     1      -5.923  53.462  55.067  0.00  0.00    +0.000 A 
ATOM     23  C   UNL     1      -5.670  54.708  54.496  0.00  0.00    +0.000 A 
ATOM     24  H   UNL     1     -10.680  52.686  51.375  0.00  0.00    +0.000 HD
ATOM     25  H   UNL     1      -8.126  55.768  51.546  0.00  0.00    +0.000 HD
ENDBRANCH   1  17
BRANCH   3  26
ATOM     26  O   UNL     1     -12.093  55.321  52.179  0.00  0.00    +0.000 OA
ATOM     27  H   UNL     1     -12.871  54.822  52.333  0.00  0.00    +0.000 HD
ENDBRANCH   3  26
BRANCH   5  28
ATOM     28  C   UNL     1     -10.388  55.597  46.764  0.00  0.00    +0.000 C 
BRANCH  28  29
ATOM     29  C   UNL     1     -10.552  54.288  45.992  0.00  0.00    +0.000 A 
ATOM     30  C   UNL     1      -9.436  53.524  45.588  0.00  0.00    +0.000 A 
ATOM     31  C   UNL     1     -11.829  53.716  45.827  0.00  0.00    +0.000 A 
ATOM     32  C   UNL     1      -9.609  52.221  45.091  0.00  0.00    +0.000 A 
ATOM     33  C   UNL     1     -11.993  52.418  45.342  0.00  0.00    +0.000 A 
ATOM     34  C   UNL     1     -10.881  51.663  44.990  0.00  0.00    +0.000 A 
BRANCH  30  35
ATOM     35  C   UNL     1      -8.100  54.033  45.686  0.00  0.00    +0.000 C 
ATOM     36  N   UNL     1      -7.014  54.437  45.793  0.00  0.00    +0.000 NA
ENDBRANCH  30  35
ENDBRANCH  28  29
ENDBRANCH   5  28
TORSDOF 5
ENDMDL
MODEL 3
REMARK VINA RESULT:      -8.7      3.212      6.501
REMARK  Name = 338249
REMARK  5 active torsions:
REMARK  status: ('A' for Active; 'I' for Inactive)
REMARK    1  A    between atoms: C_6  and  C_10
REMARK    2  A    between atoms: C_14  and  O_18
REMARK    3  A    between atoms: N_17  and  C_21
REMARK    4  A    between atoms: C_21  and  C_24
REMARK    5  A    between atoms: C_27  and  C_29
REMARK                            x       y       z     vdW  Elec       q    Type
REMARK                         _______ _______ _______ _____ _____    ______ ____
ROOT
ATOM      1  C   UNL     1     -12.188  54.160  50.290  0.00  0.00    +0.000 A 
ATOM      2  C   UNL     1     -11.981  53.665  48.905  0.00  0.00    +0.000 A 
ATOM      3  C   UNL     1     -11.570  53.576  51.328  0.00  0.00    +0.000 A 
ATOM      4  O   UNL     1     -12.634  54.182  47.997  0.00  0.00    +0.000 OA
ATOM      5  N   UNL     1     -11.000  52.703  48.687  0.00  0.00    +0.000 N 
ATOM      6  C   UNL     1     -10.638  52.461  51.096  0.00  0.00    +0.000 A 
ATOM      7  C   UNL     1     -10.330  52.064  49.779  0.00  0.00    +0.000 A 
ATOM      8  C   UNL     1     -10.028  51.806  52.180  0.00  0.00    +0.000 A 
ATOM      9  C   UNL     1      -9.394  51.034  49.588  0.00  0.00    +0.000 A 
ATOM     10  C   UNL     1      -9.113  50.776  51.971  0.00  0.00    +0.000 A 
ATOM     11  C   UNL     1      -8.794  50.395  50.675  0.00  0.00    +0.000 A 
ENDROOT
BRANCH   1  17
ATOM     12  S   UNL     1     -15.186  56.425  51.348  0.00  0.00    +0.000 S 
ATOM     13  O   UNL     1     -15.217  56.686  52.772  0.00  0.00    +0.000 OA
ATOM     14  O   UNL     1     -16.409  56.148  50.622  0.00  0.00    +0.000 OA
ATOM     15  N   UNL     1     -14.159  55.201  51.105  0.00  0.00    +0.000 N 
ATOM     16  C   UNL     1     -14.508  57.873  50.614  0.00  0.00    +0.000 A 
ATOM     17  C   UNL     1     -13.023  55.391  50.508  0.00  0.00    +0.000 C 
ATOM     18  C   UNL     1     -13.237  57.791  50.068  0.00  0.00    +0.000 A 
ATOM     19  C   UNL     1     -15.253  59.057  50.598  0.00  0.00    +0.000 A 
ATOM     20  N   UNL     1     -12.513  56.600  50.085  0.00  0.00    +0.000 N 
ATOM     21  C   UNL     1     -12.671  58.963  49.550  0.00  0.00    +0.000 A 
ATOM     22  C   UNL     1     -14.689  60.205  50.048  0.00  0.00    +0.000 A 
ATOM     23  C   UNL     1     -13.394  60.161  49.535  0.00  0.00    +0.000 A 
ATOM     24  H   UNL     1     -14.399  54.297  51.414  0.00  0.00    +0.000 HD
ATOM     25  H   UNL     1     -11.580  56.624  49.774  0.00  0.00    +0.000 HD
ENDBRANCH   1  17
BRANCH   3  26
ATOM     26  O   UNL     1     -11.694  53.991  52.642  0.00  0.00    +0.000 OA
ATOM     27  H   UNL     1     -11.414  54.850  52.890  0.00  0.00    +0.000 HD
ENDBRANCH   3  26
BRANCH   5  28
ATOM     28  C   UNL     1     -10.747  52.309  47.296  0.00  0.00    +0.000 C 
BRANCH  28  29
ATOM     29  C   UNL     1      -9.608  53.053  46.599  0.00  0.00    +0.000 A 
ATOM     30  C   UNL     1      -9.375  52.914  45.213  0.00  0.00    +0.000 A 
ATOM     31  C   UNL     1      -8.878  54.043  47.287  0.00  0.00    +0.000 A 
ATOM     32  C   UNL     1      -8.482  53.775  44.553  0.00  0.00    +0.000 A 
ATOM     33  C   UNL     1      -8.001  54.901  46.623  0.00  0.00    +0.000 A 
ATOM     34  C   UNL     1      -7.816  54.779  45.252  0.00  0.00    +0.000 A 
BRANCH  30  35
ATOM     35  C   UNL     1     -10.044  51.915  44.434  0.00  0.00    +0.000 C 
ATOM     36  N   UNL     1     -10.567  51.105  43.782  0.00  0.00    +0.000 NA
ENDBRANCH  30  35
ENDBRANCH  28  29
ENDBRANCH   5  28
TORSDOF 5
ENDMDL
MODEL 4
REMARK VINA RESULT:      -8.6      3.664      7.289
REMARK  Name = 338249
REMARK  5 active torsions:
REMARK  status: ('A' for Active; 'I' for Inactive)
REMARK    1  A    between atoms: C_6  and  C_10
REMARK    2  A    between atoms: C_14  and  O_18
REMARK    3  A    between atoms: N_17  and  C_21
REMARK    4  A    between atoms: C_21  and  C_24
REMARK    5  A    between atoms: C_27  and  C_29
REMARK                            x       y       z     vdW  Elec       q    Type
REMARK                         _______ _______ _______ _____ _____    ______ ____
ROOT
ATOM      1  C   UNL     1     -11.184  54.592  50.838  0.00  0.00    +0.000 A 
ATOM      2  C   UNL     1      -9.769  54.969  50.588  0.00  0.00    +0.000 A 
ATOM      3  C   UNL     1     -11.507  53.343  51.206  0.00  0.00    +0.000 A 
ATOM      4  O   UNL     1      -9.532  56.104  50.173  0.00  0.00    +0.000 OA
ATOM      5  N   UNL     1      -8.773  54.053  50.914  0.00  0.00    +0.000 N 
ATOM      6  C   UNL     1     -10.450  52.340  51.412  0.00  0.00    +0.000 A 
ATOM      7  C   UNL     1      -9.095  52.714  51.306  0.00  0.00    +0.000 A 
ATOM      8  C   UNL     1     -10.782  51.015  51.743  0.00  0.00    +0.000 A 
ATOM      9  C   UNL     1      -8.108  51.748  51.563  0.00  0.00    +0.000 A 
ATOM     10  C   UNL     1      -9.789  50.066  51.980  0.00  0.00    +0.000 A 
ATOM     11  C   UNL     1      -8.454  50.435  51.895  0.00  0.00    +0.000 A 
ENDROOT
BRANCH   1  17
ATOM     12  S   UNL     1     -13.573  57.311  49.376  0.00  0.00    +0.000 S 
ATOM     13  O   UNL     1     -14.718  56.744  48.696  0.00  0.00    +0.000 OA
ATOM     14  O   UNL     1     -12.880  58.458  48.825  0.00  0.00    +0.000 OA
ATOM     15  N   UNL     1     -12.500  56.120  49.588  0.00  0.00    +0.000 N 
ATOM     16  C   UNL     1     -14.160  57.817  50.955  0.00  0.00    +0.000 A 
ATOM     17  C   UNL     1     -12.245  55.655  50.772  0.00  0.00    +0.000 C 
ATOM     18  C   UNL     1     -13.736  57.104  52.066  0.00  0.00    +0.000 A 
ATOM     19  C   UNL     1     -15.030  58.908  51.056  0.00  0.00    +0.000 A 
ATOM     20  N   UNL     1     -12.862  56.026  51.947  0.00  0.00    +0.000 N 
ATOM     21  C   UNL     1     -14.262  57.463  53.313  0.00  0.00    +0.000 A 
ATOM     22  C   UNL     1     -15.517  59.274  52.307  0.00  0.00    +0.000 A 
ATOM     23  C   UNL     1     -15.143  58.544  53.434  0.00  0.00    +0.000 A 
ATOM     24  H   UNL     1     -12.035  55.742  48.807  0.00  0.00    +0.000 HD
ATOM     25  H   UNL     1     -12.673  55.496  52.755  0.00  0.00    +0.000 HD
ENDBRANCH   1  17
BRANCH   3  26
ATOM     26  O   UNL     1     -12.797  52.921  51.478  0.00  0.00    +0.000 OA
ATOM     27  H   UNL     1     -12.940  52.182  52.036  0.00  0.00    +0.000 HD
ENDBRANCH   3  26
BRANCH   5  28
ATOM     28  C   UNL     1      -7.382  54.491  50.753  0.00  0.00    +0.000 C 
BRANCH  28  29
ATOM     29  C   UNL     1      -6.545  54.502  52.032  0.00  0.00    +0.000 A 
ATOM     30  C   UNL     1      -5.193  54.094  52.032  0.00  0.00    +0.000 A 
ATOM     31  C   UNL     1      -7.046  55.099  53.205  0.00  0.00    +0.000 A 
ATOM     32  C   UNL     1      -4.380  54.330  53.154  0.00  0.00    +0.000 A 
ATOM     33  C   UNL     1      -6.230  55.339  54.312  0.00  0.00    +0.000 A 
ATOM     34  C   UNL     1      -4.891  54.971  54.279  0.00  0.00    +0.000 A 
BRANCH  30  35
ATOM     35  C   UNL     1      -4.601  53.449  50.897  0.00  0.00    +0.000 C 
ATOM     36  N   UNL     1      -4.137  52.904  49.981  0.00  0.00    +0.000 NA
ENDBRANCH  30  35
ENDBRANCH  28  29
ENDBRANCH   5  28
TORSDOF 5
ENDMDL
MODEL 5
REMARK VINA RESULT:      -8.6      3.547      7.732
REMARK  Name = 338249
REMARK  5 active torsions:
REMARK  status: ('A' for Active; 'I' for Inactive)
REMARK    1  A    between atoms: C_6  and  C_10
REMARK    2  A    between atoms: C_14  and  O_18
REMARK    3  A    between atoms: N_17  and  C_21
REMARK    4  A    between atoms: C_21  and  C_24
REMARK    5  A    between atoms: C_27  and  C_29
REMARK                            x       y       z     vdW  Elec       q    Type
REMARK                         _______ _______ _______ _____ _____    ______ ____
ROOT
ATOM      1  C   UNL     1     -11.721  54.060  51.036  0.00  0.00    +0.000 A 
ATOM      2  C   UNL     1     -10.919  53.942  52.281  0.00  0.00    +0.000 A 
ATOM      3  C   UNL     1     -11.786  53.044  50.164  0.00  0.00    +0.000 A 
ATOM      4  O   UNL     1     -10.823  54.931  53.010  0.00  0.00    +0.000 OA
ATOM      5  N   UNL     1     -10.385  52.700  52.609  0.00  0.00    +0.000 N 
ATOM      6  C   UNL     1     -11.098  51.776  50.456  0.00  0.00    +0.000 A 
ATOM      7  C   UNL     1     -10.441  51.602  51.692  0.00  0.00    +0.000 A 
ATOM      8  C   UNL     1     -11.115  50.725  49.523  0.00  0.00    +0.000 A 
ATOM      9  C   UNL     1      -9.841  50.361  51.965  0.00  0.00    +0.000 A 
ATOM     10  C   UNL     1     -10.501  49.507  49.807  0.00  0.00    +0.000 A 
ATOM     11  C   UNL     1      -9.869  49.325  51.029  0.00  0.00    +0.000 A 
ENDROOT
BRANCH   1  17
ATOM     12  S   UNL     1     -13.275  57.163  49.249  0.00  0.00    +0.000 S 
ATOM     13  O   UNL     1     -14.363  56.811  48.360  0.00  0.00    +0.000 OA
ATOM     14  O   UNL     1     -12.299  58.161  48.862  0.00  0.00    +0.000 OA
ATOM     15  N   UNL     1     -12.492  55.797  49.615  0.00  0.00    +0.000 N 
ATOM     16  C   UNL     1     -14.036  57.775  50.712  0.00  0.00    +0.000 A 
ATOM     17  C   UNL     1     -12.542  55.299  50.812  0.00  0.00    +0.000 C 
ATOM     18  C   UNL     1     -13.955  57.003  51.860  0.00  0.00    +0.000 A 
ATOM     19  C   UNL     1     -14.698  59.008  50.686  0.00  0.00    +0.000 A 
ATOM     20  N   UNL     1     -13.284  55.782  51.869  0.00  0.00    +0.000 N 
ATOM     21  C   UNL     1     -14.624  57.459  53.003  0.00  0.00    +0.000 A 
ATOM     22  C   UNL     1     -15.328  59.463  51.841  0.00  0.00    +0.000 A 
ATOM     23  C   UNL     1     -15.301  58.683  52.996  0.00  0.00    +0.000 A 
ATOM     24  H   UNL     1     -11.969  55.336  48.920  0.00  0.00    +0.000 HD
ATOM     25  H   UNL     1     -13.342  55.231  52.682  0.00  0.00    +0.000 HD
ENDBRANCH   1  17
BRANCH   3  26
ATOM     26  O   UNL     1     -12.528  53.068  48.995  0.00  0.00    +0.000 OA
ATOM     27  H   UNL     1     -13.166  53.741  48.859  0.00  0.00    +0.000 HD
ENDBRANCH   3  26
BRANCH   5  28
ATOM     28  C   UNL     1      -9.686  52.589  53.894  0.00  0.00    +0.000 C 
BRANCH  28  29
ATOM     29  C   UNL     1      -8.160  52.648  53.818  0.00  0.00    +0.000 A 
ATOM     30  C   UNL     1      -7.350  51.737  54.532  0.00  0.00    +0.000 A 
ATOM     31  C   UNL     1      -7.525  53.494  52.887  0.00  0.00    +0.000 A 
ATOM     32  C   UNL     1      -5.971  51.656  54.270  0.00  0.00    +0.000 A 
ATOM     33  C   UNL     1      -6.158  53.401  52.625  0.00  0.00    +0.000 A 
ATOM     34  C   UNL     1      -5.383  52.469  53.304  0.00  0.00    +0.000 A 
BRANCH  30  35
ATOM     35  C   UNL     1      -7.898  50.859  55.522  0.00  0.00    +0.000 C 
ATOM     36  N   UNL     1      -8.342  50.125  56.308  0.00  0.00    +0.000 NA
ENDBRANCH  30  35
ENDBRANCH  28  29
ENDBRANCH   5  28
TORSDOF 5
ENDMDL
MODEL 6
REMARK VINA RESULT:      -8.5      3.190      6.697
REMARK  Name = 338249
REMARK  5 active torsions:
REMARK  status: ('A' for Active; 'I' for Inactive)
REMARK    1  A    between atoms: C_6  and  C_10
REMARK    2  A    between atoms: C_14  and  O_18
REMARK    3  A    between atoms: N_17  and  C_21
REMARK    4  A    between atoms: C_21  and  C_24
REMARK    5  A    between atoms: C_27  and  C_29
REMARK                            x       y       z     vdW  Elec       q    Type
REMARK                         _______ _______ _______ _____ _____    ______ ____
ROOT
ATOM      1  C   UNL     1     -11.701  55.846  48.707  0.00  0.00    +0.000 A 
ATOM      2  C   UNL     1     -10.675  55.130  49.508  0.00  0.00    +0.000 A 
ATOM      3  C   UNL     1     -11.899  55.541  47.416  0.00  0.00    +0.000 A 
ATOM      4  O   UNL     1     -10.474  55.502  50.666  0.00  0.00    +0.000 OA
ATOM      5  N   UNL     1     -10.052  54.020  48.945  0.00  0.00    +0.000 N 
ATOM      6  C   UNL     1     -11.130  54.454  46.790  0.00  0.00    +0.000 A 
ATOM      7  C   UNL     1     -10.246  53.679  47.568  0.00  0.00    +0.000 A 
ATOM      8  C   UNL     1     -11.290  54.164  45.424  0.00  0.00    +0.000 A 
ATOM      9  C   UNL     1      -9.568  52.612  46.955  0.00  0.00    +0.000 A 
ATOM     10  C   UNL     1     -10.597  53.111  44.830  0.00  0.00    +0.000 A 
ATOM     11  C   UNL     1      -9.741  52.334  45.597  0.00  0.00    +0.000 A 
ENDROOT
BRANCH   1  17
ATOM     12  S   UNL     1     -13.538  59.206  49.463  0.00  0.00    +0.000 S 
ATOM     13  O   UNL     1     -14.692  59.418  48.613  0.00  0.00    +0.000 OA
ATOM     14  O   UNL     1     -12.643  60.300  49.777  0.00  0.00    +0.000 OA
ATOM     15  N   UNL     1     -12.671  58.009  48.808  0.00  0.00    +0.000 N 
ATOM     16  C   UNL     1     -14.178  58.649  51.004  0.00  0.00    +0.000 A 
ATOM     17  C   UNL     1     -12.587  56.852  49.388  0.00  0.00    +0.000 C 
ATOM     18  C   UNL     1     -13.957  57.328  51.361  0.00  0.00    +0.000 A 
ATOM     19  C   UNL     1     -14.886  59.535  51.822  0.00  0.00    +0.000 A 
ATOM     20  N   UNL     1     -13.242  56.462  50.537  0.00  0.00    +0.000 N 
ATOM     21  C   UNL     1     -14.530  56.868  52.553  0.00  0.00    +0.000 A 
ATOM     22  C   UNL     1     -15.420  59.072  53.022  0.00  0.00    +0.000 A 
ATOM     23  C   UNL     1     -15.252  57.736  53.381  0.00  0.00    +0.000 A 
ATOM     24  H   UNL     1     -12.201  58.160  47.956  0.00  0.00    +0.000 HD
ATOM     25  H   UNL     1     -13.200  55.513  50.792  0.00  0.00    +0.000 HD
ENDBRANCH   1  17
BRANCH   3  26
ATOM     26  O   UNL     1     -12.848  56.146  46.610  0.00  0.00    +0.000 OA
ATOM     27  H   UNL     1     -13.637  56.483  46.988  0.00  0.00    +0.000 HD
ENDBRANCH   3  26
BRANCH   5  28
ATOM     28  C   UNL     1      -9.120  53.272  49.796  0.00  0.00    +0.000 C 
BRANCH  28  29
ATOM     29  C   UNL     1      -7.732  53.893  49.954  0.00  0.00    +0.000 A 
ATOM     30  C   UNL     1      -7.145  54.076  51.225  0.00  0.00    +0.000 A 
ATOM     31  C   UNL     1      -6.924  54.126  48.823  0.00  0.00    +0.000 A 
ATOM     32  C   UNL     1      -5.789  54.427  51.338  0.00  0.00    +0.000 A 
ATOM     33  C   UNL     1      -5.575  54.465  48.943  0.00  0.00    +0.000 A 
ATOM     34  C   UNL     1      -5.003  54.598  50.201  0.00  0.00    +0.000 A 
BRANCH  30  35
ATOM     35  C   UNL     1      -7.895  53.895  52.433  0.00  0.00    +0.000 C 
ATOM     36  N   UNL     1      -8.520  53.769  53.406  0.00  0.00    +0.000 NA
ENDBRANCH  30  35
ENDBRANCH  28  29
ENDBRANCH   5  28
TORSDOF 5
ENDMDL
MODEL 7
REMARK VINA RESULT:      -8.4      3.500      6.306
REMARK  Name = 338249
REMARK  5 active torsions:
REMARK  status: ('A' for Active; 'I' for Inactive)
REMARK    1  A    between atoms: C_6  and  C_10
REMARK    2  A    between atoms: C_14  and  O_18
REMARK    3  A    between atoms: N_17  and  C_21
REMARK    4  A    between atoms: C_21  and  C_24
REMARK    5  A    between atoms: C_27  and  C_29
REMARK                            x       y       z     vdW  Elec       q    Type
REMARK                         _______ _______ _______ _____ _____    ______ ____
ROOT
ATOM      1  C   UNL     1     -12.190  54.262  49.853  0.00  0.00    +0.000 A 
ATOM      2  C   UNL     1     -11.342  54.300  48.634  0.00  0.00    +0.000 A 
ATOM      3  C   UNL     1     -12.118  53.230  50.707  0.00  0.00    +0.000 A 
ATOM      4  O   UNL     1     -11.504  55.227  47.839  0.00  0.00    +0.000 OA
ATOM      5  N   UNL     1     -10.349  53.336  48.489  0.00  0.00    +0.000 N 
ATOM      6  C   UNL     1     -11.157  52.142  50.468  0.00  0.00    +0.000 A 
ATOM      7  C   UNL     1     -10.255  52.226  49.388  0.00  0.00    +0.000 A 
ATOM      8  C   UNL     1     -11.113  51.030  51.326  0.00  0.00    +0.000 A 
ATOM      9  C   UNL     1      -9.312  51.198  49.218  0.00  0.00    +0.000 A 
ATOM     10  C   UNL     1     -10.180  50.013  51.133  0.00  0.00    +0.000 A 
ATOM     11  C   UNL     1      -9.278  50.101  50.081  0.00  0.00    +0.000 A 
ENDROOT
BRANCH   1  17
ATOM     12  S   UNL     1     -15.265  56.337  51.070  0.00  0.00    +0.000 S 
ATOM     13  O   UNL     1     -15.323  56.460  52.512  0.00  0.00    +0.000 OA
ATOM     14  O   UNL     1     -16.469  56.098  50.301  0.00  0.00    +0.000 OA
ATOM     15  N   UNL     1     -14.200  55.168  50.729  0.00  0.00    +0.000 N 
ATOM     16  C   UNL     1     -14.616  57.865  50.488  0.00  0.00    +0.000 A 
ATOM     17  C   UNL     1     -13.062  55.444  50.173  0.00  0.00    +0.000 C 
ATOM     18  C   UNL     1     -13.336  57.869  49.958  0.00  0.00    +0.000 A 
ATOM     19  C   UNL     1     -15.393  59.025  50.572  0.00  0.00    +0.000 A 
ATOM     20  N   UNL     1     -12.580  56.701  49.874  0.00  0.00    +0.000 N 
ATOM     21  C   UNL     1     -12.795  59.099  49.563  0.00  0.00    +0.000 A 
ATOM     22  C   UNL     1     -14.854  60.235  50.142  0.00  0.00    +0.000 A 
ATOM     23  C   UNL     1     -13.551  60.273  49.649  0.00  0.00    +0.000 A 
ATOM     24  H   UNL     1     -14.420  54.233  50.948  0.00  0.00    +0.000 HD
ATOM     25  H   UNL     1     -11.644  56.778  49.583  0.00  0.00    +0.000 HD
ENDBRANCH   1  17
BRANCH   3  26
ATOM     26  O   UNL     1     -12.857  53.132  51.873  0.00  0.00    +0.000 OA
ATOM     27  H   UNL     1     -12.750  53.771  52.551  0.00  0.00    +0.000 HD
ENDBRANCH   3  26
BRANCH   5  28
ATOM     28  C   UNL     1      -9.461  53.460  47.328  0.00  0.00    +0.000 C 
BRANCH  28  29
ATOM     29  C   UNL     1     -10.017  52.910  46.015  0.00  0.00    +0.000 A 
ATOM     30  C   UNL     1      -9.391  53.179  44.778  0.00  0.00    +0.000 A 
ATOM     31  C   UNL     1     -11.063  51.966  46.024  0.00  0.00    +0.000 A 
ATOM     32  C   UNL     1      -9.776  52.481  43.620  0.00  0.00    +0.000 A 
ATOM     33  C   UNL     1     -11.433  51.270  44.873  0.00  0.00    +0.000 A 
ATOM     34  C   UNL     1     -10.777  51.514  43.674  0.00  0.00    +0.000 A 
BRANCH  30  35
ATOM     35  C   UNL     1      -8.340  54.146  44.661  0.00  0.00    +0.000 C 
ATOM     36  N   UNL     1      -7.503  54.950  44.579  0.00  0.00    +0.000 NA
ENDBRANCH  30  35
ENDBRANCH  28  29
ENDBRANCH   5  28
TORSDOF 5
ENDMDL
MODEL 8
REMARK VINA RESULT:      -8.4      2.286      5.097
REMARK  Name = 338249
REMARK  5 active torsions:
REMARK  status: ('A' for Active; 'I' for Inactive)
REMARK    1  A    between atoms: C_6  and  C_10
REMARK    2  A    between atoms: C_14  and  O_18
REMARK    3  A    between atoms: N_17  and  C_21
REMARK    4  A    between atoms: C_21  and  C_24
REMARK    5  A    between atoms: C_27  and  C_29
REMARK                            x       y       z     vdW  Elec       q    Type
REMARK                         _______ _______ _______ _____ _____    ______ ____
ROOT
ATOM      1  C   UNL     1      -9.243  54.661  50.291  0.00  0.00    +0.000 A 
ATOM      2  C   UNL     1     -10.684  54.737  50.641  0.00  0.00    +0.000 A 
ATOM      3  C   UNL     1      -8.850  54.586  49.011  0.00  0.00    +0.000 A 
ATOM      4  O   UNL     1     -10.998  54.721  51.833  0.00  0.00    +0.000 OA
ATOM      5  N   UNL     1     -11.606  54.908  49.613  0.00  0.00    +0.000 N 
ATOM      6  C   UNL     1      -9.849  54.627  47.932  0.00  0.00    +0.000 A 
ATOM      7  C   UNL     1     -11.210  54.829  48.240  0.00  0.00    +0.000 A 
ATOM      8  C   UNL     1      -9.453  54.494  46.590  0.00  0.00    +0.000 A 
ATOM      9  C   UNL     1     -12.133  54.920  47.184  0.00  0.00    +0.000 A 
ATOM     10  C   UNL     1     -10.385  54.571  45.557  0.00  0.00    +0.000 A 
ATOM     11  C   UNL     1     -11.723  54.789  45.855  0.00  0.00    +0.000 A 
ENDROOT
BRANCH   1  17
ATOM     12  S   UNL     1      -7.374  55.980  53.455  0.00  0.00    +0.000 S 
ATOM     13  O   UNL     1      -8.013  55.579  54.691  0.00  0.00    +0.000 OA
ATOM     14  O   UNL     1      -6.841  57.318  53.300  0.00  0.00    +0.000 OA
ATOM     15  N   UNL     1      -8.427  55.708  52.259  0.00  0.00    +0.000 N 
ATOM     16  C   UNL     1      -6.009  54.890  53.251  0.00  0.00    +0.000 A 
ATOM     17  C   UNL     1      -8.219  54.770  51.387  0.00  0.00    +0.000 C 
ATOM     18  C   UNL     1      -6.073  53.950  52.235  0.00  0.00    +0.000 A 
ATOM     19  C   UNL     1      -4.905  54.994  54.104  0.00  0.00    +0.000 A 
ATOM     20  N   UNL     1      -7.177  53.868  51.389  0.00  0.00    +0.000 N 
ATOM     21  C   UNL     1      -5.017  53.037  52.121  0.00  0.00    +0.000 A 
ATOM     22  C   UNL     1      -3.847  54.100  53.956  0.00  0.00    +0.000 A 
ATOM     23  C   UNL     1      -3.909  53.115  52.973  0.00  0.00    +0.000 A 
ATOM     24  H   UNL     1      -9.239  56.262  52.191  0.00  0.00    +0.000 HD
ATOM     25  H   UNL     1      -7.213  53.120  50.751  0.00  0.00    +0.000 HD
ENDBRANCH   1  17
BRANCH   3  26
ATOM     26  O   UNL     1      -7.528  54.535  48.604  0.00  0.00    +0.000 OA
ATOM     27  H   UNL     1      -7.061  53.724  48.632  0.00  0.00    +0.000 HD
ENDBRANCH   3  26
BRANCH   5  28
ATOM     28  C   UNL     1     -13.012  55.083  49.997  0.00  0.00    +0.000 C 
BRANCH  28  29
ATOM     29  C   UNL     1     -13.341  56.397  50.704  0.00  0.00    +0.000 A 
ATOM     30  C   UNL     1     -13.864  57.504  50.000  0.00  0.00    +0.000 A 
ATOM     31  C   UNL     1     -13.309  56.475  52.111  0.00  0.00    +0.000 A 
ATOM     32  C   UNL     1     -14.375  58.612  50.697  0.00  0.00    +0.000 A 
ATOM     33  C   UNL     1     -13.828  57.575  52.796  0.00  0.00    +0.000 A 
ATOM     34  C   UNL     1     -14.378  58.636  52.089  0.00  0.00    +0.000 A 
BRANCH  30  35
ATOM     35  C   UNL     1     -13.909  57.531  48.568  0.00  0.00    +0.000 C 
ATOM     36  N   UNL     1     -13.970  57.567  47.407  0.00  0.00    +0.000 NA
ENDBRANCH  30  35
ENDBRANCH  28  29
ENDBRANCH   5  28
TORSDOF 5
ENDMDL
MODEL 9
REMARK VINA RESULT:      -8.2      3.020      6.598
REMARK  Name = 338249
REMARK  5 active torsions:
REMARK  status: ('A' for Active; 'I' for Inactive)
REMARK    1  A    between atoms: C_6  and  C_10
REMARK    2  A    between atoms: C_14  and  O_18
REMARK    3  A    between atoms: N_17  and  C_21
REMARK    4  A    between atoms: C_21  and  C_24
REMARK    5  A    between atoms: C_27  and  C_29
REMARK                            x       y       z     vdW  Elec       q    Type
REMARK                         _______ _______ _______ _____ _____    ______ ____
ROOT
ATOM      1  C   UNL     1     -11.499  56.141  48.671  0.00  0.00    +0.000 A 
ATOM      2  C   UNL     1     -10.291  55.674  49.398  0.00  0.00    +0.000 A 
ATOM      3  C   UNL     1     -11.783  55.680  47.444  0.00  0.00    +0.000 A 
ATOM      4  O   UNL     1     -10.029  56.189  50.487  0.00  0.00    +0.000 OA
ATOM      5  N   UNL     1      -9.561  54.620  48.859  0.00  0.00    +0.000 N 
ATOM      6  C   UNL     1     -10.920  54.663  46.822  0.00  0.00    +0.000 A 
ATOM      7  C   UNL     1      -9.844  54.114  47.550  0.00  0.00    +0.000 A 
ATOM      8  C   UNL     1     -11.177  54.214  45.516  0.00  0.00    +0.000 A 
ATOM      9  C   UNL     1      -9.072  53.104  46.950  0.00  0.00    +0.000 A 
ATOM     10  C   UNL     1     -10.391  53.223  44.932  0.00  0.00    +0.000 A 
ATOM     11  C   UNL     1      -9.343  52.666  45.652  0.00  0.00    +0.000 A 
ENDROOT
BRANCH   1  17
ATOM     12  S   UNL     1     -13.590  59.339  49.477  0.00  0.00    +0.000 S 
ATOM     13  O   UNL     1     -14.760  59.470  48.634  0.00  0.00    +0.000 OA
ATOM     14  O   UNL     1     -12.781  60.495  49.802  0.00  0.00    +0.000 OA
ATOM     15  N   UNL     1     -12.635  58.221  48.803  0.00  0.00    +0.000 N 
ATOM     16  C   UNL     1     -14.177  58.714  51.013  0.00  0.00    +0.000 A 
ATOM     17  C   UNL     1     -12.458  57.067  49.368  0.00  0.00    +0.000 C 
ATOM     18  C   UNL     1     -13.852  57.410  51.352  0.00  0.00    +0.000 A 
ATOM     19  C   UNL     1     -14.948  59.532  51.845  0.00  0.00    +0.000 A 
ATOM     20  N   UNL     1     -13.075  56.613  50.514  0.00  0.00    +0.000 N 
ATOM     21  C   UNL     1     -14.382  56.892  52.541  0.00  0.00    +0.000 A 
ATOM     22  C   UNL     1     -15.439  59.014  53.040  0.00  0.00    +0.000 A 
ATOM     23  C   UNL     1     -15.165  57.690  53.382  0.00  0.00    +0.000 A 
ATOM     24  H   UNL     1     -12.181  58.419  47.952  0.00  0.00    +0.000 HD
ATOM     25  H   UNL     1     -12.958  55.667  50.757  0.00  0.00    +0.000 HD
ENDBRANCH   1  17
BRANCH   3  26
ATOM     26  O   UNL     1     -12.898  56.049  46.713  0.00  0.00    +0.000 OA
ATOM     27  H   UNL     1     -12.870  56.811  46.168  0.00  0.00    +0.000 HD
ENDBRANCH   3  26
BRANCH   5  28
ATOM     28  C   UNL     1      -8.434  54.112  49.649  0.00  0.00    +0.000 C 
BRANCH  28  29
ATOM     29  C   UNL     1      -8.776  53.002  50.643  0.00  0.00    +0.000 A 
ATOM     30  C   UNL     1      -8.031  52.818  51.828  0.00  0.00    +0.000 A 
ATOM     31  C   UNL     1      -9.960  52.253  50.494  0.00  0.00    +0.000 A 
ATOM     32  C   UNL     1      -8.497  51.953  52.833  0.00  0.00    +0.000 A 
ATOM     33  C   UNL     1     -10.422  51.404  51.500  0.00  0.00    +0.000 A 
ATOM     34  C   UNL     1      -9.700  51.267  52.678  0.00  0.00    +0.000 A 
BRANCH  30  35
ATOM     35  C   UNL     1      -6.797  53.510  52.057  0.00  0.00    +0.000 C 
ATOM     36  N   UNL     1      -5.804  54.078  52.269  0.00  0.00    +0.000 NA
ENDBRANCH  30  35
ENDBRANCH  28  29
ENDBRANCH   5  28
TORSDOF 5
ENDMDL
