MODEL 1
REMARK VINA RESULT:      -8.1      0.000      0.000
REMARK  Name = 338093
REMARK  7 active torsions:
REMARK  status: ('A' for Active; 'I' for Inactive)
REMARK    1  A    between atoms: C_7  and  O_9
REMARK    2  A    between atoms: C_10  and  C_13
REMARK    3  A    between atoms: N_11  and  C_14
REMARK    4  A    between atoms: C_14  and  C_18
REMARK    5  A    between atoms: C_18  and  C_21
REMARK    6  A    between atoms: C_21  and  C_26
REMARK    7  A    between atoms: C_21  and  C_27
REMARK                            x       y       z     vdW  Elec       q    Type
REMARK                         _______ _______ _______ _____ _____    ______ ____
ROOT
ATOM      1 CL   UNL     1      -9.221  53.806  44.761  0.00  0.00    +0.000 Cl
ATOM      2  C   UNL     1     -10.102  54.433  46.098  0.00  0.00    +0.000 A 
ATOM      3  C   UNL     1      -9.568  54.346  47.381  0.00  0.00    +0.000 A 
ATOM      4  C   UNL     1     -11.364  54.974  45.900  0.00  0.00    +0.000 A 
ATOM      5  C   UNL     1     -10.304  54.799  48.491  0.00  0.00    +0.000 A 
ATOM      6  C   UNL     1     -12.090  55.460  46.987  0.00  0.00    +0.000 A 
ATOM      7  C   UNL     1      -9.883  54.494  49.871  0.00  0.00    +0.000 A 
ATOM      8  C   UNL     1     -11.572  55.388  48.290  0.00  0.00    +0.000 A 
ATOM      9  C   UNL     1     -10.740  54.706  50.882  0.00  0.00    +0.000 A 
ATOM     10  N   UNL     1     -12.301  55.874  49.418  0.00  0.00    +0.000 N 
ATOM     11  C   UNL     1     -11.865  55.649  50.718  0.00  0.00    +0.000 A 
ATOM     12  O   UNL     1     -12.410  56.147  51.703  0.00  0.00    +0.000 OA
ENDROOT
BRANCH   9  13
ATOM     13  C   UNL     1     -10.468  54.074  52.204  0.00  0.00    +0.000 C 
ATOM     14  N   UNL     1     -10.516  52.768  52.298  0.00  0.00    +0.000 N 
ATOM     15  N   UNL     1     -10.064  54.881  53.266  0.00  0.00    +0.000 N 
ATOM     16  S   UNL     1      -9.798  52.107  53.606  0.00  0.00    +0.000 S 
ATOM     17  C   UNL     1      -8.715  54.545  53.572  0.00  0.00    +0.000 A 
ATOM     18  O   UNL     1      -9.276  50.801  53.263  0.00  0.00    +0.000 OA
ATOM     19  O   UNL     1     -10.650  52.302  54.768  0.00  0.00    +0.000 OA
ATOM     20  C   UNL     1      -8.405  53.201  53.824  0.00  0.00    +0.000 A 
ATOM     21  C   UNL     1      -7.706  55.423  53.195  0.00  0.00    +0.000 A 
ATOM     22  C   UNL     1      -7.097  52.735  53.796  0.00  0.00    +0.000 A 
ATOM     23  C   UNL     1      -6.401  54.954  53.085  0.00  0.00    +0.000 A 
ATOM     24  C   UNL     1      -6.093  53.626  53.409  0.00  0.00    +0.000 A 
ATOM     25  H   UNL     1     -10.962  52.215  51.615  0.00  0.00    +0.000 HD
ATOM     26  H   UNL     1     -10.611  55.561  53.721  0.00  0.00    +0.000 HD
ENDBRANCH   9  13
BRANCH   7  27
ATOM     27  O   UNL     1      -8.660  53.874  50.071  0.00  0.00    +0.000 OA
ATOM     28  H   UNL     1      -8.455  53.082  49.614  0.00  0.00    +0.000 HD
ENDBRANCH   7  27
BRANCH  10  29
ATOM     29  C   UNL     1     -13.649  56.426  49.292  0.00  0.00    +0.000 C 
BRANCH  29  30
ATOM     30  C   UNL     1     -13.547  57.917  48.947  0.00  0.00    +0.000 C 
BRANCH  30  31
ATOM     31  C   UNL     1     -13.897  58.872  50.092  0.00  0.00    +0.000 C 
ATOM     32  C   UNL     1     -14.265  60.267  49.590  0.00  0.00    +0.000 C 
ATOM     33  C   UNL     1     -15.066  58.283  50.887  0.00  0.00    +0.000 C 
ENDBRANCH  30  31
ENDBRANCH  29  30
ENDBRANCH  10  29
TORSDOF 5
ENDMDL
MODEL 2
REMARK VINA RESULT:      -8.1      2.350      6.427
REMARK  Name = 338093
REMARK  7 active torsions:
REMARK  status: ('A' for Active; 'I' for Inactive)
REMARK    1  A    between atoms: C_7  and  O_9
REMARK    2  A    between atoms: C_10  and  C_13
REMARK    3  A    between atoms: N_11  and  C_14
REMARK    4  A    between atoms: C_14  and  C_18
REMARK    5  A    between atoms: C_18  and  C_21
REMARK    6  A    between atoms: C_21  and  C_26
REMARK    7  A    between atoms: C_21  and  C_27
REMARK                            x       y       z     vdW  Elec       q    Type
REMARK                         _______ _______ _______ _____ _____    ______ ____
ROOT
ATOM      1 CL   UNL     1      -7.497  54.607  45.453  0.00  0.00    +0.000 Cl
ATOM      2  C   UNL     1      -8.186  54.704  47.026  0.00  0.00    +0.000 A 
ATOM      3  C   UNL     1      -9.562  54.574  47.188  0.00  0.00    +0.000 A 
ATOM      4  C   UNL     1      -7.373  54.966  48.119  0.00  0.00    +0.000 A 
ATOM      5  C   UNL     1     -10.146  54.712  48.460  0.00  0.00    +0.000 A 
ATOM      6  C   UNL     1      -7.933  55.069  49.392  0.00  0.00    +0.000 A 
ATOM      7  C   UNL     1     -11.605  54.832  48.630  0.00  0.00    +0.000 A 
ATOM      8  C   UNL     1      -9.318  54.937  49.583  0.00  0.00    +0.000 A 
ATOM      9  C   UNL     1     -12.100  55.228  49.814  0.00  0.00    +0.000 A 
ATOM     10  N   UNL     1      -9.913  55.047  50.877  0.00  0.00    +0.000 N 
ATOM     11  C   UNL     1     -11.293  55.086  51.042  0.00  0.00    +0.000 A 
ATOM     12  O   UNL     1     -11.836  55.069  52.147  0.00  0.00    +0.000 OA
ENDROOT
BRANCH   9  13
ATOM     13  C   UNL     1     -13.513  55.696  49.886  0.00  0.00    +0.000 C 
ATOM     14  N   UNL     1     -14.194  55.469  50.982  0.00  0.00    +0.000 N 
ATOM     15  N   UNL     1     -14.025  56.455  48.835  0.00  0.00    +0.000 N 
ATOM     16  S   UNL     1     -15.547  56.358  51.193  0.00  0.00    +0.000 S 
ATOM     17  C   UNL     1     -14.261  57.769  49.329  0.00  0.00    +0.000 A 
ATOM     18  O   UNL     1     -15.765  56.579  52.606  0.00  0.00    +0.000 OA
ATOM     19  O   UNL     1     -16.599  55.839  50.334  0.00  0.00    +0.000 OA
ATOM     20  C   UNL     1     -15.049  57.917  50.478  0.00  0.00    +0.000 A 
ATOM     21  C   UNL     1     -13.390  58.787  48.958  0.00  0.00    +0.000 A 
ATOM     22  C   UNL     1     -15.055  59.094  51.214  0.00  0.00    +0.000 A 
ATOM     23  C   UNL     1     -13.326  59.943  49.730  0.00  0.00    +0.000 A 
ATOM     24  C   UNL     1     -14.171  60.107  50.835  0.00  0.00    +0.000 A 
ATOM     25  H   UNL     1     -13.906  54.797  51.642  0.00  0.00    +0.000 HD
ATOM     26  H   UNL     1     -14.193  56.140  47.917  0.00  0.00    +0.000 HD
ENDBRANCH   9  13
BRANCH   7  27
ATOM     27  O   UNL     1     -12.419  54.657  47.522  0.00  0.00    +0.000 OA
ATOM     28  H   UNL     1     -13.329  54.873  47.571  0.00  0.00    +0.000 HD
ENDBRANCH   7  27
BRANCH  10  29
ATOM     29  C   UNL     1      -9.126  55.354  52.070  0.00  0.00    +0.000 C 
BRANCH  29  30
ATOM     30  C   UNL     1      -8.734  54.042  52.760  0.00  0.00    +0.000 C 
BRANCH  30  31
ATOM     31  C   UNL     1      -7.383  54.068  53.481  0.00  0.00    +0.000 C 
ATOM     32  C   UNL     1      -6.213  53.833  52.527  0.00  0.00    +0.000 C 
ATOM     33  C   UNL     1      -7.219  55.423  54.177  0.00  0.00    +0.000 C 
ENDBRANCH  30  31
ENDBRANCH  29  30
ENDBRANCH  10  29
TORSDOF 5
ENDMDL
MODEL 3
REMARK VINA RESULT:      -8.1      3.236      6.871
REMARK  Name = 338093
REMARK  7 active torsions:
REMARK  status: ('A' for Active; 'I' for Inactive)
REMARK    1  A    between atoms: C_7  and  O_9
REMARK    2  A    between atoms: C_10  and  C_13
REMARK    3  A    between atoms: N_11  and  C_14
REMARK    4  A    between atoms: C_14  and  C_18
REMARK    5  A    between atoms: C_18  and  C_21
REMARK    6  A    between atoms: C_21  and  C_26
REMARK    7  A    between atoms: C_21  and  C_27
REMARK                            x       y       z     vdW  Elec       q    Type
REMARK                         _______ _______ _______ _____ _____    ______ ____
ROOT
ATOM      1 CL   UNL     1      -7.717  53.198  53.826  0.00  0.00    +0.000 Cl
ATOM      2  C   UNL     1      -8.555  53.342  52.332  0.00  0.00    +0.000 A 
ATOM      3  C   UNL     1      -9.550  54.305  52.186  0.00  0.00    +0.000 A 
ATOM      4  C   UNL     1      -8.274  52.463  51.296  0.00  0.00    +0.000 A 
ATOM      5  C   UNL     1     -10.286  54.394  50.991  0.00  0.00    +0.000 A 
ATOM      6  C   UNL     1      -8.971  52.564  50.092  0.00  0.00    +0.000 A 
ATOM      7  C   UNL     1     -11.502  55.222  50.895  0.00  0.00    +0.000 A 
ATOM      8  C   UNL     1      -9.976  53.529  49.918  0.00  0.00    +0.000 A 
ATOM      9  C   UNL     1     -12.318  55.073  49.839  0.00  0.00    +0.000 A 
ATOM     10  N   UNL     1     -10.706  53.644  48.696  0.00  0.00    +0.000 N 
ATOM     11  C   UNL     1     -11.810  54.481  48.584  0.00  0.00    +0.000 A 
ATOM     12  O   UNL     1     -12.391  54.685  47.519  0.00  0.00    +0.000 OA
ENDROOT
BRANCH   9  13
ATOM     13  C   UNL     1     -13.700  55.624  49.911  0.00  0.00    +0.000 C 
ATOM     14  N   UNL     1     -14.390  55.450  51.011  0.00  0.00    +0.000 N 
ATOM     15  N   UNL     1     -14.172  56.398  48.852  0.00  0.00    +0.000 N 
ATOM     16  S   UNL     1     -15.687  56.420  51.216  0.00  0.00    +0.000 S 
ATOM     17  C   UNL     1     -14.329  57.729  49.330  0.00  0.00    +0.000 A 
ATOM     18  O   UNL     1     -15.886  56.670  52.627  0.00  0.00    +0.000 OA
ATOM     19  O   UNL     1     -16.771  55.952  50.368  0.00  0.00    +0.000 OA
ATOM     20  C   UNL     1     -15.102  57.937  50.480  0.00  0.00    +0.000 A 
ATOM     21  C   UNL     1     -13.402  58.690  48.943  0.00  0.00    +0.000 A 
ATOM     22  C   UNL     1     -15.036  59.122  51.201  0.00  0.00    +0.000 A 
ATOM     23  C   UNL     1     -13.267  59.850  49.701  0.00  0.00    +0.000 A 
ATOM     24  C   UNL     1     -14.096  60.077  50.806  0.00  0.00    +0.000 A 
ATOM     25  H   UNL     1     -14.138  54.771  51.679  0.00  0.00    +0.000 HD
ATOM     26  H   UNL     1     -14.362  56.082  47.939  0.00  0.00    +0.000 HD
ENDBRANCH   9  13
BRANCH   7  27
ATOM     27  O   UNL     1     -11.836  56.039  51.963  0.00  0.00    +0.000 OA
ATOM     28  H   UNL     1     -11.363  55.973  52.769  0.00  0.00    +0.000 HD
ENDBRANCH   7  27
BRANCH  10  29
ATOM     29  C   UNL     1     -10.489  52.733  47.573  0.00  0.00    +0.000 C 
BRANCH  29  30
ATOM     30  C   UNL     1      -9.350  53.277  46.703  0.00  0.00    +0.000 C 
BRANCH  30  31
ATOM     31  C   UNL     1      -9.762  53.702  45.290  0.00  0.00    +0.000 C 
ATOM     32  C   UNL     1      -8.648  53.473  44.269  0.00  0.00    +0.000 C 
ATOM     33  C   UNL     1     -11.010  52.914  44.880  0.00  0.00    +0.000 C 
ENDBRANCH  30  31
ENDBRANCH  29  30
ENDBRANCH  10  29
TORSDOF 5
ENDMDL
MODEL 4
REMARK VINA RESULT:      -8.0      2.227      4.091
REMARK  Name = 338093
REMARK  7 active torsions:
REMARK  status: ('A' for Active; 'I' for Inactive)
REMARK    1  A    between atoms: C_7  and  O_9
REMARK    2  A    between atoms: C_10  and  C_13
REMARK    3  A    between atoms: N_11  and  C_14
REMARK    4  A    between atoms: C_14  and  C_18
REMARK    5  A    between atoms: C_18  and  C_21
REMARK    6  A    between atoms: C_21  and  C_26
REMARK    7  A    between atoms: C_21  and  C_27
REMARK                            x       y       z     vdW  Elec       q    Type
REMARK                         _______ _______ _______ _____ _____    ______ ____
ROOT
ATOM      1 CL   UNL     1     -14.752  60.203  49.570  0.00  0.00    +0.000 Cl
ATOM      2  C   UNL     1     -14.114  58.634  49.277  0.00  0.00    +0.000 A 
ATOM      3  C   UNL     1     -13.868  57.776  50.346  0.00  0.00    +0.000 A 
ATOM      4  C   UNL     1     -13.797  58.248  47.983  0.00  0.00    +0.000 A 
ATOM      5  C   UNL     1     -13.290  56.513  50.128  0.00  0.00    +0.000 A 
ATOM      6  C   UNL     1     -13.256  56.984  47.748  0.00  0.00    +0.000 A 
ATOM      7  C   UNL     1     -12.787  55.692  51.244  0.00  0.00    +0.000 A 
ATOM      8  C   UNL     1     -13.003  56.099  48.807  0.00  0.00    +0.000 A 
ATOM      9  C   UNL     1     -12.009  54.630  50.982  0.00  0.00    +0.000 A 
ATOM     10  N   UNL     1     -12.444  54.803  48.589  0.00  0.00    +0.000 N 
ATOM     11  C   UNL     1     -12.037  53.999  49.647  0.00  0.00    +0.000 A 
ATOM     12  O   UNL     1     -11.655  52.838  49.497  0.00  0.00    +0.000 OA
ENDROOT
BRANCH   9  13
ATOM     13  C   UNL     1     -11.214  54.026  52.088  0.00  0.00    +0.000 C 
ATOM     14  N   UNL     1     -11.177  52.721  52.195  0.00  0.00    +0.000 N 
ATOM     15  N   UNL     1     -10.448  54.861  52.901  0.00  0.00    +0.000 N 
ATOM     16  S   UNL     1      -9.976  52.101  53.112  0.00  0.00    +0.000 S 
ATOM     17  C   UNL     1      -9.079  54.570  52.647  0.00  0.00    +0.000 A 
ATOM     18  O   UNL     1      -9.589  50.807  52.592  0.00  0.00    +0.000 OA
ATOM     19  O   UNL     1     -10.303  52.288  54.516  0.00  0.00    +0.000 OA
ATOM     20  C   UNL     1      -8.649  53.241  52.756  0.00  0.00    +0.000 A 
ATOM     21  C   UNL     1      -8.333  55.473  51.898  0.00  0.00    +0.000 A 
ATOM     22  C   UNL     1      -7.445  52.814  52.212  0.00  0.00    +0.000 A 
ATOM     23  C   UNL     1      -7.164  55.042  51.279  0.00  0.00    +0.000 A 
ATOM     24  C   UNL     1      -6.708  53.730  51.457  0.00  0.00    +0.000 A 
ATOM     25  H   UNL     1     -11.838  52.145  51.747  0.00  0.00    +0.000 HD
ATOM     26  H   UNL     1     -10.793  55.531  53.535  0.00  0.00    +0.000 HD
ENDBRANCH   9  13
BRANCH   7  27
ATOM     27  O   UNL     1     -13.026  56.117  52.541  0.00  0.00    +0.000 OA
ATOM     28  H   UNL     1     -13.147  55.489  53.226  0.00  0.00    +0.000 HD
ENDBRANCH   7  27
BRANCH  10  29
ATOM     29  C   UNL     1     -12.054  54.341  47.258  0.00  0.00    +0.000 C 
BRANCH  29  30
ATOM     30  C   UNL     1     -10.929  55.237  46.728  0.00  0.00    +0.000 C 
BRANCH  30  31
ATOM     31  C   UNL     1      -9.517  54.827  47.157  0.00  0.00    +0.000 C 
ATOM     32  C   UNL     1      -8.530  54.845  45.992  0.00  0.00    +0.000 C 
ATOM     33  C   UNL     1      -9.037  55.779  48.257  0.00  0.00    +0.000 C 
ENDBRANCH  30  31
ENDBRANCH  29  30
ENDBRANCH  10  29
TORSDOF 5
ENDMDL
MODEL 5
REMARK VINA RESULT:      -7.9      3.113      6.491
REMARK  Name = 338093
REMARK  7 active torsions:
REMARK  status: ('A' for Active; 'I' for Inactive)
REMARK    1  A    between atoms: C_7  and  O_9
REMARK    2  A    between atoms: C_10  and  C_13
REMARK    3  A    between atoms: N_11  and  C_14
REMARK    4  A    between atoms: C_14  and  C_18
REMARK    5  A    between atoms: C_18  and  C_21
REMARK    6  A    between atoms: C_21  and  C_26
REMARK    7  A    between atoms: C_21  and  C_27
REMARK                            x       y       z     vdW  Elec       q    Type
REMARK                         _______ _______ _______ _____ _____    ______ ____
ROOT
ATOM      1 CL   UNL     1      -8.311  49.581  51.602  0.00  0.00    +0.000 Cl
ATOM      2  C   UNL     1      -8.642  51.153  50.989  0.00  0.00    +0.000 A 
ATOM      3  C   UNL     1      -9.567  51.968  51.636  0.00  0.00    +0.000 A 
ATOM      4  C   UNL     1      -8.026  51.582  49.822  0.00  0.00    +0.000 A 
ATOM      5  C   UNL     1      -9.893  53.231  51.111  0.00  0.00    +0.000 A 
ATOM      6  C   UNL     1      -8.313  52.847  49.310  0.00  0.00    +0.000 A 
ATOM      7  C   UNL     1     -11.040  54.005  51.621  0.00  0.00    +0.000 A 
ATOM      8  C   UNL     1      -9.238  53.690  49.946  0.00  0.00    +0.000 A 
ATOM      9  C   UNL     1     -11.478  55.067  50.926  0.00  0.00    +0.000 A 
ATOM     10  N   UNL     1      -9.551  54.986  49.435  0.00  0.00    +0.000 N 
ATOM     11  C   UNL     1     -10.587  55.746  49.965  0.00  0.00    +0.000 A 
ATOM     12  O   UNL     1     -10.810  56.907  49.620  0.00  0.00    +0.000 OA
ENDROOT
BRANCH   9  13
ATOM     13  C   UNL     1     -12.829  55.620  51.229  0.00  0.00    +0.000 C 
ATOM     14  N   UNL     1     -12.954  56.461  52.226  0.00  0.00    +0.000 N 
ATOM     15  N   UNL     1     -13.888  55.315  50.376  0.00  0.00    +0.000 N 
ATOM     16  S   UNL     1     -14.314  57.363  52.248  0.00  0.00    +0.000 S 
ATOM     17  C   UNL     1     -14.271  56.517  49.718  0.00  0.00    +0.000 A 
ATOM     18  O   UNL     1     -14.033  58.648  52.852  0.00  0.00    +0.000 OA
ATOM     19  O   UNL     1     -15.426  56.541  52.696  0.00  0.00    +0.000 OA
ATOM     20  C   UNL     1     -14.573  57.638  50.503  0.00  0.00    +0.000 A 
ATOM     21  C   UNL     1     -13.922  56.687  48.383  0.00  0.00    +0.000 A 
ATOM     22  C   UNL     1     -14.624  58.916  49.963  0.00  0.00    +0.000 A 
ATOM     23  C   UNL     1     -13.890  57.971  47.846  0.00  0.00    +0.000 A 
ATOM     24  C   UNL     1     -14.265  59.075  48.622  0.00  0.00    +0.000 A 
ATOM     25  H   UNL     1     -12.265  56.544  52.924  0.00  0.00    +0.000 HD
ATOM     26  H   UNL     1     -14.297  54.428  50.251  0.00  0.00    +0.000 HD
ENDBRANCH   9  13
BRANCH   7  27
ATOM     27  O   UNL     1     -11.714  53.536  52.737  0.00  0.00    +0.000 OA
ATOM     28  H   UNL     1     -12.294  54.102  53.206  0.00  0.00    +0.000 HD
ENDBRANCH   7  27
BRANCH  10  29
ATOM     29  C   UNL     1      -8.968  55.492  48.193  0.00  0.00    +0.000 C 
BRANCH  29  30
ATOM     30  C   UNL     1      -9.915  55.171  47.031  0.00  0.00    +0.000 C 
BRANCH  30  31
ATOM     31  C   UNL     1      -9.261  54.465  45.839  0.00  0.00    +0.000 C 
ATOM     32  C   UNL     1      -7.746  54.662  45.810  0.00  0.00    +0.000 C 
ATOM     33  C   UNL     1      -9.586  52.970  45.911  0.00  0.00    +0.000 C 
ENDBRANCH  30  31
ENDBRANCH  29  30
ENDBRANCH  10  29
TORSDOF 5
ENDMDL
MODEL 6
REMARK VINA RESULT:      -7.8      2.474      4.464
REMARK  Name = 338093
REMARK  7 active torsions:
REMARK  status: ('A' for Active; 'I' for Inactive)
REMARK    1  A    between atoms: C_7  and  O_9
REMARK    2  A    between atoms: C_10  and  C_13
REMARK    3  A    between atoms: N_11  and  C_14
REMARK    4  A    between atoms: C_14  and  C_18
REMARK    5  A    between atoms: C_18  and  C_21
REMARK    6  A    between atoms: C_21  and  C_26
REMARK    7  A    between atoms: C_21  and  C_27
REMARK                            x       y       z     vdW  Elec       q    Type
REMARK                         _______ _______ _______ _____ _____    ______ ____
ROOT
ATOM      1 CL   UNL     1     -15.037  59.433  50.393  0.00  0.00    +0.000 Cl
ATOM      2  C   UNL     1     -14.105  58.096  49.847  0.00  0.00    +0.000 A 
ATOM      3  C   UNL     1     -13.480  57.264  50.771  0.00  0.00    +0.000 A 
ATOM      4  C   UNL     1     -13.935  57.884  48.487  0.00  0.00    +0.000 A 
ATOM      5  C   UNL     1     -12.664  56.203  50.338  0.00  0.00    +0.000 A 
ATOM      6  C   UNL     1     -13.159  56.814  48.042  0.00  0.00    +0.000 A 
ATOM      7  C   UNL     1     -11.794  55.468  51.274  0.00  0.00    +0.000 A 
ATOM      8  C   UNL     1     -12.522  55.957  48.954  0.00  0.00    +0.000 A 
ATOM      9  C   UNL     1     -10.843  54.655  50.787  0.00  0.00    +0.000 A 
ATOM     10  N   UNL     1     -11.717  54.860  48.520  0.00  0.00    +0.000 N 
ATOM     11  C   UNL     1     -10.952  54.121  49.414  0.00  0.00    +0.000 A 
ATOM     12  O   UNL     1     -10.336  53.105  49.089  0.00  0.00    +0.000 OA
ENDROOT
BRANCH   9  13
ATOM     13  C   UNL     1      -9.746  54.204  51.690  0.00  0.00    +0.000 C 
ATOM     14  N   UNL     1      -9.558  52.918  51.856  0.00  0.00    +0.000 N 
ATOM     15  N   UNL     1      -8.890  55.157  52.237  0.00  0.00    +0.000 N 
ATOM     16  S   UNL     1      -8.116  52.469  52.475  0.00  0.00    +0.000 S 
ATOM     17  C   UNL     1      -7.603  54.958  51.664  0.00  0.00    +0.000 A 
ATOM     18  O   UNL     1      -7.745  51.174  51.946  0.00  0.00    +0.000 OA
ATOM     19  O   UNL     1      -8.105  52.737  53.904  0.00  0.00    +0.000 OA
ATOM     20  C   UNL     1      -7.033  53.680  51.735  0.00  0.00    +0.000 A 
ATOM     21  C   UNL     1      -7.154  55.857  50.703  0.00  0.00    +0.000 A 
ATOM     22  C   UNL     1      -5.963  53.310  50.931  0.00  0.00    +0.000 A 
ATOM     23  C   UNL     1      -6.135  55.474  49.835  0.00  0.00    +0.000 A 
ATOM     24  C   UNL     1      -5.525  54.220  49.965  0.00  0.00    +0.000 A 
ATOM     25  H   UNL     1     -10.250  52.258  51.620  0.00  0.00    +0.000 HD
ATOM     26  H   UNL     1      -9.131  55.845  52.899  0.00  0.00    +0.000 HD
ENDBRANCH   9  13
BRANCH   7  27
ATOM     27  O   UNL     1     -11.897  55.738  52.629  0.00  0.00    +0.000 OA
ATOM     28  H   UNL     1     -12.626  55.412  53.117  0.00  0.00    +0.000 HD
ENDBRANCH   7  27
BRANCH  10  29
ATOM     29  C   UNL     1     -11.465  54.594  47.104  0.00  0.00    +0.000 C 
BRANCH  29  30
ATOM     30  C   UNL     1     -10.259  55.424  46.647  0.00  0.00    +0.000 C 
BRANCH  30  31
ATOM     31  C   UNL     1      -9.159  54.630  45.937  0.00  0.00    +0.000 C 
ATOM     32  C   UNL     1      -7.898  54.500  46.788  0.00  0.00    +0.000 C 
ATOM     33  C   UNL     1      -9.697  53.238  45.592  0.00  0.00    +0.000 C 
ENDBRANCH  30  31
ENDBRANCH  29  30
ENDBRANCH  10  29
TORSDOF 5
ENDMDL
MODEL 7
REMARK VINA RESULT:      -7.7      2.864      4.842
REMARK  Name = 338093
REMARK  7 active torsions:
REMARK  status: ('A' for Active; 'I' for Inactive)
REMARK    1  A    between atoms: C_7  and  O_9
REMARK    2  A    between atoms: C_10  and  C_13
REMARK    3  A    between atoms: N_11  and  C_14
REMARK    4  A    between atoms: C_14  and  C_18
REMARK    5  A    between atoms: C_18  and  C_21
REMARK    6  A    between atoms: C_21  and  C_26
REMARK    7  A    between atoms: C_21  and  C_27
REMARK                            x       y       z     vdW  Elec       q    Type
REMARK                         _______ _______ _______ _____ _____    ______ ____
ROOT
ATOM      1 CL   UNL     1     -14.796  58.047  52.865  0.00  0.00    +0.000 Cl
ATOM      2  C   UNL     1     -13.932  56.984  51.826  0.00  0.00    +0.000 A 
ATOM      3  C   UNL     1     -12.831  56.284  52.311  0.00  0.00    +0.000 A 
ATOM      4  C   UNL     1     -14.303  56.869  50.494  0.00  0.00    +0.000 A 
ATOM      5  C   UNL     1     -12.078  55.459  51.457  0.00  0.00    +0.000 A 
ATOM      6  C   UNL     1     -13.588  56.025  49.644  0.00  0.00    +0.000 A 
ATOM      7  C   UNL     1     -10.773  54.910  51.868  0.00  0.00    +0.000 A 
ATOM      8  C   UNL     1     -12.477  55.305  50.110  0.00  0.00    +0.000 A 
ATOM      9  C   UNL     1      -9.971  54.358  50.944  0.00  0.00    +0.000 A 
ATOM     10  N   UNL     1     -11.727  54.442  49.255  0.00  0.00    +0.000 N 
ATOM     11  C   UNL     1     -10.532  53.866  49.670  0.00  0.00    +0.000 A 
ATOM     12  O   UNL     1      -9.921  53.034  48.999  0.00  0.00    +0.000 OA
ENDROOT
BRANCH   9  13
ATOM     13  C   UNL     1      -8.534  54.138  51.273  0.00  0.00    +0.000 C 
ATOM     14  N   UNL     1      -7.886  55.078  51.917  0.00  0.00    +0.000 N 
ATOM     15  N   UNL     1      -7.959  52.901  50.987  0.00  0.00    +0.000 N 
ATOM     16  S   UNL     1      -6.487  54.637  52.632  0.00  0.00    +0.000 S 
ATOM     17  C   UNL     1      -7.654  52.272  52.226  0.00  0.00    +0.000 A 
ATOM     18  O   UNL     1      -6.280  55.432  53.824  0.00  0.00    +0.000 OA
ATOM     19  O   UNL     1      -5.453  54.505  51.619  0.00  0.00    +0.000 OA
ATOM     20  C   UNL     1      -6.878  52.976  53.158  0.00  0.00    +0.000 A 
ATOM     21  C   UNL     1      -8.456  51.221  52.656  0.00  0.00    +0.000 A 
ATOM     22  C   UNL     1      -6.815  52.597  54.492  0.00  0.00    +0.000 A 
ATOM     23  C   UNL     1      -8.465  50.878  54.005  0.00  0.00    +0.000 A 
ATOM     24  C   UNL     1      -7.630  51.543  54.912  0.00  0.00    +0.000 A 
ATOM     25  H   UNL     1      -8.225  56.002  51.965  0.00  0.00    +0.000 HD
ATOM     26  H   UNL     1      -7.794  52.530  50.090  0.00  0.00    +0.000 HD
ENDBRANCH   9  13
BRANCH   7  27
ATOM     27  O   UNL     1     -10.356  55.096  53.177  0.00  0.00    +0.000 OA
ATOM     28  H   UNL     1     -10.767  55.747  53.710  0.00  0.00    +0.000 HD
ENDBRANCH   7  27
BRANCH  10  29
ATOM     29  C   UNL     1     -12.037  54.296  47.834  0.00  0.00    +0.000 C 
BRANCH  29  30
ATOM     30  C   UNL     1     -11.361  55.431  47.056  0.00  0.00    +0.000 C 
BRANCH  30  31
ATOM     31  C   UNL     1     -10.359  54.977  45.989  0.00  0.00    +0.000 C 
ATOM     32  C   UNL     1      -8.912  55.127  46.454  0.00  0.00    +0.000 C 
ATOM     33  C   UNL     1     -10.641  53.514  45.635  0.00  0.00    +0.000 C 
ENDBRANCH  30  31
ENDBRANCH  29  30
ENDBRANCH  10  29
TORSDOF 5
ENDMDL
MODEL 8
REMARK VINA RESULT:      -7.6      3.449      7.467
REMARK  Name = 338093
REMARK  7 active torsions:
REMARK  status: ('A' for Active; 'I' for Inactive)
REMARK    1  A    between atoms: C_7  and  O_9
REMARK    2  A    between atoms: C_10  and  C_13
REMARK    3  A    between atoms: N_11  and  C_14
REMARK    4  A    between atoms: C_14  and  C_18
REMARK    5  A    between atoms: C_18  and  C_21
REMARK    6  A    between atoms: C_21  and  C_26
REMARK    7  A    between atoms: C_21  and  C_27
REMARK                            x       y       z     vdW  Elec       q    Type
REMARK                         _______ _______ _______ _____ _____    ______ ____
ROOT
ATOM      1 CL   UNL     1      -8.570  49.669  56.128  0.00  0.00    +0.000 Cl
ATOM      2  C   UNL     1      -8.362  51.073  55.156  0.00  0.00    +0.000 A 
ATOM      3  C   UNL     1      -9.473  51.700  54.599  0.00  0.00    +0.000 A 
ATOM      4  C   UNL     1      -7.085  51.543  54.888  0.00  0.00    +0.000 A 
ATOM      5  C   UNL     1      -9.314  52.811  53.753  0.00  0.00    +0.000 A 
ATOM      6  C   UNL     1      -6.914  52.667  54.080  0.00  0.00    +0.000 A 
ATOM      7  C   UNL     1     -10.435  53.337  52.951  0.00  0.00    +0.000 A 
ATOM      8  C   UNL     1      -8.018  53.320  53.510  0.00  0.00    +0.000 A 
ATOM      9  C   UNL     1     -10.185  54.214  51.967  0.00  0.00    +0.000 A 
ATOM     10  N   UNL     1      -7.865  54.468  52.674  0.00  0.00    +0.000 N 
ATOM     11  C   UNL     1      -8.939  55.007  51.975  0.00  0.00    +0.000 A 
ATOM     12  O   UNL     1      -8.863  56.057  51.337  0.00  0.00    +0.000 OA
ENDROOT
BRANCH   9  13
ATOM     13  C   UNL     1     -11.234  54.464  50.938  0.00  0.00    +0.000 C 
ATOM     14  N   UNL     1     -11.722  55.675  50.819  0.00  0.00    +0.000 N 
ATOM     15  N   UNL     1     -11.580  53.434  50.066  0.00  0.00    +0.000 N 
ATOM     16  S   UNL     1     -12.515  56.004  49.431  0.00  0.00    +0.000 S 
ATOM     17  C   UNL     1     -11.150  53.812  48.763  0.00  0.00    +0.000 A 
ATOM     18  O   UNL     1     -12.344  57.401  49.096  0.00  0.00    +0.000 OA
ATOM     19  O   UNL     1     -13.833  55.391  49.478  0.00  0.00    +0.000 OA
ATOM     20  C   UNL     1     -11.567  55.051  48.257  0.00  0.00    +0.000 A 
ATOM     21  C   UNL     1     -10.026  53.194  48.226  0.00  0.00    +0.000 A 
ATOM     22  C   UNL     1     -10.942  55.644  47.168  0.00  0.00    +0.000 A 
ATOM     23  C   UNL     1      -9.341  53.814  47.185  0.00  0.00    +0.000 A 
ATOM     24  C   UNL     1      -9.810  55.017  46.642  0.00  0.00    +0.000 A 
ATOM     25  H   UNL     1     -11.615  56.349  51.529  0.00  0.00    +0.000 HD
ATOM     26  H   UNL     1     -12.038  52.596  50.307  0.00  0.00    +0.000 HD
ENDBRANCH   9  13
BRANCH   7  27
ATOM     27  O   UNL     1     -11.700  52.810  53.153  0.00  0.00    +0.000 OA
ATOM     28  H   UNL     1     -12.341  53.299  53.631  0.00  0.00    +0.000 HD
ENDBRANCH   7  27
BRANCH  10  29
ATOM     29  C   UNL     1      -6.551  55.001  52.320  0.00  0.00    +0.000 C 
BRANCH  29  30
ATOM     30  C   UNL     1      -6.087  54.354  51.009  0.00  0.00    +0.000 C 
BRANCH  30  31
ATOM     31  C   UNL     1      -4.705  53.697  51.065  0.00  0.00    +0.000 C 
ATOM     32  C   UNL     1      -3.916  54.111  52.306  0.00  0.00    +0.000 C 
ATOM     33  C   UNL     1      -4.879  52.175  51.048  0.00  0.00    +0.000 C 
ENDBRANCH  30  31
ENDBRANCH  29  30
ENDBRANCH  10  29
TORSDOF 5
ENDMDL
MODEL 9
REMARK VINA RESULT:      -7.5      3.352      6.469
REMARK  Name = 338093
REMARK  7 active torsions:
REMARK  status: ('A' for Active; 'I' for Inactive)
REMARK    1  A    between atoms: C_7  and  O_9
REMARK    2  A    between atoms: C_10  and  C_13
REMARK    3  A    between atoms: N_11  and  C_14
REMARK    4  A    between atoms: C_14  and  C_18
REMARK    5  A    between atoms: C_18  and  C_21
REMARK    6  A    between atoms: C_21  and  C_26
REMARK    7  A    between atoms: C_21  and  C_27
REMARK                            x       y       z     vdW  Elec       q    Type
REMARK                         _______ _______ _______ _____ _____    ______ ____
ROOT
ATOM      1 CL   UNL     1      -4.677  55.331  54.370  0.00  0.00    +0.000 Cl
ATOM      2  C   UNL     1      -6.144  54.833  53.625  0.00  0.00    +0.000 A 
ATOM      3  C   UNL     1      -6.106  54.100  52.442  0.00  0.00    +0.000 A 
ATOM      4  C   UNL     1      -7.360  55.209  54.177  0.00  0.00    +0.000 A 
ATOM      5  C   UNL     1      -7.298  53.739  51.789  0.00  0.00    +0.000 A 
ATOM      6  C   UNL     1      -8.551  54.827  53.560  0.00  0.00    +0.000 A 
ATOM      7  C   UNL     1      -7.291  53.191  50.420  0.00  0.00    +0.000 A 
ATOM      8  C   UNL     1      -8.539  54.084  52.369  0.00  0.00    +0.000 A 
ATOM      9  C   UNL     1      -8.445  53.112  49.738  0.00  0.00    +0.000 A 
ATOM     10  N   UNL     1      -9.747  53.688  51.717  0.00  0.00    +0.000 N 
ATOM     11  C   UNL     1      -9.735  53.104  50.456  0.00  0.00    +0.000 A 
ATOM     12  O   UNL     1     -10.746  52.653  49.917  0.00  0.00    +0.000 OA
ENDROOT
BRANCH   9  13
ATOM     13  C   UNL     1      -8.398  52.911  48.262  0.00  0.00    +0.000 C 
ATOM     14  N   UNL     1      -8.763  51.750  47.774  0.00  0.00    +0.000 N 
ATOM     15  N   UNL     1      -8.077  53.993  47.444  0.00  0.00    +0.000 N 
ATOM     16  S   UNL     1      -9.117  51.711  46.182  0.00  0.00    +0.000 S 
ATOM     17  C   UNL     1      -9.240  54.326  46.695  0.00  0.00    +0.000 A 
ATOM     18  O   UNL     1     -10.139  50.715  45.937  0.00  0.00    +0.000 OA
ATOM     19  O   UNL     1      -7.881  51.734  45.417  0.00  0.00    +0.000 OA
ATOM     20  C   UNL     1      -9.868  53.315  45.956  0.00  0.00    +0.000 A 
ATOM     21  C   UNL     1      -9.955  55.465  47.046  0.00  0.00    +0.000 A 
ATOM     22  C   UNL     1     -11.165  53.455  45.480  0.00  0.00    +0.000 A 
ATOM     23  C   UNL     1     -11.282  55.587  46.645  0.00  0.00    +0.000 A 
ATOM     24  C   UNL     1     -11.875  54.602  45.845  0.00  0.00    +0.000 A 
ATOM     25  H   UNL     1      -8.821  50.946  48.339  0.00  0.00    +0.000 HD
ATOM     26  H   UNL     1      -7.203  54.445  47.394  0.00  0.00    +0.000 HD
ENDBRANCH   9  13
BRANCH   7  27
ATOM     27  O   UNL     1      -6.074  52.894  49.830  0.00  0.00    +0.000 OA
ATOM     28  H   UNL     1      -5.885  53.201  48.965  0.00  0.00    +0.000 HD
ENDBRANCH   7  27
BRANCH  10  29
ATOM     29  C   UNL     1     -11.064  54.075  52.220  0.00  0.00    +0.000 C 
BRANCH  29  30
ATOM     30  C   UNL     1     -11.453  55.427  51.610  0.00  0.00    +0.000 C 
BRANCH  30  31
ATOM     31  C   UNL     1     -12.952  55.613  51.352  0.00  0.00    +0.000 C 
ATOM     32  C   UNL     1     -13.541  56.762  52.168  0.00  0.00    +0.000 C 
ATOM     33  C   UNL     1     -13.168  55.875  49.858  0.00  0.00    +0.000 C 
ENDBRANCH  30  31
ENDBRANCH  29  30
ENDBRANCH  10  29
TORSDOF 5
ENDMDL
