MODEL 1
REMARK VINA RESULT:      -8.7      0.000      0.000
REMARK  Name = 338642
REMARK  6 active torsions:
REMARK  status: ('A' for Active; 'I' for Inactive)
REMARK    1  A    between atoms: C_6  and  C_10
REMARK    2  A    between atoms: N_18  and  C_21
REMARK    3  A    between atoms: C_21  and  C_24
REMARK    4  A    between atoms: C_24  and  C_26
REMARK    5  A    between atoms: C_26  and  C_27
REMARK    6  A    between atoms: C_26  and  C_28
REMARK                            x       y       z     vdW  Elec       q    Type
REMARK                         _______ _______ _______ _____ _____    ______ ____
ROOT
ATOM      1  C   UNL     1     -10.920  55.170  51.288  0.00  0.00    +0.000 A 
ATOM      2  C   UNL     1     -10.769  55.256  49.813  0.00  0.00    +0.000 A 
ATOM      3  C   UNL     1     -12.082  55.603  51.798  0.00  0.00    +0.000 A 
ATOM      4  O   UNL     1      -9.728  54.894  49.267  0.00  0.00    +0.000 OA
ATOM      5  C   UNL     1     -11.899  55.807  49.025  0.00  0.00    +0.000 A 
ATOM      6  N   UNL     1     -13.152  56.139  51.095  0.00  0.00    +0.000 N 
ATOM      7  C   UNL     1     -13.063  56.251  49.689  0.00  0.00    +0.000 A 
ATOM      8  C   UNL     1     -11.761  55.894  47.631  0.00  0.00    +0.000 A 
ATOM      9  C   UNL     1     -14.077  56.797  48.884  0.00  0.00    +0.000 A 
ATOM     10  C   UNL     1     -12.779  56.450  46.866  0.00  0.00    +0.000 A 
ATOM     11  C   UNL     1     -13.934  56.906  47.494  0.00  0.00    +0.000 A 
ENDROOT
BRANCH   1  17
ATOM     12  S   UNL     1      -7.429  54.921  53.058  0.00  0.00    +0.000 S 
ATOM     13  O   UNL     1      -7.315  55.872  54.149  0.00  0.00    +0.000 OA
ATOM     14  O   UNL     1      -6.300  54.682  52.178  0.00  0.00    +0.000 OA
ATOM     15  N   UNL     1      -8.692  55.340  52.144  0.00  0.00    +0.000 N 
ATOM     16  C   UNL     1      -7.786  53.372  53.807  0.00  0.00    +0.000 A 
ATOM     17  C   UNL     1      -9.807  54.675  52.182  0.00  0.00    +0.000 C 
ATOM     18  C   UNL     1      -9.070  52.867  53.667  0.00  0.00    +0.000 A 
ATOM     19  C   UNL     1      -6.787  52.692  54.509  0.00  0.00    +0.000 A 
ATOM     20  N   UNL     1     -10.043  53.557  52.950  0.00  0.00    +0.000 N 
ATOM     21  C   UNL     1      -9.356  51.632  54.257  0.00  0.00    +0.000 A 
ATOM     22  C   UNL     1      -7.087  51.464  55.090  0.00  0.00    +0.000 A 
ATOM     23  C   UNL     1      -8.371  50.933  54.963  0.00  0.00    +0.000 A 
ATOM     24  H   UNL     1      -8.614  56.116  51.545  0.00  0.00    +0.000 HD
ATOM     25  H   UNL     1     -10.967  53.221  52.995  0.00  0.00    +0.000 HD
ENDBRANCH   1  17
BRANCH   6  26
ATOM     26  C   UNL     1     -14.354  56.614  51.808  0.00  0.00    +0.000 C 
BRANCH  26  27
ATOM     27  C   UNL     1     -13.980  57.635  52.889  0.00  0.00    +0.000 C 
BRANCH  27  28
ATOM     28  C   UNL     1     -14.502  59.056  52.602  0.00  0.00    +0.000 C 
ATOM     29  C   UNL     1     -14.978  59.223  51.157  0.00  0.00    +0.000 C 
ATOM     30  C   UNL     1     -15.650  59.391  53.559  0.00  0.00    +0.000 C 
ENDBRANCH  27  28
ENDBRANCH  26  27
ENDBRANCH   6  26
TORSDOF 4
ENDMDL
MODEL 2
REMARK VINA RESULT:      -8.4      1.572      2.183
REMARK  Name = 338642
REMARK  6 active torsions:
REMARK  status: ('A' for Active; 'I' for Inactive)
REMARK    1  A    between atoms: C_6  and  C_10
REMARK    2  A    between atoms: N_18  and  C_21
REMARK    3  A    between atoms: C_21  and  C_24
REMARK    4  A    between atoms: C_24  and  C_26
REMARK    5  A    between atoms: C_26  and  C_27
REMARK    6  A    between atoms: C_26  and  C_28
REMARK                            x       y       z     vdW  Elec       q    Type
REMARK                         _______ _______ _______ _____ _____    ______ ____
ROOT
ATOM      1  C   UNL     1     -11.132  54.882  51.056  0.00  0.00    +0.000 A 
ATOM      2  C   UNL     1     -11.000  55.057  49.588  0.00  0.00    +0.000 A 
ATOM      3  C   UNL     1     -12.246  55.371  51.621  0.00  0.00    +0.000 A 
ATOM      4  O   UNL     1     -10.002  54.651  48.995  0.00  0.00    +0.000 OA
ATOM      5  C   UNL     1     -12.094  55.751  48.865  0.00  0.00    +0.000 A 
ATOM      6  N   UNL     1     -13.280  56.038  50.981  0.00  0.00    +0.000 N 
ATOM      7  C   UNL     1     -13.207  56.241  49.583  0.00  0.00    +0.000 A 
ATOM      8  C   UNL     1     -11.973  55.923  47.478  0.00  0.00    +0.000 A 
ATOM      9  C   UNL     1     -14.185  56.921  48.841  0.00  0.00    +0.000 A 
ATOM     10  C   UNL     1     -12.955  56.612  46.775  0.00  0.00    +0.000 A 
ATOM     11  C   UNL     1     -14.057  57.115  47.459  0.00  0.00    +0.000 A 
ENDROOT
BRANCH   1  17
ATOM     12  S   UNL     1      -9.207  52.233  53.216  0.00  0.00    +0.000 S 
ATOM     13  O   UNL     1      -8.592  51.214  52.386  0.00  0.00    +0.000 OA
ATOM     14  O   UNL     1      -9.845  51.866  54.467  0.00  0.00    +0.000 OA
ATOM     15  N   UNL     1     -10.286  53.036  52.324  0.00  0.00    +0.000 N 
ATOM     16  C   UNL     1      -7.917  53.346  53.646  0.00  0.00    +0.000 A 
ATOM     17  C   UNL     1     -10.049  54.237  51.890  0.00  0.00    +0.000 C 
ATOM     18  C   UNL     1      -7.917  54.597  53.050  0.00  0.00    +0.000 A 
ATOM     19  C   UNL     1      -6.942  52.956  54.568  0.00  0.00    +0.000 A 
ATOM     20  N   UNL     1      -8.909  54.966  52.146  0.00  0.00    +0.000 N 
ATOM     21  C   UNL     1      -6.895  55.487  53.393  0.00  0.00    +0.000 A 
ATOM     22  C   UNL     1      -5.931  53.853  54.901  0.00  0.00    +0.000 A 
ATOM     23  C   UNL     1      -5.908  55.119  54.315  0.00  0.00    +0.000 A 
ATOM     24  H   UNL     1     -11.143  52.606  52.104  0.00  0.00    +0.000 HD
ATOM     25  H   UNL     1      -8.787  55.810  51.653  0.00  0.00    +0.000 HD
ENDBRANCH   1  17
BRANCH   6  26
ATOM     26  C   UNL     1     -14.427  56.559  51.751  0.00  0.00    +0.000 C 
BRANCH  26  27
ATOM     27  C   UNL     1     -13.960  57.551  52.822  0.00  0.00    +0.000 C 
BRANCH  27  28
ATOM     28  C   UNL     1     -14.473  58.987  52.597  0.00  0.00    +0.000 C 
ATOM     29  C   UNL     1     -14.992  59.206  51.174  0.00  0.00    +0.000 C 
ATOM     30  C   UNL     1     -15.586  59.304  53.600  0.00  0.00    +0.000 C 
ENDBRANCH  27  28
ENDBRANCH  26  27
ENDBRANCH   6  26
TORSDOF 4
ENDMDL
MODEL 3
REMARK VINA RESULT:      -8.2      0.949      1.180
REMARK  Name = 338642
REMARK  6 active torsions:
REMARK  status: ('A' for Active; 'I' for Inactive)
REMARK    1  A    between atoms: C_6  and  C_10
REMARK    2  A    between atoms: N_18  and  C_21
REMARK    3  A    between atoms: C_21  and  C_24
REMARK    4  A    between atoms: C_24  and  C_26
REMARK    5  A    between atoms: C_26  and  C_27
REMARK    6  A    between atoms: C_26  and  C_28
REMARK                            x       y       z     vdW  Elec       q    Type
REMARK                         _______ _______ _______ _____ _____    ______ ____
ROOT
ATOM      1  C   UNL     1     -10.077  54.667  51.063  0.00  0.00    +0.000 A 
ATOM      2  C   UNL     1      -9.768  54.667  49.611  0.00  0.00    +0.000 A 
ATOM      3  C   UNL     1     -11.284  55.130  51.420  0.00  0.00    +0.000 A 
ATOM      4  O   UNL     1      -8.677  54.272  49.202  0.00  0.00    +0.000 OA
ATOM      5  C   UNL     1     -10.802  55.171  48.675  0.00  0.00    +0.000 A 
ATOM      6  N   UNL     1     -12.269  55.624  50.576  0.00  0.00    +0.000 N 
ATOM      7  C   UNL     1     -12.029  55.654  49.183  0.00  0.00    +0.000 A 
ATOM      8  C   UNL     1     -10.516  55.176  47.302  0.00  0.00    +0.000 A 
ATOM      9  C   UNL     1     -12.946  56.152  48.243  0.00  0.00    +0.000 A 
ATOM     10  C   UNL     1     -11.442  55.687  46.400  0.00  0.00    +0.000 A 
ATOM     11  C   UNL     1     -12.654  56.179  46.873  0.00  0.00    +0.000 A 
ENDROOT
BRANCH   1  17
ATOM     12  S   UNL     1      -6.763  54.461  53.151  0.00  0.00    +0.000 S 
ATOM     13  O   UNL     1      -6.690  55.520  54.142  0.00  0.00    +0.000 OA
ATOM     14  O   UNL     1      -5.579  54.079  52.405  0.00  0.00    +0.000 OA
ATOM     15  N   UNL     1      -7.922  54.832  52.091  0.00  0.00    +0.000 N 
ATOM     16  C   UNL     1      -7.263  53.021  54.024  0.00  0.00    +0.000 A 
ATOM     17  C   UNL     1      -9.070  54.225  52.099  0.00  0.00    +0.000 C 
ATOM     18  C   UNL     1      -8.555  52.559  53.825  0.00  0.00    +0.000 A 
ATOM     19  C   UNL     1      -6.363  52.378  54.879  0.00  0.00    +0.000 A 
ATOM     20  N   UNL     1      -9.427  53.208  52.957  0.00  0.00    +0.000 N 
ATOM     21  C   UNL     1      -8.954  51.410  54.514  0.00  0.00    +0.000 A 
ATOM     22  C   UNL     1      -6.774  51.235  55.558  0.00  0.00    +0.000 A 
ATOM     23  C   UNL     1      -8.069  50.750  55.374  0.00  0.00    +0.000 A 
ATOM     24  H   UNL     1      -7.754  55.534  51.423  0.00  0.00    +0.000 HD
ATOM     25  H   UNL     1     -10.369  52.920  52.956  0.00  0.00    +0.000 HD
ENDBRANCH   1  17
BRANCH   6  26
ATOM     26  C   UNL     1     -13.537  56.141  51.126  0.00  0.00    +0.000 C 
BRANCH  26  27
ATOM     27  C   UNL     1     -13.297  56.883  52.446  0.00  0.00    +0.000 C 
BRANCH  27  28
ATOM     28  C   UNL     1     -14.528  57.666  52.945  0.00  0.00    +0.000 C 
ATOM     29  C   UNL     1     -14.553  59.106  52.430  0.00  0.00    +0.000 C 
ATOM     30  C   UNL     1     -15.810  56.947  52.514  0.00  0.00    +0.000 C 
ENDBRANCH  27  28
ENDBRANCH  26  27
ENDBRANCH   6  26
TORSDOF 4
ENDMDL
MODEL 4
REMARK VINA RESULT:      -8.2      2.458      8.185
REMARK  Name = 338642
REMARK  6 active torsions:
REMARK  status: ('A' for Active; 'I' for Inactive)
REMARK    1  A    between atoms: C_6  and  C_10
REMARK    2  A    between atoms: N_18  and  C_21
REMARK    3  A    between atoms: C_21  and  C_24
REMARK    4  A    between atoms: C_24  and  C_26
REMARK    5  A    between atoms: C_26  and  C_27
REMARK    6  A    between atoms: C_26  and  C_28
REMARK                            x       y       z     vdW  Elec       q    Type
REMARK                         _______ _______ _______ _____ _____    ______ ____
ROOT
ATOM      1  C   UNL     1     -10.077  54.399  52.319  0.00  0.00    +0.000 A 
ATOM      2  C   UNL     1     -10.294  53.141  53.077  0.00  0.00    +0.000 A 
ATOM      3  C   UNL     1      -8.835  54.906  52.341  0.00  0.00    +0.000 A 
ATOM      4  O   UNL     1     -11.408  52.619  53.121  0.00  0.00    +0.000 OA
ATOM      5  C   UNL     1      -9.139  52.546  53.792  0.00  0.00    +0.000 A 
ATOM      6  N   UNL     1      -7.736  54.387  53.010  0.00  0.00    +0.000 N 
ATOM      7  C   UNL     1      -7.884  53.194  53.754  0.00  0.00    +0.000 A 
ATOM      8  C   UNL     1      -9.338  51.359  54.512  0.00  0.00    +0.000 A 
ATOM      9  C   UNL     1      -6.845  52.596  54.485  0.00  0.00    +0.000 A 
ATOM     10  C   UNL     1      -8.290  50.800  55.234  0.00  0.00    +0.000 A 
ATOM     11  C   UNL     1      -7.046  51.422  55.224  0.00  0.00    +0.000 A 
ENDROOT
BRANCH   1  17
ATOM     12  S   UNL     1     -12.292  55.845  49.423  0.00  0.00    +0.000 S 
ATOM     13  O   UNL     1     -13.124  54.817  48.824  0.00  0.00    +0.000 OA
ATOM     14  O   UNL     1     -11.651  56.842  48.586  0.00  0.00    +0.000 OA
ATOM     15  N   UNL     1     -11.148  55.126  50.306  0.00  0.00    +0.000 N 
ATOM     16  C   UNL     1     -13.342  56.738  50.512  0.00  0.00    +0.000 A 
ATOM     17  C   UNL     1     -11.201  55.112  51.604  0.00  0.00    +0.000 C 
ATOM     18  C   UNL     1     -13.164  56.559  51.875  0.00  0.00    +0.000 A 
ATOM     19  C   UNL     1     -14.312  57.600  49.992  0.00  0.00    +0.000 A 
ATOM     20  N   UNL     1     -12.181  55.706  52.368  0.00  0.00    +0.000 N 
ATOM     21  C   UNL     1     -13.994  57.272  52.744  0.00  0.00    +0.000 A 
ATOM     22  C   UNL     1     -15.130  58.304  50.869  0.00  0.00    +0.000 A 
ATOM     23  C   UNL     1     -14.971  58.142  52.245  0.00  0.00    +0.000 A 
ATOM     24  H   UNL     1     -10.394  54.690  49.851  0.00  0.00    +0.000 HD
ATOM     25  H   UNL     1     -12.186  55.513  53.334  0.00  0.00    +0.000 HD
ENDBRANCH   1  17
BRANCH   6  26
ATOM     26  C   UNL     1      -6.437  55.087  52.973  0.00  0.00    +0.000 C 
BRANCH  26  27
ATOM     27  C   UNL     1      -5.568  54.565  51.824  0.00  0.00    +0.000 C 
BRANCH  27  28
ATOM     28  C   UNL     1      -4.144  54.168  52.260  0.00  0.00    +0.000 C 
ATOM     29  C   UNL     1      -3.848  54.551  53.711  0.00  0.00    +0.000 C 
ATOM     30  C   UNL     1      -3.949  52.659  52.082  0.00  0.00    +0.000 C 
ENDBRANCH  27  28
ENDBRANCH  26  27
ENDBRANCH   6  26
TORSDOF 4
ENDMDL
MODEL 5
REMARK VINA RESULT:      -8.0      3.527      6.912
REMARK  Name = 338642
REMARK  6 active torsions:
REMARK  status: ('A' for Active; 'I' for Inactive)
REMARK    1  A    between atoms: C_6  and  C_10
REMARK    2  A    between atoms: N_18  and  C_21
REMARK    3  A    between atoms: C_21  and  C_24
REMARK    4  A    between atoms: C_24  and  C_26
REMARK    5  A    between atoms: C_26  and  C_27
REMARK    6  A    between atoms: C_26  and  C_28
REMARK                            x       y       z     vdW  Elec       q    Type
REMARK                         _______ _______ _______ _____ _____    ______ ____
ROOT
ATOM      1  C   UNL     1     -11.373  56.135  48.804  0.00  0.00    +0.000 A 
ATOM      2  C   UNL     1     -11.533  55.620  47.421  0.00  0.00    +0.000 A 
ATOM      3  C   UNL     1     -10.308  55.695  49.489  0.00  0.00    +0.000 A 
ATOM      4  O   UNL     1     -12.492  55.962  46.730  0.00  0.00    +0.000 OA
ATOM      5  C   UNL     1     -10.517  54.669  46.907  0.00  0.00    +0.000 A 
ATOM      6  N   UNL     1      -9.348  54.796  49.048  0.00  0.00    +0.000 N 
ATOM      7  C   UNL     1      -9.451  54.266  47.741  0.00  0.00    +0.000 A 
ATOM      8  C   UNL     1     -10.664  54.176  45.601  0.00  0.00    +0.000 A 
ATOM      9  C   UNL     1      -8.548  53.334  47.203  0.00  0.00    +0.000 A 
ATOM     10  C   UNL     1      -9.758  53.246  45.104  0.00  0.00    +0.000 A 
ATOM     11  C   UNL     1      -8.705  52.822  45.907  0.00  0.00    +0.000 A 
ENDROOT
BRANCH   1  17
ATOM     12  S   UNL     1     -13.568  59.318  49.467  0.00  0.00    +0.000 S 
ATOM     13  O   UNL     1     -14.702  59.382  48.563  0.00  0.00    +0.000 OA
ATOM     14  O   UNL     1     -12.832  60.524  49.800  0.00  0.00    +0.000 OA
ATOM     15  N   UNL     1     -12.517  58.236  48.893  0.00  0.00    +0.000 N 
ATOM     16  C   UNL     1     -14.201  58.710  50.989  0.00  0.00    +0.000 A 
ATOM     17  C   UNL     1     -12.383  57.064  49.437  0.00  0.00    +0.000 C 
ATOM     18  C   UNL     1     -13.876  57.412  51.353  0.00  0.00    +0.000 A 
ATOM     19  C   UNL     1     -14.997  59.534  51.790  0.00  0.00    +0.000 A 
ATOM     20  N   UNL     1     -13.068  56.617  50.545  0.00  0.00    +0.000 N 
ATOM     21  C   UNL     1     -14.373  56.927  52.566  0.00  0.00    +0.000 A 
ATOM     22  C   UNL     1     -15.485  59.037  52.995  0.00  0.00    +0.000 A 
ATOM     23  C   UNL     1     -15.172  57.735  53.384  0.00  0.00    +0.000 A 
ATOM     24  H   UNL     1     -11.964  58.470  48.114  0.00  0.00    +0.000 HD
ATOM     25  H   UNL     1     -12.980  55.666  50.783  0.00  0.00    +0.000 HD
ENDBRANCH   1  17
BRANCH   6  26
ATOM     26  C   UNL     1      -8.251  54.372  49.940  0.00  0.00    +0.000 C 
BRANCH  26  27
ATOM     27  C   UNL     1      -8.800  53.653  51.177  0.00  0.00    +0.000 C 
BRANCH  27  28
ATOM     28  C   UNL     1      -8.561  54.419  52.493  0.00  0.00    +0.000 C 
ATOM     29  C   UNL     1      -7.727  55.686  52.288  0.00  0.00    +0.000 C 
ATOM     30  C   UNL     1      -9.904  54.790  53.129  0.00  0.00    +0.000 C 
ENDBRANCH  27  28
ENDBRANCH  26  27
ENDBRANCH   6  26
TORSDOF 4
ENDMDL
MODEL 6
REMARK VINA RESULT:      -8.0      1.811      4.138
REMARK  Name = 338642
REMARK  6 active torsions:
REMARK  status: ('A' for Active; 'I' for Inactive)
REMARK    1  A    between atoms: C_6  and  C_10
REMARK    2  A    between atoms: N_18  and  C_21
REMARK    3  A    between atoms: C_21  and  C_24
REMARK    4  A    between atoms: C_24  and  C_26
REMARK    5  A    between atoms: C_26  and  C_27
REMARK    6  A    between atoms: C_26  and  C_28
REMARK                            x       y       z     vdW  Elec       q    Type
REMARK                         _______ _______ _______ _____ _____    ______ ____
ROOT
ATOM      1  C   UNL     1     -10.081  55.250  50.726  0.00  0.00    +0.000 A 
ATOM      2  C   UNL     1     -11.444  55.726  51.073  0.00  0.00    +0.000 A 
ATOM      3  C   UNL     1      -9.759  55.251  49.424  0.00  0.00    +0.000 A 
ATOM      4  O   UNL     1     -11.824  55.742  52.243  0.00  0.00    +0.000 OA
ATOM      5  C   UNL     1     -12.336  56.162  49.970  0.00  0.00    +0.000 A 
ATOM      6  N   UNL     1     -10.571  55.635  48.366  0.00  0.00    +0.000 N 
ATOM      7  C   UNL     1     -11.881  56.092  48.635  0.00  0.00    +0.000 A 
ATOM      8  C   UNL     1     -13.626  56.610  50.292  0.00  0.00    +0.000 A 
ATOM      9  C   UNL     1     -12.791  56.483  47.639  0.00  0.00    +0.000 A 
ATOM     10  C   UNL     1     -14.505  56.979  49.281  0.00  0.00    +0.000 A 
ATOM     11  C   UNL     1     -14.088  56.910  47.956  0.00  0.00    +0.000 A 
ENDROOT
BRANCH   1  17
ATOM     12  S   UNL     1      -6.841  54.862  52.902  0.00  0.00    +0.000 S 
ATOM     13  O   UNL     1      -6.774  55.872  53.943  0.00  0.00    +0.000 OA
ATOM     14  O   UNL     1      -5.644  54.483  52.175  0.00  0.00    +0.000 OA
ATOM     15  N   UNL     1      -7.956  55.311  51.825  0.00  0.00    +0.000 N 
ATOM     16  C   UNL     1      -7.404  53.396  53.691  0.00  0.00    +0.000 A 
ATOM     17  C   UNL     1      -9.119  54.734  51.770  0.00  0.00    +0.000 C 
ATOM     18  C   UNL     1      -8.700  52.978  53.431  0.00  0.00    +0.000 A 
ATOM     19  C   UNL     1      -6.547  52.692  54.542  0.00  0.00    +0.000 A 
ATOM     20  N   UNL     1      -9.528  53.689  52.568  0.00  0.00    +0.000 N 
ATOM     21  C   UNL     1      -9.149  51.810  54.054  0.00  0.00    +0.000 A 
ATOM     22  C   UNL     1      -7.008  51.530  55.154  0.00  0.00    +0.000 A 
ATOM     23  C   UNL     1      -8.308  51.088  54.909  0.00  0.00    +0.000 A 
ATOM     24  H   UNL     1      -7.750  56.038  51.196  0.00  0.00    +0.000 HD
ATOM     25  H   UNL     1     -10.476  53.425  52.525  0.00  0.00    +0.000 HD
ENDBRANCH   1  17
BRANCH   6  26
ATOM     26  C   UNL     1     -10.085  55.538  46.976  0.00  0.00    +0.000 C 
BRANCH  26  27
ATOM     27  C   UNL     1     -10.034  54.077  46.515  0.00  0.00    +0.000 C 
BRANCH  27  28
ATOM     28  C   UNL     1     -11.298  53.623  45.761  0.00  0.00    +0.000 C 
ATOM     29  C   UNL     1     -10.976  53.008  44.397  0.00  0.00    +0.000 C 
ATOM     30  C   UNL     1     -12.071  52.607  46.608  0.00  0.00    +0.000 C 
ENDBRANCH  27  28
ENDBRANCH  26  27
ENDBRANCH   6  26
TORSDOF 4
ENDMDL
MODEL 7
REMARK VINA RESULT:      -8.0      2.451      4.518
REMARK  Name = 338642
REMARK  6 active torsions:
REMARK  status: ('A' for Active; 'I' for Inactive)
REMARK    1  A    between atoms: C_6  and  C_10
REMARK    2  A    between atoms: N_18  and  C_21
REMARK    3  A    between atoms: C_21  and  C_24
REMARK    4  A    between atoms: C_24  and  C_26
REMARK    5  A    between atoms: C_26  and  C_27
REMARK    6  A    between atoms: C_26  and  C_28
REMARK                            x       y       z     vdW  Elec       q    Type
REMARK                         _______ _______ _______ _____ _____    ______ ____
ROOT
ATOM      1  C   UNL     1     -10.434  55.618  50.495  0.00  0.00    +0.000 A 
ATOM      2  C   UNL     1     -11.534  55.778  51.478  0.00  0.00    +0.000 A 
ATOM      3  C   UNL     1     -10.759  55.758  49.201  0.00  0.00    +0.000 A 
ATOM      4  O   UNL     1     -11.323  55.651  52.683  0.00  0.00    +0.000 OA
ATOM      5  C   UNL     1     -12.894  56.077  50.965  0.00  0.00    +0.000 A 
ATOM      6  N   UNL     1     -12.020  56.020  48.684  0.00  0.00    +0.000 N 
ATOM      7  C   UNL     1     -13.109  56.177  49.572  0.00  0.00    +0.000 A 
ATOM      8  C   UNL     1     -13.939  56.227  51.889  0.00  0.00    +0.000 A 
ATOM      9  C   UNL     1     -14.427  56.423  49.155  0.00  0.00    +0.000 A 
ATOM     10  C   UNL     1     -15.234  56.458  51.441  0.00  0.00    +0.000 A 
ATOM     11  C   UNL     1     -15.477  56.550  50.074  0.00  0.00    +0.000 A 
ENDROOT
BRANCH   1  17
ATOM     12  S   UNL     1      -6.740  54.309  50.321  0.00  0.00    +0.000 S 
ATOM     13  O   UNL     1      -5.858  55.282  49.701  0.00  0.00    +0.000 OA
ATOM     14  O   UNL     1      -6.593  52.897  50.021  0.00  0.00    +0.000 OA
ATOM     15  N   UNL     1      -8.266  54.728  50.005  0.00  0.00    +0.000 N 
ATOM     16  C   UNL     1      -6.479  54.460  52.052  0.00  0.00    +0.000 A 
ATOM     17  C   UNL     1      -9.027  55.259  50.914  0.00  0.00    +0.000 C 
ATOM     18  C   UNL     1      -7.482  55.048  52.808  0.00  0.00    +0.000 A 
ATOM     19  C   UNL     1      -5.294  53.986  52.620  0.00  0.00    +0.000 A 
ATOM     20  N   UNL     1      -8.660  55.498  52.220  0.00  0.00    +0.000 N 
ATOM     21  C   UNL     1      -7.280  55.164  54.187  0.00  0.00    +0.000 A 
ATOM     22  C   UNL     1      -5.108  54.108  53.994  0.00  0.00    +0.000 A 
ATOM     23  C   UNL     1      -6.101  54.695  54.777  0.00  0.00    +0.000 A 
ATOM     24  H   UNL     1      -8.628  54.578  49.103  0.00  0.00    +0.000 HD
ATOM     25  H   UNL     1      -9.276  56.026  52.778  0.00  0.00    +0.000 HD
ENDBRANCH   1  17
BRANCH   6  26
ATOM     26  C   UNL     1     -12.229  56.103  47.226  0.00  0.00    +0.000 C 
BRANCH  26  27
ATOM     27  C   UNL     1     -11.183  55.270  46.476  0.00  0.00    +0.000 C 
BRANCH  27  28
ATOM     28  C   UNL     1     -11.751  53.978  45.857  0.00  0.00    +0.000 C 
ATOM     29  C   UNL     1     -10.846  53.406  44.764  0.00  0.00    +0.000 C 
ATOM     30  C   UNL     1     -11.956  52.926  46.951  0.00  0.00    +0.000 C 
ENDBRANCH  27  28
ENDBRANCH  26  27
ENDBRANCH   6  26
TORSDOF 4
ENDMDL
MODEL 8
REMARK VINA RESULT:      -7.9      2.282      2.476
REMARK  Name = 338642
REMARK  6 active torsions:
REMARK  status: ('A' for Active; 'I' for Inactive)
REMARK    1  A    between atoms: C_6  and  C_10
REMARK    2  A    between atoms: N_18  and  C_21
REMARK    3  A    between atoms: C_21  and  C_24
REMARK    4  A    between atoms: C_24  and  C_26
REMARK    5  A    between atoms: C_26  and  C_27
REMARK    6  A    between atoms: C_26  and  C_28
REMARK                            x       y       z     vdW  Elec       q    Type
REMARK                         _______ _______ _______ _____ _____    ______ ____
ROOT
ATOM      1  C   UNL     1      -9.966  55.454  50.326  0.00  0.00    +0.000 A 
ATOM      2  C   UNL     1     -10.295  55.764  48.912  0.00  0.00    +0.000 A 
ATOM      3  C   UNL     1     -10.977  55.517  51.205  0.00  0.00    +0.000 A 
ATOM      4  O   UNL     1      -9.422  55.744  48.046  0.00  0.00    +0.000 OA
ATOM      5  C   UNL     1     -11.698  56.116  48.581  0.00  0.00    +0.000 A 
ATOM      6  N   UNL     1     -12.295  55.858  50.935  0.00  0.00    +0.000 N 
ATOM      7  C   UNL     1     -12.666  56.169  49.607  0.00  0.00    +0.000 A 
ATOM      8  C   UNL     1     -12.015  56.414  47.247  0.00  0.00    +0.000 A 
ATOM      9  C   UNL     1     -13.965  56.548  49.228  0.00  0.00    +0.000 A 
ATOM     10  C   UNL     1     -13.307  56.795  46.908  0.00  0.00    +0.000 A 
ATOM     11  C   UNL     1     -14.279  56.867  47.900  0.00  0.00    +0.000 A 
ENDROOT
BRANCH   1  17
ATOM     12  S   UNL     1      -6.267  54.151  50.259  0.00  0.00    +0.000 S 
ATOM     13  O   UNL     1      -5.390  55.072  49.560  0.00  0.00    +0.000 OA
ATOM     14  O   UNL     1      -6.114  52.719  50.078  0.00  0.00    +0.000 OA
ATOM     15  N   UNL     1      -7.795  54.536  49.911  0.00  0.00    +0.000 N 
ATOM     16  C   UNL     1      -6.007  54.446  51.972  0.00  0.00    +0.000 A 
ATOM     17  C   UNL     1      -8.558  55.137  50.773  0.00  0.00    +0.000 C 
ATOM     18  C   UNL     1      -7.012  55.090  52.677  0.00  0.00    +0.000 A 
ATOM     19  C   UNL     1      -4.819  54.026  52.577  0.00  0.00    +0.000 A 
ATOM     20  N   UNL     1      -8.192  55.485  52.054  0.00  0.00    +0.000 N 
ATOM     21  C   UNL     1      -6.810  55.322  54.041  0.00  0.00    +0.000 A 
ATOM     22  C   UNL     1      -4.633  54.263  53.936  0.00  0.00    +0.000 A 
ATOM     23  C   UNL     1      -5.629  54.909  54.668  0.00  0.00    +0.000 A 
ATOM     24  H   UNL     1      -8.157  54.310  49.024  0.00  0.00    +0.000 HD
ATOM     25  H   UNL     1      -8.810  56.055  52.567  0.00  0.00    +0.000 HD
ENDBRANCH   1  17
BRANCH   6  26
ATOM     26  C   UNL     1     -13.289  55.925  52.024  0.00  0.00    +0.000 C 
BRANCH  26  27
ATOM     27  C   UNL     1     -13.355  57.337  52.617  0.00  0.00    +0.000 C 
BRANCH  27  28
ATOM     28  C   UNL     1     -14.776  57.770  53.024  0.00  0.00    +0.000 C 
ATOM     29  C   UNL     1     -15.077  59.222  52.644  0.00  0.00    +0.000 C 
ATOM     30  C   UNL     1     -15.808  56.848  52.368  0.00  0.00    +0.000 C 
ENDBRANCH  27  28
ENDBRANCH  26  27
ENDBRANCH   6  26
TORSDOF 4
ENDMDL
MODEL 9
REMARK VINA RESULT:      -7.8      1.977      2.535
REMARK  Name = 338642
REMARK  6 active torsions:
REMARK  status: ('A' for Active; 'I' for Inactive)
REMARK    1  A    between atoms: C_6  and  C_10
REMARK    2  A    between atoms: N_18  and  C_21
REMARK    3  A    between atoms: C_21  and  C_24
REMARK    4  A    between atoms: C_24  and  C_26
REMARK    5  A    between atoms: C_26  and  C_27
REMARK    6  A    between atoms: C_26  and  C_28
REMARK                            x       y       z     vdW  Elec       q    Type
REMARK                         _______ _______ _______ _____ _____    ______ ____
ROOT
ATOM      1  C   UNL     1     -10.307  55.390  50.608  0.00  0.00    +0.000 A 
ATOM      2  C   UNL     1     -10.463  55.661  49.156  0.00  0.00    +0.000 A 
ATOM      3  C   UNL     1     -11.401  55.544  51.368  0.00  0.00    +0.000 A 
ATOM      4  O   UNL     1      -9.504  55.558  48.392  0.00  0.00    +0.000 OA
ATOM      5  C   UNL     1     -11.798  56.075  48.661  0.00  0.00    +0.000 A 
ATOM      6  N   UNL     1     -12.659  55.945  50.943  0.00  0.00    +0.000 N 
ATOM      7  C   UNL     1     -12.867  56.223  49.573  0.00  0.00    +0.000 A 
ATOM      8  C   UNL     1     -11.952  56.335  47.291  0.00  0.00    +0.000 A 
ATOM      9  C   UNL     1     -14.093  56.656  49.041  0.00  0.00    +0.000 A 
ATOM     10  C   UNL     1     -13.176  56.773  46.800  0.00  0.00    +0.000 A 
ATOM     11  C   UNL     1     -14.243  56.938  47.676  0.00  0.00    +0.000 A 
ENDROOT
BRANCH   1  17
ATOM     12  S   UNL     1      -7.407  55.019  53.223  0.00  0.00    +0.000 S 
ATOM     13  O   UNL     1      -7.664  53.935  54.154  0.00  0.00    +0.000 OA
ATOM     14  O   UNL     1      -6.832  56.265  53.697  0.00  0.00    +0.000 OA
ATOM     15  N   UNL     1      -8.782  55.368  52.452  0.00  0.00    +0.000 N 
ATOM     16  C   UNL     1      -6.267  54.383  52.047  0.00  0.00    +0.000 A 
ATOM     17  C   UNL     1      -8.976  55.016  51.217  0.00  0.00    +0.000 C 
ATOM     18  C   UNL     1      -6.736  54.118  50.770  0.00  0.00    +0.000 A 
ATOM     19  C   UNL     1      -4.936  54.170  52.415  0.00  0.00    +0.000 A 
ATOM     20  N   UNL     1      -8.064  54.354  50.425  0.00  0.00    +0.000 N 
ATOM     21  C   UNL     1      -5.831  53.617  49.830  0.00  0.00    +0.000 A 
ATOM     22  C   UNL     1      -4.046  53.671  51.468  0.00  0.00    +0.000 A 
ATOM     23  C   UNL     1      -4.493  53.396  50.175  0.00  0.00    +0.000 A 
ATOM     24  H   UNL     1      -9.489  55.858  52.929  0.00  0.00    +0.000 HD
ATOM     25  H   UNL     1      -8.374  54.024  49.550  0.00  0.00    +0.000 HD
ENDBRANCH   1  17
BRANCH   6  26
ATOM     26  C   UNL     1     -13.759  56.111  51.913  0.00  0.00    +0.000 C 
BRANCH  26  27
ATOM     27  C   UNL     1     -13.692  57.488  52.585  0.00  0.00    +0.000 C 
BRANCH  27  28
ATOM     28  C   UNL     1     -14.835  58.434  52.167  0.00  0.00    +0.000 C 
ATOM     29  C   UNL     1     -15.439  59.182  53.358  0.00  0.00    +0.000 C 
ATOM     30  C   UNL     1     -14.321  59.445  51.138  0.00  0.00    +0.000 C 
ENDBRANCH  27  28
ENDBRANCH  26  27
ENDBRANCH   6  26
TORSDOF 4
ENDMDL
