MODEL 1
REMARK VINA RESULT:      -8.6      0.000      0.000
REMARK  Name = 338327
REMARK  10 active torsions:
REMARK  status: ('A' for Active; 'I' for Inactive)
REMARK    1  A    between atoms: C_6  and  C_10
REMARK    2  A    between atoms: C_14  and  O_18
REMARK    3  A    between atoms: N_17  and  C_21
REMARK    4  A    between atoms: C_21  and  C_24
REMARK    5  A    between atoms: C_24  and  C_27
REMARK    6  A    between atoms: C_25  and  O_28
REMARK    7  A    between atoms: C_27  and  C_29
REMARK    8  A    between atoms: C_27  and  C_30
REMARK    9  A    between atoms: O_28  and  C_31
REMARK   10  A    between atoms: C_31  and  C_32
REMARK                            x       y       z     vdW  Elec       q    Type
REMARK                         _______ _______ _______ _____ _____    ______ ____
ROOT
ATOM      1  C   UNL     1     -10.825  54.411  48.480  0.00  0.00    +0.000 A 
ATOM      2  C   UNL     1     -10.373  54.009  49.847  0.00  0.00    +0.000 A 
ATOM      3  C   UNL     1     -11.845  55.274  48.337  0.00  0.00    +0.000 A 
ATOM      4  O   UNL     1      -9.359  53.310  49.942  0.00  0.00    +0.000 OA
ATOM      5  N   UNL     1     -11.092  54.454  50.950  0.00  0.00    +0.000 N 
ATOM      6  C   UNL     1     -12.512  55.839  49.518  0.00  0.00    +0.000 A 
ATOM      7  C   UNL     1     -12.117  55.438  50.805  0.00  0.00    +0.000 A 
ATOM      8  C   UNL     1     -13.525  56.802  49.376  0.00  0.00    +0.000 A 
ATOM      9  C   UNL     1     -12.723  56.050  51.912  0.00  0.00    +0.000 A 
ATOM     10  C   UNL     1     -14.150  57.366  50.486  0.00  0.00    +0.000 A 
ATOM     11  C   UNL     1     -13.740  56.995  51.757  0.00  0.00    +0.000 A 
ENDROOT
BRANCH   1  17
ATOM     12  S   UNL     1      -7.976  53.897  45.821  0.00  0.00    +0.000 S 
ATOM     13  O   UNL     1      -6.932  53.001  46.276  0.00  0.00    +0.000 OA
ATOM     14  O   UNL     1      -7.641  55.106  45.091  0.00  0.00    +0.000 OA
ATOM     15  N   UNL     1      -8.856  54.325  47.117  0.00  0.00    +0.000 N 
ATOM     16  C   UNL     1      -8.995  52.953  44.747  0.00  0.00    +0.000 A 
ATOM     17  C   UNL     1     -10.072  53.890  47.272  0.00  0.00    +0.000 C 
ATOM     18  C   UNL     1     -10.270  52.628  45.181  0.00  0.00    +0.000 A 
ATOM     19  C   UNL     1      -8.518  52.561  43.491  0.00  0.00    +0.000 A 
ATOM     20  N   UNL     1     -10.729  53.013  46.436  0.00  0.00    +0.000 N 
ATOM     21  C   UNL     1     -11.066  51.827  44.356  0.00  0.00    +0.000 A 
ATOM     22  C   UNL     1      -9.335  51.793  42.666  0.00  0.00    +0.000 A 
ATOM     23  C   UNL     1     -10.606  51.419  43.101  0.00  0.00    +0.000 A 
ATOM     24  H   UNL     1      -8.463  54.921  47.794  0.00  0.00    +0.000 HD
ATOM     25  H   UNL     1     -11.582  52.633  46.749  0.00  0.00    +0.000 HD
ENDBRANCH   1  17
BRANCH   3  26
ATOM     26  O   UNL     1     -12.314  55.737  47.120  0.00  0.00    +0.000 OA
ATOM     27  H   UNL     1     -11.868  56.433  46.679  0.00  0.00    +0.000 HD
ENDBRANCH   3  26
BRANCH   5  28
ATOM     28  C   UNL     1     -10.666  53.991  52.277  0.00  0.00    +0.000 C 
BRANCH  28  29
ATOM     29  C   UNL     1      -9.830  54.987  53.100  0.00  0.00    +0.000 C 
BRANCH  29  30
ATOM     30  C   UNL     1      -8.313  54.992  52.845  0.00  0.00    +0.000 C 
ATOM     31  C   UNL     1      -7.906  55.989  51.763  0.00  0.00    +0.000 C 
ATOM     32  C   UNL     1      -7.596  55.330  54.158  0.00  0.00    +0.000 C 
ENDBRANCH  29  30
ENDBRANCH  28  29
ENDBRANCH   5  28
BRANCH  10  33
ATOM     33  O   UNL     1     -15.092  58.312  50.208  0.00  0.00    +0.000 OA
BRANCH  33  34
ATOM     34  C   UNL     1     -14.816  59.630  50.683  0.00  0.00    +0.000 C 
BRANCH  34  35
ATOM     35  C   UNL     1     -13.958  60.380  49.670  0.00  0.00    +0.000 C 
ATOM     36  O   UNL     1     -12.749  60.539  49.805  0.00  0.00    +0.000 OA
ATOM     37  N   UNL     1     -14.614  60.851  48.569  0.00  0.00    +0.000 N 
ATOM     38  H   UNL     1     -15.585  60.713  48.479  0.00  0.00    +0.000 HD
ATOM     39  H   UNL     1     -14.117  61.328  47.866  0.00  0.00    +0.000 HD
ENDBRANCH  34  35
ENDBRANCH  33  34
ENDBRANCH  10  33
TORSDOF 8
ENDMDL
MODEL 2
REMARK VINA RESULT:      -8.4      2.811      6.299
REMARK  Name = 338327
REMARK  10 active torsions:
REMARK  status: ('A' for Active; 'I' for Inactive)
REMARK    1  A    between atoms: C_6  and  C_10
REMARK    2  A    between atoms: C_14  and  O_18
REMARK    3  A    between atoms: N_17  and  C_21
REMARK    4  A    between atoms: C_21  and  C_24
REMARK    5  A    between atoms: C_24  and  C_27
REMARK    6  A    between atoms: C_25  and  O_28
REMARK    7  A    between atoms: C_27  and  C_29
REMARK    8  A    between atoms: C_27  and  C_30
REMARK    9  A    between atoms: O_28  and  C_31
REMARK   10  A    between atoms: C_31  and  C_32
REMARK                            x       y       z     vdW  Elec       q    Type
REMARK                         _______ _______ _______ _____ _____    ______ ____
ROOT
ATOM      1  C   UNL     1      -9.933  54.529  50.832  0.00  0.00    +0.000 A 
ATOM      2  C   UNL     1      -9.663  54.171  49.405  0.00  0.00    +0.000 A 
ATOM      3  C   UNL     1     -10.951  55.351  51.137  0.00  0.00    +0.000 A 
ATOM      4  O   UNL     1      -8.798  53.323  49.172  0.00  0.00    +0.000 OA
ATOM      5  N   UNL     1     -10.408  54.787  48.407  0.00  0.00    +0.000 N 
ATOM      6  C   UNL     1     -11.814  55.891  50.078  0.00  0.00    +0.000 A 
ATOM      7  C   UNL     1     -11.545  55.590  48.733  0.00  0.00    +0.000 A 
ATOM      8  C   UNL     1     -12.928  56.686  50.397  0.00  0.00    +0.000 A 
ATOM      9  C   UNL     1     -12.429  56.060  47.751  0.00  0.00    +0.000 A 
ATOM     10  C   UNL     1     -13.770  57.185  49.406  0.00  0.00    +0.000 A 
ATOM     11  C   UNL     1     -13.524  56.862  48.080  0.00  0.00    +0.000 A 
ENDROOT
BRANCH   1  17
ATOM     12  S   UNL     1      -6.798  53.408  52.923  0.00  0.00    +0.000 S 
ATOM     13  O   UNL     1      -6.290  54.456  53.785  0.00  0.00    +0.000 OA
ATOM     14  O   UNL     1      -5.886  52.554  52.185  0.00  0.00    +0.000 OA
ATOM     15  N   UNL     1      -7.809  54.098  51.856  0.00  0.00    +0.000 N 
ATOM     16  C   UNL     1      -7.731  52.338  53.956  0.00  0.00    +0.000 A 
ATOM     17  C   UNL     1      -9.092  53.895  51.922  0.00  0.00    +0.000 C 
ATOM     18  C   UNL     1      -9.108  52.326  53.805  0.00  0.00    +0.000 A 
ATOM     19  C   UNL     1      -7.082  51.520  54.888  0.00  0.00    +0.000 A 
ATOM     20  N   UNL     1      -9.744  53.152  52.884  0.00  0.00    +0.000 N 
ATOM     21  C   UNL     1      -9.862  51.520  54.663  0.00  0.00    +0.000 A 
ATOM     22  C   UNL     1      -7.844  50.696  55.712  0.00  0.00    +0.000 A 
ATOM     23  C   UNL     1      -9.234  50.702  55.606  0.00  0.00    +0.000 A 
ATOM     24  H   UNL     1      -7.446  54.678  51.149  0.00  0.00    +0.000 HD
ATOM     25  H   UNL     1     -10.726  53.211  52.921  0.00  0.00    +0.000 HD
ENDBRANCH   1  17
BRANCH   3  26
ATOM     26  O   UNL     1     -11.306  55.713  52.425  0.00  0.00    +0.000 OA
ATOM     27  H   UNL     1     -10.980  56.509  52.795  0.00  0.00    +0.000 HD
ENDBRANCH   3  26
BRANCH   5  28
ATOM     28  C   UNL     1     -10.080  54.468  47.011  0.00  0.00    +0.000 C 
BRANCH  28  29
ATOM     29  C   UNL     1      -8.958  55.310  46.376  0.00  0.00    +0.000 C 
BRANCH  29  30
ATOM     30  C   UNL     1      -7.878  54.543  45.594  0.00  0.00    +0.000 C 
ATOM     31  C   UNL     1      -6.732  54.075  46.488  0.00  0.00    +0.000 C 
ATOM     32  C   UNL     1      -8.531  53.333  44.914  0.00  0.00    +0.000 C 
ENDBRANCH  29  30
ENDBRANCH  28  29
ENDBRANCH   5  28
BRANCH  10  33
ATOM     33  O   UNL     1     -14.832  57.913  49.855  0.00  0.00    +0.000 OA
BRANCH  33  34
ATOM     34  C   UNL     1     -14.515  59.095  50.591  0.00  0.00    +0.000 C 
BRANCH  34  35
ATOM     35  C   UNL     1     -14.128  60.217  49.634  0.00  0.00    +0.000 C 
ATOM     36  O   UNL     1     -14.934  60.770  48.893  0.00  0.00    +0.000 OA
ATOM     37  N   UNL     1     -12.819  60.600  49.667  0.00  0.00    +0.000 N 
ATOM     38  H   UNL     1     -12.187  60.144  50.270  0.00  0.00    +0.000 HD
ATOM     39  H   UNL     1     -12.505  61.333  49.088  0.00  0.00    +0.000 HD
ENDBRANCH  34  35
ENDBRANCH  33  34
ENDBRANCH  10  33
TORSDOF 8
ENDMDL
MODEL 3
REMARK VINA RESULT:      -8.3      2.930      6.665
REMARK  Name = 338327
REMARK  10 active torsions:
REMARK  status: ('A' for Active; 'I' for Inactive)
REMARK    1  A    between atoms: C_6  and  C_10
REMARK    2  A    between atoms: C_14  and  O_18
REMARK    3  A    between atoms: N_17  and  C_21
REMARK    4  A    between atoms: C_21  and  C_24
REMARK    5  A    between atoms: C_24  and  C_27
REMARK    6  A    between atoms: C_25  and  O_28
REMARK    7  A    between atoms: C_27  and  C_29
REMARK    8  A    between atoms: C_27  and  C_30
REMARK    9  A    between atoms: O_28  and  C_31
REMARK   10  A    between atoms: C_31  and  C_32
REMARK                            x       y       z     vdW  Elec       q    Type
REMARK                         _______ _______ _______ _____ _____    ______ ____
ROOT
ATOM      1  C   UNL     1      -9.362  54.781  50.442  0.00  0.00    +0.000 A 
ATOM      2  C   UNL     1      -8.898  54.522  49.045  0.00  0.00    +0.000 A 
ATOM      3  C   UNL     1     -10.547  55.374  50.658  0.00  0.00    +0.000 A 
ATOM      4  O   UNL     1      -7.862  53.870  48.886  0.00  0.00    +0.000 OA
ATOM      5  N   UNL     1      -9.659  55.003  47.986  0.00  0.00    +0.000 N 
ATOM      6  C   UNL     1     -11.403  55.759  49.527  0.00  0.00    +0.000 A 
ATOM      7  C   UNL     1     -10.958  55.554  48.210  0.00  0.00    +0.000 A 
ATOM      8  C   UNL     1     -12.678  56.307  49.747  0.00  0.00    +0.000 A 
ATOM      9  C   UNL     1     -11.827  55.865  47.154  0.00  0.00    +0.000 A 
ATOM     10  C   UNL     1     -13.510  56.654  48.686  0.00  0.00    +0.000 A 
ATOM     11  C   UNL     1     -13.086  56.423  47.387  0.00  0.00    +0.000 A 
ENDROOT
BRANCH   1  17
ATOM     12  S   UNL     1      -6.284  54.299  52.840  0.00  0.00    +0.000 S 
ATOM     13  O   UNL     1      -6.128  55.386  53.785  0.00  0.00    +0.000 OA
ATOM     14  O   UNL     1      -5.125  53.721  52.185  0.00  0.00    +0.000 OA
ATOM     15  N   UNL     1      -7.313  54.795  51.687  0.00  0.00    +0.000 N 
ATOM     16  C   UNL     1      -7.039  52.987  53.729  0.00  0.00    +0.000 A 
ATOM     17  C   UNL     1      -8.511  54.298  51.601  0.00  0.00    +0.000 C 
ATOM     18  C   UNL     1      -8.352  52.666  53.422  0.00  0.00    +0.000 A 
ATOM     19  C   UNL     1      -6.316  52.290  54.703  0.00  0.00    +0.000 A 
ATOM     20  N   UNL     1      -9.066  53.373  52.461  0.00  0.00    +0.000 N 
ATOM     21  C   UNL     1      -8.979  51.661  54.165  0.00  0.00    +0.000 A 
ATOM     22  C   UNL     1      -6.942  51.268  55.411  0.00  0.00    +0.000 A 
ATOM     23  C   UNL     1      -8.276  50.958  55.148  0.00  0.00    +0.000 A 
ATOM     24  H   UNL     1      -7.025  55.482  51.043  0.00  0.00    +0.000 HD
ATOM     25  H   UNL     1     -10.032  53.201  52.388  0.00  0.00    +0.000 HD
ENDBRANCH   1  17
BRANCH   3  26
ATOM     26  O   UNL     1     -11.083  55.623  51.910  0.00  0.00    +0.000 OA
ATOM     27  H   UNL     1     -10.551  56.006  52.580  0.00  0.00    +0.000 HD
ENDBRANCH   3  26
BRANCH   5  28
ATOM     28  C   UNL     1      -9.148  54.794  46.625  0.00  0.00    +0.000 C 
BRANCH  28  29
ATOM     29  C   UNL     1      -9.467  53.429  45.989  0.00  0.00    +0.000 C 
BRANCH  29  30
ATOM     30  C   UNL     1     -10.444  53.431  44.802  0.00  0.00    +0.000 C 
ATOM     31  C   UNL     1      -9.881  52.707  43.581  0.00  0.00    +0.000 C 
ATOM     32  C   UNL     1     -11.753  52.762  45.242  0.00  0.00    +0.000 C 
ENDBRANCH  29  30
ENDBRANCH  28  29
ENDBRANCH   5  28
BRANCH  10  33
ATOM     33  O   UNL     1     -14.733  57.143  49.039  0.00  0.00    +0.000 OA
BRANCH  33  34
ATOM     34  C   UNL     1     -14.854  57.620  50.380  0.00  0.00    +0.000 C 
BRANCH  34  35
ATOM     35  C   UNL     1     -15.874  56.781  51.142  0.00  0.00    +0.000 C 
ATOM     36  O   UNL     1     -15.983  56.809  52.364  0.00  0.00    +0.000 OA
ATOM     37  N   UNL     1     -16.694  56.003  50.377  0.00  0.00    +0.000 N 
ATOM     38  H   UNL     1     -16.590  55.995  49.397  0.00  0.00    +0.000 HD
ATOM     39  H   UNL     1     -17.388  55.451  50.803  0.00  0.00    +0.000 HD
ENDBRANCH  34  35
ENDBRANCH  33  34
ENDBRANCH  10  33
TORSDOF 8
ENDMDL
MODEL 4
REMARK VINA RESULT:      -8.3      2.743      8.083
REMARK  Name = 338327
REMARK  10 active torsions:
REMARK  status: ('A' for Active; 'I' for Inactive)
REMARK    1  A    between atoms: C_6  and  C_10
REMARK    2  A    between atoms: C_14  and  O_18
REMARK    3  A    between atoms: N_17  and  C_21
REMARK    4  A    between atoms: C_21  and  C_24
REMARK    5  A    between atoms: C_24  and  C_27
REMARK    6  A    between atoms: C_25  and  O_28
REMARK    7  A    between atoms: C_27  and  C_29
REMARK    8  A    between atoms: C_27  and  C_30
REMARK    9  A    between atoms: O_28  and  C_31
REMARK   10  A    between atoms: C_31  and  C_32
REMARK                            x       y       z     vdW  Elec       q    Type
REMARK                         _______ _______ _______ _____ _____    ______ ____
ROOT
ATOM      1  C   UNL     1     -11.219  56.058  48.914  0.00  0.00    +0.000 A 
ATOM      2  C   UNL     1     -10.159  55.516  49.817  0.00  0.00    +0.000 A 
ATOM      3  C   UNL     1     -11.262  55.679  47.626  0.00  0.00    +0.000 A 
ATOM      4  O   UNL     1     -10.221  55.792  51.019  0.00  0.00    +0.000 OA
ATOM      5  N   UNL     1      -9.164  54.710  49.277  0.00  0.00    +0.000 N 
ATOM      6  C   UNL     1     -10.280  54.721  47.099  0.00  0.00    +0.000 A 
ATOM      7  C   UNL     1      -9.258  54.236  47.932  0.00  0.00    +0.000 A 
ATOM      8  C   UNL     1     -10.368  54.260  45.775  0.00  0.00    +0.000 A 
ATOM      9  C   UNL     1      -8.381  53.268  47.421  0.00  0.00    +0.000 A 
ATOM     10  C   UNL     1      -9.460  53.333  45.268  0.00  0.00    +0.000 A 
ATOM     11  C   UNL     1      -8.470  52.830  46.098  0.00  0.00    +0.000 A 
ENDROOT
BRANCH   1  17
ATOM     12  S   UNL     1     -13.522  59.201  49.439  0.00  0.00    +0.000 S 
ATOM     13  O   UNL     1     -14.651  59.233  48.531  0.00  0.00    +0.000 OA
ATOM     14  O   UNL     1     -12.784  60.414  49.740  0.00  0.00    +0.000 OA
ATOM     15  N   UNL     1     -12.467  58.104  48.872  0.00  0.00    +0.000 N 
ATOM     16  C   UNL     1     -14.149  58.624  50.974  0.00  0.00    +0.000 A 
ATOM     17  C   UNL     1     -12.280  56.975  49.490  0.00  0.00    +0.000 C 
ATOM     18  C   UNL     1     -13.775  57.357  51.393  0.00  0.00    +0.000 A 
ATOM     19  C   UNL     1     -14.987  59.440  51.741  0.00  0.00    +0.000 A 
ATOM     20  N   UNL     1     -12.951  56.550  50.617  0.00  0.00    +0.000 N 
ATOM     21  C   UNL     1     -14.316  56.868  52.587  0.00  0.00    +0.000 A 
ATOM     22  C   UNL     1     -15.491  58.953  52.945  0.00  0.00    +0.000 A 
ATOM     23  C   UNL     1     -15.162  57.664  53.364  0.00  0.00    +0.000 A 
ATOM     24  H   UNL     1     -11.962  58.297  48.050  0.00  0.00    +0.000 HD
ATOM     25  H   UNL     1     -12.838  55.611  50.892  0.00  0.00    +0.000 HD
ENDBRANCH   1  17
BRANCH   3  26
ATOM     26  O   UNL     1     -12.223  56.092  46.719  0.00  0.00    +0.000 OA
ATOM     27  H   UNL     1     -13.003  56.515  47.021  0.00  0.00    +0.000 HD
ENDBRANCH   3  26
BRANCH   5  28
ATOM     28  C   UNL     1      -8.097  54.245  50.172  0.00  0.00    +0.000 C 
BRANCH  28  29
ATOM     29  C   UNL     1      -6.836  55.126  50.229  0.00  0.00    +0.000 C 
BRANCH  29  30
ATOM     30  C   UNL     1      -5.490  54.396  50.375  0.00  0.00    +0.000 C 
ATOM     31  C   UNL     1      -5.659  52.939  50.801  0.00  0.00    +0.000 C 
ATOM     32  C   UNL     1      -4.749  54.461  49.034  0.00  0.00    +0.000 C 
ENDBRANCH  29  30
ENDBRANCH  28  29
ENDBRANCH   5  28
BRANCH  10  33
ATOM     33  O   UNL     1      -9.679  52.945  43.979  0.00  0.00    +0.000 OA
BRANCH  33  34
ATOM     34  C   UNL     1      -8.794  51.950  43.465  0.00  0.00    +0.000 C 
BRANCH  34  35
ATOM     35  C   UNL     1      -9.589  50.869  42.741  0.00  0.00    +0.000 C 
ATOM     36  O   UNL     1      -9.082  49.831  42.328  0.00  0.00    +0.000 OA
ATOM     37  N   UNL     1     -10.925  51.108  42.600  0.00  0.00    +0.000 N 
ATOM     38  H   UNL     1     -11.313  51.948  42.939  0.00  0.00    +0.000 HD
ATOM     39  H   UNL     1     -11.501  50.443  42.159  0.00  0.00    +0.000 HD
ENDBRANCH  34  35
ENDBRANCH  33  34
ENDBRANCH  10  33
TORSDOF 8
ENDMDL
MODEL 5
REMARK VINA RESULT:      -8.2      3.227      8.476
REMARK  Name = 338327
REMARK  10 active torsions:
REMARK  status: ('A' for Active; 'I' for Inactive)
REMARK    1  A    between atoms: C_6  and  C_10
REMARK    2  A    between atoms: C_14  and  O_18
REMARK    3  A    between atoms: N_17  and  C_21
REMARK    4  A    between atoms: C_21  and  C_24
REMARK    5  A    between atoms: C_24  and  C_27
REMARK    6  A    between atoms: C_25  and  O_28
REMARK    7  A    between atoms: C_27  and  C_29
REMARK    8  A    between atoms: C_27  and  C_30
REMARK    9  A    between atoms: O_28  and  C_31
REMARK   10  A    between atoms: C_31  and  C_32
REMARK                            x       y       z     vdW  Elec       q    Type
REMARK                         _______ _______ _______ _____ _____    ______ ____
ROOT
ATOM      1  C   UNL     1     -12.190  54.283  50.318  0.00  0.00    +0.000 A 
ATOM      2  C   UNL     1     -11.937  53.830  48.915  0.00  0.00    +0.000 A 
ATOM      3  C   UNL     1     -11.589  53.659  51.344  0.00  0.00    +0.000 A 
ATOM      4  O   UNL     1     -12.411  54.500  47.993  0.00  0.00    +0.000 OA
ATOM      5  N   UNL     1     -11.165  52.694  48.707  0.00  0.00    +0.000 N 
ATOM      6  C   UNL     1     -10.670  52.540  51.098  0.00  0.00    +0.000 A 
ATOM      7  C   UNL     1     -10.456  52.083  49.787  0.00  0.00    +0.000 A 
ATOM      8  C   UNL     1      -9.977  51.935  52.161  0.00  0.00    +0.000 A 
ATOM      9  C   UNL     1      -9.517  51.062  49.578  0.00  0.00    +0.000 A 
ATOM     10  C   UNL     1      -9.084  50.889  51.942  0.00  0.00    +0.000 A 
ATOM     11  C   UNL     1      -8.847  50.459  50.645  0.00  0.00    +0.000 A 
ENDROOT
BRANCH   1  17
ATOM     12  S   UNL     1     -15.281  56.483  51.350  0.00  0.00    +0.000 S 
ATOM     13  O   UNL     1     -15.336  56.747  52.774  0.00  0.00    +0.000 OA
ATOM     14  O   UNL     1     -16.490  56.164  50.612  0.00  0.00    +0.000 OA
ATOM     15  N   UNL     1     -14.221  55.275  51.116  0.00  0.00    +0.000 N 
ATOM     16  C   UNL     1     -14.634  57.938  50.610  0.00  0.00    +0.000 A 
ATOM     17  C   UNL     1     -13.070  55.495  50.552  0.00  0.00    +0.000 C 
ATOM     18  C   UNL     1     -13.356  57.882  50.078  0.00  0.00    +0.000 A 
ATOM     19  C   UNL     1     -15.407  59.103  50.557  0.00  0.00    +0.000 A 
ATOM     20  N   UNL     1     -12.591  56.723  50.146  0.00  0.00    +0.000 N 
ATOM     21  C   UNL     1     -12.811  59.052  49.539  0.00  0.00    +0.000 A 
ATOM     22  C   UNL     1     -14.865  60.251  49.986  0.00  0.00    +0.000 A 
ATOM     23  C   UNL     1     -13.564  60.228  49.484  0.00  0.00    +0.000 A 
ATOM     24  H   UNL     1     -14.454  54.364  51.405  0.00  0.00    +0.000 HD
ATOM     25  H   UNL     1     -11.643  56.782  49.886  0.00  0.00    +0.000 HD
ENDBRANCH   1  17
BRANCH   3  26
ATOM     26  O   UNL     1     -11.728  54.024  52.672  0.00  0.00    +0.000 OA
ATOM     27  H   UNL     1     -12.196  54.803  52.898  0.00  0.00    +0.000 HD
ENDBRANCH   3  26
BRANCH   5  28
ATOM     28  C   UNL     1     -10.985  52.231  47.325  0.00  0.00    +0.000 C 
BRANCH  28  29
ATOM     29  C   UNL     1      -9.798  52.844  46.559  0.00  0.00    +0.000 C 
BRANCH  29  30
ATOM     30  C   UNL     1     -10.113  53.491  45.200  0.00  0.00    +0.000 C 
ATOM     31  C   UNL     1      -9.159  53.031  44.100  0.00  0.00    +0.000 C 
ATOM     32  C   UNL     1     -11.556  53.141  44.813  0.00  0.00    +0.000 C 
ENDBRANCH  29  30
ENDBRANCH  28  29
ENDBRANCH   5  28
BRANCH  10  33
ATOM     33  O   UNL     1      -8.454  50.416  53.055  0.00  0.00    +0.000 OA
BRANCH  33  34
ATOM     34  C   UNL     1      -8.357  51.324  54.153  0.00  0.00    +0.000 C 
BRANCH  34  35
ATOM     35  C   UNL     1      -9.136  50.783  55.347  0.00  0.00    +0.000 C 
ATOM     36  O   UNL     1      -8.850  49.733  55.912  0.00  0.00    +0.000 OA
ATOM     37  N   UNL     1     -10.172  51.558  55.781  0.00  0.00    +0.000 N 
ATOM     38  H   UNL     1     -10.387  52.399  55.314  0.00  0.00    +0.000 HD
ATOM     39  H   UNL     1     -10.705  51.278  56.560  0.00  0.00    +0.000 HD
ENDBRANCH  34  35
ENDBRANCH  33  34
ENDBRANCH  10  33
TORSDOF 8
ENDMDL
MODEL 6
REMARK VINA RESULT:      -8.2      3.108      7.781
REMARK  Name = 338327
REMARK  10 active torsions:
REMARK  status: ('A' for Active; 'I' for Inactive)
REMARK    1  A    between atoms: C_6  and  C_10
REMARK    2  A    between atoms: C_14  and  O_18
REMARK    3  A    between atoms: N_17  and  C_21
REMARK    4  A    between atoms: C_21  and  C_24
REMARK    5  A    between atoms: C_24  and  C_27
REMARK    6  A    between atoms: C_25  and  O_28
REMARK    7  A    between atoms: C_27  and  C_29
REMARK    8  A    between atoms: C_27  and  C_30
REMARK    9  A    between atoms: O_28  and  C_31
REMARK   10  A    between atoms: C_31  and  C_32
REMARK                            x       y       z     vdW  Elec       q    Type
REMARK                         _______ _______ _______ _____ _____    ______ ____
ROOT
ATOM      1  C   UNL     1      -9.753  54.020  50.984  0.00  0.00    +0.000 A 
ATOM      2  C   UNL     1     -10.819  55.033  51.253  0.00  0.00    +0.000 A 
ATOM      3  C   UNL     1      -9.524  53.603  49.727  0.00  0.00    +0.000 A 
ATOM      4  O   UNL     1     -10.921  55.480  52.400  0.00  0.00    +0.000 OA
ATOM      5  N   UNL     1     -11.632  55.446  50.204  0.00  0.00    +0.000 N 
ATOM      6  C   UNL     1     -10.306  54.149  48.609  0.00  0.00    +0.000 A 
ATOM      7  C   UNL     1     -11.334  55.073  48.858  0.00  0.00    +0.000 A 
ATOM      8  C   UNL     1     -10.018  53.777  47.285  0.00  0.00    +0.000 A 
ATOM      9  C   UNL     1     -12.013  55.630  47.764  0.00  0.00    +0.000 A 
ATOM     10  C   UNL     1     -10.734  54.304  46.212  0.00  0.00    +0.000 A 
ATOM     11  C   UNL     1     -11.727  55.240  46.453  0.00  0.00    +0.000 A 
ENDROOT
BRANCH   1  17
ATOM     12  S   UNL     1      -6.617  53.400  53.271  0.00  0.00    +0.000 S 
ATOM     13  O   UNL     1      -6.316  54.524  54.135  0.00  0.00    +0.000 OA
ATOM     14  O   UNL     1      -5.549  52.677  52.605  0.00  0.00    +0.000 OA
ATOM     15  N   UNL     1      -7.652  53.919  52.134  0.00  0.00    +0.000 N 
ATOM     16  C   UNL     1      -7.443  52.221  54.276  0.00  0.00    +0.000 A 
ATOM     17  C   UNL     1      -8.894  53.531  52.133  0.00  0.00    +0.000 C 
ATOM     18  C   UNL     1      -8.793  52.007  54.049  0.00  0.00    +0.000 A 
ATOM     19  C   UNL     1      -6.738  51.521  55.262  0.00  0.00    +0.000 A 
ATOM     20  N   UNL     1      -9.487  52.717  53.075  0.00  0.00    +0.000 N 
ATOM     21  C   UNL     1      -9.471  51.112  54.883  0.00  0.00    +0.000 A 
ATOM     22  C   UNL     1      -7.419  50.607  56.062  0.00  0.00    +0.000 A 
ATOM     23  C   UNL     1      -8.787  50.409  55.879  0.00  0.00    +0.000 A 
ATOM     24  H   UNL     1      -7.336  54.535  51.435  0.00  0.00    +0.000 HD
ATOM     25  H   UNL     1     -10.467  52.632  53.056  0.00  0.00    +0.000 HD
ENDBRANCH   1  17
BRANCH   3  26
ATOM     26  O   UNL     1      -8.539  52.699  49.369  0.00  0.00    +0.000 OA
ATOM     27  H   UNL     1      -7.820  52.976  48.835  0.00  0.00    +0.000 HD
ENDBRANCH   3  26
BRANCH   5  28
ATOM     28  C   UNL     1     -12.714  56.392  50.508  0.00  0.00    +0.000 C 
BRANCH  28  29
ATOM     29  C   UNL     1     -14.083  55.767  50.830  0.00  0.00    +0.000 C 
BRANCH  29  30
ATOM     30  C   UNL     1     -15.254  56.740  51.044  0.00  0.00    +0.000 C 
ATOM     31  C   UNL     1     -16.578  56.183  50.528  0.00  0.00    +0.000 C 
ATOM     32  C   UNL     1     -15.369  57.046  52.543  0.00  0.00    +0.000 C 
ENDBRANCH  29  30
ENDBRANCH  28  29
ENDBRANCH   5  28
BRANCH  10  33
ATOM     33  O   UNL     1     -10.329  53.885  44.979  0.00  0.00    +0.000 OA
BRANCH  33  34
ATOM     34  C   UNL     1     -11.004  52.741  44.454  0.00  0.00    +0.000 C 
BRANCH  34  35
ATOM     35  C   UNL     1     -10.289  52.244  43.202  0.00  0.00    +0.000 C 
ATOM     36  O   UNL     1      -9.283  52.781  42.749  0.00  0.00    +0.000 OA
ATOM     37  N   UNL     1     -10.819  51.131  42.617  0.00  0.00    +0.000 N 
ATOM     38  H   UNL     1     -11.628  50.714  42.996  0.00  0.00    +0.000 HD
ATOM     39  H   UNL     1     -10.396  50.745  41.817  0.00  0.00    +0.000 HD
ENDBRANCH  34  35
ENDBRANCH  33  34
ENDBRANCH  10  33
TORSDOF 8
ENDMDL
MODEL 7
REMARK VINA RESULT:      -8.2      2.682      8.462
REMARK  Name = 338327
REMARK  10 active torsions:
REMARK  status: ('A' for Active; 'I' for Inactive)
REMARK    1  A    between atoms: C_6  and  C_10
REMARK    2  A    between atoms: C_14  and  O_18
REMARK    3  A    between atoms: N_17  and  C_21
REMARK    4  A    between atoms: C_21  and  C_24
REMARK    5  A    between atoms: C_24  and  C_27
REMARK    6  A    between atoms: C_25  and  O_28
REMARK    7  A    between atoms: C_27  and  C_29
REMARK    8  A    between atoms: C_27  and  C_30
REMARK    9  A    between atoms: O_28  and  C_31
REMARK   10  A    between atoms: C_31  and  C_32
REMARK                            x       y       z     vdW  Elec       q    Type
REMARK                         _______ _______ _______ _____ _____    ______ ____
ROOT
ATOM      1  C   UNL     1     -11.587  55.768  48.780  0.00  0.00    +0.000 A 
ATOM      2  C   UNL     1     -11.764  55.394  47.344  0.00  0.00    +0.000 A 
ATOM      3  C   UNL     1     -10.568  55.253  49.488  0.00  0.00    +0.000 A 
ATOM      4  O   UNL     1     -12.637  55.976  46.694  0.00  0.00    +0.000 OA
ATOM      5  N   UNL     1     -10.928  54.429  46.794  0.00  0.00    +0.000 N 
ATOM      6  C   UNL     1      -9.613  54.333  48.855  0.00  0.00    +0.000 A 
ATOM      7  C   UNL     1      -9.793  53.947  47.517  0.00  0.00    +0.000 A 
ATOM      8  C   UNL     1      -8.500  53.854  49.567  0.00  0.00    +0.000 A 
ATOM      9  C   UNL     1      -8.825  53.127  46.920  0.00  0.00    +0.000 A 
ATOM     10  C   UNL     1      -7.573  53.001  48.974  0.00  0.00    +0.000 A 
ATOM     11  C   UNL     1      -7.732  52.645  47.643  0.00  0.00    +0.000 A 
ENDROOT
BRANCH   1  17
ATOM     12  S   UNL     1     -13.518  59.135  49.407  0.00  0.00    +0.000 S 
ATOM     13  O   UNL     1     -14.659  59.304  48.530  0.00  0.00    +0.000 OA
ATOM     14  O   UNL     1     -12.644  60.256  49.704  0.00  0.00    +0.000 OA
ATOM     15  N   UNL     1     -12.604  57.938  48.799  0.00  0.00    +0.000 N 
ATOM     16  C   UNL     1     -14.165  58.606  50.951  0.00  0.00    +0.000 A 
ATOM     17  C   UNL     1     -12.526  56.786  49.397  0.00  0.00    +0.000 C 
ATOM     18  C   UNL     1     -13.922  57.300  51.344  0.00  0.00    +0.000 A 
ATOM     19  C   UNL     1     -14.889  59.496  51.751  0.00  0.00    +0.000 A 
ATOM     20  N   UNL     1     -13.210  56.419  50.536  0.00  0.00    +0.000 N 
ATOM     21  C   UNL     1     -14.483  56.854  52.546  0.00  0.00    +0.000 A 
ATOM     22  C   UNL     1     -15.412  59.049  52.962  0.00  0.00    +0.000 A 
ATOM     23  C   UNL     1     -15.216  57.725  53.355  0.00  0.00    +0.000 A 
ATOM     24  H   UNL     1     -12.102  58.087  47.965  0.00  0.00    +0.000 HD
ATOM     25  H   UNL     1     -13.194  55.470  50.796  0.00  0.00    +0.000 HD
ENDBRANCH   1  17
BRANCH   3  26
ATOM     26  O   UNL     1     -10.296  55.563  50.809  0.00  0.00    +0.000 OA
ATOM     27  H   UNL     1      -9.444  55.867  51.054  0.00  0.00    +0.000 HD
ENDBRANCH   3  26
BRANCH   5  28
ATOM     28  C   UNL     1     -11.165  54.031  45.400  0.00  0.00    +0.000 C 
BRANCH  28  29
ATOM     29  C   UNL     1     -12.005  52.758  45.197  0.00  0.00    +0.000 C 
BRANCH  29  30
ATOM     30  C   UNL     1     -11.358  51.626  44.382  0.00  0.00    +0.000 C 
ATOM     31  C   UNL     1     -10.165  52.108  43.559  0.00  0.00    +0.000 C 
ATOM     32  C   UNL     1     -10.908  50.521  45.346  0.00  0.00    +0.000 C 
ENDBRANCH  29  30
ENDBRANCH  28  29
ENDBRANCH   5  28
BRANCH  10  33
ATOM     33  O   UNL     1      -6.523  52.639  49.765  0.00  0.00    +0.000 OA
BRANCH  33  34
ATOM     34  C   UNL     1      -5.784  53.709  50.355  0.00  0.00    +0.000 C 
BRANCH  34  35
ATOM     35  C   UNL     1      -4.994  54.450  49.281  0.00  0.00    +0.000 C 
ATOM     36  O   UNL     1      -4.212  53.888  48.520  0.00  0.00    +0.000 OA
ATOM     37  N   UNL     1      -5.228  55.791  49.190  0.00  0.00    +0.000 N 
ATOM     38  H   UNL     1      -5.860  56.223  49.810  0.00  0.00    +0.000 HD
ATOM     39  H   UNL     1      -4.766  56.327  48.506  0.00  0.00    +0.000 HD
ENDBRANCH  34  35
ENDBRANCH  33  34
ENDBRANCH  10  33
TORSDOF 8
ENDMDL
MODEL 8
REMARK VINA RESULT:      -8.0      3.222      8.318
REMARK  Name = 338327
REMARK  10 active torsions:
REMARK  status: ('A' for Active; 'I' for Inactive)
REMARK    1  A    between atoms: C_6  and  C_10
REMARK    2  A    between atoms: C_14  and  O_18
REMARK    3  A    between atoms: N_17  and  C_21
REMARK    4  A    between atoms: C_21  and  C_24
REMARK    5  A    between atoms: C_24  and  C_27
REMARK    6  A    between atoms: C_25  and  O_28
REMARK    7  A    between atoms: C_27  and  C_29
REMARK    8  A    between atoms: C_27  and  C_30
REMARK    9  A    between atoms: O_28  and  C_31
REMARK   10  A    between atoms: C_31  and  C_32
REMARK                            x       y       z     vdW  Elec       q    Type
REMARK                         _______ _______ _______ _____ _____    ______ ____
ROOT
ATOM      1  C   UNL     1     -11.681  54.136  51.141  0.00  0.00    +0.000 A 
ATOM      2  C   UNL     1     -11.737  52.967  50.211  0.00  0.00    +0.000 A 
ATOM      3  C   UNL     1     -10.803  54.145  52.158  0.00  0.00    +0.000 A 
ATOM      4  O   UNL     1     -12.470  53.045  49.221  0.00  0.00    +0.000 OA
ATOM      5  N   UNL     1     -10.949  51.855  50.484  0.00  0.00    +0.000 N 
ATOM      6  C   UNL     1      -9.884  53.015  52.356  0.00  0.00    +0.000 A 
ATOM      7  C   UNL     1      -9.956  51.897  51.510  0.00  0.00    +0.000 A 
ATOM      8  C   UNL     1      -8.911  53.053  53.369  0.00  0.00    +0.000 A 
ATOM      9  C   UNL     1      -9.017  50.868  51.679  0.00  0.00    +0.000 A 
ATOM     10  C   UNL     1      -8.016  52.002  53.554  0.00  0.00    +0.000 A 
ATOM     11  C   UNL     1      -8.064  50.911  52.700  0.00  0.00    +0.000 A 
ENDROOT
BRANCH   1  17
ATOM     12  S   UNL     1     -13.434  57.112  49.264  0.00  0.00    +0.000 S 
ATOM     13  O   UNL     1     -14.551  56.685  48.445  0.00  0.00    +0.000 OA
ATOM     14  O   UNL     1     -12.506  58.116  48.776  0.00  0.00    +0.000 OA
ATOM     15  N   UNL     1     -12.578  55.789  49.655  0.00  0.00    +0.000 N 
ATOM     16  C   UNL     1     -14.132  57.774  50.732  0.00  0.00    +0.000 A 
ATOM     17  C   UNL     1     -12.572  55.333  50.873  0.00  0.00    +0.000 C 
ATOM     18  C   UNL     1     -13.967  57.061  51.908  0.00  0.00    +0.000 A 
ATOM     19  C   UNL     1     -14.819  58.993  50.696  0.00  0.00    +0.000 A 
ATOM     20  N   UNL     1     -13.292  55.845  51.931  0.00  0.00    +0.000 N 
ATOM     21  C   UNL     1     -14.569  57.553  53.071  0.00  0.00    +0.000 A 
ATOM     22  C   UNL     1     -15.384  59.488  51.869  0.00  0.00    +0.000 A 
ATOM     23  C   UNL     1     -15.267  58.763  53.055  0.00  0.00    +0.000 A 
ATOM     24  H   UNL     1     -12.056  55.326  48.961  0.00  0.00    +0.000 HD
ATOM     25  H   UNL     1     -13.332  55.314  52.759  0.00  0.00    +0.000 HD
ENDBRANCH   1  17
BRANCH   3  26
ATOM     26  O   UNL     1     -10.647  55.192  53.049  0.00  0.00    +0.000 OA
ATOM     27  H   UNL     1      -9.994  55.144  53.720  0.00  0.00    +0.000 HD
ENDBRANCH   3  26
BRANCH   5  28
ATOM     28  C   UNL     1     -11.072  50.693  49.593  0.00  0.00    +0.000 C 
BRANCH  28  29
ATOM     29  C   UNL     1     -10.215  50.733  48.315  0.00  0.00    +0.000 C 
BRANCH  29  30
ATOM     30  C   UNL     1     -10.965  50.628  46.977  0.00  0.00    +0.000 C 
ATOM     31  C   UNL     1     -12.431  50.240  47.159  0.00  0.00    +0.000 C 
ATOM     32  C   UNL     1     -10.874  51.979  46.256  0.00  0.00    +0.000 C 
ENDBRANCH  29  30
ENDBRANCH  28  29
ENDBRANCH   5  28
BRANCH  10  33
ATOM     33  O   UNL     1      -7.102  52.182  54.550  0.00  0.00    +0.000 OA
BRANCH  33  34
ATOM     34  C   UNL     1      -5.773  52.494  54.131  0.00  0.00    +0.000 C 
BRANCH  34  35
ATOM     35  C   UNL     1      -5.464  53.958  54.427  0.00  0.00    +0.000 C 
ATOM     36  O   UNL     1      -4.598  54.591  53.832  0.00  0.00    +0.000 OA
ATOM     37  N   UNL     1      -6.236  54.546  55.386  0.00  0.00    +0.000 N 
ATOM     38  H   UNL     1      -6.927  54.021  55.852  0.00  0.00    +0.000 HD
ATOM     39  H   UNL     1      -6.103  55.495  55.612  0.00  0.00    +0.000 HD
ENDBRANCH  34  35
ENDBRANCH  33  34
ENDBRANCH  10  33
TORSDOF 8
ENDMDL
MODEL 9
REMARK VINA RESULT:      -8.0      2.815      7.988
REMARK  Name = 338327
REMARK  10 active torsions:
REMARK  status: ('A' for Active; 'I' for Inactive)
REMARK    1  A    between atoms: C_6  and  C_10
REMARK    2  A    between atoms: C_14  and  O_18
REMARK    3  A    between atoms: N_17  and  C_21
REMARK    4  A    between atoms: C_21  and  C_24
REMARK    5  A    between atoms: C_24  and  C_27
REMARK    6  A    between atoms: C_25  and  O_28
REMARK    7  A    between atoms: C_27  and  C_29
REMARK    8  A    between atoms: C_27  and  C_30
REMARK    9  A    between atoms: O_28  and  C_31
REMARK   10  A    between atoms: C_31  and  C_32
REMARK                            x       y       z     vdW  Elec       q    Type
REMARK                         _______ _______ _______ _____ _____    ______ ____
ROOT
ATOM      1  C   UNL     1     -10.780  55.595  49.009  0.00  0.00    +0.000 A 
ATOM      2  C   UNL     1      -9.609  55.087  49.786  0.00  0.00    +0.000 A 
ATOM      3  C   UNL     1     -10.897  55.303  47.703  0.00  0.00    +0.000 A 
ATOM      4  O   UNL     1      -9.595  55.274  51.007  0.00  0.00    +0.000 OA
ATOM      5  N   UNL     1      -8.600  54.409  49.113  0.00  0.00    +0.000 N 
ATOM      6  C   UNL     1      -9.887  54.472  47.034  0.00  0.00    +0.000 A 
ATOM      7  C   UNL     1      -8.764  54.022  47.747  0.00  0.00    +0.000 A 
ATOM      8  C   UNL     1     -10.045  54.097  45.688  0.00  0.00    +0.000 A 
ATOM      9  C   UNL     1      -7.856  53.171  47.100  0.00  0.00    +0.000 A 
ATOM     10  C   UNL     1      -9.109  53.289  45.047  0.00  0.00    +0.000 A 
ATOM     11  C   UNL     1      -8.017  52.818  45.759  0.00  0.00    +0.000 A 
ENDROOT
BRANCH   1  17
ATOM     12  S   UNL     1     -13.674  56.475  51.520  0.00  0.00    +0.000 S 
ATOM     13  O   UNL     1     -13.190  56.824  52.841  0.00  0.00    +0.000 OA
ATOM     14  O   UNL     1     -14.850  55.638  51.364  0.00  0.00    +0.000 OA
ATOM     15  N   UNL     1     -12.450  55.770  50.719  0.00  0.00    +0.000 N 
ATOM     16  C   UNL     1     -14.054  57.993  50.725  0.00  0.00    +0.000 A 
ATOM     17  C   UNL     1     -11.861  56.376  49.731  0.00  0.00    +0.000 C 
ATOM     18  C   UNL     1     -13.239  58.401  49.680  0.00  0.00    +0.000 A 
ATOM     19  C   UNL     1     -15.157  58.747  51.139  0.00  0.00    +0.000 A 
ATOM     20  N   UNL     1     -12.138  57.650  49.284  0.00  0.00    +0.000 N 
ATOM     21  C   UNL     1     -13.501  59.637  49.080  0.00  0.00    +0.000 A 
ATOM     22  C   UNL     1     -15.426  59.959  50.509  0.00  0.00    +0.000 A 
ATOM     23  C   UNL     1     -14.593  60.408  49.485  0.00  0.00    +0.000 A 
ATOM     24  H   UNL     1     -12.150  54.871  50.986  0.00  0.00    +0.000 HD
ATOM     25  H   UNL     1     -11.513  58.056  48.640  0.00  0.00    +0.000 HD
ENDBRANCH   1  17
BRANCH   3  26
ATOM     26  O   UNL     1     -11.959  55.692  46.905  0.00  0.00    +0.000 OA
ATOM     27  H   UNL     1     -12.502  55.046  46.498  0.00  0.00    +0.000 HD
ENDBRANCH   3  26
BRANCH   5  28
ATOM     28  C   UNL     1      -7.429  53.978  49.888  0.00  0.00    +0.000 C 
BRANCH  28  29
ATOM     29  C   UNL     1      -6.169  54.852  49.744  0.00  0.00    +0.000 C 
BRANCH  29  30
ATOM     30  C   UNL     1      -4.933  54.418  50.549  0.00  0.00    +0.000 C 
ATOM     31  C   UNL     1      -5.264  54.107  52.007  0.00  0.00    +0.000 C 
ATOM     32  C   UNL     1      -4.323  53.178  49.881  0.00  0.00    +0.000 C 
ENDBRANCH  29  30
ENDBRANCH  28  29
ENDBRANCH   5  28
BRANCH  10  33
ATOM     33  O   UNL     1      -9.401  52.973  43.753  0.00  0.00    +0.000 OA
BRANCH  33  34
ATOM     34  C   UNL     1      -8.634  51.914  43.178  0.00  0.00    +0.000 C 
BRANCH  34  35
ATOM     35  C   UNL     1      -9.563  50.864  42.578  0.00  0.00    +0.000 C 
ATOM     36  O   UNL     1      -9.165  49.787  42.147  0.00  0.00    +0.000 OA
ATOM     37  N   UNL     1     -10.891  51.180  42.571  0.00  0.00    +0.000 N 
ATOM     38  H   UNL     1     -11.191  52.050  42.922  0.00  0.00    +0.000 HD
ATOM     39  H   UNL     1     -11.548  50.539  42.215  0.00  0.00    +0.000 HD
ENDBRANCH  34  35
ENDBRANCH  33  34
ENDBRANCH  10  33
TORSDOF 8
ENDMDL
