MODEL 1
REMARK VINA RESULT:      -8.2      0.000      0.000
REMARK  Name = 298159
REMARK  7 active torsions:
REMARK  status: ('A' for Active; 'I' for Inactive)
REMARK    1  A    between atoms: C_6  and  C_10
REMARK    2  A    between atoms: C_14  and  O_18
REMARK    3  A    between atoms: N_17  and  C_21
REMARK    4  A    between atoms: C_21  and  C_24
REMARK    5  A    between atoms: C_24  and  C_27
REMARK    6  A    between atoms: C_27  and  C_28
REMARK    7  A    between atoms: C_27  and  C_29
REMARK                            x       y       z     vdW  Elec       q    Type
REMARK                         _______ _______ _______ _____ _____    ______ ____
ROOT
ATOM      1  C   UNL     1     -10.184  54.359  52.282  0.00  0.00    +0.000 A 
ATOM      2  C   UNL     1      -8.798  54.922  52.242  0.00  0.00    +0.000 A 
ATOM      3  C   UNL     1     -10.433  53.238  52.978  0.00  0.00    +0.000 A 
ATOM      4  O   UNL     1      -8.632  56.022  51.706  0.00  0.00    +0.000 OA
ATOM      5  N   UNL     1      -7.763  54.197  52.822  0.00  0.00    +0.000 N 
ATOM      6  C   UNL     1      -9.354  52.563  53.714  0.00  0.00    +0.000 A 
ATOM      7  C   UNL     1      -8.039  53.056  53.640  0.00  0.00    +0.000 A 
ATOM      8  C   UNL     1      -9.629  51.439  54.514  0.00  0.00    +0.000 A 
ATOM      9  C   UNL     1      -7.043  52.427  54.405  0.00  0.00    +0.000 A 
ATOM     10  C   UNL     1      -8.622  50.812  55.243  0.00  0.00    +0.000 A 
ATOM     11  C   UNL     1      -7.329  51.309  55.191  0.00  0.00    +0.000 A 
ENDROOT
BRANCH   1  17
ATOM     12  S   UNL     1     -12.377  55.969  49.448  0.00  0.00    +0.000 S 
ATOM     13  O   UNL     1     -13.250  55.011  48.796  0.00  0.00    +0.000 OA
ATOM     14  O   UNL     1     -11.675  56.968  48.660  0.00  0.00    +0.000 OA
ATOM     15  N   UNL     1     -11.275  55.137  50.293  0.00  0.00    +0.000 N 
ATOM     16  C   UNL     1     -13.385  56.862  50.572  0.00  0.00    +0.000 A 
ATOM     17  C   UNL     1     -11.304  55.115  51.593  0.00  0.00    +0.000 C 
ATOM     18  C   UNL     1     -13.194  56.638  51.926  0.00  0.00    +0.000 A 
ATOM     19  C   UNL     1     -14.332  57.772  50.096  0.00  0.00    +0.000 A 
ATOM     20  N   UNL     1     -12.253  55.722  52.386  0.00  0.00    +0.000 N 
ATOM     21  C   UNL     1     -14.032  57.301  52.828  0.00  0.00    +0.000 A 
ATOM     22  C   UNL     1     -15.136  58.452  51.009  0.00  0.00    +0.000 A 
ATOM     23  C   UNL     1     -14.992  58.210  52.375  0.00  0.00    +0.000 A 
ATOM     24  H   UNL     1     -10.571  54.640  49.815  0.00  0.00    +0.000 HD
ATOM     25  H   UNL     1     -12.267  55.492  53.343  0.00  0.00    +0.000 HD
ENDBRANCH   1  17
BRANCH   3  26
ATOM     26  O   UNL     1     -11.685  52.660  53.107  0.00  0.00    +0.000 OA
ATOM     27  H   UNL     1     -12.444  53.201  53.202  0.00  0.00    +0.000 HD
ENDBRANCH   3  26
BRANCH   5  28
ATOM     28  C   UNL     1      -6.402  54.733  52.698  0.00  0.00    +0.000 C 
BRANCH  28  29
ATOM     29  C   UNL     1      -5.564  54.180  51.533  0.00  0.00    +0.000 C 
BRANCH  29  30
ATOM     30  C   UNL     1      -4.142  53.700  51.868  0.00  0.00    +0.000 C 
ATOM     31  C   UNL     1      -3.847  53.738  53.366  0.00  0.00    +0.000 C 
ATOM     32  C   UNL     1      -3.974  52.265  51.347  0.00  0.00    +0.000 C 
ENDBRANCH  29  30
ENDBRANCH  28  29
ENDBRANCH   5  28
TORSDOF 5
ENDMDL
MODEL 2
REMARK VINA RESULT:      -7.9      2.586      8.036
REMARK  Name = 298159
REMARK  7 active torsions:
REMARK  status: ('A' for Active; 'I' for Inactive)
REMARK    1  A    between atoms: C_6  and  C_10
REMARK    2  A    between atoms: C_14  and  O_18
REMARK    3  A    between atoms: N_17  and  C_21
REMARK    4  A    between atoms: C_21  and  C_24
REMARK    5  A    between atoms: C_24  and  C_27
REMARK    6  A    between atoms: C_27  and  C_28
REMARK    7  A    between atoms: C_27  and  C_29
REMARK                            x       y       z     vdW  Elec       q    Type
REMARK                         _______ _______ _______ _____ _____    ______ ____
ROOT
ATOM      1  C   UNL     1     -10.083  54.728  50.930  0.00  0.00    +0.000 A 
ATOM      2  C   UNL     1     -11.412  55.268  51.353  0.00  0.00    +0.000 A 
ATOM      3  C   UNL     1      -9.771  54.661  49.625  0.00  0.00    +0.000 A 
ATOM      4  O   UNL     1     -11.613  55.441  52.560  0.00  0.00    +0.000 OA
ATOM      5  N   UNL     1     -12.356  55.569  50.378  0.00  0.00    +0.000 N 
ATOM      6  C   UNL     1     -10.725  55.125  48.607  0.00  0.00    +0.000 A 
ATOM      7  C   UNL     1     -11.996  55.586  48.993  0.00  0.00    +0.000 A 
ATOM      8  C   UNL     1     -10.368  55.136  47.246  0.00  0.00    +0.000 A 
ATOM      9  C   UNL     1     -12.859  56.083  48.003  0.00  0.00    +0.000 A 
ATOM     10  C   UNL     1     -11.249  55.606  46.275  0.00  0.00    +0.000 A 
ATOM     11  C   UNL     1     -12.494  56.083  46.655  0.00  0.00    +0.000 A 
ENDROOT
BRANCH   1  17
ATOM     12  S   UNL     1      -6.787  54.648  53.065  0.00  0.00    +0.000 S 
ATOM     13  O   UNL     1      -6.736  55.698  54.065  0.00  0.00    +0.000 OA
ATOM     14  O   UNL     1      -5.599  54.315  52.298  0.00  0.00    +0.000 OA
ATOM     15  N   UNL     1      -7.968  55.018  52.021  0.00  0.00    +0.000 N 
ATOM     16  C   UNL     1      -7.236  53.183  53.920  0.00  0.00    +0.000 A 
ATOM     17  C   UNL     1      -9.075  54.337  51.993  0.00  0.00    +0.000 C 
ATOM     18  C   UNL     1      -8.502  52.667  53.692  0.00  0.00    +0.000 A 
ATOM     19  C   UNL     1      -6.328  52.568  54.784  0.00  0.00    +0.000 A 
ATOM     20  N   UNL     1      -9.400  53.295  52.834  0.00  0.00    +0.000 N 
ATOM     21  C   UNL     1      -8.890  51.532  54.412  0.00  0.00    +0.000 A 
ATOM     22  C   UNL     1      -6.717  51.418  55.469  0.00  0.00    +0.000 A 
ATOM     23  C   UNL     1      -8.001  50.905  55.289  0.00  0.00    +0.000 A 
ATOM     24  H   UNL     1      -7.846  55.770  51.398  0.00  0.00    +0.000 HD
ATOM     25  H   UNL     1     -10.330  52.973  52.829  0.00  0.00    +0.000 HD
ENDBRANCH   1  17
BRANCH   3  26
ATOM     26  O   UNL     1      -8.557  54.213  49.134  0.00  0.00    +0.000 OA
ATOM     27  H   UNL     1      -7.807  54.775  49.155  0.00  0.00    +0.000 HD
ENDBRANCH   3  26
BRANCH   5  28
ATOM     28  C   UNL     1     -13.680  56.020  50.825  0.00  0.00    +0.000 C 
BRANCH  28  29
ATOM     29  C   UNL     1     -13.787  57.503  51.223  0.00  0.00    +0.000 C 
BRANCH  29  30
ATOM     30  C   UNL     1     -14.524  57.816  52.535  0.00  0.00    +0.000 C 
ATOM     31  C   UNL     1     -15.014  59.261  52.603  0.00  0.00    +0.000 C 
ATOM     32  C   UNL     1     -15.719  56.861  52.667  0.00  0.00    +0.000 C 
ENDBRANCH  29  30
ENDBRANCH  28  29
ENDBRANCH   5  28
TORSDOF 5
ENDMDL
MODEL 3
REMARK VINA RESULT:      -7.9      2.125      2.955
REMARK  Name = 298159
REMARK  7 active torsions:
REMARK  status: ('A' for Active; 'I' for Inactive)
REMARK    1  A    between atoms: C_6  and  C_10
REMARK    2  A    between atoms: C_14  and  O_18
REMARK    3  A    between atoms: N_17  and  C_21
REMARK    4  A    between atoms: C_21  and  C_24
REMARK    5  A    between atoms: C_24  and  C_27
REMARK    6  A    between atoms: C_27  and  C_28
REMARK    7  A    between atoms: C_27  and  C_29
REMARK                            x       y       z     vdW  Elec       q    Type
REMARK                         _______ _______ _______ _____ _____    ______ ____
ROOT
ATOM      1  C   UNL     1     -11.652  54.049  51.076  0.00  0.00    +0.000 A 
ATOM      2  C   UNL     1     -10.736  54.046  52.258  0.00  0.00    +0.000 A 
ATOM      3  C   UNL     1     -11.731  52.965  50.286  0.00  0.00    +0.000 A 
ATOM      4  O   UNL     1     -10.787  55.004  53.036  0.00  0.00    +0.000 OA
ATOM      5  N   UNL     1      -9.882  52.964  52.443  0.00  0.00    +0.000 N 
ATOM      6  C   UNL     1     -10.932  51.767  50.583  0.00  0.00    +0.000 A 
ATOM      7  C   UNL     1     -10.031  51.775  51.662  0.00  0.00    +0.000 A 
ATOM      8  C   UNL     1     -11.078  50.601  49.809  0.00  0.00    +0.000 A 
ATOM      9  C   UNL     1      -9.329  50.595  51.959  0.00  0.00    +0.000 A 
ATOM     10  C   UNL     1     -10.351  49.449  50.102  0.00  0.00    +0.000 A 
ATOM     11  C   UNL     1      -9.479  49.446  51.180  0.00  0.00    +0.000 A 
ENDROOT
BRANCH   1  17
ATOM     12  S   UNL     1     -13.385  57.073  49.264  0.00  0.00    +0.000 S 
ATOM     13  O   UNL     1     -14.505  56.668  48.435  0.00  0.00    +0.000 OA
ATOM     14  O   UNL     1     -12.454  58.083  48.788  0.00  0.00    +0.000 OA
ATOM     15  N   UNL     1     -12.535  55.744  49.627  0.00  0.00    +0.000 N 
ATOM     16  C   UNL     1     -14.078  57.714  50.742  0.00  0.00    +0.000 A 
ATOM     17  C   UNL     1     -12.537  55.257  50.833  0.00  0.00    +0.000 C 
ATOM     18  C   UNL     1     -13.923  56.972  51.901  0.00  0.00    +0.000 A 
ATOM     19  C   UNL     1     -14.748  58.940  50.729  0.00  0.00    +0.000 A 
ATOM     20  N   UNL     1     -13.260  55.748  51.898  0.00  0.00    +0.000 N 
ATOM     21  C   UNL     1     -14.522  57.445  53.073  0.00  0.00    +0.000 A 
ATOM     22  C   UNL     1     -15.310  59.417  51.912  0.00  0.00    +0.000 A 
ATOM     23  C   UNL     1     -15.205  58.665  53.082  0.00  0.00    +0.000 A 
ATOM     24  H   UNL     1     -12.008  55.297  48.925  0.00  0.00    +0.000 HD
ATOM     25  H   UNL     1     -13.314  55.196  52.711  0.00  0.00    +0.000 HD
ENDBRANCH   1  17
BRANCH   3  26
ATOM     26  O   UNL     1     -12.574  52.854  49.193  0.00  0.00    +0.000 OA
ATOM     27  H   UNL     1     -13.493  52.728  49.320  0.00  0.00    +0.000 HD
ENDBRANCH   3  26
BRANCH   5  28
ATOM     28  C   UNL     1      -8.938  53.024  53.566  0.00  0.00    +0.000 C 
BRANCH  28  29
ATOM     29  C   UNL     1      -7.573  53.666  53.265  0.00  0.00    +0.000 C 
BRANCH  29  30
ATOM     30  C   UNL     1      -7.120  54.801  54.198  0.00  0.00    +0.000 C 
ATOM     31  C   UNL     1      -5.751  54.537  54.822  0.00  0.00    +0.000 C 
ATOM     32  C   UNL     1      -7.075  56.108  53.395  0.00  0.00    +0.000 C 
ENDBRANCH  29  30
ENDBRANCH  28  29
ENDBRANCH   5  28
TORSDOF 5
ENDMDL
MODEL 4
REMARK VINA RESULT:      -7.8      3.335      7.336
REMARK  Name = 298159
REMARK  7 active torsions:
REMARK  status: ('A' for Active; 'I' for Inactive)
REMARK    1  A    between atoms: C_6  and  C_10
REMARK    2  A    between atoms: C_14  and  O_18
REMARK    3  A    between atoms: N_17  and  C_21
REMARK    4  A    between atoms: C_21  and  C_24
REMARK    5  A    between atoms: C_24  and  C_27
REMARK    6  A    between atoms: C_27  and  C_28
REMARK    7  A    between atoms: C_27  and  C_29
REMARK                            x       y       z     vdW  Elec       q    Type
REMARK                         _______ _______ _______ _____ _____    ______ ____
ROOT
ATOM      1  C   UNL     1     -10.268  55.184  50.813  0.00  0.00    +0.000 A 
ATOM      2  C   UNL     1      -9.871  55.094  49.374  0.00  0.00    +0.000 A 
ATOM      3  C   UNL     1     -11.473  55.676  51.147  0.00  0.00    +0.000 A 
ATOM      4  O   UNL     1      -8.816  54.514  49.096  0.00  0.00    +0.000 OA
ATOM      5  N   UNL     1     -10.708  55.645  48.411  0.00  0.00    +0.000 N 
ATOM      6  C   UNL     1     -12.412  56.117  50.105  0.00  0.00    +0.000 A 
ATOM      7  C   UNL     1     -12.026  56.083  48.753  0.00  0.00    +0.000 A 
ATOM      8  C   UNL     1     -13.706  56.551  50.447  0.00  0.00    +0.000 A 
ATOM      9  C   UNL     1     -12.969  56.450  47.778  0.00  0.00    +0.000 A 
ATOM     10  C   UNL     1     -14.616  56.938  49.466  0.00  0.00    +0.000 A 
ATOM     11  C   UNL     1     -14.248  56.884  48.131  0.00  0.00    +0.000 A 
ENDROOT
BRANCH   1  17
ATOM     12  S   UNL     1      -7.049  54.687  53.009  0.00  0.00    +0.000 S 
ATOM     13  O   UNL     1      -6.934  55.667  54.073  0.00  0.00    +0.000 OA
ATOM     14  O   UNL     1      -5.874  54.298  52.247  0.00  0.00    +0.000 OA
ATOM     15  N   UNL     1      -8.165  55.221  51.965  0.00  0.00    +0.000 N 
ATOM     16  C   UNL     1      -7.645  53.219  53.761  0.00  0.00    +0.000 A 
ATOM     17  C   UNL     1      -9.326  54.643  51.871  0.00  0.00    +0.000 C 
ATOM     18  C   UNL     1      -8.944  52.830  53.475  0.00  0.00    +0.000 A 
ATOM     19  C   UNL     1      -6.816  52.476  54.605  0.00  0.00    +0.000 A 
ATOM     20  N   UNL     1      -9.761  53.585  52.639  0.00  0.00    +0.000 N 
ATOM     21  C   UNL     1      -9.448  51.693  54.115  0.00  0.00    +0.000 A 
ATOM     22  C   UNL     1      -7.321  51.325  55.208  0.00  0.00    +0.000 A 
ATOM     23  C   UNL     1      -8.640  50.939  54.970  0.00  0.00    +0.000 A 
ATOM     24  H   UNL     1      -7.962  55.996  51.392  0.00  0.00    +0.000 HD
ATOM     25  H   UNL     1     -10.715  53.346  52.594  0.00  0.00    +0.000 HD
ENDBRANCH   1  17
BRANCH   3  26
ATOM     26  O   UNL     1     -11.948  55.766  52.444  0.00  0.00    +0.000 OA
ATOM     27  H   UNL     1     -11.347  55.840  53.159  0.00  0.00    +0.000 HD
ENDBRANCH   3  26
BRANCH   5  28
ATOM     28  C   UNL     1     -10.256  55.614  47.014  0.00  0.00    +0.000 C 
BRANCH  28  29
ATOM     29  C   UNL     1     -10.574  54.328  46.232  0.00  0.00    +0.000 C 
BRANCH  29  30
ATOM     30  C   UNL     1      -9.380  53.569  45.630  0.00  0.00    +0.000 C 
ATOM     31  C   UNL     1      -9.701  52.949  44.272  0.00  0.00    +0.000 C 
ATOM     32  C   UNL     1      -8.203  54.544  45.485  0.00  0.00    +0.000 C 
ENDBRANCH  29  30
ENDBRANCH  28  29
ENDBRANCH   5  28
TORSDOF 5
ENDMDL
MODEL 5
REMARK VINA RESULT:      -7.6      2.495      8.099
REMARK  Name = 298159
REMARK  7 active torsions:
REMARK  status: ('A' for Active; 'I' for Inactive)
REMARK    1  A    between atoms: C_6  and  C_10
REMARK    2  A    between atoms: C_14  and  O_18
REMARK    3  A    between atoms: N_17  and  C_21
REMARK    4  A    between atoms: C_21  and  C_24
REMARK    5  A    between atoms: C_24  and  C_27
REMARK    6  A    between atoms: C_27  and  C_28
REMARK    7  A    between atoms: C_27  and  C_29
REMARK                            x       y       z     vdW  Elec       q    Type
REMARK                         _______ _______ _______ _____ _____    ______ ____
ROOT
ATOM      1  C   UNL     1     -10.532  54.888  50.540  0.00  0.00    +0.000 A 
ATOM      2  C   UNL     1     -11.649  55.321  51.437  0.00  0.00    +0.000 A 
ATOM      3  C   UNL     1     -10.627  55.072  49.213  0.00  0.00    +0.000 A 
ATOM      4  O   UNL     1     -11.472  55.260  52.658  0.00  0.00    +0.000 OA
ATOM      5  N   UNL     1     -12.826  55.788  50.864  0.00  0.00    +0.000 N 
ATOM      6  C   UNL     1     -11.819  55.709  48.633  0.00  0.00    +0.000 A 
ATOM      7  C   UNL     1     -12.895  56.071  49.463  0.00  0.00    +0.000 A 
ATOM      8  C   UNL     1     -11.884  55.981  47.255  0.00  0.00    +0.000 A 
ATOM      9  C   UNL     1     -13.991  56.736  48.889  0.00  0.00    +0.000 A 
ATOM     10  C   UNL     1     -12.993  56.616  46.699  0.00  0.00    +0.000 A 
ATOM     11  C   UNL     1     -14.045  56.996  47.518  0.00  0.00    +0.000 A 
ENDROOT
BRANCH   1  17
ATOM     12  S   UNL     1      -7.691  52.347  51.491  0.00  0.00    +0.000 S 
ATOM     13  O   UNL     1      -6.686  52.209  50.453  0.00  0.00    +0.000 OA
ATOM     14  O   UNL     1      -8.168  51.173  52.203  0.00  0.00    +0.000 OA
ATOM     15  N   UNL     1      -8.973  53.090  50.840  0.00  0.00    +0.000 N 
ATOM     16  C   UNL     1      -6.994  53.400  52.708  0.00  0.00    +0.000 A 
ATOM     17  C   UNL     1      -9.271  54.315  51.159  0.00  0.00    +0.000 C 
ATOM     18  C   UNL     1      -7.520  54.675  52.834  0.00  0.00    +0.000 A 
ATOM     19  C   UNL     1      -5.954  52.942  53.521  0.00  0.00    +0.000 A 
ATOM     20  N   UNL     1      -8.550  55.122  52.012  0.00  0.00    +0.000 N 
ATOM     21  C   UNL     1      -6.932  55.542  53.762  0.00  0.00    +0.000 A 
ATOM     22  C   UNL     1      -5.402  53.805  54.466  0.00  0.00    +0.000 A 
ATOM     23  C   UNL     1      -5.886  55.108  54.580  0.00  0.00    +0.000 A 
ATOM     24  H   UNL     1      -9.536  52.608  50.191  0.00  0.00    +0.000 HD
ATOM     25  H   UNL     1      -8.777  56.079  52.041  0.00  0.00    +0.000 HD
ENDBRANCH   1  17
BRANCH   3  26
ATOM     26  O   UNL     1      -9.636  54.741  48.305  0.00  0.00    +0.000 OA
ATOM     27  H   UNL     1      -9.866  54.466  47.439  0.00  0.00    +0.000 HD
ENDBRANCH   3  26
BRANCH   5  28
ATOM     28  C   UNL     1     -13.934  56.130  51.764  0.00  0.00    +0.000 C 
BRANCH  28  29
ATOM     29  C   UNL     1     -13.859  57.516  52.429  0.00  0.00    +0.000 C 
BRANCH  29  30
ATOM     30  C   UNL     1     -14.990  58.504  52.102  0.00  0.00    +0.000 C 
ATOM     31  C   UNL     1     -15.464  59.281  53.328  0.00  0.00    +0.000 C 
ATOM     32  C   UNL     1     -14.490  59.485  51.032  0.00  0.00    +0.000 C 
ENDBRANCH  29  30
ENDBRANCH  28  29
ENDBRANCH   5  28
TORSDOF 5
ENDMDL
MODEL 6
REMARK VINA RESULT:      -7.6      3.642      4.974
REMARK  Name = 298159
REMARK  7 active torsions:
REMARK  status: ('A' for Active; 'I' for Inactive)
REMARK    1  A    between atoms: C_6  and  C_10
REMARK    2  A    between atoms: C_14  and  O_18
REMARK    3  A    between atoms: N_17  and  C_21
REMARK    4  A    between atoms: C_21  and  C_24
REMARK    5  A    between atoms: C_24  and  C_27
REMARK    6  A    between atoms: C_27  and  C_28
REMARK    7  A    between atoms: C_27  and  C_29
REMARK                            x       y       z     vdW  Elec       q    Type
REMARK                         _______ _______ _______ _____ _____    ______ ____
ROOT
ATOM      1  C   UNL     1     -12.232  54.158  50.332  0.00  0.00    +0.000 A 
ATOM      2  C   UNL     1     -11.992  53.697  48.930  0.00  0.00    +0.000 A 
ATOM      3  C   UNL     1     -11.649  53.517  51.359  0.00  0.00    +0.000 A 
ATOM      4  O   UNL     1     -12.433  54.388  48.006  0.00  0.00    +0.000 OA
ATOM      5  N   UNL     1     -11.270  52.526  48.723  0.00  0.00    +0.000 N 
ATOM      6  C   UNL     1     -10.764  52.369  51.114  0.00  0.00    +0.000 A 
ATOM      7  C   UNL     1     -10.574  51.897  49.803  0.00  0.00    +0.000 A 
ATOM      8  C   UNL     1     -10.085  51.751  52.179  0.00  0.00    +0.000 A 
ATOM      9  C   UNL     1      -9.672  50.840  49.595  0.00  0.00    +0.000 A 
ATOM     10  C   UNL     1      -9.217  50.684  51.955  0.00  0.00    +0.000 A 
ATOM     11  C   UNL     1      -9.008  50.232  50.662  0.00  0.00    +0.000 A 
ENDROOT
BRANCH   1  17
ATOM     12  S   UNL     1     -15.255  56.451  51.354  0.00  0.00    +0.000 S 
ATOM     13  O   UNL     1     -15.305  56.717  52.780  0.00  0.00    +0.000 OA
ATOM     14  O   UNL     1     -16.478  56.169  50.622  0.00  0.00    +0.000 OA
ATOM     15  N   UNL     1     -14.237  55.214  51.119  0.00  0.00    +0.000 N 
ATOM     16  C   UNL     1     -14.569  57.886  50.614  0.00  0.00    +0.000 A 
ATOM     17  C   UNL     1     -13.075  55.398  50.565  0.00  0.00    +0.000 C 
ATOM     18  C   UNL     1     -13.289  57.792  50.091  0.00  0.00    +0.000 A 
ATOM     19  C   UNL     1     -15.312  59.068  50.553  0.00  0.00    +0.000 A 
ATOM     20  N   UNL     1     -12.557  56.611  50.167  0.00  0.00    +0.000 N 
ATOM     21  C   UNL     1     -12.712  58.946  49.551  0.00  0.00    +0.000 A 
ATOM     22  C   UNL     1     -14.736  60.200  49.980  0.00  0.00    +0.000 A 
ATOM     23  C   UNL     1     -13.432  60.142  49.487  0.00  0.00    +0.000 A 
ATOM     24  H   UNL     1     -14.501  54.308  51.400  0.00  0.00    +0.000 HD
ATOM     25  H   UNL     1     -11.605  56.646  49.920  0.00  0.00    +0.000 HD
ENDBRANCH   1  17
BRANCH   3  26
ATOM     26  O   UNL     1     -11.779  53.888  52.687  0.00  0.00    +0.000 OA
ATOM     27  H   UNL     1     -11.704  53.244  53.363  0.00  0.00    +0.000 HD
ENDBRANCH   3  26
BRANCH   5  28
ATOM     28  C   UNL     1     -11.118  52.054  47.342  0.00  0.00    +0.000 C 
BRANCH  28  29
ATOM     29  C   UNL     1      -9.875  52.560  46.590  0.00  0.00    +0.000 C 
BRANCH  29  30
ATOM     30  C   UNL     1     -10.024  52.782  45.076  0.00  0.00    +0.000 C 
ATOM     31  C   UNL     1     -11.307  53.528  44.714  0.00  0.00    +0.000 C 
ATOM     32  C   UNL     1      -8.809  53.576  44.575  0.00  0.00    +0.000 C 
ENDBRANCH  29  30
ENDBRANCH  28  29
ENDBRANCH   5  28
TORSDOF 5
ENDMDL
MODEL 7
REMARK VINA RESULT:      -7.5      4.168      6.193
REMARK  Name = 298159
REMARK  7 active torsions:
REMARK  status: ('A' for Active; 'I' for Inactive)
REMARK    1  A    between atoms: C_6  and  C_10
REMARK    2  A    between atoms: C_14  and  O_18
REMARK    3  A    between atoms: N_17  and  C_21
REMARK    4  A    between atoms: C_21  and  C_24
REMARK    5  A    between atoms: C_24  and  C_27
REMARK    6  A    between atoms: C_27  and  C_28
REMARK    7  A    between atoms: C_27  and  C_29
REMARK                            x       y       z     vdW  Elec       q    Type
REMARK                         _______ _______ _______ _____ _____    ______ ____
ROOT
ATOM      1  C   UNL     1     -10.946  55.609  48.608  0.00  0.00    +0.000 A 
ATOM      2  C   UNL     1     -11.353  55.166  47.238  0.00  0.00    +0.000 A 
ATOM      3  C   UNL     1      -9.688  55.405  49.034  0.00  0.00    +0.000 A 
ATOM      4  O   UNL     1     -12.473  55.488  46.831  0.00  0.00    +0.000 OA
ATOM      5  N   UNL     1     -10.452  54.430  46.477  0.00  0.00    +0.000 N 
ATOM      6  C   UNL     1      -8.701  54.758  48.157  0.00  0.00    +0.000 A 
ATOM      7  C   UNL     1      -9.089  54.292  46.887  0.00  0.00    +0.000 A 
ATOM      8  C   UNL     1      -7.362  54.621  48.567  0.00  0.00    +0.000 A 
ATOM      9  C   UNL     1      -8.108  53.738  46.049  0.00  0.00    +0.000 A 
ATOM     10  C   UNL     1      -6.410  54.042  47.731  0.00  0.00    +0.000 A 
ATOM     11  C   UNL     1      -6.783  53.604  46.470  0.00  0.00    +0.000 A 
ENDROOT
BRANCH   1  17
ATOM     12  S   UNL     1     -13.570  56.370  51.431  0.00  0.00    +0.000 S 
ATOM     13  O   UNL     1     -12.953  56.669  52.710  0.00  0.00    +0.000 OA
ATOM     14  O   UNL     1     -14.755  55.531  51.372  0.00  0.00    +0.000 OA
ATOM     15  N   UNL     1     -12.440  55.705  50.481  0.00  0.00    +0.000 N 
ATOM     16  C   UNL     1     -14.038  57.914  50.743  0.00  0.00    +0.000 A 
ATOM     17  C   UNL     1     -11.949  56.355  49.468  0.00  0.00    +0.000 C 
ATOM     18  C   UNL     1     -13.330  58.371  49.643  0.00  0.00    +0.000 A 
ATOM     19  C   UNL     1     -15.100  58.636  51.294  0.00  0.00    +0.000 A 
ATOM     20  N   UNL     1     -12.268  57.646  49.109  0.00  0.00    +0.000 N 
ATOM     21  C   UNL     1     -13.657  59.628  49.123  0.00  0.00    +0.000 A 
ATOM     22  C   UNL     1     -15.437  59.871  50.743  0.00  0.00    +0.000 A 
ATOM     23  C   UNL     1     -14.710  60.371  49.663  0.00  0.00    +0.000 A 
ATOM     24  H   UNL     1     -12.119  54.794  50.675  0.00  0.00    +0.000 HD
ATOM     25  H   UNL     1     -11.708  58.086  48.430  0.00  0.00    +0.000 HD
ENDBRANCH   1  17
BRANCH   3  26
ATOM     26  O   UNL     1      -9.205  55.810  50.266  0.00  0.00    +0.000 OA
ATOM     27  H   UNL     1      -8.284  55.797  50.436  0.00  0.00    +0.000 HD
ENDBRANCH   3  26
BRANCH   5  28
ATOM     28  C   UNL     1     -10.905  53.939  45.169  0.00  0.00    +0.000 C 
BRANCH  28  29
ATOM     29  C   UNL     1     -11.854  52.729  45.195  0.00  0.00    +0.000 C 
BRANCH  29  30
ATOM     30  C   UNL     1     -11.476  51.572  46.134  0.00  0.00    +0.000 C 
ATOM     31  C   UNL     1     -12.324  51.546  47.405  0.00  0.00    +0.000 C 
ATOM     32  C   UNL     1     -11.647  50.248  45.375  0.00  0.00    +0.000 C 
ENDBRANCH  29  30
ENDBRANCH  28  29
ENDBRANCH   5  28
TORSDOF 5
ENDMDL
MODEL 8
REMARK VINA RESULT:      -7.4      3.398      7.644
REMARK  Name = 298159
REMARK  7 active torsions:
REMARK  status: ('A' for Active; 'I' for Inactive)
REMARK    1  A    between atoms: C_6  and  C_10
REMARK    2  A    between atoms: C_14  and  O_18
REMARK    3  A    between atoms: N_17  and  C_21
REMARK    4  A    between atoms: C_21  and  C_24
REMARK    5  A    between atoms: C_24  and  C_27
REMARK    6  A    between atoms: C_27  and  C_28
REMARK    7  A    between atoms: C_27  and  C_29
REMARK                            x       y       z     vdW  Elec       q    Type
REMARK                         _______ _______ _______ _____ _____    ______ ____
ROOT
ATOM      1  C   UNL     1     -10.684  54.780  50.451  0.00  0.00    +0.000 A 
ATOM      2  C   UNL     1     -10.428  54.605  48.988  0.00  0.00    +0.000 A 
ATOM      3  C   UNL     1     -11.643  55.624  50.868  0.00  0.00    +0.000 A 
ATOM      4  O   UNL     1      -9.635  53.726  48.637  0.00  0.00    +0.000 OA
ATOM      5  N   UNL     1     -11.101  55.423  48.087  0.00  0.00    +0.000 N 
ATOM      6  C   UNL     1     -12.453  56.371  49.895  0.00  0.00    +0.000 A 
ATOM      7  C   UNL     1     -12.183  56.252  48.520  0.00  0.00    +0.000 A 
ATOM      8  C   UNL     1     -13.513  57.189  50.326  0.00  0.00    +0.000 A 
ATOM      9  C   UNL     1     -13.016  56.928  47.613  0.00  0.00    +0.000 A 
ATOM     10  C   UNL     1     -14.309  57.874  49.411  0.00  0.00    +0.000 A 
ATOM     11  C   UNL     1     -14.062  57.740  48.053  0.00  0.00    +0.000 A 
ENDROOT
BRANCH   1  17
ATOM     12  S   UNL     1      -9.863  52.097  53.201  0.00  0.00    +0.000 S 
ATOM     13  O   UNL     1      -9.723  50.758  52.660  0.00  0.00    +0.000 OA
ATOM     14  O   UNL     1     -10.570  52.306  54.453  0.00  0.00    +0.000 OA
ATOM     15  N   UNL     1     -10.571  53.014  52.070  0.00  0.00    +0.000 N 
ATOM     16  C   UNL     1      -8.234  52.691  53.462  0.00  0.00    +0.000 A 
ATOM     17  C   UNL     1      -9.904  53.936  51.441  0.00  0.00    +0.000 C 
ATOM     18  C   UNL     1      -7.774  53.699  52.629  0.00  0.00    +0.000 A 
ATOM     19  C   UNL     1      -7.448  52.161  54.489  0.00  0.00    +0.000 A 
ATOM     20  N   UNL     1      -8.564  54.213  51.605  0.00  0.00    +0.000 N 
ATOM     21  C   UNL     1      -6.456  54.139  52.791  0.00  0.00    +0.000 A 
ATOM     22  C   UNL     1      -6.149  52.634  54.661  0.00  0.00    +0.000 A 
ATOM     23  C   UNL     1      -5.650  53.617  53.806  0.00  0.00    +0.000 A 
ATOM     24  H   UNL     1     -11.522  52.872  51.855  0.00  0.00    +0.000 HD
ATOM     25  H   UNL     1      -8.136  54.813  50.953  0.00  0.00    +0.000 HD
ENDBRANCH   1  17
BRANCH   3  26
ATOM     26  O   UNL     1     -11.982  55.827  52.195  0.00  0.00    +0.000 OA
ATOM     27  H   UNL     1     -12.526  55.208  52.640  0.00  0.00    +0.000 HD
ENDBRANCH   3  26
BRANCH   5  28
ATOM     28  C   UNL     1     -10.771  55.285  46.663  0.00  0.00    +0.000 C 
BRANCH  28  29
ATOM     29  C   UNL     1     -11.723  54.407  45.832  0.00  0.00    +0.000 C 
BRANCH  29  30
ATOM     30  C   UNL     1     -11.077  53.478  44.791  0.00  0.00    +0.000 C 
ATOM     31  C   UNL     1      -9.571  53.329  44.991  0.00  0.00    +0.000 C 
ATOM     32  C   UNL     1     -11.747  52.099  44.882  0.00  0.00    +0.000 C 
ENDBRANCH  29  30
ENDBRANCH  28  29
ENDBRANCH   5  28
TORSDOF 5
ENDMDL
MODEL 9
REMARK VINA RESULT:      -7.4      3.315      4.972
REMARK  Name = 298159
REMARK  7 active torsions:
REMARK  status: ('A' for Active; 'I' for Inactive)
REMARK    1  A    between atoms: C_6  and  C_10
REMARK    2  A    between atoms: C_14  and  O_18
REMARK    3  A    between atoms: N_17  and  C_21
REMARK    4  A    between atoms: C_21  and  C_24
REMARK    5  A    between atoms: C_24  and  C_27
REMARK    6  A    between atoms: C_27  and  C_28
REMARK    7  A    between atoms: C_27  and  C_29
REMARK                            x       y       z     vdW  Elec       q    Type
REMARK                         _______ _______ _______ _____ _____    ______ ____
ROOT
ATOM      1  C   UNL     1     -11.322  55.967  48.865  0.00  0.00    +0.000 A 
ATOM      2  C   UNL     1     -10.270  55.388  49.758  0.00  0.00    +0.000 A 
ATOM      3  C   UNL     1     -11.388  55.593  47.576  0.00  0.00    +0.000 A 
ATOM      4  O   UNL     1     -10.321  55.650  50.963  0.00  0.00    +0.000 OA
ATOM      5  N   UNL     1      -9.295  54.568  49.201  0.00  0.00    +0.000 N 
ATOM      6  C   UNL     1     -10.441  54.606  47.038  0.00  0.00    +0.000 A 
ATOM      7  C   UNL     1      -9.418  54.096  47.856  0.00  0.00    +0.000 A 
ATOM      8  C   UNL     1     -10.563  54.148  45.713  0.00  0.00    +0.000 A 
ATOM      9  C   UNL     1      -8.570  53.107  47.331  0.00  0.00    +0.000 A 
ATOM     10  C   UNL     1      -9.693  53.187  45.202  0.00  0.00    +0.000 A 
ATOM     11  C   UNL     1      -8.698  52.664  46.014  0.00  0.00    +0.000 A 
ENDROOT
BRANCH   1  17
ATOM     12  S   UNL     1     -13.509  59.181  49.430  0.00  0.00    +0.000 S 
ATOM     13  O   UNL     1     -14.643  59.258  48.527  0.00  0.00    +0.000 OA
ATOM     14  O   UNL     1     -12.734  60.373  49.729  0.00  0.00    +0.000 OA
ATOM     15  N   UNL     1     -12.495  58.058  48.853  0.00  0.00    +0.000 N 
ATOM     16  C   UNL     1     -14.146  58.621  50.966  0.00  0.00    +0.000 A 
ATOM     17  C   UNL     1     -12.348  56.915  49.455  0.00  0.00    +0.000 C 
ATOM     18  C   UNL     1     -13.818  57.336  51.369  0.00  0.00    +0.000 A 
ATOM     19  C   UNL     1     -14.942  59.464  51.745  0.00  0.00    +0.000 A 
ATOM     20  N   UNL     1     -13.031  56.504  50.579  0.00  0.00    +0.000 N 
ATOM     21  C   UNL     1     -14.368  56.860  52.564  0.00  0.00    +0.000 A 
ATOM     22  C   UNL     1     -15.454  58.987  52.951  0.00  0.00    +0.000 A 
ATOM     23  C   UNL     1     -15.175  57.682  53.355  0.00  0.00    +0.000 A 
ATOM     24  H   UNL     1     -11.983  58.243  48.032  0.00  0.00    +0.000 HD
ATOM     25  H   UNL     1     -12.959  55.558  50.840  0.00  0.00    +0.000 HD
ENDBRANCH   1  17
BRANCH   3  26
ATOM     26  O   UNL     1     -12.344  56.041  46.681  0.00  0.00    +0.000 OA
ATOM     27  H   UNL     1     -13.225  56.185  46.967  0.00  0.00    +0.000 HD
ENDBRANCH   3  26
BRANCH   5  28
ATOM     28  C   UNL     1      -8.230  54.078  50.085  0.00  0.00    +0.000 C 
BRANCH  28  29
ATOM     29  C   UNL     1      -8.532  52.776  50.847  0.00  0.00    +0.000 C 
BRANCH  29  30
ATOM     30  C   UNL     1      -8.301  52.792  52.366  0.00  0.00    +0.000 C 
ATOM     31  C   UNL     1      -7.451  51.617  52.845  0.00  0.00    +0.000 C 
ATOM     32  C   UNL     1      -7.612  54.112  52.743  0.00  0.00    +0.000 C 
ENDBRANCH  29  30
ENDBRANCH  28  29
ENDBRANCH   5  28
TORSDOF 5
ENDMDL
