MODEL 1
REMARK VINA RESULT:      -8.0      0.000      0.000
REMARK  Name = 338322
REMARK  6 active torsions:
REMARK  status: ('A' for Active; 'I' for Inactive)
REMARK    1  A    between atoms: C_6  and  C_10
REMARK    2  A    between atoms: C_14  and  O_18
REMARK    3  A    between atoms: N_17  and  C_21
REMARK    4  A    between atoms: C_21  and  C_24
REMARK    5  A    between atoms: C_24  and  S_27
REMARK    6  A    between atoms: S_27  and  C_30
REMARK                            x       y       z     vdW  Elec       q    Type
REMARK                         _______ _______ _______ _____ _____    ______ ____
ROOT
ATOM      1  C   UNL     1     -11.591  54.125  51.210  0.00  0.00    +0.000 A 
ATOM      2  C   UNL     1     -10.543  54.151  52.278  0.00  0.00    +0.000 A 
ATOM      3  C   UNL     1     -11.714  53.037  50.427  0.00  0.00    +0.000 A 
ATOM      4  O   UNL     1     -10.360  55.205  52.895  0.00  0.00    +0.000 OA
ATOM      5  N   UNL     1      -9.803  52.995  52.521  0.00  0.00    +0.000 N 
ATOM      6  C   UNL     1     -10.906  51.837  50.674  0.00  0.00    +0.000 A 
ATOM      7  C   UNL     1      -9.991  51.809  51.740  0.00  0.00    +0.000 A 
ATOM      8  C   UNL     1     -11.072  50.692  49.874  0.00  0.00    +0.000 A 
ATOM      9  C   UNL     1      -9.289  50.622  51.994  0.00  0.00    +0.000 A 
ATOM     10  C   UNL     1     -10.351  49.529  50.128  0.00  0.00    +0.000 A 
ATOM     11  C   UNL     1      -9.459  49.492  51.191  0.00  0.00    +0.000 A 
ENDROOT
BRANCH   1  17
ATOM     12  S   UNL     1     -13.395  57.067  49.326  0.00  0.00    +0.000 S 
ATOM     13  O   UNL     1     -14.501  56.563  48.537  0.00  0.00    +0.000 OA
ATOM     14  O   UNL     1     -12.521  58.093  48.792  0.00  0.00    +0.000 OA
ATOM     15  N   UNL     1     -12.458  55.819  49.755  0.00  0.00    +0.000 N 
ATOM     16  C   UNL     1     -14.103  57.741  50.782  0.00  0.00    +0.000 A 
ATOM     17  C   UNL     1     -12.465  55.347  50.968  0.00  0.00    +0.000 C 
ATOM     18  C   UNL     1     -13.944  57.036  51.964  0.00  0.00    +0.000 A 
ATOM     19  C   UNL     1     -14.806  58.948  50.716  0.00  0.00    +0.000 A 
ATOM     20  N   UNL     1     -13.184  55.870  52.019  0.00  0.00    +0.000 N 
ATOM     21  C   UNL     1     -14.504  57.577  53.127  0.00  0.00    +0.000 A 
ATOM     22  C   UNL     1     -15.363  59.469  51.880  0.00  0.00    +0.000 A 
ATOM     23  C   UNL     1     -15.213  58.784  53.084  0.00  0.00    +0.000 A 
ATOM     24  H   UNL     1     -11.868  55.409  49.081  0.00  0.00    +0.000 HD
ATOM     25  H   UNL     1     -13.160  55.383  52.873  0.00  0.00    +0.000 HD
ENDBRANCH   1  17
BRANCH   3  26
ATOM     26  O   UNL     1     -12.590  52.934  49.359  0.00  0.00    +0.000 OA
ATOM     27  H   UNL     1     -12.343  53.263  48.517  0.00  0.00    +0.000 HD
ENDBRANCH   3  26
BRANCH   5  28
ATOM     28  C   UNL     1      -8.811  53.018  53.610  0.00  0.00    +0.000 C 
BRANCH  28  29
ATOM     29  C   UNL     1      -7.379  53.207  53.123  0.00  0.00    +0.000 C 
BRANCH  29  30
ATOM     30  S   UNL     1      -6.877  54.899  53.351  0.00  0.00    +0.000 S 
ATOM     31  O   UNL     1      -6.993  55.581  52.080  0.00  0.00    +0.000 OA
ATOM     32  O   UNL     1      -7.549  55.404  54.535  0.00  0.00    +0.000 OA
ATOM     33  C   UNL     1      -5.149  54.757  53.736  0.00  0.00    +0.000 C 
ENDBRANCH  29  30
ENDBRANCH  28  29
ENDBRANCH   5  28
TORSDOF 5
ENDMDL
MODEL 2
REMARK VINA RESULT:      -8.0      2.774      3.332
REMARK  Name = 338322
REMARK  6 active torsions:
REMARK  status: ('A' for Active; 'I' for Inactive)
REMARK    1  A    between atoms: C_6  and  C_10
REMARK    2  A    between atoms: C_14  and  O_18
REMARK    3  A    between atoms: N_17  and  C_21
REMARK    4  A    between atoms: C_21  and  C_24
REMARK    5  A    between atoms: C_24  and  S_27
REMARK    6  A    between atoms: S_27  and  C_30
REMARK                            x       y       z     vdW  Elec       q    Type
REMARK                         _______ _______ _______ _____ _____    ______ ____
ROOT
ATOM      1  C   UNL     1     -11.488  55.794  48.841  0.00  0.00    +0.000 A 
ATOM      2  C   UNL     1     -10.398  55.164  49.650  0.00  0.00    +0.000 A 
ATOM      3  C   UNL     1     -11.594  55.505  47.530  0.00  0.00    +0.000 A 
ATOM      4  O   UNL     1     -10.238  55.542  50.813  0.00  0.00    +0.000 OA
ATOM      5  N   UNL     1      -9.596  54.191  49.053  0.00  0.00    +0.000 N 
ATOM      6  C   UNL     1     -10.722  54.503  46.907  0.00  0.00    +0.000 A 
ATOM      7  C   UNL     1      -9.761  53.826  47.678  0.00  0.00    +0.000 A 
ATOM      8  C   UNL     1     -10.869  54.181  45.546  0.00  0.00    +0.000 A 
ATOM      9  C   UNL     1      -8.996  52.820  47.070  0.00  0.00    +0.000 A 
ATOM     10  C   UNL     1     -10.085  53.196  44.953  0.00  0.00    +0.000 A 
ATOM     11  C   UNL     1      -9.148  52.512  45.716  0.00  0.00    +0.000 A 
ENDROOT
BRANCH   1  17
ATOM     12  S   UNL     1     -13.518  59.113  49.409  0.00  0.00    +0.000 S 
ATOM     13  O   UNL     1     -14.641  59.184  48.496  0.00  0.00    +0.000 OA
ATOM     14  O   UNL     1     -12.720  60.291  49.684  0.00  0.00    +0.000 OA
ATOM     15  N   UNL     1     -12.505  57.962  48.890  0.00  0.00    +0.000 N 
ATOM     16  C   UNL     1     -14.177  58.601  50.951  0.00  0.00    +0.000 A 
ATOM     17  C   UNL     1     -12.427  56.805  49.482  0.00  0.00    +0.000 C 
ATOM     18  C   UNL     1     -13.924  57.303  51.364  0.00  0.00    +0.000 A 
ATOM     19  C   UNL     1     -14.935  59.496  51.713  0.00  0.00    +0.000 A 
ATOM     20  N   UNL     1     -13.111  56.450  50.622  0.00  0.00    +0.000 N 
ATOM     21  C   UNL     1     -14.444  56.897  52.598  0.00  0.00    +0.000 A 
ATOM     22  C   UNL     1     -15.452  59.075  52.935  0.00  0.00    +0.000 A 
ATOM     23  C   UNL     1     -15.207  57.777  53.376  0.00  0.00    +0.000 A 
ATOM     24  H   UNL     1     -11.935  58.143  48.107  0.00  0.00    +0.000 HD
ATOM     25  H   UNL     1     -13.020  55.521  50.935  0.00  0.00    +0.000 HD
ENDBRANCH   1  17
BRANCH   3  26
ATOM     26  O   UNL     1     -12.509  56.090  46.669  0.00  0.00    +0.000 OA
ATOM     27  H   UNL     1     -13.216  55.582  46.322  0.00  0.00    +0.000 HD
ENDBRANCH   3  26
BRANCH   5  28
ATOM     28  C   UNL     1      -8.561  53.542  49.876  0.00  0.00    +0.000 C 
BRANCH  28  29
ATOM     29  C   UNL     1      -7.234  54.294  49.888  0.00  0.00    +0.000 C 
BRANCH  29  30
ATOM     30  S   UNL     1      -6.768  54.675  51.563  0.00  0.00    +0.000 S 
ATOM     31  O   UNL     1      -5.391  54.274  51.753  0.00  0.00    +0.000 OA
ATOM     32  O   UNL     1      -7.197  56.034  51.843  0.00  0.00    +0.000 OA
ATOM     33  C   UNL     1      -7.790  53.583  52.522  0.00  0.00    +0.000 C 
ENDBRANCH  29  30
ENDBRANCH  28  29
ENDBRANCH   5  28
TORSDOF 5
ENDMDL
MODEL 3
REMARK VINA RESULT:      -7.8      3.162      7.437
REMARK  Name = 338322
REMARK  6 active torsions:
REMARK  status: ('A' for Active; 'I' for Inactive)
REMARK    1  A    between atoms: C_6  and  C_10
REMARK    2  A    between atoms: C_14  and  O_18
REMARK    3  A    between atoms: N_17  and  C_21
REMARK    4  A    between atoms: C_21  and  C_24
REMARK    5  A    between atoms: C_24  and  S_27
REMARK    6  A    between atoms: S_27  and  C_30
REMARK                            x       y       z     vdW  Elec       q    Type
REMARK                         _______ _______ _______ _____ _____    ______ ____
ROOT
ATOM      1  C   UNL     1     -10.115  55.094  50.620  0.00  0.00    +0.000 A 
ATOM      2  C   UNL     1      -9.709  55.059  49.180  0.00  0.00    +0.000 A 
ATOM      3  C   UNL     1     -11.291  55.652  50.964  0.00  0.00    +0.000 A 
ATOM      4  O   UNL     1      -8.573  54.664  48.901  0.00  0.00    +0.000 OA
ATOM      5  N   UNL     1     -10.618  55.491  48.215  0.00  0.00    +0.000 N 
ATOM      6  C   UNL     1     -12.225  56.132  49.939  0.00  0.00    +0.000 A 
ATOM      7  C   UNL     1     -11.902  56.010  48.577  0.00  0.00    +0.000 A 
ATOM      8  C   UNL     1     -13.468  56.676  50.310  0.00  0.00    +0.000 A 
ATOM      9  C   UNL     1     -12.849  56.409  47.622  0.00  0.00    +0.000 A 
ATOM     10  C   UNL     1     -14.387  57.087  49.349  0.00  0.00    +0.000 A 
ATOM     11  C   UNL     1     -14.078  56.952  48.002  0.00  0.00    +0.000 A 
ENDROOT
BRANCH   1  17
ATOM     12  S   UNL     1      -6.955  54.772  52.936  0.00  0.00    +0.000 S 
ATOM     13  O   UNL     1      -6.970  55.795  53.962  0.00  0.00    +0.000 OA
ATOM     14  O   UNL     1      -5.719  54.429  52.260  0.00  0.00    +0.000 OA
ATOM     15  N   UNL     1      -8.028  55.172  51.793  0.00  0.00    +0.000 N 
ATOM     16  C   UNL     1      -7.510  53.300  53.711  0.00  0.00    +0.000 A 
ATOM     17  C   UNL     1      -9.175  54.563  51.692  0.00  0.00    +0.000 C 
ATOM     18  C   UNL     1      -8.785  52.850  53.407  0.00  0.00    +0.000 A 
ATOM     19  C   UNL     1      -6.671  52.629  54.608  0.00  0.00    +0.000 A 
ATOM     20  N   UNL     1      -9.577  53.496  52.462  0.00  0.00    +0.000 N 
ATOM     21  C   UNL     1      -9.224  51.672  54.020  0.00  0.00    +0.000 A 
ATOM     22  C   UNL     1      -7.126  51.463  55.215  0.00  0.00    +0.000 A 
ATOM     23  C   UNL     1      -8.402  50.985  54.922  0.00  0.00    +0.000 A 
ATOM     24  H   UNL     1      -7.808  55.894  51.161  0.00  0.00    +0.000 HD
ATOM     25  H   UNL     1     -10.495  53.165  52.335  0.00  0.00    +0.000 HD
ENDBRANCH   1  17
BRANCH   3  26
ATOM     26  O   UNL     1     -11.731  55.813  52.268  0.00  0.00    +0.000 OA
ATOM     27  H   UNL     1     -11.135  56.100  52.932  0.00  0.00    +0.000 HD
ENDBRANCH   3  26
BRANCH   5  28
ATOM     28  C   UNL     1     -10.224  55.402  46.798  0.00  0.00    +0.000 C 
BRANCH  28  29
ATOM     29  C   UNL     1     -10.523  54.045  46.168  0.00  0.00    +0.000 C 
BRANCH  29  30
ATOM     30  S   UNL     1      -9.052  53.390  45.410  0.00  0.00    +0.000 S 
ATOM     31  O   UNL     1      -8.507  52.375  46.283  0.00  0.00    +0.000 OA
ATOM     32  O   UNL     1      -9.363  53.096  44.023  0.00  0.00    +0.000 OA
ATOM     33  C   UNL     1      -7.941  54.776  45.427  0.00  0.00    +0.000 C 
ENDBRANCH  29  30
ENDBRANCH  28  29
ENDBRANCH   5  28
TORSDOF 5
ENDMDL
MODEL 4
REMARK VINA RESULT:      -7.8      2.613      7.503
REMARK  Name = 338322
REMARK  6 active torsions:
REMARK  status: ('A' for Active; 'I' for Inactive)
REMARK    1  A    between atoms: C_6  and  C_10
REMARK    2  A    between atoms: C_14  and  O_18
REMARK    3  A    between atoms: N_17  and  C_21
REMARK    4  A    between atoms: C_21  and  C_24
REMARK    5  A    between atoms: C_24  and  S_27
REMARK    6  A    between atoms: S_27  and  C_30
REMARK                            x       y       z     vdW  Elec       q    Type
REMARK                         _______ _______ _______ _____ _____    ______ ____
ROOT
ATOM      1  C   UNL     1      -9.770  54.345  51.017  0.00  0.00    +0.000 A 
ATOM      2  C   UNL     1     -10.976  55.160  51.366  0.00  0.00    +0.000 A 
ATOM      3  C   UNL     1      -9.522  54.046  49.728  0.00  0.00    +0.000 A 
ATOM      4  O   UNL     1     -11.257  55.311  52.558  0.00  0.00    +0.000 OA
ATOM      5  N   UNL     1     -11.745  55.698  50.334  0.00  0.00    +0.000 N 
ATOM      6  C   UNL     1     -10.358  54.593  48.654  0.00  0.00    +0.000 A 
ATOM      7  C   UNL     1     -11.433  55.445  48.960  0.00  0.00    +0.000 A 
ATOM      8  C   UNL     1     -10.064  54.305  47.308  0.00  0.00    +0.000 A 
ATOM      9  C   UNL     1     -12.165  56.011  47.906  0.00  0.00    +0.000 A 
ATOM     10  C   UNL     1     -10.816  54.858  46.276  0.00  0.00    +0.000 A 
ATOM     11  C   UNL     1     -11.867  55.714  46.574  0.00  0.00    +0.000 A 
ENDROOT
BRANCH   1  17
ATOM     12  S   UNL     1      -6.604  53.852  53.296  0.00  0.00    +0.000 S 
ATOM     13  O   UNL     1      -6.464  54.961  54.218  0.00  0.00    +0.000 OA
ATOM     14  O   UNL     1      -5.440  53.298  52.633  0.00  0.00    +0.000 OA
ATOM     15  N   UNL     1      -7.655  54.274  52.139  0.00  0.00    +0.000 N 
ATOM     16  C   UNL     1      -7.310  52.539  54.219  0.00  0.00    +0.000 A 
ATOM     17  C   UNL     1      -8.869  53.805  52.118  0.00  0.00    +0.000 C 
ATOM     18  C   UNL     1      -8.639  52.224  53.982  0.00  0.00    +0.000 A 
ATOM     19  C   UNL     1      -6.533  51.857  55.160  0.00  0.00    +0.000 A 
ATOM     20  N   UNL     1      -9.375  52.872  52.994  0.00  0.00    +0.000 N 
ATOM     21  C   UNL     1      -9.200  51.172  54.715  0.00  0.00    +0.000 A 
ATOM     22  C   UNL     1      -7.108  50.817  55.885  0.00  0.00    +0.000 A 
ATOM     23  C   UNL     1      -8.440  50.475  55.663  0.00  0.00    +0.000 A 
ATOM     24  H   UNL     1      -7.368  54.901  51.436  0.00  0.00    +0.000 HD
ATOM     25  H   UNL     1     -10.330  52.647  52.917  0.00  0.00    +0.000 HD
ENDBRANCH   1  17
BRANCH   3  26
ATOM     26  O   UNL     1      -8.485  53.234  49.297  0.00  0.00    +0.000 OA
ATOM     27  H   UNL     1      -8.180  53.293  48.413  0.00  0.00    +0.000 HD
ENDBRANCH   3  26
BRANCH   5  28
ATOM     28  C   UNL     1     -12.899  56.540  50.692  0.00  0.00    +0.000 C 
BRANCH  28  29
ATOM     29  C   UNL     1     -14.159  55.742  51.007  0.00  0.00    +0.000 C 
BRANCH  29  30
ATOM     30  S   UNL     1     -15.503  56.849  51.375  0.00  0.00    +0.000 S 
ATOM     31  O   UNL     1     -16.664  56.416  50.629  0.00  0.00    +0.000 OA
ATOM     32  O   UNL     1     -15.559  57.013  52.817  0.00  0.00    +0.000 OA
ATOM     33  C   UNL     1     -14.955  58.390  50.682  0.00  0.00    +0.000 C 
ENDBRANCH  29  30
ENDBRANCH  28  29
ENDBRANCH   5  28
TORSDOF 5
ENDMDL
MODEL 5
REMARK VINA RESULT:      -7.6      3.347      7.507
REMARK  Name = 338322
REMARK  6 active torsions:
REMARK  status: ('A' for Active; 'I' for Inactive)
REMARK    1  A    between atoms: C_6  and  C_10
REMARK    2  A    between atoms: C_14  and  O_18
REMARK    3  A    between atoms: N_17  and  C_21
REMARK    4  A    between atoms: C_21  and  C_24
REMARK    5  A    between atoms: C_24  and  S_27
REMARK    6  A    between atoms: S_27  and  C_30
REMARK                            x       y       z     vdW  Elec       q    Type
REMARK                         _______ _______ _______ _____ _____    ______ ____
ROOT
ATOM      1  C   UNL     1     -10.376  54.893  50.352  0.00  0.00    +0.000 A 
ATOM      2  C   UNL     1      -9.947  54.858  48.919  0.00  0.00    +0.000 A 
ATOM      3  C   UNL     1     -11.496  55.557  50.693  0.00  0.00    +0.000 A 
ATOM      4  O   UNL     1      -8.852  54.358  48.646  0.00  0.00    +0.000 OA
ATOM      5  N   UNL     1     -10.788  55.408  47.952  0.00  0.00    +0.000 N 
ATOM      6  C   UNL     1     -12.356  56.159  49.668  0.00  0.00    +0.000 A 
ATOM      7  C   UNL     1     -12.020  56.045  48.309  0.00  0.00    +0.000 A 
ATOM      8  C   UNL     1     -13.545  56.816  50.035  0.00  0.00    +0.000 A 
ATOM      9  C   UNL     1     -12.902  56.566  47.351  0.00  0.00    +0.000 A 
ATOM     10  C   UNL     1     -14.397  57.347  49.072  0.00  0.00    +0.000 A 
ATOM     11  C   UNL     1     -14.077  57.220  47.727  0.00  0.00    +0.000 A 
ENDROOT
BRANCH   1  17
ATOM     12  S   UNL     1      -9.142  52.278  53.016  0.00  0.00    +0.000 S 
ATOM     13  O   UNL     1      -8.591  51.108  52.363  0.00  0.00    +0.000 OA
ATOM     14  O   UNL     1      -9.987  52.135  54.186  0.00  0.00    +0.000 OA
ATOM     15  N   UNL     1      -9.980  53.130  51.925  0.00  0.00    +0.000 N 
ATOM     16  C   UNL     1      -7.769  53.244  53.523  0.00  0.00    +0.000 A 
ATOM     17  C   UNL     1      -9.515  54.238  51.422  0.00  0.00    +0.000 C 
ATOM     18  C   UNL     1      -7.503  54.408  52.818  0.00  0.00    +0.000 A 
ATOM     19  C   UNL     1      -6.985  52.823  54.602  0.00  0.00    +0.000 A 
ATOM     20  N   UNL     1      -8.335  54.842  51.791  0.00  0.00    +0.000 N 
ATOM     21  C   UNL     1      -6.411  55.182  53.228  0.00  0.00    +0.000 A 
ATOM     22  C   UNL     1      -5.899  53.601  54.991  0.00  0.00    +0.000 A 
ATOM     23  C   UNL     1      -5.612  54.779  54.304  0.00  0.00    +0.000 A 
ATOM     24  H   UNL     1     -10.862  52.802  51.635  0.00  0.00    +0.000 HD
ATOM     25  H   UNL     1      -8.058  55.642  51.288  0.00  0.00    +0.000 HD
ENDBRANCH   1  17
BRANCH   3  26
ATOM     26  O   UNL     1     -11.943  55.724  51.994  0.00  0.00    +0.000 OA
ATOM     27  H   UNL     1     -12.047  54.980  52.553  0.00  0.00    +0.000 HD
ENDBRANCH   3  26
BRANCH   5  28
ATOM     28  C   UNL     1     -10.378  55.321  46.540  0.00  0.00    +0.000 C 
BRANCH  28  29
ATOM     29  C   UNL     1     -10.869  54.057  45.841  0.00  0.00    +0.000 C 
BRANCH  29  30
ATOM     30  S   UNL     1      -9.486  53.148  45.187  0.00  0.00    +0.000 S 
ATOM     31  O   UNL     1      -9.140  52.109  46.131  0.00  0.00    +0.000 OA
ATOM     32  O   UNL     1      -9.781  52.832  43.801  0.00  0.00    +0.000 OA
ATOM     33  C   UNL     1      -8.177  54.349  45.195  0.00  0.00    +0.000 C 
ENDBRANCH  29  30
ENDBRANCH  28  29
ENDBRANCH   5  28
TORSDOF 5
ENDMDL
MODEL 6
REMARK VINA RESULT:      -7.5      3.695      4.349
REMARK  Name = 338322
REMARK  6 active torsions:
REMARK  status: ('A' for Active; 'I' for Inactive)
REMARK    1  A    between atoms: C_6  and  C_10
REMARK    2  A    between atoms: C_14  and  O_18
REMARK    3  A    between atoms: N_17  and  C_21
REMARK    4  A    between atoms: C_21  and  C_24
REMARK    5  A    between atoms: C_24  and  S_27
REMARK    6  A    between atoms: S_27  and  C_30
REMARK                            x       y       z     vdW  Elec       q    Type
REMARK                         _______ _______ _______ _____ _____    ______ ____
ROOT
ATOM      1  C   UNL     1     -10.783  55.643  48.395  0.00  0.00    +0.000 A 
ATOM      2  C   UNL     1      -9.342  55.642  48.796  0.00  0.00    +0.000 A 
ATOM      3  C   UNL     1     -11.144  55.102  47.216  0.00  0.00    +0.000 A 
ATOM      4  O   UNL     1      -9.016  56.259  49.814  0.00  0.00    +0.000 OA
ATOM      5  N   UNL     1      -8.422  54.965  47.996  0.00  0.00    +0.000 N 
ATOM      6  C   UNL     1     -10.160  54.420  46.368  0.00  0.00    +0.000 A 
ATOM      7  C   UNL     1      -8.821  54.319  46.781  0.00  0.00    +0.000 A 
ATOM      8  C   UNL     1     -10.557  53.823  45.157  0.00  0.00    +0.000 A 
ATOM      9  C   UNL     1      -7.922  53.596  45.984  0.00  0.00    +0.000 A 
ATOM     10  C   UNL     1      -9.647  53.127  44.368  0.00  0.00    +0.000 A 
ATOM     11  C   UNL     1      -8.327  53.011  44.782  0.00  0.00    +0.000 A 
ENDROOT
BRANCH   1  17
ATOM     12  S   UNL     1     -13.327  56.188  51.342  0.00  0.00    +0.000 S 
ATOM     13  O   UNL     1     -12.621  56.450  52.581  0.00  0.00    +0.000 OA
ATOM     14  O   UNL     1     -14.489  55.322  51.330  0.00  0.00    +0.000 OA
ATOM     15  N   UNL     1     -12.275  55.589  50.268  0.00  0.00    +0.000 N 
ATOM     16  C   UNL     1     -13.875  57.747  50.756  0.00  0.00    +0.000 A 
ATOM     17  C   UNL     1     -11.823  56.311  49.283  0.00  0.00    +0.000 C 
ATOM     18  C   UNL     1     -13.224  58.291  49.661  0.00  0.00    +0.000 A 
ATOM     19  C   UNL     1     -14.934  58.397  51.400  0.00  0.00    +0.000 A 
ATOM     20  N   UNL     1     -12.217  57.598  48.995  0.00  0.00    +0.000 N 
ATOM     21  C   UNL     1     -13.666  59.532  49.189  0.00  0.00    +0.000 A 
ATOM     22  C   UNL     1     -15.357  59.634  50.922  0.00  0.00    +0.000 A 
ATOM     23  C   UNL     1     -14.723  60.201  49.819  0.00  0.00    +0.000 A 
ATOM     24  H   UNL     1     -11.972  54.658  50.362  0.00  0.00    +0.000 HD
ATOM     25  H   UNL     1     -11.751  58.063  48.264  0.00  0.00    +0.000 HD
ENDBRANCH   1  17
BRANCH   3  26
ATOM     26  O   UNL     1     -12.432  55.119  46.706  0.00  0.00    +0.000 OA
ATOM     27  H   UNL     1     -13.121  54.673  47.158  0.00  0.00    +0.000 HD
ENDBRANCH   3  26
BRANCH   5  28
ATOM     28  C   UNL     1      -7.015  54.928  48.430  0.00  0.00    +0.000 C 
BRANCH  28  29
ATOM     29  C   UNL     1      -6.715  53.813  49.426  0.00  0.00    +0.000 C 
BRANCH  29  30
ATOM     30  S   UNL     1      -4.960  53.695  49.696  0.00  0.00    +0.000 S 
ATOM     31  O   UNL     1      -4.286  54.199  48.520  0.00  0.00    +0.000 OA
ATOM     32  O   UNL     1      -4.677  54.240  51.012  0.00  0.00    +0.000 OA
ATOM     33  C   UNL     1      -4.683  51.942  49.772  0.00  0.00    +0.000 C 
ENDBRANCH  29  30
ENDBRANCH  28  29
ENDBRANCH   5  28
TORSDOF 5
ENDMDL
MODEL 7
REMARK VINA RESULT:      -7.5      4.123      6.864
REMARK  Name = 338322
REMARK  6 active torsions:
REMARK  status: ('A' for Active; 'I' for Inactive)
REMARK    1  A    between atoms: C_6  and  C_10
REMARK    2  A    between atoms: C_14  and  O_18
REMARK    3  A    between atoms: N_17  and  C_21
REMARK    4  A    between atoms: C_21  and  C_24
REMARK    5  A    between atoms: C_24  and  S_27
REMARK    6  A    between atoms: S_27  and  C_30
REMARK                            x       y       z     vdW  Elec       q    Type
REMARK                         _______ _______ _______ _____ _____    ______ ____
ROOT
ATOM      1  C   UNL     1     -10.878  54.532  48.431  0.00  0.00    +0.000 A 
ATOM      2  C   UNL     1     -10.452  54.081  49.793  0.00  0.00    +0.000 A 
ATOM      3  C   UNL     1     -11.945  55.343  48.304  0.00  0.00    +0.000 A 
ATOM      4  O   UNL     1      -9.557  53.236  49.879  0.00  0.00    +0.000 OA
ATOM      5  N   UNL     1     -11.095  54.617  50.909  0.00  0.00    +0.000 N 
ATOM      6  C   UNL     1     -12.632  55.874  49.486  0.00  0.00    +0.000 A 
ATOM      7  C   UNL     1     -12.179  55.543  50.775  0.00  0.00    +0.000 A 
ATOM      8  C   UNL     1     -13.721  56.753  49.340  0.00  0.00    +0.000 A 
ATOM      9  C   UNL     1     -12.811  56.128  51.882  0.00  0.00    +0.000 A 
ATOM     10  C   UNL     1     -14.351  57.306  50.451  0.00  0.00    +0.000 A 
ATOM     11  C   UNL     1     -13.894  56.995  51.725  0.00  0.00    +0.000 A 
ENDROOT
BRANCH   1  17
ATOM     12  S   UNL     1      -8.019  53.976  45.791  0.00  0.00    +0.000 S 
ATOM     13  O   UNL     1      -7.006  53.084  46.318  0.00  0.00    +0.000 OA
ATOM     14  O   UNL     1      -7.637  55.150  45.030  0.00  0.00    +0.000 OA
ATOM     15  N   UNL     1      -8.946  54.484  47.016  0.00  0.00    +0.000 N 
ATOM     16  C   UNL     1      -9.013  53.006  44.722  0.00  0.00    +0.000 A 
ATOM     17  C   UNL     1     -10.150  54.022  47.196  0.00  0.00    +0.000 C 
ATOM     18  C   UNL     1     -10.285  52.664  45.155  0.00  0.00    +0.000 A 
ATOM     19  C   UNL     1      -8.508  52.600  43.482  0.00  0.00    +0.000 A 
ATOM     20  N   UNL     1     -10.792  53.134  46.363  0.00  0.00    +0.000 N 
ATOM     21  C   UNL     1     -11.081  51.895  44.299  0.00  0.00    +0.000 A 
ATOM     22  C   UNL     1      -9.310  51.830  42.646  0.00  0.00    +0.000 A 
ATOM     23  C   UNL     1     -10.595  51.477  43.054  0.00  0.00    +0.000 A 
ATOM     24  H   UNL     1      -8.590  55.158  47.639  0.00  0.00    +0.000 HD
ATOM     25  H   UNL     1     -11.676  52.806  46.644  0.00  0.00    +0.000 HD
ENDBRANCH   1  17
BRANCH   3  26
ATOM     26  O   UNL     1     -12.477  55.755  47.093  0.00  0.00    +0.000 OA
ATOM     27  H   UNL     1     -12.983  55.159  46.576  0.00  0.00    +0.000 HD
ENDBRANCH   3  26
BRANCH   5  28
ATOM     28  C   UNL     1     -10.631  54.204  52.245  0.00  0.00    +0.000 C 
BRANCH  28  29
ATOM     29  C   UNL     1      -9.514  55.083  52.799  0.00  0.00    +0.000 C 
BRANCH  29  30
ATOM     30  S   UNL     1      -8.076  54.093  53.142  0.00  0.00    +0.000 S 
ATOM     31  O   UNL     1      -8.509  52.874  53.788  0.00  0.00    +0.000 OA
ATOM     32  O   UNL     1      -7.267  54.055  51.936  0.00  0.00    +0.000 OA
ATOM     33  C   UNL     1      -7.198  55.064  54.343  0.00  0.00    +0.000 C 
ENDBRANCH  29  30
ENDBRANCH  28  29
ENDBRANCH   5  28
TORSDOF 5
ENDMDL
MODEL 8
REMARK VINA RESULT:      -7.4      2.945      3.764
REMARK  Name = 338322
REMARK  6 active torsions:
REMARK  status: ('A' for Active; 'I' for Inactive)
REMARK    1  A    between atoms: C_6  and  C_10
REMARK    2  A    between atoms: C_14  and  O_18
REMARK    3  A    between atoms: N_17  and  C_21
REMARK    4  A    between atoms: C_21  and  C_24
REMARK    5  A    between atoms: C_24  and  S_27
REMARK    6  A    between atoms: S_27  and  C_30
REMARK                            x       y       z     vdW  Elec       q    Type
REMARK                         _______ _______ _______ _____ _____    ______ ____
ROOT
ATOM      1  C   UNL     1     -11.925  54.730  48.787  0.00  0.00    +0.000 A 
ATOM      2  C   UNL     1     -11.258  53.702  49.646  0.00  0.00    +0.000 A 
ATOM      3  C   UNL     1     -11.639  54.783  47.472  0.00  0.00    +0.000 A 
ATOM      4  O   UNL     1     -11.432  53.755  50.867  0.00  0.00    +0.000 OA
ATOM      5  N   UNL     1     -10.451  52.740  49.039  0.00  0.00    +0.000 N 
ATOM      6  C   UNL     1     -10.762  53.783  46.852  0.00  0.00    +0.000 A 
ATOM      7  C   UNL     1     -10.211  52.749  47.627  0.00  0.00    +0.000 A 
ATOM      8  C   UNL     1     -10.503  53.825  45.470  0.00  0.00    +0.000 A 
ATOM      9  C   UNL     1      -9.439  51.766  46.990  0.00  0.00    +0.000 A 
ATOM     10  C   UNL     1      -9.717  52.854  44.857  0.00  0.00    +0.000 A 
ATOM     11  C   UNL     1      -9.185  51.821  45.618  0.00  0.00    +0.000 A 
ENDROOT
BRANCH   1  17
ATOM     12  S   UNL     1     -14.915  56.216  50.861  0.00  0.00    +0.000 S 
ATOM     13  O   UNL     1     -14.637  56.139  52.281  0.00  0.00    +0.000 OA
ATOM     14  O   UNL     1     -16.238  55.908  50.356  0.00  0.00    +0.000 OA
ATOM     15  N   UNL     1     -13.871  55.259  50.080  0.00  0.00    +0.000 N 
ATOM     16  C   UNL     1     -14.590  57.874  50.392  0.00  0.00    +0.000 A 
ATOM     17  C   UNL     1     -12.868  55.749  49.409  0.00  0.00    +0.000 C 
ATOM     18  C   UNL     1     -13.446  58.123  49.650  0.00  0.00    +0.000 A 
ATOM     19  C   UNL     1     -15.472  58.890  50.775  0.00  0.00    +0.000 A 
ATOM     20  N   UNL     1     -12.617  57.089  49.223  0.00  0.00    +0.000 N 
ATOM     21  C   UNL     1     -13.190  59.445  49.270  0.00  0.00    +0.000 A 
ATOM     22  C   UNL     1     -15.199  60.200  50.395  0.00  0.00    +0.000 A 
ATOM     23  C   UNL     1     -14.059  60.478  49.644  0.00  0.00    +0.000 A 
ATOM     24  H   UNL     1     -13.998  54.283  50.112  0.00  0.00    +0.000 HD
ATOM     25  H   UNL     1     -11.788  57.335  48.754  0.00  0.00    +0.000 HD
ENDBRANCH   1  17
BRANCH   3  26
ATOM     26  O   UNL     1     -12.131  55.740  46.600  0.00  0.00    +0.000 OA
ATOM     27  H   UNL     1     -12.120  56.645  46.842  0.00  0.00    +0.000 HD
ENDBRANCH   3  26
BRANCH   5  28
ATOM     28  C   UNL     1      -9.843  51.703  49.891  0.00  0.00    +0.000 C 
BRANCH  28  29
ATOM     29  C   UNL     1      -8.451  52.072  50.396  0.00  0.00    +0.000 C 
BRANCH  29  30
ATOM     30  S   UNL     1      -8.436  52.089  52.176  0.00  0.00    +0.000 S 
ATOM     31  O   UNL     1      -9.709  51.586  52.644  0.00  0.00    +0.000 OA
ATOM     32  O   UNL     1      -7.188  51.490  52.613  0.00  0.00    +0.000 OA
ATOM     33  C   UNL     1      -8.363  53.822  52.559  0.00  0.00    +0.000 C 
ENDBRANCH  29  30
ENDBRANCH  28  29
ENDBRANCH   5  28
TORSDOF 5
ENDMDL
MODEL 9
REMARK VINA RESULT:      -7.4      2.027      2.230
REMARK  Name = 338322
REMARK  6 active torsions:
REMARK  status: ('A' for Active; 'I' for Inactive)
REMARK    1  A    between atoms: C_6  and  C_10
REMARK    2  A    between atoms: C_14  and  O_18
REMARK    3  A    between atoms: N_17  and  C_21
REMARK    4  A    between atoms: C_21  and  C_24
REMARK    5  A    between atoms: C_24  and  S_27
REMARK    6  A    between atoms: S_27  and  C_30
REMARK                            x       y       z     vdW  Elec       q    Type
REMARK                         _______ _______ _______ _____ _____    ______ ____
ROOT
ATOM      1  C   UNL     1     -11.230  55.208  49.793  0.00  0.00    +0.000 A 
ATOM      2  C   UNL     1     -10.208  54.805  50.809  0.00  0.00    +0.000 A 
ATOM      3  C   UNL     1     -11.230  54.620  48.582  0.00  0.00    +0.000 A 
ATOM      4  O   UNL     1     -10.142  55.446  51.861  0.00  0.00    +0.000 OA
ATOM      5  N   UNL     1      -9.359  53.736  50.521  0.00  0.00    +0.000 N 
ATOM      6  C   UNL     1     -10.309  53.518  48.280  0.00  0.00    +0.000 A 
ATOM      7  C   UNL     1      -9.414  53.058  49.260  0.00  0.00    +0.000 A 
ATOM      8  C   UNL     1     -10.346  52.885  47.024  0.00  0.00    +0.000 A 
ATOM      9  C   UNL     1      -8.600  51.954  48.965  0.00  0.00    +0.000 A 
ATOM     10  C   UNL     1      -9.516  51.805  46.741  0.00  0.00    +0.000 A 
ATOM     11  C   UNL     1      -8.642  51.336  47.713  0.00  0.00    +0.000 A 
ENDROOT
BRANCH   1  17
ATOM     12  S   UNL     1     -13.288  58.537  49.421  0.00  0.00    +0.000 S 
ATOM     13  O   UNL     1     -14.323  58.386  48.418  0.00  0.00    +0.000 OA
ATOM     14  O   UNL     1     -12.513  59.760  49.496  0.00  0.00    +0.000 OA
ATOM     15  N   UNL     1     -12.237  57.316  49.265  0.00  0.00    +0.000 N 
ATOM     16  C   UNL     1     -14.087  58.372  50.973  0.00  0.00    +0.000 A 
ATOM     17  C   UNL     1     -12.219  56.322  50.105  0.00  0.00    +0.000 C 
ATOM     18  C   UNL     1     -13.878  57.202  51.686  0.00  0.00    +0.000 A 
ATOM     19  C   UNL     1     -14.907  59.402  51.444  0.00  0.00    +0.000 A 
ATOM     20  N   UNL     1     -13.005  56.218  51.230  0.00  0.00    +0.000 N 
ATOM     21  C   UNL     1     -14.510  57.074  52.928  0.00  0.00    +0.000 A 
ATOM     22  C   UNL     1     -15.534  59.256  52.678  0.00  0.00    +0.000 A 
ATOM     23  C   UNL     1     -15.337  58.093  53.419  0.00  0.00    +0.000 A 
ATOM     24  H   UNL     1     -11.598  57.327  48.516  0.00  0.00    +0.000 HD
ATOM     25  H   UNL     1     -12.948  55.384  51.750  0.00  0.00    +0.000 HD
ENDBRANCH   1  17
BRANCH   3  26
ATOM     26  O   UNL     1     -12.073  54.970  47.540  0.00  0.00    +0.000 OA
ATOM     27  H   UNL     1     -12.805  54.425  47.326  0.00  0.00    +0.000 HD
ENDBRANCH   3  26
BRANCH   5  28
ATOM     28  C   UNL     1      -8.393  53.316  51.550  0.00  0.00    +0.000 C 
BRANCH  28  29
ATOM     29  C   UNL     1      -7.092  54.111  51.522  0.00  0.00    +0.000 C 
BRANCH  29  30
ATOM     30  S   UNL     1      -6.509  54.381  53.182  0.00  0.00    +0.000 S 
ATOM     31  O   UNL     1      -7.207  53.469  54.061  0.00  0.00    +0.000 OA
ATOM     32  O   UNL     1      -5.058  54.418  53.141  0.00  0.00    +0.000 OA
ATOM     33  C   UNL     1      -7.076  56.025  53.543  0.00  0.00    +0.000 C 
ENDBRANCH  29  30
ENDBRANCH  28  29
ENDBRANCH   5  28
TORSDOF 5
ENDMDL
