MODEL 1
REMARK VINA RESULT:      -8.5      0.000      0.000
REMARK  Name = 338092
REMARK  7 active torsions:
REMARK  status: ('A' for Active; 'I' for Inactive)
REMARK    1  A    between atoms: C_6  and  C_10
REMARK    2  A    between atoms: C_14  and  O_18
REMARK    3  A    between atoms: N_17  and  C_21
REMARK    4  A    between atoms: C_21  and  C_24
REMARK    5  A    between atoms: C_24  and  C_27
REMARK    6  A    between atoms: C_27  and  C_29
REMARK    7  A    between atoms: C_27  and  C_30
REMARK                            x       y       z     vdW  Elec       q    Type
REMARK                         _______ _______ _______ _____ _____    ______ ____
ROOT
ATOM      1  C   UNL     1     -10.191  54.384  52.339  0.00  0.00    +0.000 A 
ATOM      2  C   UNL     1      -8.792  54.910  52.291  0.00  0.00    +0.000 A 
ATOM      3  C   UNL     1     -10.466  53.269  53.036  0.00  0.00    +0.000 A 
ATOM      4  O   UNL     1      -8.598  56.000  51.742  0.00  0.00    +0.000 OA
ATOM      5  N   UNL     1      -7.774  54.169  52.883  0.00  0.00    +0.000 N 
ATOM      6  C   UNL     1      -9.401  52.568  53.770  0.00  0.00    +0.000 A 
ATOM      7  C   UNL     1      -8.074  53.034  53.702  0.00  0.00    +0.000 A 
ATOM      8  C   UNL     1      -9.704  51.446  54.562  0.00  0.00    +0.000 A 
ATOM      9  C   UNL     1      -7.092  52.388  54.471  0.00  0.00    +0.000 A 
ATOM     10  C   UNL     1      -8.705  50.809  55.284  0.00  0.00    +0.000 A 
ATOM     11  C   UNL     1      -7.403  51.271  55.248  0.00  0.00    +0.000 A 
ATOM     12  F   UNL     1      -9.007  49.746  56.039  0.00  0.00    +0.000 F 
ENDROOT
BRANCH   1  18
ATOM     13  S   UNL     1     -12.345  56.073  49.514  0.00  0.00    +0.000 S 
ATOM     14  O   UNL     1     -13.226  55.137  48.840  0.00  0.00    +0.000 OA
ATOM     15  O   UNL     1     -11.622  57.074  48.754  0.00  0.00    +0.000 OA
ATOM     16  N   UNL     1     -11.261  55.209  50.354  0.00  0.00    +0.000 N 
ATOM     17  C   UNL     1     -13.350  56.960  50.647  0.00  0.00    +0.000 A 
ATOM     18  C   UNL     1     -11.296  55.170  51.655  0.00  0.00    +0.000 C 
ATOM     19  C   UNL     1     -13.168  56.715  51.999  0.00  0.00    +0.000 A 
ATOM     20  C   UNL     1     -14.285  57.888  50.180  0.00  0.00    +0.000 A 
ATOM     21  N   UNL     1     -12.239  55.781  52.450  0.00  0.00    +0.000 N 
ATOM     22  C   UNL     1     -14.003  57.375  52.906  0.00  0.00    +0.000 A 
ATOM     23  C   UNL     1     -15.084  58.564  51.097  0.00  0.00    +0.000 A 
ATOM     24  C   UNL     1     -14.950  58.301  52.460  0.00  0.00    +0.000 A 
ATOM     25  H   UNL     1     -10.566  54.705  49.874  0.00  0.00    +0.000 HD
ATOM     26  H   UNL     1     -12.258  55.542  53.406  0.00  0.00    +0.000 HD
ENDBRANCH   1  18
BRANCH   3  27
ATOM     27  O   UNL     1     -11.729  52.722  53.173  0.00  0.00    +0.000 OA
ATOM     28  H   UNL     1     -11.938  51.915  52.746  0.00  0.00    +0.000 HD
ENDBRANCH   3  27
BRANCH   5  29
ATOM     29  C   UNL     1      -6.401  54.680  52.766  0.00  0.00    +0.000 C 
BRANCH  29  30
ATOM     30  C   UNL     1      -5.574  54.140  51.587  0.00  0.00    +0.000 C 
BRANCH  30  31
ATOM     31  C   UNL     1      -4.225  53.483  51.928  0.00  0.00    +0.000 C 
ATOM     32  C   UNL     1      -3.848  53.649  53.397  0.00  0.00    +0.000 C 
ATOM     33  C   UNL     1      -4.305  51.992  51.579  0.00  0.00    +0.000 C 
ENDBRANCH  30  31
ENDBRANCH  29  30
ENDBRANCH   5  29
TORSDOF 5
ENDMDL
MODEL 2
REMARK VINA RESULT:      -8.2      4.159      5.694
REMARK  Name = 338092
REMARK  7 active torsions:
REMARK  status: ('A' for Active; 'I' for Inactive)
REMARK    1  A    between atoms: C_6  and  C_10
REMARK    2  A    between atoms: C_14  and  O_18
REMARK    3  A    between atoms: N_17  and  C_21
REMARK    4  A    between atoms: C_21  and  C_24
REMARK    5  A    between atoms: C_24  and  C_27
REMARK    6  A    between atoms: C_27  and  C_29
REMARK    7  A    between atoms: C_27  and  C_30
REMARK                            x       y       z     vdW  Elec       q    Type
REMARK                         _______ _______ _______ _____ _____    ______ ____
ROOT
ATOM      1  C   UNL     1     -11.727  56.067  48.711  0.00  0.00    +0.000 A 
ATOM      2  C   UNL     1     -10.650  55.412  49.515  0.00  0.00    +0.000 A 
ATOM      3  C   UNL     1     -11.898  55.734  47.420  0.00  0.00    +0.000 A 
ATOM      4  O   UNL     1     -10.598  55.654  50.725  0.00  0.00    +0.000 OA
ATOM      5  N   UNL     1      -9.768  54.544  48.878  0.00  0.00    +0.000 N 
ATOM      6  C   UNL     1     -11.043  54.714  46.794  0.00  0.00    +0.000 A 
ATOM      7  C   UNL     1     -10.003  54.118  47.532  0.00  0.00    +0.000 A 
ATOM      8  C   UNL     1     -11.274  54.311  45.467  0.00  0.00    +0.000 A 
ATOM      9  C   UNL     1      -9.249  53.096  46.931  0.00  0.00    +0.000 A 
ATOM     10  C   UNL     1     -10.490  53.321  44.890  0.00  0.00    +0.000 A 
ATOM     11  C   UNL     1      -9.483  52.708  45.611  0.00  0.00    +0.000 A 
ATOM     12  F   UNL     1     -10.724  52.941  43.628  0.00  0.00    +0.000 F 
ENDROOT
BRANCH   1  18
ATOM     13  S   UNL     1     -13.668  59.387  49.535  0.00  0.00    +0.000 S 
ATOM     14  O   UNL     1     -14.824  59.592  48.682  0.00  0.00    +0.000 OA
ATOM     15  O   UNL     1     -12.798  60.498  49.870  0.00  0.00    +0.000 OA
ATOM     16  N   UNL     1     -12.756  58.230  48.857  0.00  0.00    +0.000 N 
ATOM     17  C   UNL     1     -14.288  58.784  51.062  0.00  0.00    +0.000 A 
ATOM     18  C   UNL     1     -12.663  57.048  49.394  0.00  0.00    +0.000 C 
ATOM     19  C   UNL     1     -14.032  57.460  51.385  0.00  0.00    +0.000 A 
ATOM     20  C   UNL     1     -15.000  59.631  51.915  0.00  0.00    +0.000 A 
ATOM     21  N   UNL     1     -13.329  56.624  50.522  0.00  0.00    +0.000 N 
ATOM     22  C   UNL     1     -14.572  56.957  52.572  0.00  0.00    +0.000 A 
ATOM     23  C   UNL     1     -15.500  59.125  53.112  0.00  0.00    +0.000 A 
ATOM     24  C   UNL     1     -15.294  57.784  53.436  0.00  0.00    +0.000 A 
ATOM     25  H   UNL     1     -12.267  58.424  48.027  0.00  0.00    +0.000 HD
ATOM     26  H   UNL     1     -13.307  55.663  50.734  0.00  0.00    +0.000 HD
ENDBRANCH   1  18
BRANCH   3  27
ATOM     27  O   UNL     1     -12.886  56.252  46.602  0.00  0.00    +0.000 OA
ATOM     28  H   UNL     1     -13.031  55.883  45.752  0.00  0.00    +0.000 HD
ENDBRANCH   3  27
BRANCH   5  29
ATOM     29  C   UNL     1      -8.683  53.964  49.681  0.00  0.00    +0.000 C 
BRANCH  29  30
ATOM     30  C   UNL     1      -7.336  54.708  49.640  0.00  0.00    +0.000 C 
BRANCH  30  31
ATOM     31  C   UNL     1      -6.957  55.526  50.886  0.00  0.00    +0.000 C 
ATOM     32  C   UNL     1      -7.520  56.944  50.848  0.00  0.00    +0.000 C 
ATOM     33  C   UNL     1      -7.478  54.796  52.130  0.00  0.00    +0.000 C 
ENDBRANCH  30  31
ENDBRANCH  29  30
ENDBRANCH   5  29
TORSDOF 5
ENDMDL
MODEL 3
REMARK VINA RESULT:      -8.0      3.884      7.530
REMARK  Name = 338092
REMARK  7 active torsions:
REMARK  status: ('A' for Active; 'I' for Inactive)
REMARK    1  A    between atoms: C_6  and  C_10
REMARK    2  A    between atoms: C_14  and  O_18
REMARK    3  A    between atoms: N_17  and  C_21
REMARK    4  A    between atoms: C_21  and  C_24
REMARK    5  A    between atoms: C_24  and  C_27
REMARK    6  A    between atoms: C_27  and  C_29
REMARK    7  A    between atoms: C_27  and  C_30
REMARK                            x       y       z     vdW  Elec       q    Type
REMARK                         _______ _______ _______ _____ _____    ______ ____
ROOT
ATOM      1  C   UNL     1     -10.216  55.202  50.939  0.00  0.00    +0.000 A 
ATOM      2  C   UNL     1      -9.880  55.148  49.483  0.00  0.00    +0.000 A 
ATOM      3  C   UNL     1     -11.421  55.648  51.334  0.00  0.00    +0.000 A 
ATOM      4  O   UNL     1      -8.812  54.623  49.152  0.00  0.00    +0.000 OA
ATOM      5  N   UNL     1     -10.786  55.668  48.564  0.00  0.00    +0.000 N 
ATOM      6  C   UNL     1     -12.421  56.069  50.342  0.00  0.00    +0.000 A 
ATOM      7  C   UNL     1     -12.102  56.057  48.971  0.00  0.00    +0.000 A 
ATOM      8  C   UNL     1     -13.708  56.461  50.753  0.00  0.00    +0.000 A 
ATOM      9  C   UNL     1     -13.101  56.395  48.043  0.00  0.00    +0.000 A 
ATOM     10  C   UNL     1     -14.663  56.822  49.813  0.00  0.00    +0.000 A 
ATOM     11  C   UNL     1     -14.372  56.789  48.462  0.00  0.00    +0.000 A 
ATOM     12  F   UNL     1     -15.886  57.187  50.216  0.00  0.00    +0.000 F 
ENDROOT
BRANCH   1  18
ATOM     13  S   UNL     1      -6.873  54.759  52.963  0.00  0.00    +0.000 S 
ATOM     14  O   UNL     1      -6.714  55.747  54.014  0.00  0.00    +0.000 OA
ATOM     15  O   UNL     1      -5.742  54.379  52.138  0.00  0.00    +0.000 OA
ATOM     16  N   UNL     1      -8.054  55.274  51.980  0.00  0.00    +0.000 N 
ATOM     17  C   UNL     1      -7.409  53.286  53.754  0.00  0.00    +0.000 A 
ATOM     18  C   UNL     1      -9.210  54.676  51.947  0.00  0.00    +0.000 C 
ATOM     19  C   UNL     1      -8.715  52.875  53.536  0.00  0.00    +0.000 A 
ATOM     20  C   UNL     1      -6.527  52.560  54.559  0.00  0.00    +0.000 A 
ATOM     21  N   UNL     1      -9.585  53.613  52.738  0.00  0.00    +0.000 N 
ATOM     22  C   UNL     1      -9.166  51.735  54.207  0.00  0.00    +0.000 A 
ATOM     23  C   UNL     1      -6.980  51.407  55.192  0.00  0.00    +0.000 A 
ATOM     24  C   UNL     1      -8.304  50.998  55.023  0.00  0.00    +0.000 A 
ATOM     25  H   UNL     1      -7.896  56.051  51.398  0.00  0.00    +0.000 HD
ATOM     26  H   UNL     1     -10.536  53.356  52.739  0.00  0.00    +0.000 HD
ENDBRANCH   1  18
BRANCH   3  27
ATOM     27  O   UNL     1     -11.843  55.702  52.650  0.00  0.00    +0.000 OA
ATOM     28  H   UNL     1     -11.635  55.002  53.238  0.00  0.00    +0.000 HD
ENDBRANCH   3  27
BRANCH   5  29
ATOM     29  C   UNL     1     -10.401  55.657  47.146  0.00  0.00    +0.000 C 
BRANCH  29  30
ATOM     30  C   UNL     1     -10.717  54.369  46.366  0.00  0.00    +0.000 C 
BRANCH  30  31
ATOM     31  C   UNL     1      -9.524  53.622  45.746  0.00  0.00    +0.000 C 
ATOM     32  C   UNL     1      -9.853  53.024  44.381  0.00  0.00    +0.000 C 
ATOM     33  C   UNL     1      -8.349  54.599  45.614  0.00  0.00    +0.000 C 
ENDBRANCH  30  31
ENDBRANCH  29  30
ENDBRANCH   5  29
TORSDOF 5
ENDMDL
MODEL 4
REMARK VINA RESULT:      -7.9      3.695      4.991
REMARK  Name = 338092
REMARK  7 active torsions:
REMARK  status: ('A' for Active; 'I' for Inactive)
REMARK    1  A    between atoms: C_6  and  C_10
REMARK    2  A    between atoms: C_14  and  O_18
REMARK    3  A    between atoms: N_17  and  C_21
REMARK    4  A    between atoms: C_21  and  C_24
REMARK    5  A    between atoms: C_24  and  C_27
REMARK    6  A    between atoms: C_27  and  C_29
REMARK    7  A    between atoms: C_27  and  C_30
REMARK                            x       y       z     vdW  Elec       q    Type
REMARK                         _______ _______ _______ _____ _____    ______ ____
ROOT
ATOM      1  C   UNL     1     -12.215  54.293  50.230  0.00  0.00    +0.000 A 
ATOM      2  C   UNL     1     -11.904  53.917  48.817  0.00  0.00    +0.000 A 
ATOM      3  C   UNL     1     -11.670  53.601  51.245  0.00  0.00    +0.000 A 
ATOM      4  O   UNL     1     -12.326  54.647  47.914  0.00  0.00    +0.000 OA
ATOM      5  N   UNL     1     -11.139  52.780  48.577  0.00  0.00    +0.000 N 
ATOM      6  C   UNL     1     -10.754  52.483  50.977  0.00  0.00    +0.000 A 
ATOM      7  C   UNL     1     -10.483  52.097  49.650  0.00  0.00    +0.000 A 
ATOM      8  C   UNL     1     -10.123  51.810  52.039  0.00  0.00    +0.000 A 
ATOM      9  C   UNL     1      -9.548  51.073  49.422  0.00  0.00    +0.000 A 
ATOM     10  C   UNL     1      -9.229  50.779  51.782  0.00  0.00    +0.000 A 
ATOM     11  C   UNL     1      -8.934  50.407  50.484  0.00  0.00    +0.000 A 
ATOM     12  F   UNL     1      -8.631  50.151  52.801  0.00  0.00    +0.000 F 
ENDROOT
BRANCH   1  18
ATOM     13  S   UNL     1     -15.283  56.492  51.339  0.00  0.00    +0.000 S 
ATOM     14  O   UNL     1     -15.317  56.733  52.769  0.00  0.00    +0.000 OA
ATOM     15  O   UNL     1     -16.504  56.187  50.618  0.00  0.00    +0.000 OA
ATOM     16  N   UNL     1     -14.233  55.285  51.069  0.00  0.00    +0.000 N 
ATOM     17  C   UNL     1     -14.646  57.956  50.612  0.00  0.00    +0.000 A 
ATOM     18  C   UNL     1     -13.087  55.508  50.494  0.00  0.00    +0.000 C 
ATOM     19  C   UNL     1     -13.374  57.904  50.062  0.00  0.00    +0.000 A 
ATOM     20  C   UNL     1     -15.418  59.121  50.586  0.00  0.00    +0.000 A 
ATOM     21  N   UNL     1     -12.612  56.740  50.103  0.00  0.00    +0.000 N 
ATOM     22  C   UNL     1     -12.837  59.081  49.533  0.00  0.00    +0.000 A 
ATOM     23  C   UNL     1     -14.884  60.276  50.022  0.00  0.00    +0.000 A 
ATOM     24  C   UNL     1     -13.589  60.259  49.503  0.00  0.00    +0.000 A 
ATOM     25  H   UNL     1     -14.466  54.370  51.345  0.00  0.00    +0.000 HD
ATOM     26  H   UNL     1     -11.667  56.802  49.834  0.00  0.00    +0.000 HD
ENDBRANCH   1  18
BRANCH   3  27
ATOM     27  O   UNL     1     -11.863  53.891  52.584  0.00  0.00    +0.000 OA
ATOM     28  H   UNL     1     -12.717  54.117  52.896  0.00  0.00    +0.000 HD
ENDBRANCH   3  27
BRANCH   5  29
ATOM     29  C   UNL     1     -10.902  52.401  47.177  0.00  0.00    +0.000 C 
BRANCH  29  30
ATOM     30  C   UNL     1      -9.714  53.085  46.480  0.00  0.00    +0.000 C 
BRANCH  30  31
ATOM     31  C   UNL     1      -9.953  53.612  45.055  0.00  0.00    +0.000 C 
ATOM     32  C   UNL     1      -9.098  52.895  44.013  0.00  0.00    +0.000 C 
ATOM     33  C   UNL     1     -11.439  53.439  44.711  0.00  0.00    +0.000 C 
ENDBRANCH  30  31
ENDBRANCH  29  30
ENDBRANCH   5  29
TORSDOF 5
ENDMDL
MODEL 5
REMARK VINA RESULT:      -7.7      4.128      7.758
REMARK  Name = 338092
REMARK  7 active torsions:
REMARK  status: ('A' for Active; 'I' for Inactive)
REMARK    1  A    between atoms: C_6  and  C_10
REMARK    2  A    between atoms: C_14  and  O_18
REMARK    3  A    between atoms: N_17  and  C_21
REMARK    4  A    between atoms: C_21  and  C_24
REMARK    5  A    between atoms: C_24  and  C_27
REMARK    6  A    between atoms: C_27  and  C_29
REMARK    7  A    between atoms: C_27  and  C_30
REMARK                            x       y       z     vdW  Elec       q    Type
REMARK                         _______ _______ _______ _____ _____    ______ ____
ROOT
ATOM      1  C   UNL     1     -10.346  54.843  50.369  0.00  0.00    +0.000 A 
ATOM      2  C   UNL     1     -10.242  54.736  48.881  0.00  0.00    +0.000 A 
ATOM      3  C   UNL     1     -11.342  55.556  50.923  0.00  0.00    +0.000 A 
ATOM      4  O   UNL     1      -9.388  53.978  48.411  0.00  0.00    +0.000 OA
ATOM      5  N   UNL     1     -11.120  55.472  48.091  0.00  0.00    +0.000 N 
ATOM      6  C   UNL     1     -12.344  56.219  50.076  0.00  0.00    +0.000 A 
ATOM      7  C   UNL     1     -12.235  56.154  48.674  0.00  0.00    +0.000 A 
ATOM      8  C   UNL     1     -13.429  56.898  50.658  0.00  0.00    +0.000 A 
ATOM      9  C   UNL     1     -13.246  56.736  47.891  0.00  0.00    +0.000 A 
ATOM     10  C   UNL     1     -14.395  57.491  49.857  0.00  0.00    +0.000 A 
ATOM     11  C   UNL     1     -14.315  57.413  48.479  0.00  0.00    +0.000 A 
ATOM     12  F   UNL     1     -15.427  58.129  50.423  0.00  0.00    +0.000 F 
ENDROOT
BRANCH   1  18
ATOM     13  S   UNL     1      -8.446  51.849  52.070  0.00  0.00    +0.000 S 
ATOM     14  O   UNL     1      -7.442  51.254  51.207  0.00  0.00    +0.000 OA
ATOM     15  O   UNL     1      -9.301  51.009  52.886  0.00  0.00    +0.000 OA
ATOM     16  N   UNL     1      -9.399  52.779  51.146  0.00  0.00    +0.000 N 
ATOM     17  C   UNL     1      -7.576  52.883  53.190  0.00  0.00    +0.000 A 
ATOM     18  C   UNL     1      -9.360  54.077  51.233  0.00  0.00    +0.000 C 
ATOM     19  C   UNL     1      -7.724  54.255  53.049  0.00  0.00    +0.000 A 
ATOM     20  C   UNL     1      -6.780  52.321  54.192  0.00  0.00    +0.000 A 
ATOM     21  N   UNL     1      -8.513  54.801  52.042  0.00  0.00    +0.000 N 
ATOM     22  C   UNL     1      -6.989  55.086  53.901  0.00  0.00    +0.000 A 
ATOM     23  C   UNL     1      -6.083  53.162  55.055  0.00  0.00    +0.000 A 
ATOM     24  C   UNL     1      -6.181  54.545  54.904  0.00  0.00    +0.000 A 
ATOM     25  H   UNL     1     -10.017  52.355  50.508  0.00  0.00    +0.000 HD
ATOM     26  H   UNL     1      -8.462  55.774  51.897  0.00  0.00    +0.000 HD
ENDBRANCH   1  18
BRANCH   3  27
ATOM     27  O   UNL     1     -11.548  55.686  52.285  0.00  0.00    +0.000 OA
ATOM     28  H   UNL     1     -10.939  56.172  52.806  0.00  0.00    +0.000 HD
ENDBRANCH   3  27
BRANCH   5  29
ATOM     29  C   UNL     1     -10.954  55.394  46.633  0.00  0.00    +0.000 C 
BRANCH  29  30
ATOM     30  C   UNL     1     -11.778  54.314  45.912  0.00  0.00    +0.000 C 
BRANCH  30  31
ATOM     31  C   UNL     1     -11.069  53.526  44.797  0.00  0.00    +0.000 C 
ATOM     32  C   UNL     1      -9.552  53.520  44.958  0.00  0.00    +0.000 C 
ATOM     33  C   UNL     1     -11.596  52.085  44.804  0.00  0.00    +0.000 C 
ENDBRANCH  30  31
ENDBRANCH  29  30
ENDBRANCH   5  29
TORSDOF 5
ENDMDL
MODEL 6
REMARK VINA RESULT:      -7.7      5.119      7.330
REMARK  Name = 338092
REMARK  7 active torsions:
REMARK  status: ('A' for Active; 'I' for Inactive)
REMARK    1  A    between atoms: C_6  and  C_10
REMARK    2  A    between atoms: C_14  and  O_18
REMARK    3  A    between atoms: N_17  and  C_21
REMARK    4  A    between atoms: C_21  and  C_24
REMARK    5  A    between atoms: C_24  and  C_27
REMARK    6  A    between atoms: C_27  and  C_29
REMARK    7  A    between atoms: C_27  and  C_30
REMARK                            x       y       z     vdW  Elec       q    Type
REMARK                         _______ _______ _______ _____ _____    ______ ____
ROOT
ATOM      1  C   UNL     1     -10.982  54.520  48.537  0.00  0.00    +0.000 A 
ATOM      2  C   UNL     1     -10.582  54.088  49.911  0.00  0.00    +0.000 A 
ATOM      3  C   UNL     1     -11.969  55.418  48.376  0.00  0.00    +0.000 A 
ATOM      4  O   UNL     1      -9.595  53.355  50.026  0.00  0.00    +0.000 OA
ATOM      5  N   UNL     1     -11.318  54.544  51.000  0.00  0.00    +0.000 N 
ATOM      6  C   UNL     1     -12.650  55.995  49.545  0.00  0.00    +0.000 A 
ATOM      7  C   UNL     1     -12.305  55.568  50.842  0.00  0.00    +0.000 A 
ATOM      8  C   UNL     1     -13.628  56.991  49.378  0.00  0.00    +0.000 A 
ATOM      9  C   UNL     1     -12.921  56.188  51.942  0.00  0.00    +0.000 A 
ATOM     10  C   UNL     1     -14.242  57.561  50.484  0.00  0.00    +0.000 A 
ATOM     11  C   UNL     1     -13.895  57.171  51.764  0.00  0.00    +0.000 A 
ATOM     12  F   UNL     1     -15.167  58.513  50.312  0.00  0.00    +0.000 F 
ENDROOT
BRANCH   1  18
ATOM     13  S   UNL     1      -8.081  53.972  45.937  0.00  0.00    +0.000 S 
ATOM     14  O   UNL     1      -7.054  53.068  46.419  0.00  0.00    +0.000 OA
ATOM     15  O   UNL     1      -7.717  55.175  45.214  0.00  0.00    +0.000 OA
ATOM     16  N   UNL     1      -8.985  54.413  47.209  0.00  0.00    +0.000 N 
ATOM     17  C   UNL     1      -9.082  53.036  44.841  0.00  0.00    +0.000 A 
ATOM     18  C   UNL     1     -10.208  53.989  47.343  0.00  0.00    +0.000 C 
ATOM     19  C   UNL     1     -10.369  52.723  45.250  0.00  0.00    +0.000 A 
ATOM     20  C   UNL     1      -8.583  52.642  43.597  0.00  0.00    +0.000 A 
ATOM     21  N   UNL     1     -10.851  53.114  46.496  0.00  0.00    +0.000 N 
ATOM     22  C   UNL     1     -11.153  51.929  44.407  0.00  0.00    +0.000 A 
ATOM     23  C   UNL     1      -9.387  51.882  42.753  0.00  0.00    +0.000 A 
ATOM     24  C   UNL     1     -10.671  51.518  43.162  0.00  0.00    +0.000 A 
ATOM     25  H   UNL     1      -8.602  55.009  47.892  0.00  0.00    +0.000 HD
ATOM     26  H   UNL     1     -11.713  52.740  46.791  0.00  0.00    +0.000 HD
ENDBRANCH   1  18
BRANCH   3  27
ATOM     27  O   UNL     1     -12.389  55.910  47.153  0.00  0.00    +0.000 OA
ATOM     28  H   UNL     1     -11.972  56.664  46.783  0.00  0.00    +0.000 HD
ENDBRANCH   3  27
BRANCH   5  29
ATOM     29  C   UNL     1     -10.939  54.053  52.333  0.00  0.00    +0.000 C 
BRANCH  29  30
ATOM     30  C   UNL     1      -9.989  54.952  53.143  0.00  0.00    +0.000 C 
BRANCH  30  31
ATOM     31  C   UNL     1      -8.500  54.568  53.144  0.00  0.00    +0.000 C 
ATOM     32  C   UNL     1      -7.683  55.392  54.136  0.00  0.00    +0.000 C 
ATOM     33  C   UNL     1      -8.379  53.078  53.486  0.00  0.00    +0.000 C 
ENDBRANCH  30  31
ENDBRANCH  29  30
ENDBRANCH   5  29
TORSDOF 5
ENDMDL
MODEL 7
REMARK VINA RESULT:      -7.7      3.627      8.103
REMARK  Name = 338092
REMARK  7 active torsions:
REMARK  status: ('A' for Active; 'I' for Inactive)
REMARK    1  A    between atoms: C_6  and  C_10
REMARK    2  A    between atoms: C_14  and  O_18
REMARK    3  A    between atoms: N_17  and  C_21
REMARK    4  A    between atoms: C_21  and  C_24
REMARK    5  A    between atoms: C_24  and  C_27
REMARK    6  A    between atoms: C_27  and  C_29
REMARK    7  A    between atoms: C_27  and  C_30
REMARK                            x       y       z     vdW  Elec       q    Type
REMARK                         _______ _______ _______ _____ _____    ______ ____
ROOT
ATOM      1  C   UNL     1      -9.787  54.046  50.829  0.00  0.00    +0.000 A 
ATOM      2  C   UNL     1     -10.852  55.056  51.114  0.00  0.00    +0.000 A 
ATOM      3  C   UNL     1      -9.579  53.627  49.569  0.00  0.00    +0.000 A 
ATOM      4  O   UNL     1     -10.935  55.505  52.262  0.00  0.00    +0.000 OA
ATOM      5  N   UNL     1     -11.687  55.463  50.079  0.00  0.00    +0.000 N 
ATOM      6  C   UNL     1     -10.382  54.168  48.462  0.00  0.00    +0.000 A 
ATOM      7  C   UNL     1     -11.411  55.092  48.725  0.00  0.00    +0.000 A 
ATOM      8  C   UNL     1     -10.110  53.788  47.136  0.00  0.00    +0.000 A 
ATOM      9  C   UNL     1     -12.113  55.646  47.641  0.00  0.00    +0.000 A 
ATOM     10  C   UNL     1     -10.844  54.329  46.089  0.00  0.00    +0.000 A 
ATOM     11  C   UNL     1     -11.840  55.257  46.329  0.00  0.00    +0.000 A 
ATOM     12  F   UNL     1     -10.573  53.963  44.830  0.00  0.00    +0.000 F 
ENDROOT
BRANCH   1  18
ATOM     13  S   UNL     1      -6.595  53.416  53.040  0.00  0.00    +0.000 S 
ATOM     14  O   UNL     1      -6.246  54.557  53.865  0.00  0.00    +0.000 OA
ATOM     15  O   UNL     1      -5.562  52.658  52.362  0.00  0.00    +0.000 OA
ATOM     16  N   UNL     1      -7.653  53.924  51.921  0.00  0.00    +0.000 N 
ATOM     17  C   UNL     1      -7.410  52.278  54.100  0.00  0.00    +0.000 A 
ATOM     18  C   UNL     1      -8.903  53.566  51.967  0.00  0.00    +0.000 C 
ATOM     19  C   UNL     1      -8.771  52.088  53.918  0.00  0.00    +0.000 A 
ATOM     20  C   UNL     1      -6.688  51.587  55.076  0.00  0.00    +0.000 A 
ATOM     21  N   UNL     1      -9.480  52.790  52.947  0.00  0.00    +0.000 N 
ATOM     22  C   UNL     1      -9.438  51.227  54.795  0.00  0.00    +0.000 A 
ATOM     23  C   UNL     1      -7.359  50.705  55.918  0.00  0.00    +0.000 A 
ATOM     24  C   UNL     1      -8.737  50.531  55.784  0.00  0.00    +0.000 A 
ATOM     25  H   UNL     1      -7.345  54.513  51.196  0.00  0.00    +0.000 HD
ATOM     26  H   UNL     1     -10.463  52.726  52.963  0.00  0.00    +0.000 HD
ENDBRANCH   1  18
BRANCH   3  27
ATOM     27  O   UNL     1      -8.598  52.727  49.194  0.00  0.00    +0.000 OA
ATOM     28  H   UNL     1      -8.813  52.004  48.638  0.00  0.00    +0.000 HD
ENDBRANCH   3  27
BRANCH   5  29
ATOM     29  C   UNL     1     -12.764  56.410  50.404  0.00  0.00    +0.000 C 
BRANCH  29  30
ATOM     30  C   UNL     1     -13.945  55.843  51.209  0.00  0.00    +0.000 C 
BRANCH  30  31
ATOM     31  C   UNL     1     -14.826  56.857  51.959  0.00  0.00    +0.000 C 
ATOM     32  C   UNL     1     -14.053  57.626  53.027  0.00  0.00    +0.000 C 
ATOM     33  C   UNL     1     -15.418  57.839  50.941  0.00  0.00    +0.000 C 
ENDBRANCH  30  31
ENDBRANCH  29  30
ENDBRANCH   5  29
TORSDOF 5
ENDMDL
MODEL 8
REMARK VINA RESULT:      -7.6      2.763      3.457
REMARK  Name = 338092
REMARK  7 active torsions:
REMARK  status: ('A' for Active; 'I' for Inactive)
REMARK    1  A    between atoms: C_6  and  C_10
REMARK    2  A    between atoms: C_14  and  O_18
REMARK    3  A    between atoms: N_17  and  C_21
REMARK    4  A    between atoms: C_21  and  C_24
REMARK    5  A    between atoms: C_24  and  C_27
REMARK    6  A    between atoms: C_27  and  C_29
REMARK    7  A    between atoms: C_27  and  C_30
REMARK                            x       y       z     vdW  Elec       q    Type
REMARK                         _______ _______ _______ _____ _____    ______ ____
ROOT
ATOM      1  C   UNL     1     -10.923  54.938  50.610  0.00  0.00    +0.000 A 
ATOM      2  C   UNL     1      -9.730  55.289  49.780  0.00  0.00    +0.000 A 
ATOM      3  C   UNL     1     -10.893  53.854  51.405  0.00  0.00    +0.000 A 
ATOM      4  O   UNL     1      -9.750  56.354  49.154  0.00  0.00    +0.000 OA
ATOM      5  N   UNL     1      -8.644  54.420  49.763  0.00  0.00    +0.000 N 
ATOM      6  C   UNL     1      -9.686  53.018  51.479  0.00  0.00    +0.000 A 
ATOM      7  C   UNL     1      -8.571  53.319  50.674  0.00  0.00    +0.000 A 
ATOM      8  C   UNL     1      -9.629  51.931  52.369  0.00  0.00    +0.000 A 
ATOM      9  C   UNL     1      -7.406  52.546  50.819  0.00  0.00    +0.000 A 
ATOM     10  C   UNL     1      -8.475  51.165  52.465  0.00  0.00    +0.000 A 
ATOM     11  C   UNL     1      -7.362  51.465  51.701  0.00  0.00    +0.000 A 
ATOM     12  F   UNL     1      -8.430  50.137  53.320  0.00  0.00    +0.000 F 
ENDROOT
BRANCH   1  18
ATOM     13  S   UNL     1     -13.771  57.306  49.285  0.00  0.00    +0.000 S 
ATOM     14  O   UNL     1     -14.903  56.579  48.743  0.00  0.00    +0.000 OA
ATOM     15  O   UNL     1     -13.273  58.492  48.615  0.00  0.00    +0.000 OA
ATOM     16  N   UNL     1     -12.539  56.262  49.427  0.00  0.00    +0.000 N 
ATOM     17  C   UNL     1     -14.249  57.825  50.892  0.00  0.00    +0.000 A 
ATOM     18  C   UNL     1     -12.128  55.862  50.595  0.00  0.00    +0.000 C 
ATOM     19  C   UNL     1     -13.634  57.217  51.976  0.00  0.00    +0.000 A 
ATOM     20  C   UNL     1     -15.207  58.829  51.051  0.00  0.00    +0.000 A 
ATOM     21  N   UNL     1     -12.687  56.211  51.805  0.00  0.00    +0.000 N 
ATOM     22  C   UNL     1     -14.050  57.584  53.259  0.00  0.00    +0.000 A 
ATOM     23  C   UNL     1     -15.585  59.210  52.335  0.00  0.00    +0.000 A 
ATOM     24  C   UNL     1     -15.012  58.580  53.441  0.00  0.00    +0.000 A 
ATOM     25  H   UNL     1     -12.095  55.924  48.617  0.00  0.00    +0.000 HD
ATOM     26  H   UNL     1     -12.395  55.716  52.604  0.00  0.00    +0.000 HD
ENDBRANCH   1  18
BRANCH   3  27
ATOM     27  O   UNL     1     -11.927  53.465  52.237  0.00  0.00    +0.000 OA
ATOM     28  H   UNL     1     -12.032  52.561  52.462  0.00  0.00    +0.000 HD
ENDBRANCH   3  27
BRANCH   5  29
ATOM     29  C   UNL     1      -7.512  54.761  48.890  0.00  0.00    +0.000 C 
BRANCH  29  30
ATOM     30  C   UNL     1      -7.524  54.132  47.486  0.00  0.00    +0.000 C 
BRANCH  30  31
ATOM     31  C   UNL     1      -8.301  54.885  46.393  0.00  0.00    +0.000 C 
ATOM     32  C   UNL     1      -7.600  54.841  45.039  0.00  0.00    +0.000 C 
ATOM     33  C   UNL     1      -9.700  54.265  46.272  0.00  0.00    +0.000 C 
ENDBRANCH  30  31
ENDBRANCH  29  30
ENDBRANCH   5  29
TORSDOF 5
ENDMDL
MODEL 9
REMARK VINA RESULT:      -7.5      4.467      5.928
REMARK  Name = 338092
REMARK  7 active torsions:
REMARK  status: ('A' for Active; 'I' for Inactive)
REMARK    1  A    between atoms: C_6  and  C_10
REMARK    2  A    between atoms: C_14  and  O_18
REMARK    3  A    between atoms: N_17  and  C_21
REMARK    4  A    between atoms: C_21  and  C_24
REMARK    5  A    between atoms: C_24  and  C_27
REMARK    6  A    between atoms: C_27  and  C_29
REMARK    7  A    between atoms: C_27  and  C_30
REMARK                            x       y       z     vdW  Elec       q    Type
REMARK                         _______ _______ _______ _____ _____    ______ ____
ROOT
ATOM      1  C   UNL     1     -12.015  54.689  48.670  0.00  0.00    +0.000 A 
ATOM      2  C   UNL     1     -11.449  53.542  49.444  0.00  0.00    +0.000 A 
ATOM      3  C   UNL     1     -11.810  54.771  47.344  0.00  0.00    +0.000 A 
ATOM      4  O   UNL     1     -11.757  53.436  50.635  0.00  0.00    +0.000 OA
ATOM      5  N   UNL     1     -10.620  52.634  48.792  0.00  0.00    +0.000 N 
ATOM      6  C   UNL     1     -11.043  53.730  46.643  0.00  0.00    +0.000 A 
ATOM      7  C   UNL     1     -10.475  52.666  47.368  0.00  0.00    +0.000 A 
ATOM      8  C   UNL     1     -10.896  53.777  45.245  0.00  0.00    +0.000 A 
ATOM      9  C   UNL     1      -9.810  51.648  46.663  0.00  0.00    +0.000 A 
ATOM     10  C   UNL     1     -10.204  52.773  44.581  0.00  0.00    +0.000 A 
ATOM     11  C   UNL     1      -9.663  51.708  45.277  0.00  0.00    +0.000 A 
ATOM     12  F   UNL     1     -10.076  52.825  43.250  0.00  0.00    +0.000 F 
ENDROOT
BRANCH   1  18
ATOM     13  S   UNL     1     -14.887  56.218  50.881  0.00  0.00    +0.000 S 
ATOM     14  O   UNL     1     -14.608  56.138  52.302  0.00  0.00    +0.000 OA
ATOM     15  O   UNL     1     -16.218  55.935  50.378  0.00  0.00    +0.000 OA
ATOM     16  N   UNL     1     -13.849  55.231  50.121  0.00  0.00    +0.000 N 
ATOM     17  C   UNL     1     -14.533  57.870  50.406  0.00  0.00    +0.000 A 
ATOM     18  C   UNL     1     -12.884  55.706  49.389  0.00  0.00    +0.000 C 
ATOM     19  C   UNL     1     -13.421  58.088  49.607  0.00  0.00    +0.000 A 
ATOM     20  C   UNL     1     -15.367  58.913  50.817  0.00  0.00    +0.000 A 
ATOM     21  N   UNL     1     -12.594  57.041  49.212  0.00  0.00    +0.000 N 
ATOM     22  C   UNL     1     -13.100  59.407  49.273  0.00  0.00    +0.000 A 
ATOM     23  C   UNL     1     -15.055  60.217  50.445  0.00  0.00    +0.000 A 
ATOM     24  C   UNL     1     -13.916  60.466  49.680  0.00  0.00    +0.000 A 
ATOM     25  H   UNL     1     -13.951  54.257  50.214  0.00  0.00    +0.000 HD
ATOM     26  H   UNL     1     -11.742  57.271  48.774  0.00  0.00    +0.000 HD
ENDBRANCH   1  18
BRANCH   3  27
ATOM     27  O   UNL     1     -12.320  55.768  46.532  0.00  0.00    +0.000 OA
ATOM     28  H   UNL     1     -13.210  56.046  46.635  0.00  0.00    +0.000 HD
ENDBRANCH   3  27
BRANCH   5  29
ATOM     29  C   UNL     1     -10.029  51.554  49.593  0.00  0.00    +0.000 C 
BRANCH  29  30
ATOM     30  C   UNL     1      -8.739  51.902  50.355  0.00  0.00    +0.000 C 
BRANCH  30  31
ATOM     31  C   UNL     1      -7.783  52.902  49.684  0.00  0.00    +0.000 C 
ATOM     32  C   UNL     1      -7.669  54.213  50.456  0.00  0.00    +0.000 C 
ATOM     33  C   UNL     1      -6.399  52.251  49.563  0.00  0.00    +0.000 C 
ENDBRANCH  30  31
ENDBRANCH  29  30
ENDBRANCH   5  29
TORSDOF 5
ENDMDL
