MODEL 1
REMARK VINA RESULT:      -8.3      0.000      0.000
REMARK  Name = 338136
REMARK  3 active torsions:
REMARK  status: ('A' for Active; 'I' for Inactive)
REMARK    1  A    between atoms: C_6  and  C_10
REMARK    2  A    between atoms: C_13  and  O_16
REMARK    3  A    between atoms: C_14  and  O_18
REMARK                            x       y       z     vdW  Elec       q    Type
REMARK                         _______ _______ _______ _____ _____    ______ ____
ROOT
ATOM      1  S   UNL     1     -11.568  52.700  47.842  0.00  0.00    +0.000 S 
ATOM      2  O   UNL     1     -12.466  52.290  46.781  0.00  0.00    +0.000 OA
ATOM      3  O   UNL     1     -11.082  51.742  48.814  0.00  0.00    +0.000 OA
ATOM      4  N   UNL     1     -12.276  53.911  48.659  0.00  0.00    +0.000 N 
ATOM      5  C   UNL     1     -10.146  53.352  47.040  0.00  0.00    +0.000 A 
ATOM      6  C   UNL     1     -11.917  55.137  48.459  0.00  0.00    +0.000 C 
ATOM      7  C   UNL     1      -9.971  54.729  47.041  0.00  0.00    +0.000 A 
ATOM      8  C   UNL     1      -9.236  52.486  46.428  0.00  0.00    +0.000 A 
ATOM      9  N   UNL     1     -10.898  55.580  47.643  0.00  0.00    +0.000 N 
ATOM     10  C   UNL     1      -8.871  55.253  46.353  0.00  0.00    +0.000 A 
ATOM     11  C   UNL     1      -8.130  53.022  45.774  0.00  0.00    +0.000 A 
ATOM     12  C   UNL     1      -7.950  54.403  45.731  0.00  0.00    +0.000 A 
ATOM     13  H   UNL     1     -12.983  53.710  49.314  0.00  0.00    +0.000 HD
ATOM     14  H   UNL     1     -10.821  56.547  47.477  0.00  0.00    +0.000 HD
ENDROOT
BRANCH   6  15
ATOM     15  C   UNL     1     -12.693  56.184  49.194  0.00  0.00    +0.000 A 
ATOM     16  C   UNL     1     -13.380  57.187  48.523  0.00  0.00    +0.000 A 
ATOM     17  C   UNL     1     -12.792  56.170  50.589  0.00  0.00    +0.000 A 
ATOM     18  N   UNL     1     -14.162  58.098  49.136  0.00  0.00    +0.000 NA
ATOM     19  C   UNL     1     -13.599  57.106  51.262  0.00  0.00    +0.000 A 
ATOM     20  C   UNL     1     -14.275  58.057  50.473  0.00  0.00    +0.000 A 
ATOM     21  C   UNL     1     -13.749  57.128  52.666  0.00  0.00    +0.000 A 
ATOM     22  C   UNL     1     -15.091  58.984  51.108  0.00  0.00    +0.000 A 
ATOM     23  C   UNL     1     -14.575  58.067  53.277  0.00  0.00    +0.000 A 
ATOM     24  C   UNL     1     -15.250  58.996  52.497  0.00  0.00    +0.000 A 
BRANCH  16  25
ATOM     25  O   UNL     1     -13.363  57.322  47.164  0.00  0.00    +0.000 OA
ATOM     26  H   UNL     1     -13.470  56.569  46.616  0.00  0.00    +0.000 HD
ENDBRANCH  16  25
BRANCH  17  27
ATOM     27  O   UNL     1     -12.117  55.240  51.351  0.00  0.00    +0.000 OA
ATOM     28  H   UNL     1     -12.411  54.351  51.375  0.00  0.00    +0.000 HD
ENDBRANCH  17  27
ENDBRANCH   6  15
TORSDOF 3
ENDMDL
MODEL 2
REMARK VINA RESULT:      -8.1      1.034      2.063
REMARK  Name = 338136
REMARK  3 active torsions:
REMARK  status: ('A' for Active; 'I' for Inactive)
REMARK    1  A    between atoms: C_6  and  C_10
REMARK    2  A    between atoms: C_13  and  O_16
REMARK    3  A    between atoms: C_14  and  O_18
REMARK                            x       y       z     vdW  Elec       q    Type
REMARK                         _______ _______ _______ _____ _____    ______ ____
ROOT
ATOM      1  S   UNL     1     -11.655  52.424  47.336  0.00  0.00    +0.000 S 
ATOM      2  O   UNL     1     -12.583  52.285  46.232  0.00  0.00    +0.000 OA
ATOM      3  O   UNL     1     -11.135  51.256  48.020  0.00  0.00    +0.000 OA
ATOM      4  N   UNL     1     -12.343  53.380  48.454  0.00  0.00    +0.000 N 
ATOM      5  C   UNL     1     -10.261  53.275  46.687  0.00  0.00    +0.000 A 
ATOM      6  C   UNL     1     -11.996  54.620  48.562  0.00  0.00    +0.000 C 
ATOM      7  C   UNL     1     -10.091  54.609  47.033  0.00  0.00    +0.000 A 
ATOM      8  C   UNL     1      -9.366  52.604  45.850  0.00  0.00    +0.000 A 
ATOM      9  N   UNL     1     -11.005  55.268  47.857  0.00  0.00    +0.000 N 
ATOM     10  C   UNL     1      -9.016  55.303  46.469  0.00  0.00    +0.000 A 
ATOM     11  C   UNL     1      -8.282  53.301  45.323  0.00  0.00    +0.000 A 
ATOM     12  C   UNL     1      -8.110  54.650  45.627  0.00  0.00    +0.000 A 
ATOM     13  H   UNL     1     -13.029  53.010  49.056  0.00  0.00    +0.000 HD
ATOM     14  H   UNL     1     -10.937  56.247  47.940  0.00  0.00    +0.000 HD
ENDROOT
BRANCH   6  15
ATOM     15  C   UNL     1     -12.754  55.437  49.560  0.00  0.00    +0.000 A 
ATOM     16  C   UNL     1     -12.989  54.976  50.850  0.00  0.00    +0.000 A 
ATOM     17  C   UNL     1     -13.219  56.719  49.249  0.00  0.00    +0.000 A 
ATOM     18  N   UNL     1     -13.589  55.710  51.809  0.00  0.00    +0.000 NA
ATOM     19  C   UNL     1     -13.850  57.511  50.225  0.00  0.00    +0.000 A 
ATOM     20  C   UNL     1     -14.005  56.950  51.507  0.00  0.00    +0.000 A 
ATOM     21  C   UNL     1     -14.324  58.817  49.971  0.00  0.00    +0.000 A 
ATOM     22  C   UNL     1     -14.609  57.715  52.496  0.00  0.00    +0.000 A 
ATOM     23  C   UNL     1     -14.926  59.563  50.980  0.00  0.00    +0.000 A 
ATOM     24  C   UNL     1     -15.066  59.013  52.247  0.00  0.00    +0.000 A 
BRANCH  16  25
ATOM     25  O   UNL     1     -12.595  53.743  51.285  0.00  0.00    +0.000 OA
ATOM     26  H   UNL     1     -12.342  53.619  52.178  0.00  0.00    +0.000 HD
ENDBRANCH  16  25
BRANCH  17  27
ATOM     27  O   UNL     1     -13.071  57.253  47.987  0.00  0.00    +0.000 OA
ATOM     28  H   UNL     1     -13.622  57.957  47.708  0.00  0.00    +0.000 HD
ENDBRANCH  17  27
ENDBRANCH   6  15
TORSDOF 3
ENDMDL
MODEL 3
REMARK VINA RESULT:      -8.1      1.967      2.891
REMARK  Name = 338136
REMARK  3 active torsions:
REMARK  status: ('A' for Active; 'I' for Inactive)
REMARK    1  A    between atoms: C_6  and  C_10
REMARK    2  A    between atoms: C_13  and  O_16
REMARK    3  A    between atoms: C_14  and  O_18
REMARK                            x       y       z     vdW  Elec       q    Type
REMARK                         _______ _______ _______ _____ _____    ______ ____
ROOT
ATOM      1  S   UNL     1      -8.874  54.363  48.281  0.00  0.00    +0.000 S 
ATOM      2  O   UNL     1      -8.548  53.094  48.899  0.00  0.00    +0.000 OA
ATOM      3  O   UNL     1      -7.829  55.296  47.908  0.00  0.00    +0.000 OA
ATOM      4  N   UNL     1      -9.904  55.149  49.260  0.00  0.00    +0.000 N 
ATOM      5  C   UNL     1      -9.734  53.969  46.800  0.00  0.00    +0.000 A 
ATOM      6  C   UNL     1     -11.170  55.178  48.995  0.00  0.00    +0.000 C 
ATOM      7  C   UNL     1     -11.107  54.172  46.770  0.00  0.00    +0.000 A 
ATOM      8  C   UNL     1      -9.032  53.467  45.702  0.00  0.00    +0.000 A 
ATOM      9  N   UNL     1     -11.795  54.659  47.882  0.00  0.00    +0.000 N 
ATOM     10  C   UNL     1     -11.801  53.804  45.613  0.00  0.00    +0.000 A 
ATOM     11  C   UNL     1      -9.733  53.135  44.546  0.00  0.00    +0.000 A 
ATOM     12  C   UNL     1     -11.117  53.297  44.503  0.00  0.00    +0.000 A 
ATOM     13  H   UNL     1      -9.563  55.607  50.061  0.00  0.00    +0.000 HD
ATOM     14  H   UNL     1     -12.779  54.630  47.872  0.00  0.00    +0.000 HD
ENDROOT
BRANCH   6  15
ATOM     15  C   UNL     1     -12.044  55.850  50.006  0.00  0.00    +0.000 A 
ATOM     16  C   UNL     1     -12.003  55.502  51.351  0.00  0.00    +0.000 A 
ATOM     17  C   UNL     1     -12.909  56.887  49.644  0.00  0.00    +0.000 A 
ATOM     18  N   UNL     1     -12.706  56.137  52.310  0.00  0.00    +0.000 NA
ATOM     19  C   UNL     1     -13.659  57.571  50.619  0.00  0.00    +0.000 A 
ATOM     20  C   UNL     1     -13.511  57.151  51.955  0.00  0.00    +0.000 A 
ATOM     21  C   UNL     1     -14.535  58.635  50.313  0.00  0.00    +0.000 A 
ATOM     22  C   UNL     1     -14.226  57.818  52.941  0.00  0.00    +0.000 A 
ATOM     23  C   UNL     1     -15.239  59.288  51.321  0.00  0.00    +0.000 A 
ATOM     24  C   UNL     1     -15.082  58.881  52.639  0.00  0.00    +0.000 A 
BRANCH  16  25
ATOM     25  O   UNL     1     -11.208  54.504  51.839  0.00  0.00    +0.000 OA
ATOM     26  H   UNL     1     -10.546  54.699  52.472  0.00  0.00    +0.000 HD
ENDBRANCH  16  25
BRANCH  17  27
ATOM     27  O   UNL     1     -13.053  57.281  48.331  0.00  0.00    +0.000 OA
ATOM     28  H   UNL     1     -12.301  57.346  47.777  0.00  0.00    +0.000 HD
ENDBRANCH  17  27
ENDBRANCH   6  15
TORSDOF 3
ENDMDL
MODEL 4
REMARK VINA RESULT:      -8.0      1.648      1.955
REMARK  Name = 338136
REMARK  3 active torsions:
REMARK  status: ('A' for Active; 'I' for Inactive)
REMARK    1  A    between atoms: C_6  and  C_10
REMARK    2  A    between atoms: C_13  and  O_16
REMARK    3  A    between atoms: C_14  and  O_18
REMARK                            x       y       z     vdW  Elec       q    Type
REMARK                         _______ _______ _______ _____ _____    ______ ____
ROOT
ATOM      1  S   UNL     1      -9.197  54.532  48.193  0.00  0.00    +0.000 S 
ATOM      2  O   UNL     1      -9.094  53.350  49.025  0.00  0.00    +0.000 OA
ATOM      3  O   UNL     1      -8.019  55.309  47.859  0.00  0.00    +0.000 OA
ATOM      4  N   UNL     1     -10.269  55.539  48.882  0.00  0.00    +0.000 N 
ATOM      5  C   UNL     1      -9.876  53.986  46.667  0.00  0.00    +0.000 A 
ATOM      6  C   UNL     1     -11.474  55.630  48.422  0.00  0.00    +0.000 C 
ATOM      7  C   UNL     1     -11.202  54.293  46.396  0.00  0.00    +0.000 A 
ATOM      8  C   UNL     1      -9.081  53.267  45.771  0.00  0.00    +0.000 A 
ATOM      9  N   UNL     1     -11.987  54.998  47.310  0.00  0.00    +0.000 N 
ATOM     10  C   UNL     1     -11.760  53.809  45.209  0.00  0.00    +0.000 A 
ATOM     11  C   UNL     1      -9.642  52.819  44.578  0.00  0.00    +0.000 A 
ATOM     12  C   UNL     1     -10.982  53.084  44.300  0.00  0.00    +0.000 A 
ATOM     13  H   UNL     1      -9.998  56.086  49.654  0.00  0.00    +0.000 HD
ATOM     14  H   UNL     1     -12.957  55.048  47.151  0.00  0.00    +0.000 HD
ENDROOT
BRANCH   6  15
ATOM     15  C   UNL     1     -12.409  56.517  49.182  0.00  0.00    +0.000 A 
ATOM     16  C   UNL     1     -13.222  57.440  48.537  0.00  0.00    +0.000 A 
ATOM     17  C   UNL     1     -12.533  56.422  50.572  0.00  0.00    +0.000 A 
ATOM     18  N   UNL     1     -14.141  58.198  49.168  0.00  0.00    +0.000 NA
ATOM     19  C   UNL     1     -13.481  57.199  51.263  0.00  0.00    +0.000 A 
ATOM     20  C   UNL     1     -14.273  58.078  50.499  0.00  0.00    +0.000 A 
ATOM     21  C   UNL     1     -13.662  57.132  52.662  0.00  0.00    +0.000 A 
ATOM     22  C   UNL     1     -15.228  58.845  51.152  0.00  0.00    +0.000 A 
ATOM     23  C   UNL     1     -14.628  57.911  53.292  0.00  0.00    +0.000 A 
ATOM     24  C   UNL     1     -15.416  58.768  52.535  0.00  0.00    +0.000 A 
BRANCH  16  25
ATOM     25  O   UNL     1     -13.198  57.640  47.186  0.00  0.00    +0.000 OA
ATOM     26  H   UNL     1     -12.744  58.378  46.829  0.00  0.00    +0.000 HD
ENDBRANCH  16  25
BRANCH  17  27
ATOM     27  O   UNL     1     -11.745  55.565  51.310  0.00  0.00    +0.000 OA
ATOM     28  H   UNL     1     -11.737  54.650  51.113  0.00  0.00    +0.000 HD
ENDBRANCH  17  27
ENDBRANCH   6  15
TORSDOF 3
ENDMDL
MODEL 5
REMARK VINA RESULT:      -7.9      4.577      7.137
REMARK  Name = 338136
REMARK  3 active torsions:
REMARK  status: ('A' for Active; 'I' for Inactive)
REMARK    1  A    between atoms: C_6  and  C_10
REMARK    2  A    between atoms: C_13  and  O_16
REMARK    3  A    between atoms: C_14  and  O_18
REMARK                            x       y       z     vdW  Elec       q    Type
REMARK                         _______ _______ _______ _____ _____    ______ ____
ROOT
ATOM      1  S   UNL     1     -12.318  55.833  49.408  0.00  0.00    +0.000 S 
ATOM      2  O   UNL     1     -13.133  54.756  48.884  0.00  0.00    +0.000 OA
ATOM      3  O   UNL     1     -11.740  56.825  48.523  0.00  0.00    +0.000 OA
ATOM      4  N   UNL     1     -11.104  55.175  50.264  0.00  0.00    +0.000 N 
ATOM      5  C   UNL     1     -13.348  56.713  50.528  0.00  0.00    +0.000 A 
ATOM      6  C   UNL     1     -11.150  55.149  51.556  0.00  0.00    +0.000 C 
ATOM      7  C   UNL     1     -13.122  56.551  51.888  0.00  0.00    +0.000 A 
ATOM      8  C   UNL     1     -14.359  57.543  50.036  0.00  0.00    +0.000 A 
ATOM      9  N   UNL     1     -12.119  55.705  52.363  0.00  0.00    +0.000 N 
ATOM     10  C   UNL     1     -13.979  57.204  52.780  0.00  0.00    +0.000 A 
ATOM     11  C   UNL     1     -15.183  58.211  50.937  0.00  0.00    +0.000 A 
ATOM     12  C   UNL     1     -14.998  58.037  52.307  0.00  0.00    +0.000 A 
ATOM     13  H   UNL     1     -10.328  54.794  49.795  0.00  0.00    +0.000 HD
ATOM     14  H   UNL     1     -12.102  55.494  53.324  0.00  0.00    +0.000 HD
ENDROOT
BRANCH   6  15
ATOM     15  C   UNL     1     -10.027  54.440  52.245  0.00  0.00    +0.000 A 
ATOM     16  C   UNL     1      -8.724  54.922  52.200  0.00  0.00    +0.000 A 
ATOM     17  C   UNL     1     -10.251  53.285  53.001  0.00  0.00    +0.000 A 
ATOM     18  N   UNL     1      -7.698  54.368  52.875  0.00  0.00    +0.000 NA
ATOM     19  C   UNL     1      -9.202  52.680  53.718  0.00  0.00    +0.000 A 
ATOM     20  C   UNL     1      -7.930  53.276  53.622  0.00  0.00    +0.000 A 
ATOM     21  C   UNL     1      -9.374  51.523  54.509  0.00  0.00    +0.000 A 
ATOM     22  C   UNL     1      -6.879  52.711  54.332  0.00  0.00    +0.000 A 
ATOM     23  C   UNL     1      -8.304  50.977  55.212  0.00  0.00    +0.000 A 
ATOM     24  C   UNL     1      -7.054  51.574  55.126  0.00  0.00    +0.000 A 
BRANCH  16  25
ATOM     25  O   UNL     1      -8.365  56.035  51.495  0.00  0.00    +0.000 OA
ATOM     26  H   UNL     1      -8.937  56.379  50.838  0.00  0.00    +0.000 HD
ENDBRANCH  16  25
BRANCH  17  27
ATOM     27  O   UNL     1     -11.499  52.704  53.078  0.00  0.00    +0.000 OA
ATOM     28  H   UNL     1     -12.261  53.201  52.855  0.00  0.00    +0.000 HD
ENDBRANCH  17  27
ENDBRANCH   6  15
TORSDOF 3
ENDMDL
MODEL 6
REMARK VINA RESULT:      -7.7      4.588      7.296
REMARK  Name = 338136
REMARK  3 active torsions:
REMARK  status: ('A' for Active; 'I' for Inactive)
REMARK    1  A    between atoms: C_6  and  C_10
REMARK    2  A    between atoms: C_13  and  O_16
REMARK    3  A    between atoms: C_14  and  O_18
REMARK                            x       y       z     vdW  Elec       q    Type
REMARK                         _______ _______ _______ _____ _____    ______ ____
ROOT
ATOM      1  S   UNL     1     -12.228  55.598  49.444  0.00  0.00    +0.000 S 
ATOM      2  O   UNL     1     -12.999  54.457  48.993  0.00  0.00    +0.000 OA
ATOM      3  O   UNL     1     -11.679  56.545  48.494  0.00  0.00    +0.000 OA
ATOM      4  N   UNL     1     -10.998  55.046  50.351  0.00  0.00    +0.000 N 
ATOM      5  C   UNL     1     -13.298  56.517  50.493  0.00  0.00    +0.000 A 
ATOM      6  C   UNL     1     -11.053  55.109  51.641  0.00  0.00    +0.000 C 
ATOM      7  C   UNL     1     -13.077  56.460  51.862  0.00  0.00    +0.000 A 
ATOM      8  C   UNL     1     -14.333  57.273  49.937  0.00  0.00    +0.000 A 
ATOM      9  N   UNL     1     -12.048  55.685  52.401  0.00  0.00    +0.000 N 
ATOM     10  C   UNL     1     -13.963  57.143  52.701  0.00  0.00    +0.000 A 
ATOM     11  C   UNL     1     -15.188  57.973  50.784  0.00  0.00    +0.000 A 
ATOM     12  C   UNL     1     -15.008  57.903  52.165  0.00  0.00    +0.000 A 
ATOM     13  H   UNL     1     -10.205  54.660  49.914  0.00  0.00    +0.000 HD
ATOM     14  H   UNL     1     -12.032  55.544  53.375  0.00  0.00    +0.000 HD
ENDROOT
BRANCH   6  15
ATOM     15  C   UNL     1      -9.912  54.492  52.385  0.00  0.00    +0.000 A 
ATOM     16  C   UNL     1     -10.089  53.381  53.200  0.00  0.00    +0.000 A 
ATOM     17  C   UNL     1      -8.608  54.983  52.255  0.00  0.00    +0.000 A 
ATOM     18  N   UNL     1      -9.079  52.738  53.820  0.00  0.00    +0.000 NA
ATOM     19  C   UNL     1      -7.531  54.337  52.889  0.00  0.00    +0.000 A 
ATOM     20  C   UNL     1      -7.828  53.200  53.664  0.00  0.00    +0.000 A 
ATOM     21  C   UNL     1      -6.194  54.779  52.780  0.00  0.00    +0.000 A 
ATOM     22  C   UNL     1      -6.783  52.533  54.288  0.00  0.00    +0.000 A 
ATOM     23  C   UNL     1      -5.164  54.091  53.414  0.00  0.00    +0.000 A 
ATOM     24  C   UNL     1      -5.458  52.962  54.168  0.00  0.00    +0.000 A 
BRANCH  16  25
ATOM     25  O   UNL     1     -11.308  52.804  53.420  0.00  0.00    +0.000 OA
ATOM     26  H   UNL     1     -11.564  52.048  52.929  0.00  0.00    +0.000 HD
ENDBRANCH  16  25
BRANCH  17  27
ATOM     27  O   UNL     1      -8.332  56.104  51.502  0.00  0.00    +0.000 OA
ATOM     28  H   UNL     1      -7.538  56.151  51.008  0.00  0.00    +0.000 HD
ENDBRANCH  17  27
ENDBRANCH   6  15
TORSDOF 3
ENDMDL
MODEL 7
REMARK VINA RESULT:      -7.6      2.293      7.145
REMARK  Name = 338136
REMARK  3 active torsions:
REMARK  status: ('A' for Active; 'I' for Inactive)
REMARK    1  A    between atoms: C_6  and  C_10
REMARK    2  A    between atoms: C_13  and  O_16
REMARK    3  A    between atoms: C_14  and  O_18
REMARK                            x       y       z     vdW  Elec       q    Type
REMARK                         _______ _______ _______ _____ _____    ______ ____
ROOT
ATOM      1  S   UNL     1     -15.064  56.228  50.860  0.00  0.00    +0.000 S 
ATOM      2  O   UNL     1     -14.698  56.107  52.256  0.00  0.00    +0.000 OA
ATOM      3  O   UNL     1     -16.439  56.052  50.435  0.00  0.00    +0.000 OA
ATOM      4  N   UNL     1     -14.152  55.187  50.009  0.00  0.00    +0.000 N 
ATOM      5  C   UNL     1     -14.607  57.857  50.384  0.00  0.00    +0.000 A 
ATOM      6  C   UNL     1     -13.129  55.607  49.339  0.00  0.00    +0.000 C 
ATOM      7  C   UNL     1     -13.483  58.011  49.584  0.00  0.00    +0.000 A 
ATOM      8  C   UNL     1     -15.371  58.945  50.812  0.00  0.00    +0.000 A 
ATOM      9  N   UNL     1     -12.721  56.914  49.180  0.00  0.00    +0.000 N 
ATOM     10  C   UNL     1     -13.084  59.310  49.254  0.00  0.00    +0.000 A 
ATOM     11  C   UNL     1     -14.978  60.230  50.448  0.00  0.00    +0.000 A 
ATOM     12  C   UNL     1     -13.833  60.414  49.675  0.00  0.00    +0.000 A 
ATOM     13  H   UNL     1     -14.381  54.230  50.003  0.00  0.00    +0.000 HD
ATOM     14  H   UNL     1     -11.848  57.081  48.757  0.00  0.00    +0.000 HD
ENDROOT
BRANCH   6  15
ATOM     15  C   UNL     1     -12.302  54.558  48.664  0.00  0.00    +0.000 A 
ATOM     16  C   UNL     1     -11.992  53.359  49.294  0.00  0.00    +0.000 A 
ATOM     17  C   UNL     1     -11.844  54.725  47.354  0.00  0.00    +0.000 A 
ATOM     18  N   UNL     1     -11.326  52.350  48.696  0.00  0.00    +0.000 NA
ATOM     19  C   UNL     1     -11.146  53.693  46.700  0.00  0.00    +0.000 A 
ATOM     20  C   UNL     1     -10.917  52.509  47.428  0.00  0.00    +0.000 A 
ATOM     21  C   UNL     1     -10.675  53.800  45.373  0.00  0.00    +0.000 A 
ATOM     22  C   UNL     1     -10.245  51.468  46.803  0.00  0.00    +0.000 A 
ATOM     23  C   UNL     1     -10.004  52.740  44.769  0.00  0.00    +0.000 A 
ATOM     24  C   UNL     1      -9.791  51.569  45.484  0.00  0.00    +0.000 A 
BRANCH  16  25
ATOM     25  O   UNL     1     -12.371  53.068  50.573  0.00  0.00    +0.000 OA
ATOM     26  H   UNL     1     -12.023  52.313  51.006  0.00  0.00    +0.000 HD
ENDBRANCH  16  25
BRANCH  17  27
ATOM     27  O   UNL     1     -12.065  55.892  46.656  0.00  0.00    +0.000 OA
ATOM     28  H   UNL     1     -12.807  56.427  46.859  0.00  0.00    +0.000 HD
ENDBRANCH  17  27
ENDBRANCH   6  15
TORSDOF 3
ENDMDL
MODEL 8
REMARK VINA RESULT:      -7.5      3.009      6.775
REMARK  Name = 338136
REMARK  3 active torsions:
REMARK  status: ('A' for Active; 'I' for Inactive)
REMARK    1  A    between atoms: C_6  and  C_10
REMARK    2  A    between atoms: C_13  and  O_16
REMARK    3  A    between atoms: C_14  and  O_18
REMARK                            x       y       z     vdW  Elec       q    Type
REMARK                         _______ _______ _______ _____ _____    ______ ____
ROOT
ATOM      1  S   UNL     1     -15.366  56.462  51.188  0.00  0.00    +0.000 S 
ATOM      2  O   UNL     1     -15.191  56.548  52.624  0.00  0.00    +0.000 OA
ATOM      3  O   UNL     1     -16.686  56.309  50.609  0.00  0.00    +0.000 OA
ATOM      4  N   UNL     1     -14.447  55.238  50.642  0.00  0.00    +0.000 N 
ATOM      5  C   UNL     1     -14.712  57.957  50.535  0.00  0.00    +0.000 A 
ATOM      6  C   UNL     1     -13.315  55.474  50.064  0.00  0.00    +0.000 C 
ATOM      7  C   UNL     1     -13.486  57.904  49.885  0.00  0.00    +0.000 A 
ATOM      8  C   UNL     1     -15.426  59.149  50.680  0.00  0.00    +0.000 A 
ATOM      9  N   UNL     1     -12.779  56.707  49.763  0.00  0.00    +0.000 N 
ATOM     10  C   UNL     1     -12.937  59.102  49.417  0.00  0.00    +0.000 A 
ATOM     11  C   UNL     1     -14.881  60.328  50.181  0.00  0.00    +0.000 A 
ATOM     12  C   UNL     1     -13.635  60.307  49.556  0.00  0.00    +0.000 A 
ATOM     13  H   UNL     1     -14.756  54.310  50.752  0.00  0.00    +0.000 HD
ATOM     14  H   UNL     1     -11.847  56.746  49.446  0.00  0.00    +0.000 HD
ENDROOT
BRANCH   6  15
ATOM     15  C   UNL     1     -12.504  54.277  49.680  0.00  0.00    +0.000 A 
ATOM     16  C   UNL     1     -11.958  54.144  48.409  0.00  0.00    +0.000 A 
ATOM     17  C   UNL     1     -12.227  53.261  50.601  0.00  0.00    +0.000 A 
ATOM     18  N   UNL     1     -11.150  53.129  48.045  0.00  0.00    +0.000 NA
ATOM     19  C   UNL     1     -11.388  52.186  50.253  0.00  0.00    +0.000 A 
ATOM     20  C   UNL     1     -10.866  52.174  48.945  0.00  0.00    +0.000 A 
ATOM     21  C   UNL     1     -11.061  51.142  51.146  0.00  0.00    +0.000 A 
ATOM     22  C   UNL     1     -10.021  51.135  48.579  0.00  0.00    +0.000 A 
ATOM     23  C   UNL     1     -10.211  50.112  50.754  0.00  0.00    +0.000 A 
ATOM     24  C   UNL     1      -9.687  50.109  49.468  0.00  0.00    +0.000 A 
BRANCH  16  25
ATOM     25  O   UNL     1     -12.155  55.058  47.414  0.00  0.00    +0.000 OA
ATOM     26  H   UNL     1     -13.023  55.332  47.194  0.00  0.00    +0.000 HD
ENDBRANCH  16  25
BRANCH  17  27
ATOM     27  O   UNL     1     -12.753  53.278  51.874  0.00  0.00    +0.000 OA
ATOM     28  H   UNL     1     -12.367  53.820  52.533  0.00  0.00    +0.000 HD
ENDBRANCH  17  27
ENDBRANCH   6  15
TORSDOF 3
ENDMDL
MODEL 9
REMARK VINA RESULT:      -7.4      2.016      7.161
REMARK  Name = 338136
REMARK  3 active torsions:
REMARK  status: ('A' for Active; 'I' for Inactive)
REMARK    1  A    between atoms: C_6  and  C_10
REMARK    2  A    between atoms: C_13  and  O_16
REMARK    3  A    between atoms: C_14  and  O_18
REMARK                            x       y       z     vdW  Elec       q    Type
REMARK                         _______ _______ _______ _____ _____    ______ ____
ROOT
ATOM      1  S   UNL     1     -13.099  55.905  51.219  0.00  0.00    +0.000 S 
ATOM      2  O   UNL     1     -12.310  56.071  52.423  0.00  0.00    +0.000 OA
ATOM      3  O   UNL     1     -14.261  55.039  51.206  0.00  0.00    +0.000 OA
ATOM      4  N   UNL     1     -12.107  55.410  50.032  0.00  0.00    +0.000 N 
ATOM      5  C   UNL     1     -13.678  57.511  50.800  0.00  0.00    +0.000 A 
ATOM      6  C   UNL     1     -11.689  56.242  49.135  0.00  0.00    +0.000 C 
ATOM      7  C   UNL     1     -13.086  58.157  49.723  0.00  0.00    +0.000 A 
ATOM      8  C   UNL     1     -14.703  58.096  51.547  0.00  0.00    +0.000 A 
ATOM      9  N   UNL     1     -12.051  57.565  48.998  0.00  0.00    +0.000 N 
ATOM     10  C   UNL     1     -13.505  59.458  49.426  0.00  0.00    +0.000 A 
ATOM     11  C   UNL     1     -15.131  59.380  51.218  0.00  0.00    +0.000 A 
ATOM     12  C   UNL     1     -14.528  60.063  50.163  0.00  0.00    +0.000 A 
ATOM     13  H   UNL     1     -11.823  54.469  49.995  0.00  0.00    +0.000 HD
ATOM     14  H   UNL     1     -11.554  58.120  48.355  0.00  0.00    +0.000 HD
ENDROOT
BRANCH   6  15
ATOM     15  C   UNL     1     -10.708  55.708  48.140  0.00  0.00    +0.000 A 
ATOM     16  C   UNL     1      -9.343  55.937  48.267  0.00  0.00    +0.000 A 
ATOM     17  C   UNL     1     -11.122  54.918  47.063  0.00  0.00    +0.000 A 
ATOM     18  N   UNL     1      -8.415  55.404  47.447  0.00  0.00    +0.000 NA
ATOM     19  C   UNL     1     -10.180  54.346  46.187  0.00  0.00    +0.000 A 
ATOM     20  C   UNL     1      -8.822  54.622  46.434  0.00  0.00    +0.000 A 
ATOM     21  C   UNL     1     -10.540  53.528  45.094  0.00  0.00    +0.000 A 
ATOM     22  C   UNL     1      -7.869  54.059  45.596  0.00  0.00    +0.000 A 
ATOM     23  C   UNL     1      -9.565  52.975  44.269  0.00  0.00    +0.000 A 
ATOM     24  C   UNL     1      -8.225  53.238  44.522  0.00  0.00    +0.000 A 
BRANCH  16  25
ATOM     25  O   UNL     1      -8.804  56.695  49.268  0.00  0.00    +0.000 OA
ATOM     26  H   UNL     1      -9.114  57.567  49.414  0.00  0.00    +0.000 HD
ENDBRANCH  16  25
BRANCH  17  27
ATOM     27  O   UNL     1     -12.456  54.664  46.826  0.00  0.00    +0.000 OA
ATOM     28  H   UNL     1     -12.992  54.305  47.504  0.00  0.00    +0.000 HD
ENDBRANCH  17  27
ENDBRANCH   6  15
TORSDOF 3
ENDMDL
