MODEL 1
REMARK VINA RESULT:      -8.6      0.000      0.000
REMARK  Name = 338168
REMARK  5 active torsions:
REMARK  status: ('A' for Active; 'I' for Inactive)
REMARK    1  A    between atoms: C_6  and  C_10
REMARK    2  A    between atoms: C_14  and  O_18
REMARK    3  A    between atoms: N_17  and  C_21
REMARK    4  A    between atoms: C_21  and  C_24
REMARK    5  A    between atoms: C_24  and  C_27
REMARK                            x       y       z     vdW  Elec       q    Type
REMARK                         _______ _______ _______ _____ _____    ______ ____
ROOT
ATOM      1  C   UNL     1      -9.985  54.546  52.375  0.00  0.00    +0.000 A 
ATOM      2  C   UNL     1      -8.590  55.050  52.263  0.00  0.00    +0.000 A 
ATOM      3  C   UNL     1     -10.241  53.416  53.056  0.00  0.00    +0.000 A 
ATOM      4  O   UNL     1      -8.388  55.990  51.491  0.00  0.00    +0.000 OA
ATOM      5  N   UNL     1      -7.596  54.468  53.051  0.00  0.00    +0.000 N 
ATOM      6  C   UNL     1      -9.161  52.703  53.746  0.00  0.00    +0.000 A 
ATOM      7  C   UNL     1      -7.857  53.241  53.761  0.00  0.00    +0.000 A 
ATOM      8  C   UNL     1      -9.441  51.508  54.434  0.00  0.00    +0.000 A 
ATOM      9  C   UNL     1      -6.863  52.544  54.474  0.00  0.00    +0.000 A 
ATOM     10  C   UNL     1      -8.447  50.862  55.149  0.00  0.00    +0.000 A 
ATOM     11  C   UNL     1      -7.161  51.371  55.177  0.00  0.00    +0.000 A 
ATOM     12  F   UNL     1      -8.735  49.743  55.824  0.00  0.00    +0.000 F 
ENDROOT
BRANCH   1  18
ATOM     13  S   UNL     1     -12.362  55.798  49.435  0.00  0.00    +0.000 S 
ATOM     14  O   UNL     1     -13.039  54.552  49.140  0.00  0.00    +0.000 OA
ATOM     15  O   UNL     1     -11.920  56.694  48.392  0.00  0.00    +0.000 OA
ATOM     16  N   UNL     1     -11.044  55.458  50.367  0.00  0.00    +0.000 N 
ATOM     17  C   UNL     1     -13.357  56.699  50.544  0.00  0.00    +0.000 A 
ATOM     18  C   UNL     1     -11.123  55.278  51.744  0.00  0.00    +0.000 C 
ATOM     19  C   UNL     1     -13.099  56.551  51.902  0.00  0.00    +0.000 A 
ATOM     20  C   UNL     1     -14.349  57.555  50.059  0.00  0.00    +0.000 A 
ATOM     21  N   UNL     1     -12.113  55.720  52.457  0.00  0.00    +0.000 N 
ATOM     22  C   UNL     1     -13.864  57.311  52.793  0.00  0.00    +0.000 A 
ATOM     23  C   UNL     1     -15.108  58.292  50.964  0.00  0.00    +0.000 A 
ATOM     24  C   UNL     1     -14.860  58.177  52.332  0.00  0.00    +0.000 A 
ATOM     25  H   UNL     1     -10.166  55.382  49.930  0.00  0.00    +0.000 HD
ATOM     26  H   UNL     1     -12.173  55.467  53.407  0.00  0.00    +0.000 HD
ENDBRANCH   1  18
BRANCH   3  27
ATOM     27  O   UNL     1     -11.496  52.846  53.195  0.00  0.00    +0.000 OA
ATOM     28  H   UNL     1     -12.231  53.218  52.748  0.00  0.00    +0.000 HD
ENDBRANCH   3  27
BRANCH   5  29
ATOM     29  C   UNL     1      -6.218  55.010  52.980  0.00  0.00    +0.000 C 
BRANCH  29  30
ATOM     30  C   UNL     1      -5.216  54.224  52.113  0.00  0.00    +0.000 C 
BRANCH  30  31
ATOM     31  C   UNL     1      -5.351  54.512  50.644  0.00  0.00    +0.000 C 
ATOM     32  C   UNL     1      -6.124  53.635  49.695  0.00  0.00    +0.000 C 
ATOM     33  C   UNL     1      -4.622  53.620  49.671  0.00  0.00    +0.000 C 
ENDBRANCH  30  31
ENDBRANCH  29  30
ENDBRANCH   5  29
TORSDOF 5
ENDMDL
MODEL 2
REMARK VINA RESULT:      -8.3      3.870      7.423
REMARK  Name = 338168
REMARK  5 active torsions:
REMARK  status: ('A' for Active; 'I' for Inactive)
REMARK    1  A    between atoms: C_6  and  C_10
REMARK    2  A    between atoms: C_14  and  O_18
REMARK    3  A    between atoms: N_17  and  C_21
REMARK    4  A    between atoms: C_21  and  C_24
REMARK    5  A    between atoms: C_24  and  C_27
REMARK                            x       y       z     vdW  Elec       q    Type
REMARK                         _______ _______ _______ _____ _____    ______ ____
ROOT
ATOM      1  C   UNL     1     -10.168  55.092  50.835  0.00  0.00    +0.000 A 
ATOM      2  C   UNL     1      -9.808  55.153  49.393  0.00  0.00    +0.000 A 
ATOM      3  C   UNL     1     -11.361  55.547  51.252  0.00  0.00    +0.000 A 
ATOM      4  O   UNL     1      -8.645  54.881  49.087  0.00  0.00    +0.000 OA
ATOM      5  N   UNL     1     -10.797  55.474  48.463  0.00  0.00    +0.000 N 
ATOM      6  C   UNL     1     -12.343  56.051  50.286  0.00  0.00    +0.000 A 
ATOM      7  C   UNL     1     -12.069  55.991  48.904  0.00  0.00    +0.000 A 
ATOM      8  C   UNL     1     -13.579  56.548  50.742  0.00  0.00    +0.000 A 
ATOM      9  C   UNL     1     -13.061  56.444  48.013  0.00  0.00    +0.000 A 
ATOM     10  C   UNL     1     -14.543  56.960  49.838  0.00  0.00    +0.000 A 
ATOM     11  C   UNL     1     -14.296  56.910  48.478  0.00  0.00    +0.000 A 
ATOM     12  F   UNL     1     -15.726  57.401  50.284  0.00  0.00    +0.000 F 
ENDROOT
BRANCH   1  18
ATOM     13  S   UNL     1      -6.878  54.886  53.071  0.00  0.00    +0.000 S 
ATOM     14  O   UNL     1      -7.153  55.976  53.985  0.00  0.00    +0.000 OA
ATOM     15  O   UNL     1      -5.562  54.665  52.517  0.00  0.00    +0.000 OA
ATOM     16  N   UNL     1      -7.920  55.009  51.798  0.00  0.00    +0.000 N 
ATOM     17  C   UNL     1      -7.410  53.409  53.822  0.00  0.00    +0.000 A 
ATOM     18  C   UNL     1      -9.223  54.525  51.842  0.00  0.00    +0.000 C 
ATOM     19  C   UNL     1      -8.696  52.969  53.531  0.00  0.00    +0.000 A 
ATOM     20  C   UNL     1      -6.545  52.695  54.655  0.00  0.00    +0.000 A 
ATOM     21  N   UNL     1      -9.612  53.628  52.695  0.00  0.00    +0.000 N 
ATOM     22  C   UNL     1      -9.110  51.757  54.094  0.00  0.00    +0.000 A 
ATOM     23  C   UNL     1      -6.981  51.497  55.216  0.00  0.00    +0.000 A 
ATOM     24  C   UNL     1      -8.261  51.023  54.929  0.00  0.00    +0.000 A 
ATOM     25  H   UNL     1      -7.605  55.442  50.971  0.00  0.00    +0.000 HD
ATOM     26  H   UNL     1     -10.569  53.404  52.756  0.00  0.00    +0.000 HD
ENDBRANCH   1  18
BRANCH   3  27
ATOM     27  O   UNL     1     -11.781  55.564  52.572  0.00  0.00    +0.000 OA
ATOM     28  H   UNL     1     -12.619  55.212  52.802  0.00  0.00    +0.000 HD
ENDBRANCH   3  27
BRANCH   5  29
ATOM     29  C   UNL     1     -10.451  55.479  47.021  0.00  0.00    +0.000 C 
BRANCH  29  30
ATOM     30  C   UNL     1     -10.304  54.103  46.346  0.00  0.00    +0.000 C 
BRANCH  30  31
ATOM     31  C   UNL     1     -11.311  53.867  45.256  0.00  0.00    +0.000 C 
ATOM     32  C   UNL     1     -12.023  52.556  45.054  0.00  0.00    +0.000 C 
ATOM     33  C   UNL     1     -10.927  52.964  44.111  0.00  0.00    +0.000 C 
ENDBRANCH  30  31
ENDBRANCH  29  30
ENDBRANCH   5  29
TORSDOF 5
ENDMDL
MODEL 3
REMARK VINA RESULT:      -8.3      3.827      5.407
REMARK  Name = 338168
REMARK  5 active torsions:
REMARK  status: ('A' for Active; 'I' for Inactive)
REMARK    1  A    between atoms: C_6  and  C_10
REMARK    2  A    between atoms: C_14  and  O_18
REMARK    3  A    between atoms: N_17  and  C_21
REMARK    4  A    between atoms: C_21  and  C_24
REMARK    5  A    between atoms: C_24  and  C_27
REMARK                            x       y       z     vdW  Elec       q    Type
REMARK                         _______ _______ _______ _____ _____    ______ ____
ROOT
ATOM      1  C   UNL     1     -11.487  55.793  48.980  0.00  0.00    +0.000 A 
ATOM      2  C   UNL     1     -10.406  55.114  49.745  0.00  0.00    +0.000 A 
ATOM      3  C   UNL     1     -11.654  55.532  47.673  0.00  0.00    +0.000 A 
ATOM      4  O   UNL     1     -10.188  55.511  50.891  0.00  0.00    +0.000 OA
ATOM      5  N   UNL     1      -9.725  54.050  49.151  0.00  0.00    +0.000 N 
ATOM      6  C   UNL     1     -10.817  54.532  47.001  0.00  0.00    +0.000 A 
ATOM      7  C   UNL     1      -9.879  53.784  47.743  0.00  0.00    +0.000 A 
ATOM      8  C   UNL     1     -10.988  54.289  45.626  0.00  0.00    +0.000 A 
ATOM      9  C   UNL     1      -9.130  52.804  47.064  0.00  0.00    +0.000 A 
ATOM     10  C   UNL     1     -10.255  53.299  44.994  0.00  0.00    +0.000 A 
ATOM     11  C   UNL     1      -9.330  52.553  45.701  0.00  0.00    +0.000 A 
ATOM     12  F   UNL     1     -10.451  53.057  43.692  0.00  0.00    +0.000 F 
ENDROOT
BRANCH   1  18
ATOM     13  S   UNL     1     -13.520  59.187  49.441  0.00  0.00    +0.000 S 
ATOM     14  O   UNL     1     -14.513  59.003  48.403  0.00  0.00    +0.000 OA
ATOM     15  O   UNL     1     -12.881  60.462  49.673  0.00  0.00    +0.000 OA
ATOM     16  N   UNL     1     -12.317  58.084  49.202  0.00  0.00    +0.000 N 
ATOM     17  C   UNL     1     -14.208  58.639  50.944  0.00  0.00    +0.000 A 
ATOM     18  C   UNL     1     -12.404  56.768  49.642  0.00  0.00    +0.000 C 
ATOM     19  C   UNL     1     -13.962  57.324  51.319  0.00  0.00    +0.000 A 
ATOM     20  C   UNL     1     -14.947  59.519  51.738  0.00  0.00    +0.000 A 
ATOM     21  N   UNL     1     -13.220  56.390  50.577  0.00  0.00    +0.000 N 
ATOM     22  C   UNL     1     -14.472  56.894  52.549  0.00  0.00    +0.000 A 
ATOM     23  C   UNL     1     -15.457  59.068  52.953  0.00  0.00    +0.000 A 
ATOM     24  C   UNL     1     -15.212  57.758  53.363  0.00  0.00    +0.000 A 
ATOM     25  H   UNL     1     -11.502  58.371  48.729  0.00  0.00    +0.000 HD
ATOM     26  H   UNL     1     -13.320  55.430  50.771  0.00  0.00    +0.000 HD
ENDBRANCH   1  18
BRANCH   3  27
ATOM     27  O   UNL     1     -12.607  56.130  46.865  0.00  0.00    +0.000 OA
ATOM     28  H   UNL     1     -13.504  55.862  46.920  0.00  0.00    +0.000 HD
ENDBRANCH   3  27
BRANCH   5  29
ATOM     29  C   UNL     1      -8.688  53.338  49.935  0.00  0.00    +0.000 C 
BRANCH  29  30
ATOM     30  C   UNL     1      -7.466  54.168  50.371  0.00  0.00    +0.000 C 
BRANCH  30  31
ATOM     31  C   UNL     1      -6.790  54.873  49.228  0.00  0.00    +0.000 C 
ATOM     32  C   UNL     1      -5.810  54.201  48.303  0.00  0.00    +0.000 C 
ATOM     33  C   UNL     1      -5.315  55.167  49.342  0.00  0.00    +0.000 C 
ENDBRANCH  30  31
ENDBRANCH  29  30
ENDBRANCH   5  29
TORSDOF 5
ENDMDL
MODEL 4
REMARK VINA RESULT:      -8.2      3.682      7.281
REMARK  Name = 338168
REMARK  5 active torsions:
REMARK  status: ('A' for Active; 'I' for Inactive)
REMARK    1  A    between atoms: C_6  and  C_10
REMARK    2  A    between atoms: C_14  and  O_18
REMARK    3  A    between atoms: N_17  and  C_21
REMARK    4  A    between atoms: C_21  and  C_24
REMARK    5  A    between atoms: C_24  and  C_27
REMARK                            x       y       z     vdW  Elec       q    Type
REMARK                         _______ _______ _______ _____ _____    ______ ____
ROOT
ATOM      1  C   UNL     1     -10.181  55.435  50.467  0.00  0.00    +0.000 A 
ATOM      2  C   UNL     1     -10.345  55.688  49.010  0.00  0.00    +0.000 A 
ATOM      3  C   UNL     1     -11.217  55.611  51.303  0.00  0.00    +0.000 A 
ATOM      4  O   UNL     1      -9.328  55.675  48.315  0.00  0.00    +0.000 OA
ATOM      5  N   UNL     1     -11.629  55.888  48.500  0.00  0.00    +0.000 N 
ATOM      6  C   UNL     1     -12.535  55.994  50.784  0.00  0.00    +0.000 A 
ATOM      7  C   UNL     1     -12.739  56.107  49.393  0.00  0.00    +0.000 A 
ATOM      8  C   UNL     1     -13.604  56.199  51.676  0.00  0.00    +0.000 A 
ATOM      9  C   UNL     1     -14.032  56.432  48.940  0.00  0.00    +0.000 A 
ATOM     10  C   UNL     1     -14.869  56.491  51.196  0.00  0.00    +0.000 A 
ATOM     11  C   UNL     1     -15.093  56.607  49.836  0.00  0.00    +0.000 A 
ATOM     12  F   UNL     1     -15.884  56.653  52.054  0.00  0.00    +0.000 F 
ENDROOT
BRANCH   1  18
ATOM     13  S   UNL     1      -6.588  53.714  50.470  0.00  0.00    +0.000 S 
ATOM     14  O   UNL     1      -5.872  54.677  49.660  0.00  0.00    +0.000 OA
ATOM     15  O   UNL     1      -6.397  52.291  50.317  0.00  0.00    +0.000 OA
ATOM     16  N   UNL     1      -8.204  54.002  50.301  0.00  0.00    +0.000 N 
ATOM     17  C   UNL     1      -6.330  54.123  52.143  0.00  0.00    +0.000 A 
ATOM     18  C   UNL     1      -8.874  54.980  51.028  0.00  0.00    +0.000 C 
ATOM     19  C   UNL     1      -7.274  54.937  52.757  0.00  0.00    +0.000 A 
ATOM     20  C   UNL     1      -5.223  53.612  52.826  0.00  0.00    +0.000 A 
ATOM     21  N   UNL     1      -8.413  55.474  52.136  0.00  0.00    +0.000 N 
ATOM     22  C   UNL     1      -7.095  55.227  54.114  0.00  0.00    +0.000 A 
ATOM     23  C   UNL     1      -5.057  53.924  54.173  0.00  0.00    +0.000 A 
ATOM     24  C   UNL     1      -5.998  54.724  54.820  0.00  0.00    +0.000 A 
ATOM     25  H   UNL     1      -8.714  53.457  49.659  0.00  0.00    +0.000 HD
ATOM     26  H   UNL     1      -8.872  56.242  52.549  0.00  0.00    +0.000 HD
ENDBRANCH   1  18
BRANCH   3  27
ATOM     27  O   UNL     1     -11.162  55.433  52.676  0.00  0.00    +0.000 OA
ATOM     28  H   UNL     1     -10.620  55.991  53.199  0.00  0.00    +0.000 HD
ENDBRANCH   3  27
BRANCH   5  29
ATOM     29  C   UNL     1     -11.797  56.084  47.040  0.00  0.00    +0.000 C 
BRANCH  29  30
ATOM     30  C   UNL     1     -12.088  54.821  46.208  0.00  0.00    +0.000 C 
BRANCH  30  31
ATOM     31  C   UNL     1     -10.858  54.232  45.576  0.00  0.00    +0.000 C 
ATOM     32  C   UNL     1     -10.899  53.127  44.555  0.00  0.00    +0.000 C 
ATOM     33  C   UNL     1     -10.459  52.829  45.960  0.00  0.00    +0.000 C 
ENDBRANCH  30  31
ENDBRANCH  29  30
ENDBRANCH   5  29
TORSDOF 5
ENDMDL
MODEL 5
REMARK VINA RESULT:      -8.2      3.902      5.772
REMARK  Name = 338168
REMARK  5 active torsions:
REMARK  status: ('A' for Active; 'I' for Inactive)
REMARK    1  A    between atoms: C_6  and  C_10
REMARK    2  A    between atoms: C_14  and  O_18
REMARK    3  A    between atoms: N_17  and  C_21
REMARK    4  A    between atoms: C_21  and  C_24
REMARK    5  A    between atoms: C_24  and  C_27
REMARK                            x       y       z     vdW  Elec       q    Type
REMARK                         _______ _______ _______ _____ _____    ______ ____
ROOT
ATOM      1  C   UNL     1     -11.563  55.779  48.921  0.00  0.00    +0.000 A 
ATOM      2  C   UNL     1     -10.462  55.095  49.653  0.00  0.00    +0.000 A 
ATOM      3  C   UNL     1     -11.770  55.518  47.620  0.00  0.00    +0.000 A 
ATOM      4  O   UNL     1     -10.207  55.491  50.792  0.00  0.00    +0.000 OA
ATOM      5  N   UNL     1      -9.803  54.029  49.039  0.00  0.00    +0.000 N 
ATOM      6  C   UNL     1     -10.958  54.515  46.923  0.00  0.00    +0.000 A 
ATOM      7  C   UNL     1     -10.001  53.763  47.636  0.00  0.00    +0.000 A 
ATOM      8  C   UNL     1     -11.172  54.272  45.553  0.00  0.00    +0.000 A 
ATOM      9  C   UNL     1      -9.278  52.780  46.935  0.00  0.00    +0.000 A 
ATOM     10  C   UNL     1     -10.463  53.280  44.900  0.00  0.00    +0.000 A 
ATOM     11  C   UNL     1      -9.520  52.530  45.579  0.00  0.00    +0.000 A 
ATOM     12  F   UNL     1     -10.699  53.038  43.605  0.00  0.00    +0.000 F 
ENDROOT
BRANCH   1  18
ATOM     13  S   UNL     1     -13.514  59.207  49.474  0.00  0.00    +0.000 S 
ATOM     14  O   UNL     1     -14.514  59.072  48.435  0.00  0.00    +0.000 OA
ATOM     15  O   UNL     1     -12.846  60.460  49.736  0.00  0.00    +0.000 OA
ATOM     16  N   UNL     1     -12.338  58.083  49.203  0.00  0.00    +0.000 N 
ATOM     17  C   UNL     1     -14.211  58.637  50.965  0.00  0.00    +0.000 A 
ATOM     18  C   UNL     1     -12.455  56.758  49.610  0.00  0.00    +0.000 C 
ATOM     19  C   UNL     1     -13.995  57.307  51.306  0.00  0.00    +0.000 A 
ATOM     20  C   UNL     1     -14.927  59.514  51.784  0.00  0.00    +0.000 A 
ATOM     21  N   UNL     1     -13.277  56.376  50.539  0.00  0.00    +0.000 N 
ATOM     22  C   UNL     1     -14.512  56.859  52.527  0.00  0.00    +0.000 A 
ATOM     23  C   UNL     1     -15.444  59.044  52.988  0.00  0.00    +0.000 A 
ATOM     24  C   UNL     1     -15.229  57.719  53.365  0.00  0.00    +0.000 A 
ATOM     25  H   UNL     1     -11.518  58.363  48.735  0.00  0.00    +0.000 HD
ATOM     26  H   UNL     1     -13.399  55.414  50.708  0.00  0.00    +0.000 HD
ENDBRANCH   1  18
BRANCH   3  27
ATOM     27  O   UNL     1     -12.745  56.121  46.841  0.00  0.00    +0.000 OA
ATOM     28  H   UNL     1     -12.509  56.797  46.236  0.00  0.00    +0.000 HD
ENDBRANCH   3  27
BRANCH   5  29
ATOM     29  C   UNL     1      -8.746  53.312  49.791  0.00  0.00    +0.000 C 
BRANCH  29  30
ATOM     30  C   UNL     1      -9.208  52.140  50.677  0.00  0.00    +0.000 C 
BRANCH  30  31
ATOM     31  C   UNL     1      -9.129  52.443  52.148  0.00  0.00    +0.000 C 
ATOM     32  C   UNL     1      -9.415  51.425  53.220  0.00  0.00    +0.000 C 
ATOM     33  C   UNL     1     -10.415  52.509  52.934  0.00  0.00    +0.000 C 
ENDBRANCH  30  31
ENDBRANCH  29  30
ENDBRANCH   5  29
TORSDOF 5
ENDMDL
MODEL 6
REMARK VINA RESULT:      -8.1      3.535      7.953
REMARK  Name = 338168
REMARK  5 active torsions:
REMARK  status: ('A' for Active; 'I' for Inactive)
REMARK    1  A    between atoms: C_6  and  C_10
REMARK    2  A    between atoms: C_14  and  O_18
REMARK    3  A    between atoms: N_17  and  C_21
REMARK    4  A    between atoms: C_21  and  C_24
REMARK    5  A    between atoms: C_24  and  C_27
REMARK                            x       y       z     vdW  Elec       q    Type
REMARK                         _______ _______ _______ _____ _____    ______ ____
ROOT
ATOM      1  C   UNL     1      -9.945  54.452  50.678  0.00  0.00    +0.000 A 
ATOM      2  C   UNL     1     -11.079  55.378  50.944  0.00  0.00    +0.000 A 
ATOM      3  C   UNL     1      -9.728  53.991  49.435  0.00  0.00    +0.000 A 
ATOM      4  O   UNL     1     -11.335  55.636  52.122  0.00  0.00    +0.000 OA
ATOM      5  N   UNL     1     -11.766  55.932  49.863  0.00  0.00    +0.000 N 
ATOM      6  C   UNL     1     -10.565  54.442  48.318  0.00  0.00    +0.000 A 
ATOM      7  C   UNL     1     -11.558  55.421  48.531  0.00  0.00    +0.000 A 
ATOM      8  C   UNL     1     -10.341  53.930  47.026  0.00  0.00    +0.000 A 
ATOM      9  C   UNL     1     -12.305  55.856  47.420  0.00  0.00    +0.000 A 
ATOM     10  C   UNL     1     -11.075  54.399  45.951  0.00  0.00    +0.000 A 
ATOM     11  C   UNL     1     -12.053  55.358  46.136  0.00  0.00    +0.000 A 
ATOM     12  F   UNL     1     -10.830  53.926  44.723  0.00  0.00    +0.000 F 
ENDROOT
BRANCH   1  18
ATOM     13  S   UNL     1      -6.745  54.572  53.047  0.00  0.00    +0.000 S 
ATOM     14  O   UNL     1      -7.083  55.743  53.830  0.00  0.00    +0.000 OA
ATOM     15  O   UNL     1      -5.403  54.331  52.570  0.00  0.00    +0.000 OA
ATOM     16  N   UNL     1      -7.736  54.533  51.729  0.00  0.00    +0.000 N 
ATOM     17  C   UNL     1      -7.273  53.167  53.929  0.00  0.00    +0.000 A 
ATOM     18  C   UNL     1      -9.028  54.020  51.775  0.00  0.00    +0.000 C 
ATOM     19  C   UNL     1      -8.535  52.664  53.637  0.00  0.00    +0.000 A 
ATOM     20  C   UNL     1      -6.426  52.568  54.865  0.00  0.00    +0.000 A 
ATOM     21  N   UNL     1      -9.431  53.206  52.702  0.00  0.00    +0.000 N 
ATOM     22  C   UNL     1      -8.942  51.506  54.309  0.00  0.00    +0.000 A 
ATOM     23  C   UNL     1      -6.856  51.424  55.533  0.00  0.00    +0.000 A 
ATOM     24  C   UNL     1      -8.111  50.887  55.248  0.00  0.00    +0.000 A 
ATOM     25  H   UNL     1      -7.398  54.885  50.875  0.00  0.00    +0.000 HD
ATOM     26  H   UNL     1     -10.384  52.963  52.750  0.00  0.00    +0.000 HD
ENDBRANCH   1  18
BRANCH   3  27
ATOM     27  O   UNL     1      -8.722  53.104  49.087  0.00  0.00    +0.000 OA
ATOM     28  H   UNL     1      -7.988  52.981  49.658  0.00  0.00    +0.000 HD
ENDBRANCH   3  27
BRANCH   5  29
ATOM     29  C   UNL     1     -12.858  56.898  50.128  0.00  0.00    +0.000 C 
BRANCH  29  30
ATOM     30  C   UNL     1     -14.228  56.300  50.500  0.00  0.00    +0.000 C 
BRANCH  30  31
ATOM     31  C   UNL     1     -15.137  57.283  51.184  0.00  0.00    +0.000 C 
ATOM     32  C   UNL     1     -14.695  58.172  52.316  0.00  0.00    +0.000 C 
ATOM     33  C   UNL     1     -15.575  56.987  52.597  0.00  0.00    +0.000 C 
ENDBRANCH  30  31
ENDBRANCH  29  30
ENDBRANCH   5  29
TORSDOF 5
ENDMDL
MODEL 7
REMARK VINA RESULT:      -8.0      3.125      4.311
REMARK  Name = 338168
REMARK  5 active torsions:
REMARK  status: ('A' for Active; 'I' for Inactive)
REMARK    1  A    between atoms: C_6  and  C_10
REMARK    2  A    between atoms: C_14  and  O_18
REMARK    3  A    between atoms: N_17  and  C_21
REMARK    4  A    between atoms: C_21  and  C_24
REMARK    5  A    between atoms: C_24  and  C_27
REMARK                            x       y       z     vdW  Elec       q    Type
REMARK                         _______ _______ _______ _____ _____    ______ ____
ROOT
ATOM      1  C   UNL     1     -12.091  54.491  50.334  0.00  0.00    +0.000 A 
ATOM      2  C   UNL     1     -11.993  53.925  48.961  0.00  0.00    +0.000 A 
ATOM      3  C   UNL     1     -11.468  53.884  51.359  0.00  0.00    +0.000 A 
ATOM      4  O   UNL     1     -12.715  54.418  48.092  0.00  0.00    +0.000 OA
ATOM      5  N   UNL     1     -11.075  52.903  48.716  0.00  0.00    +0.000 N 
ATOM      6  C   UNL     1     -10.637  52.699  51.127  0.00  0.00    +0.000 A 
ATOM      7  C   UNL     1     -10.426  52.230  49.813  0.00  0.00    +0.000 A 
ATOM      8  C   UNL     1     -10.011  52.061  52.214  0.00  0.00    +0.000 A 
ATOM      9  C   UNL     1      -9.583  51.116  49.636  0.00  0.00    +0.000 A 
ATOM     10  C   UNL     1      -9.167  50.985  52.003  0.00  0.00    +0.000 A 
ATOM     11  C   UNL     1      -8.946  50.508  50.724  0.00  0.00    +0.000 A 
ATOM     12  F   UNL     1      -8.554  50.407  53.044  0.00  0.00    +0.000 F 
ENDROOT
BRANCH   1  18
ATOM     13  S   UNL     1     -14.457  56.971  52.361  0.00  0.00    +0.000 S 
ATOM     14  O   UNL     1     -13.538  57.359  53.412  0.00  0.00    +0.000 OA
ATOM     15  O   UNL     1     -15.849  56.691  52.626  0.00  0.00    +0.000 OA
ATOM     16  N   UNL     1     -13.838  55.646  51.600  0.00  0.00    +0.000 N 
ATOM     17  C   UNL     1     -14.372  58.173  51.104  0.00  0.00    +0.000 A 
ATOM     18  C   UNL     1     -12.873  55.734  50.602  0.00  0.00    +0.000 C 
ATOM     19  C   UNL     1     -13.495  57.938  50.052  0.00  0.00    +0.000 A 
ATOM     20  C   UNL     1     -15.189  59.305  51.161  0.00  0.00    +0.000 A 
ATOM     21  N   UNL     1     -12.656  56.820  49.925  0.00  0.00    +0.000 N 
ATOM     22  C   UNL     1     -13.460  58.878  49.016  0.00  0.00    +0.000 A 
ATOM     23  C   UNL     1     -15.128  60.235  50.126  0.00  0.00    +0.000 A 
ATOM     24  C   UNL     1     -14.270  60.017  49.048  0.00  0.00    +0.000 A 
ATOM     25  H   UNL     1     -14.166  54.755  51.863  0.00  0.00    +0.000 HD
ATOM     26  H   UNL     1     -11.888  56.859  49.310  0.00  0.00    +0.000 HD
ENDBRANCH   1  18
BRANCH   3  27
ATOM     27  O   UNL     1     -11.520  54.310  52.676  0.00  0.00    +0.000 OA
ATOM     28  H   UNL     1     -11.502  53.683  53.372  0.00  0.00    +0.000 HD
ENDBRANCH   3  27
BRANCH   5  29
ATOM     29  C   UNL     1     -10.938  52.380  47.335  0.00  0.00    +0.000 C 
BRANCH  29  30
ATOM     30  C   UNL     1     -10.235  53.300  46.320  0.00  0.00    +0.000 C 
BRANCH  30  31
ATOM     31  C   UNL     1      -8.974  53.919  46.856  0.00  0.00    +0.000 C 
ATOM     32  C   UNL     1      -8.883  55.351  47.312  0.00  0.00    +0.000 C 
ATOM     33  C   UNL     1      -8.264  54.943  46.006  0.00  0.00    +0.000 C 
ENDBRANCH  30  31
ENDBRANCH  29  30
ENDBRANCH   5  29
TORSDOF 5
ENDMDL
MODEL 8
REMARK VINA RESULT:      -8.0      4.914      7.792
REMARK  Name = 338168
REMARK  5 active torsions:
REMARK  status: ('A' for Active; 'I' for Inactive)
REMARK    1  A    between atoms: C_6  and  C_10
REMARK    2  A    between atoms: C_14  and  O_18
REMARK    3  A    between atoms: N_17  and  C_21
REMARK    4  A    between atoms: C_21  and  C_24
REMARK    5  A    between atoms: C_24  and  C_27
REMARK                            x       y       z     vdW  Elec       q    Type
REMARK                         _______ _______ _______ _____ _____    ______ ____
ROOT
ATOM      1  C   UNL     1     -11.378  54.216  47.916  0.00  0.00    +0.000 A 
ATOM      2  C   UNL     1     -11.473  53.374  49.139  0.00  0.00    +0.000 A 
ATOM      3  C   UNL     1     -12.037  55.385  47.849  0.00  0.00    +0.000 A 
ATOM      4  O   UNL     1     -10.991  52.241  49.086  0.00  0.00    +0.000 OA
ATOM      5  N   UNL     1     -12.063  53.911  50.284  0.00  0.00    +0.000 N 
ATOM      6  C   UNL     1     -12.805  55.872  48.999  0.00  0.00    +0.000 A 
ATOM      7  C   UNL     1     -12.795  55.151  50.211  0.00  0.00    +0.000 A 
ATOM      8  C   UNL     1     -13.510  57.087  48.904  0.00  0.00    +0.000 A 
ATOM      9  C   UNL     1     -13.510  55.682  51.302  0.00  0.00    +0.000 A 
ATOM     10  C   UNL     1     -14.180  57.594  50.003  0.00  0.00    +0.000 A 
ATOM     11  C   UNL     1     -14.185  56.904  51.201  0.00  0.00    +0.000 A 
ATOM     12  F   UNL     1     -14.821  58.766  49.907  0.00  0.00    +0.000 F 
ENDROOT
BRANCH   1  18
ATOM     13  S   UNL     1      -8.170  54.020  45.563  0.00  0.00    +0.000 S 
ATOM     14  O   UNL     1      -7.301  53.243  46.423  0.00  0.00    +0.000 OA
ATOM     15  O   UNL     1      -7.684  55.146  44.799  0.00  0.00    +0.000 OA
ATOM     16  N   UNL     1      -9.435  54.566  46.470  0.00  0.00    +0.000 N 
ATOM     17  C   UNL     1      -8.965  52.921  44.472  0.00  0.00    +0.000 A 
ATOM     18  C   UNL     1     -10.553  53.787  46.747  0.00  0.00    +0.000 C 
ATOM     19  C   UNL     1     -10.215  52.440  44.844  0.00  0.00    +0.000 A 
ATOM     20  C   UNL     1      -8.362  52.579  43.259  0.00  0.00    +0.000 A 
ATOM     21  N   UNL     1     -10.883  52.751  46.039  0.00  0.00    +0.000 N 
ATOM     22  C   UNL     1     -10.878  51.595  43.947  0.00  0.00    +0.000 A 
ATOM     23  C   UNL     1      -9.033  51.726  42.386  0.00  0.00    +0.000 A 
ATOM     24  C   UNL     1     -10.296  51.241  42.726  0.00  0.00    +0.000 A 
ATOM     25  H   UNL     1      -9.397  55.482  46.828  0.00  0.00    +0.000 HD
ATOM     26  H   UNL     1     -11.619  52.172  46.346  0.00  0.00    +0.000 HD
ENDBRANCH   1  18
BRANCH   3  27
ATOM     27  O   UNL     1     -12.039  56.226  46.748  0.00  0.00    +0.000 OA
ATOM     28  H   UNL     1     -11.249  56.657  46.486  0.00  0.00    +0.000 HD
ENDBRANCH   3  27
BRANCH   5  29
ATOM     29  C   UNL     1     -12.105  53.092  51.519  0.00  0.00    +0.000 C 
BRANCH  29  30
ATOM     30  C   UNL     1     -10.869  53.165  52.434  0.00  0.00    +0.000 C 
BRANCH  30  31
ATOM     31  C   UNL     1     -10.435  54.573  52.732  0.00  0.00    +0.000 C 
ATOM     32  C   UNL     1      -9.261  55.238  52.063  0.00  0.00    +0.000 C 
ATOM     33  C   UNL     1      -9.147  54.778  53.489  0.00  0.00    +0.000 C 
ENDBRANCH  30  31
ENDBRANCH  29  30
ENDBRANCH   5  29
TORSDOF 5
ENDMDL
MODEL 9
REMARK VINA RESULT:      -7.9      4.025      5.560
REMARK  Name = 338168
REMARK  5 active torsions:
REMARK  status: ('A' for Active; 'I' for Inactive)
REMARK    1  A    between atoms: C_6  and  C_10
REMARK    2  A    between atoms: C_14  and  O_18
REMARK    3  A    between atoms: N_17  and  C_21
REMARK    4  A    between atoms: C_21  and  C_24
REMARK    5  A    between atoms: C_24  and  C_27
REMARK                            x       y       z     vdW  Elec       q    Type
REMARK                         _______ _______ _______ _____ _____    ______ ____
ROOT
ATOM      1  C   UNL     1     -10.643  55.393  48.863  0.00  0.00    +0.000 A 
ATOM      2  C   UNL     1     -10.832  54.361  47.808  0.00  0.00    +0.000 A 
ATOM      3  C   UNL     1      -9.414  55.649  49.343  0.00  0.00    +0.000 A 
ATOM      4  O   UNL     1     -11.989  54.046  47.524  0.00  0.00    +0.000 OA
ATOM      5  N   UNL     1      -9.708  53.833  47.171  0.00  0.00    +0.000 N 
ATOM      6  C   UNL     1      -8.242  54.962  48.791  0.00  0.00    +0.000 A 
ATOM      7  C   UNL     1      -8.390  54.081  47.699  0.00  0.00    +0.000 A 
ATOM      8  C   UNL     1      -6.965  55.224  49.322  0.00  0.00    +0.000 A 
ATOM      9  C   UNL     1      -7.230  53.481  47.174  0.00  0.00    +0.000 A 
ATOM     10  C   UNL     1      -5.842  54.638  48.764  0.00  0.00    +0.000 A 
ATOM     11  C   UNL     1      -5.963  53.770  47.694  0.00  0.00    +0.000 A 
ATOM     12  F   UNL     1      -4.631  54.919  49.260  0.00  0.00    +0.000 F 
ENDROOT
BRANCH   1  18
ATOM     13  S   UNL     1     -13.934  57.635  48.755  0.00  0.00    +0.000 S 
ATOM     14  O   UNL     1     -14.865  56.651  48.242  0.00  0.00    +0.000 OA
ATOM     15  O   UNL     1     -13.938  59.005  48.299  0.00  0.00    +0.000 OA
ATOM     16  N   UNL     1     -12.404  57.059  48.531  0.00  0.00    +0.000 N 
ATOM     17  C   UNL     1     -14.059  57.636  50.492  0.00  0.00    +0.000 A 
ATOM     18  C   UNL     1     -11.802  56.162  49.406  0.00  0.00    +0.000 C 
ATOM     19  C   UNL     1     -13.177  56.829  51.199  0.00  0.00    +0.000 A 
ATOM     20  C   UNL     1     -14.999  58.454  51.125  0.00  0.00    +0.000 A 
ATOM     21  N   UNL     1     -12.202  55.995  50.630  0.00  0.00    +0.000 N 
ATOM     22  C   UNL     1     -13.243  56.866  52.597  0.00  0.00    +0.000 A 
ATOM     23  C   UNL     1     -15.057  58.465  52.516  0.00  0.00    +0.000 A 
ATOM     24  C   UNL     1     -14.173  57.678  53.253  0.00  0.00    +0.000 A 
ATOM     25  H   UNL     1     -11.896  57.365  47.745  0.00  0.00    +0.000 HD
ATOM     26  H   UNL     1     -11.812  55.268  51.169  0.00  0.00    +0.000 HD
ENDBRANCH   1  18
BRANCH   3  27
ATOM     27  O   UNL     1      -9.134  56.565  50.345  0.00  0.00    +0.000 OA
ATOM     28  H   UNL     1      -9.720  57.280  50.502  0.00  0.00    +0.000 HD
ENDBRANCH   3  27
BRANCH   5  29
ATOM     29  C   UNL     1      -9.900  52.848  46.080  0.00  0.00    +0.000 C 
BRANCH  29  30
ATOM     30  C   UNL     1      -9.999  53.415  44.652  0.00  0.00    +0.000 C 
BRANCH  30  31
ATOM     31  C   UNL     1      -9.720  52.392  43.587  0.00  0.00    +0.000 C 
ATOM     32  C   UNL     1      -8.371  51.753  43.385  0.00  0.00    +0.000 C 
ATOM     33  C   UNL     1      -8.857  52.795  42.418  0.00  0.00    +0.000 C 
ENDBRANCH  30  31
ENDBRANCH  29  30
ENDBRANCH   5  29
TORSDOF 5
ENDMDL
