MODEL 1
REMARK VINA RESULT:      -8.6      0.000      0.000
REMARK  Name = 338168
REMARK  5 active torsions:
REMARK  status: ('A' for Active; 'I' for Inactive)
REMARK    1  A    between atoms: C_6  and  C_10
REMARK    2  A    between atoms: C_14  and  O_18
REMARK    3  A    between atoms: N_17  and  C_21
REMARK    4  A    between atoms: C_21  and  C_24
REMARK    5  A    between atoms: C_24  and  C_27
REMARK                            x       y       z     vdW  Elec       q    Type
REMARK                         _______ _______ _______ _____ _____    ______ ____
ROOT
ATOM      1  C   UNL     1      -9.991  54.546  52.362  0.00  0.00    +0.000 A 
ATOM      2  C   UNL     1      -8.598  55.054  52.254  0.00  0.00    +0.000 A 
ATOM      3  C   UNL     1     -10.247  53.413  53.040  0.00  0.00    +0.000 A 
ATOM      4  O   UNL     1      -8.400  56.001  51.491  0.00  0.00    +0.000 OA
ATOM      5  N   UNL     1      -7.603  54.469  53.038  0.00  0.00    +0.000 N 
ATOM      6  C   UNL     1      -9.167  52.702  53.731  0.00  0.00    +0.000 A 
ATOM      7  C   UNL     1      -7.864  53.242  53.748  0.00  0.00    +0.000 A 
ATOM      8  C   UNL     1      -9.449  51.508  54.420  0.00  0.00    +0.000 A 
ATOM      9  C   UNL     1      -6.873  52.549  54.469  0.00  0.00    +0.000 A 
ATOM     10  C   UNL     1      -8.458  50.868  55.145  0.00  0.00    +0.000 A 
ATOM     11  C   UNL     1      -7.173  51.380  55.178  0.00  0.00    +0.000 A 
ATOM     12  F   UNL     1      -8.748  49.755  55.828  0.00  0.00    +0.000 F 
ENDROOT
BRANCH   1  18
ATOM     13  S   UNL     1     -12.378  55.789  49.427  0.00  0.00    +0.000 S 
ATOM     14  O   UNL     1     -13.054  54.539  49.142  0.00  0.00    +0.000 OA
ATOM     15  O   UNL     1     -11.940  56.680  48.380  0.00  0.00    +0.000 OA
ATOM     16  N   UNL     1     -11.056  55.456  50.357  0.00  0.00    +0.000 N 
ATOM     17  C   UNL     1     -13.368  56.692  50.536  0.00  0.00    +0.000 A 
ATOM     18  C   UNL     1     -11.129  55.278  51.734  0.00  0.00    +0.000 C 
ATOM     19  C   UNL     1     -13.103  56.553  51.895  0.00  0.00    +0.000 A 
ATOM     20  C   UNL     1     -14.366  57.543  50.052  0.00  0.00    +0.000 A 
ATOM     21  N   UNL     1     -12.116  55.722  52.448  0.00  0.00    +0.000 N 
ATOM     22  C   UNL     1     -13.861  57.321  52.786  0.00  0.00    +0.000 A 
ATOM     23  C   UNL     1     -15.120  58.285  50.957  0.00  0.00    +0.000 A 
ATOM     24  C   UNL     1     -14.862  58.181  52.324  0.00  0.00    +0.000 A 
ATOM     25  H   UNL     1     -10.177  55.380  49.918  0.00  0.00    +0.000 HD
ATOM     26  H   UNL     1     -12.174  55.472  53.398  0.00  0.00    +0.000 HD
ENDBRANCH   1  18
BRANCH   3  27
ATOM     27  O   UNL     1     -11.502  52.844  53.176  0.00  0.00    +0.000 OA
ATOM     28  H   UNL     1     -11.745  52.111  52.644  0.00  0.00    +0.000 HD
ENDBRANCH   3  27
BRANCH   5  29
ATOM     29  C   UNL     1      -6.225  55.011  52.973  0.00  0.00    +0.000 C 
BRANCH  29  30
ATOM     30  C   UNL     1      -5.221  54.232  52.104  0.00  0.00    +0.000 C 
BRANCH  30  31
ATOM     31  C   UNL     1      -5.354  54.517  50.635  0.00  0.00    +0.000 C 
ATOM     32  C   UNL     1      -6.136  53.648  49.688  0.00  0.00    +0.000 C 
ATOM     33  C   UNL     1      -4.635  53.614  49.666  0.00  0.00    +0.000 C 
ENDBRANCH  30  31
ENDBRANCH  29  30
ENDBRANCH   5  29
TORSDOF 5
ENDMDL
MODEL 2
REMARK VINA RESULT:      -8.3      3.858      5.441
REMARK  Name = 338168
REMARK  5 active torsions:
REMARK  status: ('A' for Active; 'I' for Inactive)
REMARK    1  A    between atoms: C_6  and  C_10
REMARK    2  A    between atoms: C_14  and  O_18
REMARK    3  A    between atoms: N_17  and  C_21
REMARK    4  A    between atoms: C_21  and  C_24
REMARK    5  A    between atoms: C_24  and  C_27
REMARK                            x       y       z     vdW  Elec       q    Type
REMARK                         _______ _______ _______ _____ _____    ______ ____
ROOT
ATOM      1  C   UNL     1     -11.535  55.753  48.952  0.00  0.00    +0.000 A 
ATOM      2  C   UNL     1     -10.465  55.048  49.706  0.00  0.00    +0.000 A 
ATOM      3  C   UNL     1     -11.712  55.509  47.642  0.00  0.00    +0.000 A 
ATOM      4  O   UNL     1     -10.242  55.426  50.858  0.00  0.00    +0.000 OA
ATOM      5  N   UNL     1      -9.799  53.983  49.098  0.00  0.00    +0.000 N 
ATOM      6  C   UNL     1     -10.896  54.501  46.958  0.00  0.00    +0.000 A 
ATOM      7  C   UNL     1      -9.967  53.731  47.688  0.00  0.00    +0.000 A 
ATOM      8  C   UNL     1     -11.082  54.271  45.582  0.00  0.00    +0.000 A 
ATOM      9  C   UNL     1      -9.244  52.740  46.997  0.00  0.00    +0.000 A 
ATOM     10  C   UNL     1     -10.377  53.267  44.940  0.00  0.00    +0.000 A 
ATOM     11  C   UNL     1      -9.462  52.498  45.636  0.00  0.00    +0.000 A 
ATOM     12  F   UNL     1     -10.591  53.032  43.640  0.00  0.00    +0.000 F 
ENDROOT
BRANCH   1  18
ATOM     13  S   UNL     1     -13.513  59.172  49.453  0.00  0.00    +0.000 S 
ATOM     14  O   UNL     1     -14.507  59.013  48.409  0.00  0.00    +0.000 OA
ATOM     15  O   UNL     1     -12.857  60.433  49.699  0.00  0.00    +0.000 OA
ATOM     16  N   UNL     1     -12.325  58.053  49.205  0.00  0.00    +0.000 N 
ATOM     17  C   UNL     1     -14.212  58.617  50.945  0.00  0.00    +0.000 A 
ATOM     18  C   UNL     1     -12.434  56.734  49.627  0.00  0.00    +0.000 C 
ATOM     19  C   UNL     1     -13.985  57.293  51.309  0.00  0.00    +0.000 A 
ATOM     20  C   UNL     1     -14.943  59.498  51.748  0.00  0.00    +0.000 A 
ATOM     21  N   UNL     1     -13.258  56.359  50.555  0.00  0.00    +0.000 N 
ATOM     22  C   UNL     1     -14.498  56.860  52.537  0.00  0.00    +0.000 A 
ATOM     23  C   UNL     1     -15.459  59.041  52.958  0.00  0.00    +0.000 A 
ATOM     24  C   UNL     1     -15.229  57.725  53.357  0.00  0.00    +0.000 A 
ATOM     25  H   UNL     1     -11.504  58.333  48.738  0.00  0.00    +0.000 HD
ATOM     26  H   UNL     1     -13.375  55.398  50.736  0.00  0.00    +0.000 HD
ENDBRANCH   1  18
BRANCH   3  27
ATOM     27  O   UNL     1     -12.660  56.131  46.846  0.00  0.00    +0.000 OA
ATOM     28  H   UNL     1     -13.048  55.667  46.130  0.00  0.00    +0.000 HD
ENDBRANCH   3  27
BRANCH   5  29
ATOM     29  C   UNL     1      -8.772  53.244  49.868  0.00  0.00    +0.000 C 
BRANCH  29  30
ATOM     30  C   UNL     1      -7.528  54.044  50.299  0.00  0.00    +0.000 C 
BRANCH  30  31
ATOM     31  C   UNL     1      -6.871  54.781  49.167  0.00  0.00    +0.000 C 
ATOM     32  C   UNL     1      -5.936  54.131  48.184  0.00  0.00    +0.000 C 
ATOM     33  C   UNL     1      -5.388  55.036  49.250  0.00  0.00    +0.000 C 
ENDBRANCH  30  31
ENDBRANCH  29  30
ENDBRANCH   5  29
TORSDOF 5
ENDMDL
MODEL 3
REMARK VINA RESULT:      -8.3      3.838      7.407
REMARK  Name = 338168
REMARK  5 active torsions:
REMARK  status: ('A' for Active; 'I' for Inactive)
REMARK    1  A    between atoms: C_6  and  C_10
REMARK    2  A    between atoms: C_14  and  O_18
REMARK    3  A    between atoms: N_17  and  C_21
REMARK    4  A    between atoms: C_21  and  C_24
REMARK    5  A    between atoms: C_24  and  C_27
REMARK                            x       y       z     vdW  Elec       q    Type
REMARK                         _______ _______ _______ _____ _____    ______ ____
ROOT
ATOM      1  C   UNL     1     -10.141  55.116  50.841  0.00  0.00    +0.000 A 
ATOM      2  C   UNL     1      -9.749  55.217  49.410  0.00  0.00    +0.000 A 
ATOM      3  C   UNL     1     -11.347  55.550  51.244  0.00  0.00    +0.000 A 
ATOM      4  O   UNL     1      -8.579  54.957  49.124  0.00  0.00    +0.000 OA
ATOM      5  N   UNL     1     -10.719  55.560  48.468  0.00  0.00    +0.000 N 
ATOM      6  C   UNL     1     -12.313  56.068  50.271  0.00  0.00    +0.000 A 
ATOM      7  C   UNL     1     -12.007  56.049  48.894  0.00  0.00    +0.000 A 
ATOM      8  C   UNL     1     -13.566  56.535  50.713  0.00  0.00    +0.000 A 
ATOM      9  C   UNL     1     -12.987  56.509  47.994  0.00  0.00    +0.000 A 
ATOM     10  C   UNL     1     -14.518  56.952  49.799  0.00  0.00    +0.000 A 
ATOM     11  C   UNL     1     -14.241  56.940  48.443  0.00  0.00    +0.000 A 
ATOM     12  F   UNL     1     -15.719  57.357  50.228  0.00  0.00    +0.000 F 
ENDROOT
BRANCH   1  18
ATOM     13  S   UNL     1      -6.894  54.869  53.133  0.00  0.00    +0.000 S 
ATOM     14  O   UNL     1      -7.190  55.942  54.061  0.00  0.00    +0.000 OA
ATOM     15  O   UNL     1      -5.569  54.660  52.602  0.00  0.00    +0.000 OA
ATOM     16  N   UNL     1      -7.911  55.011  51.841  0.00  0.00    +0.000 N 
ATOM     17  C   UNL     1      -7.440  53.380  53.847  0.00  0.00    +0.000 A 
ATOM     18  C   UNL     1      -9.215  54.529  51.853  0.00  0.00    +0.000 C 
ATOM     19  C   UNL     1      -8.719  52.941  53.521  0.00  0.00    +0.000 A 
ATOM     20  C   UNL     1      -6.592  52.653  54.688  0.00  0.00    +0.000 A 
ATOM     21  N   UNL     1      -9.619  53.616  52.681  0.00  0.00    +0.000 N 
ATOM     22  C   UNL     1      -9.139  51.715  54.049  0.00  0.00    +0.000 A 
ATOM     23  C   UNL     1      -7.036  51.444  55.216  0.00  0.00    +0.000 A 
ATOM     24  C   UNL     1      -8.306  50.970  54.889  0.00  0.00    +0.000 A 
ATOM     25  H   UNL     1      -7.581  55.458  51.028  0.00  0.00    +0.000 HD
ATOM     26  H   UNL     1     -10.576  53.393  52.721  0.00  0.00    +0.000 HD
ENDBRANCH   1  18
BRANCH   3  27
ATOM     27  O   UNL     1     -11.796  55.524  52.555  0.00  0.00    +0.000 OA
ATOM     28  H   UNL     1     -11.253  55.164  53.229  0.00  0.00    +0.000 HD
ENDBRANCH   3  27
BRANCH   5  29
ATOM     29  C   UNL     1     -10.344  55.607  47.035  0.00  0.00    +0.000 C 
BRANCH  29  30
ATOM     30  C   UNL     1     -10.197  54.252  46.318  0.00  0.00    +0.000 C 
BRANCH  30  31
ATOM     31  C   UNL     1     -11.387  53.889  45.477  0.00  0.00    +0.000 C 
ATOM     32  C   UNL     1     -12.023  52.524  45.482  0.00  0.00    +0.000 C 
ATOM     33  C   UNL     1     -11.179  52.951  44.315  0.00  0.00    +0.000 C 
ENDBRANCH  30  31
ENDBRANCH  29  30
ENDBRANCH   5  29
TORSDOF 5
ENDMDL
MODEL 4
REMARK VINA RESULT:      -8.2      3.671      7.271
REMARK  Name = 338168
REMARK  5 active torsions:
REMARK  status: ('A' for Active; 'I' for Inactive)
REMARK    1  A    between atoms: C_6  and  C_10
REMARK    2  A    between atoms: C_14  and  O_18
REMARK    3  A    between atoms: N_17  and  C_21
REMARK    4  A    between atoms: C_21  and  C_24
REMARK    5  A    between atoms: C_24  and  C_27
REMARK                            x       y       z     vdW  Elec       q    Type
REMARK                         _______ _______ _______ _____ _____    ______ ____
ROOT
ATOM      1  C   UNL     1     -10.168  55.434  50.489  0.00  0.00    +0.000 A 
ATOM      2  C   UNL     1     -10.332  55.683  49.033  0.00  0.00    +0.000 A 
ATOM      3  C   UNL     1     -11.203  55.616  51.327  0.00  0.00    +0.000 A 
ATOM      4  O   UNL     1      -9.315  55.659  48.337  0.00  0.00    +0.000 OA
ATOM      5  N   UNL     1     -11.614  55.892  48.524  0.00  0.00    +0.000 N 
ATOM      6  C   UNL     1     -12.519  55.999  50.808  0.00  0.00    +0.000 A 
ATOM      7  C   UNL     1     -12.724  56.112  49.417  0.00  0.00    +0.000 A 
ATOM      8  C   UNL     1     -13.588  56.203  51.701  0.00  0.00    +0.000 A 
ATOM      9  C   UNL     1     -14.019  56.432  48.965  0.00  0.00    +0.000 A 
ATOM     10  C   UNL     1     -14.856  56.486  51.221  0.00  0.00    +0.000 A 
ATOM     11  C   UNL     1     -15.081  56.599  49.861  0.00  0.00    +0.000 A 
ATOM     12  F   UNL     1     -15.871  56.640  52.079  0.00  0.00    +0.000 F 
ENDROOT
BRANCH   1  18
ATOM     13  S   UNL     1      -6.585  53.697  50.487  0.00  0.00    +0.000 S 
ATOM     14  O   UNL     1      -5.868  54.658  49.672  0.00  0.00    +0.000 OA
ATOM     15  O   UNL     1      -6.400  52.274  50.335  0.00  0.00    +0.000 OA
ATOM     16  N   UNL     1      -8.201  53.990  50.325  0.00  0.00    +0.000 N 
ATOM     17  C   UNL     1      -6.319  54.109  52.156  0.00  0.00    +0.000 A 
ATOM     18  C   UNL     1      -8.864  54.973  51.050  0.00  0.00    +0.000 C 
ATOM     19  C   UNL     1      -7.261  54.926  52.775  0.00  0.00    +0.000 A 
ATOM     20  C   UNL     1      -5.210  53.599  52.836  0.00  0.00    +0.000 A 
ATOM     21  N   UNL     1      -8.397  55.467  52.154  0.00  0.00    +0.000 N 
ATOM     22  C   UNL     1      -7.079  55.213  54.132  0.00  0.00    +0.000 A 
ATOM     23  C   UNL     1      -5.040  53.911  54.183  0.00  0.00    +0.000 A 
ATOM     24  C   UNL     1      -5.979  54.710  54.833  0.00  0.00    +0.000 A 
ATOM     25  H   UNL     1      -8.717  53.444  49.688  0.00  0.00    +0.000 HD
ATOM     26  H   UNL     1      -8.850  56.238  52.565  0.00  0.00    +0.000 HD
ENDBRANCH   1  18
BRANCH   3  27
ATOM     27  O   UNL     1     -11.146  55.437  52.700  0.00  0.00    +0.000 OA
ATOM     28  H   UNL     1     -10.365  55.105  53.097  0.00  0.00    +0.000 HD
ENDBRANCH   3  27
BRANCH   5  29
ATOM     29  C   UNL     1     -11.785  56.085  47.064  0.00  0.00    +0.000 C 
BRANCH  29  30
ATOM     30  C   UNL     1     -12.073  54.821  46.233  0.00  0.00    +0.000 C 
BRANCH  30  31
ATOM     31  C   UNL     1     -10.843  54.224  45.610  0.00  0.00    +0.000 C 
ATOM     32  C   UNL     1     -10.882  53.123  44.584  0.00  0.00    +0.000 C 
ATOM     33  C   UNL     1     -10.461  52.817  45.994  0.00  0.00    +0.000 C 
ENDBRANCH  30  31
ENDBRANCH  29  30
ENDBRANCH   5  29
TORSDOF 5
ENDMDL
MODEL 5
REMARK VINA RESULT:      -8.0      3.499      7.964
REMARK  Name = 338168
REMARK  5 active torsions:
REMARK  status: ('A' for Active; 'I' for Inactive)
REMARK    1  A    between atoms: C_6  and  C_10
REMARK    2  A    between atoms: C_14  and  O_18
REMARK    3  A    between atoms: N_17  and  C_21
REMARK    4  A    between atoms: C_21  and  C_24
REMARK    5  A    between atoms: C_24  and  C_27
REMARK                            x       y       z     vdW  Elec       q    Type
REMARK                         _______ _______ _______ _____ _____    ______ ____
ROOT
ATOM      1  C   UNL     1      -9.996  54.410  50.766  0.00  0.00    +0.000 A 
ATOM      2  C   UNL     1     -11.143  55.309  51.059  0.00  0.00    +0.000 A 
ATOM      3  C   UNL     1      -9.774  53.986  49.509  0.00  0.00    +0.000 A 
ATOM      4  O   UNL     1     -11.396  55.534  52.244  0.00  0.00    +0.000 OA
ATOM      5  N   UNL     1     -11.847  55.876  49.996  0.00  0.00    +0.000 N 
ATOM      6  C   UNL     1     -10.619  54.455  48.407  0.00  0.00    +0.000 A 
ATOM      7  C   UNL     1     -11.630  55.409  48.649  0.00  0.00    +0.000 A 
ATOM      8  C   UNL     1     -10.384  53.986  47.101  0.00  0.00    +0.000 A 
ATOM      9  C   UNL     1     -12.381  55.866  47.550  0.00  0.00    +0.000 A 
ATOM     10  C   UNL     1     -11.121  54.480  46.038  0.00  0.00    +0.000 A 
ATOM     11  C   UNL     1     -12.115  55.418  46.251  0.00  0.00    +0.000 A 
ATOM     12  F   UNL     1     -10.862  54.056  44.796  0.00  0.00    +0.000 F 
ENDROOT
BRANCH   1  18
ATOM     13  S   UNL     1      -6.759  54.498  53.083  0.00  0.00    +0.000 S 
ATOM     14  O   UNL     1      -7.075  55.675  53.868  0.00  0.00    +0.000 OA
ATOM     15  O   UNL     1      -5.429  54.243  52.587  0.00  0.00    +0.000 OA
ATOM     16  N   UNL     1      -7.771  54.463  51.780  0.00  0.00    +0.000 N 
ATOM     17  C   UNL     1      -7.289  53.102  53.976  0.00  0.00    +0.000 A 
ATOM     18  C   UNL     1      -9.068  53.967  51.847  0.00  0.00    +0.000 C 
ATOM     19  C   UNL     1      -8.561  52.608  53.702  0.00  0.00    +0.000 A 
ATOM     20  C   UNL     1      -6.436  52.499  54.905  0.00  0.00    +0.000 A 
ATOM     21  N   UNL     1      -9.464  53.161  52.781  0.00  0.00    +0.000 N 
ATOM     22  C   UNL     1      -8.968  51.453  54.378  0.00  0.00    +0.000 A 
ATOM     23  C   UNL     1      -6.868  51.359  55.578  0.00  0.00    +0.000 A 
ATOM     24  C   UNL     1      -8.130  50.831  55.309  0.00  0.00    +0.000 A 
ATOM     25  H   UNL     1      -7.442  54.808  50.918  0.00  0.00    +0.000 HD
ATOM     26  H   UNL     1     -10.419  52.930  52.845  0.00  0.00    +0.000 HD
ENDBRANCH   1  18
BRANCH   3  27
ATOM     27  O   UNL     1      -8.751  53.129  49.137  0.00  0.00    +0.000 OA
ATOM     28  H   UNL     1      -7.928  53.476  48.853  0.00  0.00    +0.000 HD
ENDBRANCH   3  27
BRANCH   5  29
ATOM     29  C   UNL     1     -12.955  56.815  50.287  0.00  0.00    +0.000 C 
BRANCH  29  30
ATOM     30  C   UNL     1     -14.312  56.185  50.653  0.00  0.00    +0.000 C 
BRANCH  30  31
ATOM     31  C   UNL     1     -15.282  57.164  51.252  0.00  0.00    +0.000 C 
ATOM     32  C   UNL     1     -14.871  58.287  52.166  0.00  0.00    +0.000 C 
ATOM     33  C   UNL     1     -15.558  57.077  52.732  0.00  0.00    +0.000 C 
ENDBRANCH  30  31
ENDBRANCH  29  30
ENDBRANCH   5  29
TORSDOF 5
ENDMDL
MODEL 6
REMARK VINA RESULT:      -8.0      3.608      5.249
REMARK  Name = 338168
REMARK  5 active torsions:
REMARK  status: ('A' for Active; 'I' for Inactive)
REMARK    1  A    between atoms: C_6  and  C_10
REMARK    2  A    between atoms: C_14  and  O_18
REMARK    3  A    between atoms: N_17  and  C_21
REMARK    4  A    between atoms: C_21  and  C_24
REMARK    5  A    between atoms: C_24  and  C_27
REMARK                            x       y       z     vdW  Elec       q    Type
REMARK                         _______ _______ _______ _____ _____    ______ ____
ROOT
ATOM      1  C   UNL     1     -10.386  55.830  49.015  0.00  0.00    +0.000 A 
ATOM      2  C   UNL     1     -10.270  55.347  47.614  0.00  0.00    +0.000 A 
ATOM      3  C   UNL     1      -9.347  55.708  49.860  0.00  0.00    +0.000 A 
ATOM      4  O   UNL     1     -11.298  55.334  46.934  0.00  0.00    +0.000 OA
ATOM      5  N   UNL     1      -9.016  54.971  47.130  0.00  0.00    +0.000 N 
ATOM      6  C   UNL     1      -8.072  55.157  49.394  0.00  0.00    +0.000 A 
ATOM      7  C   UNL     1      -7.904  54.816  48.035  0.00  0.00    +0.000 A 
ATOM      8  C   UNL     1      -7.000  55.019  50.297  0.00  0.00    +0.000 A 
ATOM      9  C   UNL     1      -6.645  54.339  47.625  0.00  0.00    +0.000 A 
ATOM     10  C   UNL     1      -5.765  54.577  49.853  0.00  0.00    +0.000 A 
ATOM     11  C   UNL     1      -5.578  54.239  48.525  0.00  0.00    +0.000 A 
ATOM     12  F   UNL     1      -4.744  54.487  50.713  0.00  0.00    +0.000 F 
ENDROOT
BRANCH   1  18
ATOM     13  S   UNL     1     -13.849  57.781  48.778  0.00  0.00    +0.000 S 
ATOM     14  O   UNL     1     -14.645  56.751  48.141  0.00  0.00    +0.000 OA
ATOM     15  O   UNL     1     -13.946  59.169  48.397  0.00  0.00    +0.000 OA
ATOM     16  N   UNL     1     -12.259  57.357  48.644  0.00  0.00    +0.000 N 
ATOM     17  C   UNL     1     -14.099  57.664  50.495  0.00  0.00    +0.000 A 
ATOM     18  C   UNL     1     -11.643  56.462  49.510  0.00  0.00    +0.000 C 
ATOM     19  C   UNL     1     -13.197  56.897  51.226  0.00  0.00    +0.000 A 
ATOM     20  C   UNL     1     -15.157  58.352  51.098  0.00  0.00    +0.000 A 
ATOM     21  N   UNL     1     -12.113  56.187  50.687  0.00  0.00    +0.000 N 
ATOM     22  C   UNL     1     -13.363  56.847  52.615  0.00  0.00    +0.000 A 
ATOM     23  C   UNL     1     -15.313  58.275  52.479  0.00  0.00    +0.000 A 
ATOM     24  C   UNL     1     -14.411  57.531  53.239  0.00  0.00    +0.000 A 
ATOM     25  H   UNL     1     -11.725  57.755  47.918  0.00  0.00    +0.000 HD
ATOM     26  H   UNL     1     -11.701  55.464  51.213  0.00  0.00    +0.000 HD
ENDBRANCH   1  18
BRANCH   3  27
ATOM     27  O   UNL     1      -9.363  56.101  51.189  0.00  0.00    +0.000 OA
ATOM     28  H   UNL     1      -9.183  56.992  51.416  0.00  0.00    +0.000 HD
ENDBRANCH   3  27
BRANCH   5  29
ATOM     29  C   UNL     1      -8.890  54.543  45.717  0.00  0.00    +0.000 C 
BRANCH  29  30
ATOM     30  C   UNL     1      -9.275  53.085  45.404  0.00  0.00    +0.000 C 
BRANCH  30  31
ATOM     31  C   UNL     1     -10.443  52.964  44.468  0.00  0.00    +0.000 C 
ATOM     32  C   UNL     1     -11.815  52.521  44.903  0.00  0.00    +0.000 C 
ATOM     33  C   UNL     1     -10.939  51.583  44.121  0.00  0.00    +0.000 C 
ENDBRANCH  30  31
ENDBRANCH  29  30
ENDBRANCH   5  29
TORSDOF 5
ENDMDL
MODEL 7
REMARK VINA RESULT:      -8.0      3.225      4.352
REMARK  Name = 338168
REMARK  5 active torsions:
REMARK  status: ('A' for Active; 'I' for Inactive)
REMARK    1  A    between atoms: C_6  and  C_10
REMARK    2  A    between atoms: C_14  and  O_18
REMARK    3  A    between atoms: N_17  and  C_21
REMARK    4  A    between atoms: C_21  and  C_24
REMARK    5  A    between atoms: C_24  and  C_27
REMARK                            x       y       z     vdW  Elec       q    Type
REMARK                         _______ _______ _______ _____ _____    ______ ____
ROOT
ATOM      1  C   UNL     1     -12.202  54.392  50.252  0.00  0.00    +0.000 A 
ATOM      2  C   UNL     1     -12.015  53.902  48.860  0.00  0.00    +0.000 A 
ATOM      3  C   UNL     1     -11.694  53.700  51.286  0.00  0.00    +0.000 A 
ATOM      4  O   UNL     1     -12.637  54.482  47.968  0.00  0.00    +0.000 OA
ATOM      5  N   UNL     1     -11.130  52.848  48.629  0.00  0.00    +0.000 N 
ATOM      6  C   UNL     1     -10.896  52.492  51.051  0.00  0.00    +0.000 A 
ATOM      7  C   UNL     1     -10.600  52.087  49.732  0.00  0.00    +0.000 A 
ATOM      8  C   UNL     1     -10.387  51.770  52.146  0.00  0.00    +0.000 A 
ATOM      9  C   UNL     1      -9.788  50.951  49.559  0.00  0.00    +0.000 A 
ATOM     10  C   UNL     1      -9.566  50.674  51.940  0.00  0.00    +0.000 A 
ATOM     11  C   UNL     1      -9.260  50.260  50.656  0.00  0.00    +0.000 A 
ATOM     12  F   UNL     1      -9.056  50.019  52.989  0.00  0.00    +0.000 F 
ENDROOT
BRANCH   1  18
ATOM     13  S   UNL     1     -14.478  56.930  52.309  0.00  0.00    +0.000 S 
ATOM     14  O   UNL     1     -13.537  57.280  53.355  0.00  0.00    +0.000 OA
ATOM     15  O   UNL     1     -15.873  56.690  52.585  0.00  0.00    +0.000 OA
ATOM     16  N   UNL     1     -13.906  55.591  51.532  0.00  0.00    +0.000 N 
ATOM     17  C   UNL     1     -14.363  58.136  51.062  0.00  0.00    +0.000 A 
ATOM     18  C   UNL     1     -12.945  55.655  50.530  0.00  0.00    +0.000 C 
ATOM     19  C   UNL     1     -13.505  57.880  49.997  0.00  0.00    +0.000 A 
ATOM     20  C   UNL     1     -15.141  59.295  51.133  0.00  0.00    +0.000 A 
ATOM     21  N   UNL     1     -12.701  56.738  49.860  0.00  0.00    +0.000 N 
ATOM     22  C   UNL     1     -13.453  58.823  48.964  0.00  0.00    +0.000 A 
ATOM     23  C   UNL     1     -15.062  60.227  50.102  0.00  0.00    +0.000 A 
ATOM     24  C   UNL     1     -14.225  59.987  49.013  0.00  0.00    +0.000 A 
ATOM     25  H   UNL     1     -14.261  54.709  51.790  0.00  0.00    +0.000 HD
ATOM     26  H   UNL     1     -11.936  56.758  49.241  0.00  0.00    +0.000 HD
ENDBRANCH   1  18
BRANCH   3  27
ATOM     27  O   UNL     1     -11.835  54.057  52.617  0.00  0.00    +0.000 OA
ATOM     28  H   UNL     1     -11.305  53.645  53.272  0.00  0.00    +0.000 HD
ENDBRANCH   3  27
BRANCH   5  29
ATOM     29  C   UNL     1     -10.901  52.396  47.236  0.00  0.00    +0.000 C 
BRANCH  29  30
ATOM     30  C   UNL     1      -9.574  52.826  46.584  0.00  0.00    +0.000 C 
BRANCH  30  31
ATOM     31  C   UNL     1      -9.465  54.310  46.376  0.00  0.00    +0.000 C 
ATOM     32  C   UNL     1      -8.262  54.978  45.766  0.00  0.00    +0.000 C 
ATOM     33  C   UNL     1      -8.506  55.083  47.245  0.00  0.00    +0.000 C 
ENDBRANCH  30  31
ENDBRANCH  29  30
ENDBRANCH   5  29
TORSDOF 5
ENDMDL
MODEL 8
REMARK VINA RESULT:      -7.9      3.596      7.538
REMARK  Name = 338168
REMARK  5 active torsions:
REMARK  status: ('A' for Active; 'I' for Inactive)
REMARK    1  A    between atoms: C_6  and  C_10
REMARK    2  A    between atoms: C_14  and  O_18
REMARK    3  A    between atoms: N_17  and  C_21
REMARK    4  A    between atoms: C_21  and  C_24
REMARK    5  A    between atoms: C_24  and  C_27
REMARK                            x       y       z     vdW  Elec       q    Type
REMARK                         _______ _______ _______ _____ _____    ______ ____
ROOT
ATOM      1  C   UNL     1     -10.005  55.460  50.428  0.00  0.00    +0.000 A 
ATOM      2  C   UNL     1     -10.208  55.707  48.976  0.00  0.00    +0.000 A 
ATOM      3  C   UNL     1     -11.025  55.616  51.290  0.00  0.00    +0.000 A 
ATOM      4  O   UNL     1      -9.207  55.708  48.258  0.00  0.00    +0.000 OA
ATOM      5  N   UNL     1     -11.506  55.886  48.497  0.00  0.00    +0.000 N 
ATOM      6  C   UNL     1     -12.362  55.967  50.802  0.00  0.00    +0.000 A 
ATOM      7  C   UNL     1     -12.601  56.077  49.416  0.00  0.00    +0.000 A 
ATOM      8  C   UNL     1     -13.414  56.144  51.719  0.00  0.00    +0.000 A 
ATOM      9  C   UNL     1     -13.912  56.365  48.994  0.00  0.00    +0.000 A 
ATOM     10  C   UNL     1     -14.699  56.397  51.269  0.00  0.00    +0.000 A 
ATOM     11  C   UNL     1     -14.958  56.506  49.914  0.00  0.00    +0.000 A 
ATOM     12  F   UNL     1     -15.698  56.524  52.149  0.00  0.00    +0.000 F 
ENDROOT
BRANCH   1  18
ATOM     13  S   UNL     1      -7.118  54.970  53.127  0.00  0.00    +0.000 S 
ATOM     14  O   UNL     1      -7.749  53.958  53.951  0.00  0.00    +0.000 OA
ATOM     15  O   UNL     1      -6.378  56.070  53.697  0.00  0.00    +0.000 OA
ATOM     16  N   UNL     1      -8.272  55.626  52.147  0.00  0.00    +0.000 N 
ATOM     17  C   UNL     1      -6.098  54.161  51.975  0.00  0.00    +0.000 A 
ATOM     18  C   UNL     1      -8.678  55.031  50.958  0.00  0.00    +0.000 C 
ATOM     19  C   UNL     1      -6.640  53.872  50.726  0.00  0.00    +0.000 A 
ATOM     20  C   UNL     1      -4.774  53.853  52.304  0.00  0.00    +0.000 A 
ATOM     21  N   UNL     1      -7.955  54.158  50.328  0.00  0.00    +0.000 N 
ATOM     22  C   UNL     1      -5.804  53.272  49.778  0.00  0.00    +0.000 A 
ATOM     23  C   UNL     1      -3.965  53.241  51.351  0.00  0.00    +0.000 A 
ATOM     24  C   UNL     1      -4.476  52.959  50.085  0.00  0.00    +0.000 A 
ATOM     25  H   UNL     1      -8.692  56.476  52.416  0.00  0.00    +0.000 HD
ATOM     26  H   UNL     1      -8.338  53.686  49.553  0.00  0.00    +0.000 HD
ENDBRANCH   1  18
BRANCH   3  27
ATOM     27  O   UNL     1     -10.932  55.437  52.661  0.00  0.00    +0.000 OA
ATOM     28  H   UNL     1     -10.093  55.439  53.078  0.00  0.00    +0.000 HD
ENDBRANCH   3  27
BRANCH   5  29
ATOM     29  C   UNL     1     -11.715  56.076  47.042  0.00  0.00    +0.000 C 
BRANCH  29  30
ATOM     30  C   UNL     1     -12.017  54.809  46.220  0.00  0.00    +0.000 C 
BRANCH  30  31
ATOM     31  C   UNL     1     -10.797  54.202  45.589  0.00  0.00    +0.000 C 
ATOM     32  C   UNL     1     -10.851  53.094  44.572  0.00  0.00    +0.000 C 
ATOM     33  C   UNL     1     -10.418  52.796  45.979  0.00  0.00    +0.000 C 
ENDBRANCH  30  31
ENDBRANCH  29  30
ENDBRANCH   5  29
TORSDOF 5
ENDMDL
MODEL 9
REMARK VINA RESULT:      -7.8      1.521      2.178
REMARK  Name = 338168
REMARK  5 active torsions:
REMARK  status: ('A' for Active; 'I' for Inactive)
REMARK    1  A    between atoms: C_6  and  C_10
REMARK    2  A    between atoms: C_14  and  O_18
REMARK    3  A    between atoms: N_17  and  C_21
REMARK    4  A    between atoms: C_21  and  C_24
REMARK    5  A    between atoms: C_24  and  C_27
REMARK                            x       y       z     vdW  Elec       q    Type
REMARK                         _______ _______ _______ _____ _____    ______ ____
ROOT
ATOM      1  C   UNL     1     -10.142  54.538  52.074  0.00  0.00    +0.000 A 
ATOM      2  C   UNL     1      -8.757  55.078  52.071  0.00  0.00    +0.000 A 
ATOM      3  C   UNL     1     -10.424  53.404  52.738  0.00  0.00    +0.000 A 
ATOM      4  O   UNL     1      -8.521  56.024  51.318  0.00  0.00    +0.000 OA
ATOM      5  N   UNL     1      -7.814  54.521  52.936  0.00  0.00    +0.000 N 
ATOM      6  C   UNL     1      -9.387  52.723  53.519  0.00  0.00    +0.000 A 
ATOM      7  C   UNL     1      -8.101  53.293  53.633  0.00  0.00    +0.000 A 
ATOM      8  C   UNL     1      -9.695  51.526  54.194  0.00  0.00    +0.000 A 
ATOM      9  C   UNL     1      -7.155  52.628  54.436  0.00  0.00    +0.000 A 
ATOM     10  C   UNL     1      -8.750  50.915  55.000  0.00  0.00    +0.000 A 
ATOM     11  C   UNL     1      -7.483  51.457  55.129  0.00  0.00    +0.000 A 
ATOM     12  F   UNL     1      -9.067  49.800  55.667  0.00  0.00    +0.000 F 
ENDROOT
BRANCH   1  18
ATOM     13  S   UNL     1     -13.562  56.532  51.651  0.00  0.00    +0.000 S 
ATOM     14  O   UNL     1     -13.153  57.804  52.215  0.00  0.00    +0.000 OA
ATOM     15  O   UNL     1     -14.853  55.951  51.930  0.00  0.00    +0.000 OA
ATOM     16  N   UNL     1     -12.430  55.403  52.057  0.00  0.00    +0.000 N 
ATOM     17  C   UNL     1     -13.363  56.624  49.926  0.00  0.00    +0.000 A 
ATOM     18  C   UNL     1     -11.243  55.239  51.352  0.00  0.00    +0.000 C 
ATOM     19  C   UNL     1     -12.163  56.165  49.391  0.00  0.00    +0.000 A 
ATOM     20  C   UNL     1     -14.399  57.115  49.125  0.00  0.00    +0.000 A 
ATOM     21  N   UNL     1     -11.087  55.656  50.134  0.00  0.00    +0.000 N 
ATOM     22  C   UNL     1     -12.023  56.185  47.999  0.00  0.00    +0.000 A 
ATOM     23  C   UNL     1     -14.232  57.141  47.743  0.00  0.00    +0.000 A 
ATOM     24  C   UNL     1     -13.048  56.668  47.179  0.00  0.00    +0.000 A 
ATOM     25  H   UNL     1     -12.601  54.820  52.833  0.00  0.00    +0.000 HD
ATOM     26  H   UNL     1     -10.194  55.615  49.723  0.00  0.00    +0.000 HD
ENDBRANCH   1  18
BRANCH   3  27
ATOM     27  O   UNL     1     -11.673  52.806  52.780  0.00  0.00    +0.000 OA
ATOM     28  H   UNL     1     -12.071  52.495  51.991  0.00  0.00    +0.000 HD
ENDBRANCH   3  27
BRANCH   5  29
ATOM     29  C   UNL     1      -6.448  55.095  52.975  0.00  0.00    +0.000 C 
BRANCH  29  30
ATOM     30  C   UNL     1      -5.347  54.299  52.249  0.00  0.00    +0.000 C 
BRANCH  30  31
ATOM     31  C   UNL     1      -5.376  54.465  50.756  0.00  0.00    +0.000 C 
ATOM     32  C   UNL     1      -6.128  53.545  49.832  0.00  0.00    +0.000 C 
ATOM     33  C   UNL     1      -4.630  53.463  49.913  0.00  0.00    +0.000 C 
ENDBRANCH  30  31
ENDBRANCH  29  30
ENDBRANCH   5  29
TORSDOF 5
ENDMDL
