MODEL 1
REMARK VINA RESULT:      -8.4      0.000      0.000
REMARK  Name = 338609
REMARK  5 active torsions:
REMARK  status: ('A' for Active; 'I' for Inactive)
REMARK    1  A    between atoms: N_17  and  C_21
REMARK    2  A    between atoms: C_21  and  C_24
REMARK    3  A    between atoms: C_24  and  C_27
REMARK    4  A    between atoms: C_27  and  C_28
REMARK    5  A    between atoms: C_27  and  C_29
REMARK                            x       y       z     vdW  Elec       q    Type
REMARK                         _______ _______ _______ _____ _____    ______ ____
ROOT
ATOM      1  S   UNL     1      -6.731  53.451  50.541  0.00  0.00    +0.000 S 
ATOM      2  O   UNL     1      -5.714  54.150  49.778  0.00  0.00    +0.000 OA
ATOM      3  O   UNL     1      -6.787  52.004  50.532  0.00  0.00    +0.000 OA
ATOM      4  N   UNL     1      -8.189  54.014  50.117  0.00  0.00    +0.000 N 
ATOM      5  C   UNL     1      -6.445  53.893  52.220  0.00  0.00    +0.000 A 
ATOM      6  C   UNL     1      -8.866  54.793  50.894  0.00  0.00    +0.000 C 
ATOM      7  C   UNL     1      -7.365  54.728  52.829  0.00  0.00    +0.000 A 
ATOM      8  C   UNL     1      -5.333  53.395  52.906  0.00  0.00    +0.000 A 
ATOM      9  N   UNL     1     -10.132  55.232  50.453  0.00  0.00    +0.000 N 
ATOM     10  N   UNL     1      -8.457  55.229  52.132  0.00  0.00    +0.000 N 
ATOM     11  C   UNL     1      -7.142  55.110  54.156  0.00  0.00    +0.000 A 
ATOM     12  C   UNL     1      -5.135  53.765  54.235  0.00  0.00    +0.000 A 
ATOM     13  C   UNL     1     -11.131  55.453  51.399  0.00  0.00    +0.000 A 
ATOM     14  C   UNL     1     -10.304  55.508  49.102  0.00  0.00    +0.000 A 
ATOM     15  C   UNL     1      -6.039  54.625  54.860  0.00  0.00    +0.000 A 
ATOM     16  O   UNL     1     -10.891  55.412  52.614  0.00  0.00    +0.000 OA
ATOM     17  N   UNL     1     -12.415  55.761  50.954  0.00  0.00    +0.000 N 
ATOM     18  O   UNL     1      -9.402  55.585  48.269  0.00  0.00    +0.000 OA
ATOM     19  C   UNL     1     -11.645  55.921  48.659  0.00  0.00    +0.000 A 
ATOM     20  C   UNL     1     -12.663  56.082  49.593  0.00  0.00    +0.000 A 
ATOM     21  C   UNL     1     -11.852  56.237  47.304  0.00  0.00    +0.000 A 
ATOM     22  C   UNL     1     -13.882  56.614  49.148  0.00  0.00    +0.000 A 
ATOM     23  C   UNL     1     -13.081  56.730  46.876  0.00  0.00    +0.000 A 
ATOM     24  C   UNL     1     -14.095  56.925  47.803  0.00  0.00    +0.000 A 
ATOM     25  H   UNL     1      -8.568  53.756  49.247  0.00  0.00    +0.000 HD
ATOM     26  H   UNL     1      -8.977  55.949  52.556  0.00  0.00    +0.000 HD
ENDROOT
BRANCH  17  27
ATOM     27  C   UNL     1     -13.473  55.918  51.969  0.00  0.00    +0.000 C 
BRANCH  27  28
ATOM     28  C   UNL     1     -13.566  57.291  52.657  0.00  0.00    +0.000 C 
BRANCH  28  29
ATOM     29  C   UNL     1     -14.951  57.956  52.704  0.00  0.00    +0.000 C 
ATOM     30  C   UNL     1     -15.014  59.242  51.884  0.00  0.00    +0.000 C 
ATOM     31  C   UNL     1     -15.989  56.956  52.175  0.00  0.00    +0.000 C 
ENDBRANCH  28  29
ENDBRANCH  27  28
ENDBRANCH  17  27
TORSDOF 3
ENDMDL
MODEL 2
REMARK VINA RESULT:      -8.4      4.377      8.013
REMARK  Name = 338609
REMARK  5 active torsions:
REMARK  status: ('A' for Active; 'I' for Inactive)
REMARK    1  A    between atoms: N_17  and  C_21
REMARK    2  A    between atoms: C_21  and  C_24
REMARK    3  A    between atoms: C_24  and  C_27
REMARK    4  A    between atoms: C_27  and  C_28
REMARK    5  A    between atoms: C_27  and  C_29
REMARK                            x       y       z     vdW  Elec       q    Type
REMARK                         _______ _______ _______ _____ _____    ______ ____
ROOT
ATOM      1  S   UNL     1     -15.102  56.379  51.114  0.00  0.00    +0.000 S 
ATOM      2  O   UNL     1     -14.863  56.435  52.545  0.00  0.00    +0.000 OA
ATOM      3  O   UNL     1     -16.436  56.142  50.604  0.00  0.00    +0.000 OA
ATOM      4  N   UNL     1     -14.110  55.281  50.457  0.00  0.00    +0.000 N 
ATOM      5  C   UNL     1     -14.644  57.962  50.500  0.00  0.00    +0.000 A 
ATOM      6  C   UNL     1     -13.082  55.631  49.757  0.00  0.00    +0.000 C 
ATOM      7  C   UNL     1     -13.495  58.045  49.733  0.00  0.00    +0.000 A 
ATOM      8  C   UNL     1     -15.434  59.084  50.769  0.00  0.00    +0.000 A 
ATOM      9  N   UNL     1     -12.273  54.612  49.212  0.00  0.00    +0.000 N 
ATOM     10  N   UNL     1     -12.709  56.926  49.487  0.00  0.00    +0.000 N 
ATOM     11  C   UNL     1     -13.102  59.300  49.257  0.00  0.00    +0.000 A 
ATOM     12  C   UNL     1     -15.043  60.325  50.268  0.00  0.00    +0.000 A 
ATOM     13  C   UNL     1     -11.642  54.839  47.989  0.00  0.00    +0.000 A 
ATOM     14  C   UNL     1     -12.071  53.456  49.956  0.00  0.00    +0.000 A 
ATOM     15  C   UNL     1     -13.875  60.433  49.513  0.00  0.00    +0.000 A 
ATOM     16  O   UNL     1     -11.660  55.955  47.451  0.00  0.00    +0.000 OA
ATOM     17  N   UNL     1     -10.950  53.789  47.390  0.00  0.00    +0.000 N 
ATOM     18  O   UNL     1     -12.381  53.305  51.137  0.00  0.00    +0.000 OA
ATOM     19  C   UNL     1     -11.261  52.389  49.348  0.00  0.00    +0.000 A 
ATOM     20  C   UNL     1     -10.680  52.588  48.099  0.00  0.00    +0.000 A 
ATOM     21  C   UNL     1     -11.010  51.215  50.081  0.00  0.00    +0.000 A 
ATOM     22  C   UNL     1      -9.801  51.605  47.621  0.00  0.00    +0.000 A 
ATOM     23  C   UNL     1     -10.162  50.236  49.574  0.00  0.00    +0.000 A 
ATOM     24  C   UNL     1      -9.552  50.436  48.344  0.00  0.00    +0.000 A 
ATOM     25  H   UNL     1     -14.294  54.324  50.594  0.00  0.00    +0.000 HD
ATOM     26  H   UNL     1     -11.821  57.072  49.089  0.00  0.00    +0.000 HD
ENDROOT
BRANCH  17  27
ATOM     27  C   UNL     1     -10.353  54.030  46.064  0.00  0.00    +0.000 C 
BRANCH  27  28
ATOM     28  C   UNL     1     -11.160  53.543  44.847  0.00  0.00    +0.000 C 
BRANCH  28  29
ATOM     29  C   UNL     1     -10.415  52.680  43.816  0.00  0.00    +0.000 C 
ATOM     30  C   UNL     1      -8.898  52.764  43.967  0.00  0.00    +0.000 C 
ATOM     31  C   UNL     1     -10.870  51.223  43.980  0.00  0.00    +0.000 C 
ENDBRANCH  28  29
ENDBRANCH  27  28
ENDBRANCH  17  27
TORSDOF 3
ENDMDL
MODEL 3
REMARK VINA RESULT:      -8.2      3.132      6.866
REMARK  Name = 338609
REMARK  5 active torsions:
REMARK  status: ('A' for Active; 'I' for Inactive)
REMARK    1  A    between atoms: N_17  and  C_21
REMARK    2  A    between atoms: C_21  and  C_24
REMARK    3  A    between atoms: C_24  and  C_27
REMARK    4  A    between atoms: C_27  and  C_28
REMARK    5  A    between atoms: C_27  and  C_29
REMARK                            x       y       z     vdW  Elec       q    Type
REMARK                         _______ _______ _______ _____ _____    ______ ____
ROOT
ATOM      1  S   UNL     1     -13.515  58.972  49.367  0.00  0.00    +0.000 S 
ATOM      2  O   UNL     1     -14.642  59.150  48.470  0.00  0.00    +0.000 OA
ATOM      3  O   UNL     1     -12.613  60.073  49.634  0.00  0.00    +0.000 OA
ATOM      4  N   UNL     1     -12.635  57.710  48.865  0.00  0.00    +0.000 N 
ATOM      5  C   UNL     1     -14.218  58.560  50.926  0.00  0.00    +0.000 A 
ATOM      6  C   UNL     1     -12.655  56.579  49.490  0.00  0.00    +0.000 C 
ATOM      7  C   UNL     1     -14.057  57.262  51.379  0.00  0.00    +0.000 A 
ATOM      8  C   UNL     1     -14.895  59.525  51.678  0.00  0.00    +0.000 A 
ATOM      9  N   UNL     1     -11.852  55.532  48.992  0.00  0.00    +0.000 N 
ATOM     10  N   UNL     1     -13.396  56.308  50.616  0.00  0.00    +0.000 N 
ATOM     11  C   UNL     1     -14.630  56.909  52.605  0.00  0.00    +0.000 A 
ATOM     12  C   UNL     1     -15.441  59.165  52.909  0.00  0.00    +0.000 A 
ATOM     13  C   UNL     1     -11.307  54.620  49.894  0.00  0.00    +0.000 A 
ATOM     14  C   UNL     1     -11.707  55.405  47.616  0.00  0.00    +0.000 A 
ATOM     15  C   UNL     1     -15.310  57.856  53.373  0.00  0.00    +0.000 A 
ATOM     16  O   UNL     1     -11.628  54.623  51.090  0.00  0.00    +0.000 OA
ATOM     17  N   UNL     1     -10.411  53.665  49.418  0.00  0.00    +0.000 N 
ATOM     18  O   UNL     1     -12.364  56.010  46.770  0.00  0.00    +0.000 OA
ATOM     19  C   UNL     1     -10.827  54.333  47.122  0.00  0.00    +0.000 A 
ATOM     20  C   UNL     1     -10.231  53.457  48.024  0.00  0.00    +0.000 A 
ATOM     21  C   UNL     1     -10.677  54.154  45.735  0.00  0.00    +0.000 A 
ATOM     22  C   UNL     1      -9.519  52.367  47.504  0.00  0.00    +0.000 A 
ATOM     23  C   UNL     1      -9.937  53.085  45.240  0.00  0.00    +0.000 A 
ATOM     24  C   UNL     1      -9.363  52.186  46.127  0.00  0.00    +0.000 A 
ATOM     25  H   UNL     1     -12.070  57.807  48.066  0.00  0.00    +0.000 HD
ATOM     26  H   UNL     1     -13.463  55.369  50.902  0.00  0.00    +0.000 HD
ENDROOT
BRANCH  17  27
ATOM     27  C   UNL     1      -9.791  52.757  50.400  0.00  0.00    +0.000 C 
BRANCH  27  28
ATOM     28  C   UNL     1      -8.451  53.211  51.006  0.00  0.00    +0.000 C 
BRANCH  28  29
ATOM     29  C   UNL     1      -8.425  53.480  52.519  0.00  0.00    +0.000 C 
ATOM     30  C   UNL     1      -8.592  54.960  52.856  0.00  0.00    +0.000 C 
ATOM     31  C   UNL     1      -9.552  52.671  53.177  0.00  0.00    +0.000 C 
ENDBRANCH  28  29
ENDBRANCH  27  28
ENDBRANCH  17  27
TORSDOF 3
ENDMDL
MODEL 4
REMARK VINA RESULT:      -8.0      3.084      7.190
REMARK  Name = 338609
REMARK  5 active torsions:
REMARK  status: ('A' for Active; 'I' for Inactive)
REMARK    1  A    between atoms: N_17  and  C_21
REMARK    2  A    between atoms: C_21  and  C_24
REMARK    3  A    between atoms: C_24  and  C_27
REMARK    4  A    between atoms: C_27  and  C_28
REMARK    5  A    between atoms: C_27  and  C_29
REMARK                            x       y       z     vdW  Elec       q    Type
REMARK                         _______ _______ _______ _____ _____    ______ ____
ROOT
ATOM      1  S   UNL     1     -13.801  56.977  49.155  0.00  0.00    +0.000 S 
ATOM      2  O   UNL     1     -15.042  56.466  48.602  0.00  0.00    +0.000 OA
ATOM      3  O   UNL     1     -13.082  58.037  48.480  0.00  0.00    +0.000 OA
ATOM      4  N   UNL     1     -12.779  55.742  49.385  0.00  0.00    +0.000 N 
ATOM      5  C   UNL     1     -14.225  57.633  50.731  0.00  0.00    +0.000 A 
ATOM      6  C   UNL     1     -12.524  55.286  50.567  0.00  0.00    +0.000 C 
ATOM      7  C   UNL     1     -13.783  56.950  51.850  0.00  0.00    +0.000 A 
ATOM      8  C   UNL     1     -14.965  58.815  50.832  0.00  0.00    +0.000 A 
ATOM      9  N   UNL     1     -11.614  54.214  50.681  0.00  0.00    +0.000 N 
ATOM     10  N   UNL     1     -13.062  55.768  51.736  0.00  0.00    +0.000 N 
ATOM     11  C   UNL     1     -14.131  57.443  53.112  0.00  0.00    +0.000 A 
ATOM     12  C   UNL     1     -15.285  59.309  52.096  0.00  0.00    +0.000 A 
ATOM     13  C   UNL     1     -10.811  54.136  51.818  0.00  0.00    +0.000 A 
ATOM     14  C   UNL     1     -11.617  53.235  49.696  0.00  0.00    +0.000 A 
ATOM     15  C   UNL     1     -14.869  58.621  53.237  0.00  0.00    +0.000 A 
ATOM     16  O   UNL     1     -10.980  54.896  52.782  0.00  0.00    +0.000 OA
ATOM     17  N   UNL     1      -9.825  53.153  51.872  0.00  0.00    +0.000 N 
ATOM     18  O   UNL     1     -12.469  53.109  48.818  0.00  0.00    +0.000 OA
ATOM     19  C   UNL     1     -10.629  52.150  49.814  0.00  0.00    +0.000 A 
ATOM     20  C   UNL     1      -9.782  52.103  50.917  0.00  0.00    +0.000 A 
ATOM     21  C   UNL     1     -10.619  51.124  48.852  0.00  0.00    +0.000 A 
ATOM     22  C   UNL     1      -8.957  50.978  51.061  0.00  0.00    +0.000 A 
ATOM     23  C   UNL     1      -9.768  50.033  48.995  0.00  0.00    +0.000 A 
ATOM     24  C   UNL     1      -8.941  49.958  50.106  0.00  0.00    +0.000 A 
ATOM     25  H   UNL     1     -12.341  55.330  48.606  0.00  0.00    +0.000 HD
ATOM     26  H   UNL     1     -12.926  55.236  52.553  0.00  0.00    +0.000 HD
ENDROOT
BRANCH  17  27
ATOM     27  C   UNL     1      -8.940  53.135  53.051  0.00  0.00    +0.000 C 
BRANCH  27  28
ATOM     28  C   UNL     1      -7.625  53.926  52.935  0.00  0.00    +0.000 C 
BRANCH  28  29
ATOM     29  C   UNL     1      -7.268  54.860  54.102  0.00  0.00    +0.000 C 
ATOM     30  C   UNL     1      -6.111  54.331  54.946  0.00  0.00    +0.000 C 
ATOM     31  C   UNL     1      -6.900  56.237  53.528  0.00  0.00    +0.000 C 
ENDBRANCH  28  29
ENDBRANCH  27  28
ENDBRANCH  17  27
TORSDOF 3
ENDMDL
MODEL 5
REMARK VINA RESULT:      -7.9      3.026      6.959
REMARK  Name = 338609
REMARK  5 active torsions:
REMARK  status: ('A' for Active; 'I' for Inactive)
REMARK    1  A    between atoms: N_17  and  C_21
REMARK    2  A    between atoms: C_21  and  C_24
REMARK    3  A    between atoms: C_24  and  C_27
REMARK    4  A    between atoms: C_27  and  C_28
REMARK    5  A    between atoms: C_27  and  C_29
REMARK                            x       y       z     vdW  Elec       q    Type
REMARK                         _______ _______ _______ _____ _____    ______ ____
ROOT
ATOM      1  S   UNL     1     -13.829  57.648  48.714  0.00  0.00    +0.000 S 
ATOM      2  O   UNL     1     -14.841  56.786  48.131  0.00  0.00    +0.000 OA
ATOM      3  O   UNL     1     -13.804  59.062  48.400  0.00  0.00    +0.000 OA
ATOM      4  N   UNL     1     -12.366  57.035  48.393  0.00  0.00    +0.000 N 
ATOM      5  C   UNL     1     -14.086  57.563  50.452  0.00  0.00    +0.000 A 
ATOM      6  C   UNL     1     -11.663  56.449  49.304  0.00  0.00    +0.000 C 
ATOM      7  C   UNL     1     -13.140  56.892  51.208  0.00  0.00    +0.000 A 
ATOM      8  C   UNL     1     -15.199  58.174  51.036  0.00  0.00    +0.000 A 
ATOM      9  N   UNL     1     -10.394  55.950  48.944  0.00  0.00    +0.000 N 
ATOM     10  N   UNL     1     -12.047  56.275  50.613  0.00  0.00    +0.000 N 
ATOM     11  C   UNL     1     -13.340  56.793  52.588  0.00  0.00    +0.000 A 
ATOM     12  C   UNL     1     -15.373  58.088  52.417  0.00  0.00    +0.000 A 
ATOM     13  C   UNL     1      -9.378  55.951  49.899  0.00  0.00    +0.000 A 
ATOM     14  C   UNL     1     -10.232  55.400  47.679  0.00  0.00    +0.000 A 
ATOM     15  C   UNL     1     -14.444  57.395  53.193  0.00  0.00    +0.000 A 
ATOM     16  O   UNL     1      -9.604  56.242  51.082  0.00  0.00    +0.000 OA
ATOM     17  N   UNL     1      -8.093  55.580  49.508  0.00  0.00    +0.000 N 
ATOM     18  O   UNL     1     -11.142  55.134  46.895  0.00  0.00    +0.000 OA
ATOM     19  C   UNL     1      -8.888  54.927  47.310  0.00  0.00    +0.000 A 
ATOM     20  C   UNL     1      -7.855  54.984  48.241  0.00  0.00    +0.000 A 
ATOM     21  C   UNL     1      -8.691  54.338  46.048  0.00  0.00    +0.000 A 
ATOM     22  C   UNL     1      -6.631  54.393  47.897  0.00  0.00    +0.000 A 
ATOM     23  C   UNL     1      -7.458  53.788  45.713  0.00  0.00    +0.000 A 
ATOM     24  C   UNL     1      -6.428  53.810  46.643  0.00  0.00    +0.000 A 
ATOM     25  H   UNL     1     -12.003  57.111  47.481  0.00  0.00    +0.000 HD
ATOM     26  H   UNL     1     -11.507  55.669  51.170  0.00  0.00    +0.000 HD
ENDROOT
BRANCH  17  27
ATOM     27  C   UNL     1      -7.020  55.659  50.516  0.00  0.00    +0.000 C 
BRANCH  27  28
ATOM     28  C   UNL     1      -6.797  54.405  51.381  0.00  0.00    +0.000 C 
BRANCH  28  29
ATOM     29  C   UNL     1      -6.939  54.572  52.902  0.00  0.00    +0.000 C 
ATOM     30  C   UNL     1      -6.977  56.038  53.331  0.00  0.00    +0.000 C 
ATOM     31  C   UNL     1      -8.228  53.869  53.351  0.00  0.00    +0.000 C 
ENDBRANCH  28  29
ENDBRANCH  27  28
ENDBRANCH  17  27
TORSDOF 3
ENDMDL
MODEL 6
REMARK VINA RESULT:      -7.3      3.265      7.657
REMARK  Name = 338609
REMARK  5 active torsions:
REMARK  status: ('A' for Active; 'I' for Inactive)
REMARK    1  A    between atoms: N_17  and  C_21
REMARK    2  A    between atoms: C_21  and  C_24
REMARK    3  A    between atoms: C_24  and  C_27
REMARK    4  A    between atoms: C_27  and  C_28
REMARK    5  A    between atoms: C_27  and  C_29
REMARK                            x       y       z     vdW  Elec       q    Type
REMARK                         _______ _______ _______ _____ _____    ______ ____
ROOT
ATOM      1  S   UNL     1     -11.883  54.875  51.559  0.00  0.00    +0.000 S 
ATOM      2  O   UNL     1     -11.505  55.569  52.776  0.00  0.00    +0.000 OA
ATOM      3  O   UNL     1     -12.733  53.704  51.619  0.00  0.00    +0.000 OA
ATOM      4  N   UNL     1     -10.545  54.483  50.736  0.00  0.00    +0.000 N 
ATOM      5  C   UNL     1     -12.781  56.052  50.608  0.00  0.00    +0.000 A 
ATOM      6  C   UNL     1     -10.200  55.115  49.664  0.00  0.00    +0.000 C 
ATOM      7  C   UNL     1     -12.178  56.548  49.465  0.00  0.00    +0.000 A 
ATOM      8  C   UNL     1     -14.065  56.447  50.995  0.00  0.00    +0.000 A 
ATOM      9  N   UNL     1      -9.024  54.706  49.002  0.00  0.00    +0.000 N 
ATOM     10  N   UNL     1     -10.894  56.159  49.100  0.00  0.00    +0.000 N 
ATOM     11  C   UNL     1     -12.866  57.502  48.710  0.00  0.00    +0.000 A 
ATOM     12  C   UNL     1     -14.749  57.382  50.220  0.00  0.00    +0.000 A 
ATOM     13  C   UNL     1      -8.961  54.821  47.614  0.00  0.00    +0.000 A 
ATOM     14  C   UNL     1      -7.945  54.283  49.769  0.00  0.00    +0.000 A 
ATOM     15  C   UNL     1     -14.148  57.912  49.077  0.00  0.00    +0.000 A 
ATOM     16  O   UNL     1      -9.848  55.403  46.974  0.00  0.00    +0.000 OA
ATOM     17  N   UNL     1      -7.853  54.299  46.950  0.00  0.00    +0.000 N 
ATOM     18  O   UNL     1      -7.846  54.404  50.988  0.00  0.00    +0.000 OA
ATOM     19  C   UNL     1      -6.745  53.818  49.055  0.00  0.00    +0.000 A 
ATOM     20  C   UNL     1      -6.702  53.874  47.665  0.00  0.00    +0.000 A 
ATOM     21  C   UNL     1      -5.621  53.409  49.795  0.00  0.00    +0.000 A 
ATOM     22  C   UNL     1      -5.490  53.557  47.034  0.00  0.00    +0.000 A 
ATOM     23  C   UNL     1      -4.439  53.065  49.149  0.00  0.00    +0.000 A 
ATOM     24  C   UNL     1      -4.372  53.146  47.765  0.00  0.00    +0.000 A 
ATOM     25  H   UNL     1      -9.980  53.746  51.062  0.00  0.00    +0.000 HD
ATOM     26  H   UNL     1     -10.450  56.669  48.385  0.00  0.00    +0.000 HD
ENDROOT
BRANCH  17  27
ATOM     27  C   UNL     1      -7.842  54.367  45.478  0.00  0.00    +0.000 C 
BRANCH  27  28
ATOM     28  C   UNL     1      -8.333  53.116  44.728  0.00  0.00    +0.000 C 
BRANCH  28  29
ATOM     29  C   UNL     1      -9.745  53.174  44.122  0.00  0.00    +0.000 C 
ATOM     30  C   UNL     1      -9.823  52.511  42.749  0.00  0.00    +0.000 C 
ATOM     31  C   UNL     1     -10.717  52.480  45.087  0.00  0.00    +0.000 C 
ENDBRANCH  28  29
ENDBRANCH  27  28
ENDBRANCH  17  27
TORSDOF 3
ENDMDL
MODEL 7
REMARK VINA RESULT:      -7.2      4.040      5.786
REMARK  Name = 338609
REMARK  5 active torsions:
REMARK  status: ('A' for Active; 'I' for Inactive)
REMARK    1  A    between atoms: N_17  and  C_21
REMARK    2  A    between atoms: C_21  and  C_24
REMARK    3  A    between atoms: C_24  and  C_27
REMARK    4  A    between atoms: C_27  and  C_28
REMARK    5  A    between atoms: C_27  and  C_29
REMARK                            x       y       z     vdW  Elec       q    Type
REMARK                         _______ _______ _______ _____ _____    ______ ____
ROOT
ATOM      1  S   UNL     1     -10.682  52.112  44.648  0.00  0.00    +0.000 S 
ATOM      2  O   UNL     1     -10.143  52.918  43.568  0.00  0.00    +0.000 OA
ATOM      3  O   UNL     1     -11.634  51.057  44.367  0.00  0.00    +0.000 OA
ATOM      4  N   UNL     1     -11.327  53.090  45.765  0.00  0.00    +0.000 N 
ATOM      5  C   UNL     1      -9.294  51.304  45.368  0.00  0.00    +0.000 A 
ATOM      6  C   UNL     1     -10.743  53.302  46.898  0.00  0.00    +0.000 C 
ATOM      7  C   UNL     1      -8.898  51.713  46.629  0.00  0.00    +0.000 A 
ATOM      8  C   UNL     1      -8.639  50.275  44.685  0.00  0.00    +0.000 A 
ATOM      9  N   UNL     1     -11.376  54.161  47.819  0.00  0.00    +0.000 N 
ATOM     10  N   UNL     1      -9.547  52.748  47.289  0.00  0.00    +0.000 N 
ATOM     11  C   UNL     1      -7.782  51.099  47.207  0.00  0.00    +0.000 A 
ATOM     12  C   UNL     1      -7.543  49.655  45.284  0.00  0.00    +0.000 A 
ATOM     13  C   UNL     1     -11.219  53.914  49.182  0.00  0.00    +0.000 A 
ATOM     14  C   UNL     1     -12.062  55.267  47.332  0.00  0.00    +0.000 A 
ATOM     15  C   UNL     1      -7.112  50.069  46.545  0.00  0.00    +0.000 A 
ATOM     16  O   UNL     1     -10.426  53.056  49.596  0.00  0.00    +0.000 OA
ATOM     17  N   UNL     1     -11.947  54.682  50.089  0.00  0.00    +0.000 N 
ATOM     18  O   UNL     1     -12.018  55.680  46.175  0.00  0.00    +0.000 OA
ATOM     19  C   UNL     1     -12.752  56.123  48.310  0.00  0.00    +0.000 A 
ATOM     20  C   UNL     1     -12.648  55.844  49.669  0.00  0.00    +0.000 A 
ATOM     21  C   UNL     1     -13.433  57.268  47.859  0.00  0.00    +0.000 A 
ATOM     22  C   UNL     1     -13.201  56.764  50.571  0.00  0.00    +0.000 A 
ATOM     23  C   UNL     1     -14.005  58.151  48.768  0.00  0.00    +0.000 A 
ATOM     24  C   UNL     1     -13.882  57.901  50.128  0.00  0.00    +0.000 A 
ATOM     25  H   UNL     1     -12.185  53.533  45.577  0.00  0.00    +0.000 HD
ATOM     26  H   UNL     1      -9.119  53.112  48.098  0.00  0.00    +0.000 HD
ENDROOT
BRANCH  17  27
ATOM     27  C   UNL     1     -11.820  54.356  51.520  0.00  0.00    +0.000 C 
BRANCH  27  28
ATOM     28  C   UNL     1     -10.745  55.126  52.308  0.00  0.00    +0.000 C 
BRANCH  28  29
ATOM     29  C   UNL     1     -10.041  54.373  53.448  0.00  0.00    +0.000 C 
ATOM     30  C   UNL     1     -10.088  52.857  53.268  0.00  0.00    +0.000 C 
ATOM     31  C   UNL     1      -8.579  54.839  53.510  0.00  0.00    +0.000 C 
ENDBRANCH  28  29
ENDBRANCH  27  28
ENDBRANCH  17  27
TORSDOF 3
ENDMDL
MODEL 8
REMARK VINA RESULT:      -7.0      3.839      7.933
REMARK  Name = 338609
REMARK  5 active torsions:
REMARK  status: ('A' for Active; 'I' for Inactive)
REMARK    1  A    between atoms: N_17  and  C_21
REMARK    2  A    between atoms: C_21  and  C_24
REMARK    3  A    between atoms: C_24  and  C_27
REMARK    4  A    between atoms: C_27  and  C_28
REMARK    5  A    between atoms: C_27  and  C_29
REMARK                            x       y       z     vdW  Elec       q    Type
REMARK                         _______ _______ _______ _____ _____    ______ ____
ROOT
ATOM      1  S   UNL     1     -11.124  51.508  46.687  0.00  0.00    +0.000 S 
ATOM      2  O   UNL     1     -12.474  52.030  46.568  0.00  0.00    +0.000 OA
ATOM      3  O   UNL     1     -10.892  50.079  46.709  0.00  0.00    +0.000 OA
ATOM      4  N   UNL     1     -10.423  52.153  47.996  0.00  0.00    +0.000 N 
ATOM      5  C   UNL     1     -10.268  52.096  45.267  0.00  0.00    +0.000 A 
ATOM      6  C   UNL     1      -9.515  53.067  47.897  0.00  0.00    +0.000 C 
ATOM      7  C   UNL     1      -9.303  53.068  45.456  0.00  0.00    +0.000 A 
ATOM      8  C   UNL     1     -10.551  51.573  44.001  0.00  0.00    +0.000 A 
ATOM      9  N   UNL     1      -8.948  53.570  49.087  0.00  0.00    +0.000 N 
ATOM     10  N   UNL     1      -9.043  53.591  46.717  0.00  0.00    +0.000 N 
ATOM     11  C   UNL     1      -8.629  53.565  44.336  0.00  0.00    +0.000 A 
ATOM     12  C   UNL     1      -9.855  52.060  42.896  0.00  0.00    +0.000 A 
ATOM     13  C   UNL     1      -7.615  53.976  49.073  0.00  0.00    +0.000 A 
ATOM     14  C   UNL     1      -9.766  53.717  50.200  0.00  0.00    +0.000 A 
ATOM     15  C   UNL     1      -8.894  53.059  43.063  0.00  0.00    +0.000 A 
ATOM     16  O   UNL     1      -6.970  54.041  48.017  0.00  0.00    +0.000 OA
ATOM     17  N   UNL     1      -7.019  54.351  50.275  0.00  0.00    +0.000 N 
ATOM     18  O   UNL     1     -10.992  53.625  50.201  0.00  0.00    +0.000 OA
ATOM     19  C   UNL     1      -9.142  54.201  51.442  0.00  0.00    +0.000 A 
ATOM     20  C   UNL     1      -7.795  54.550  51.448  0.00  0.00    +0.000 A 
ATOM     21  C   UNL     1      -9.942  54.391  52.583  0.00  0.00    +0.000 A 
ATOM     22  C   UNL     1      -7.277  55.140  52.611  0.00  0.00    +0.000 A 
ATOM     23  C   UNL     1      -9.400  54.946  53.738  0.00  0.00    +0.000 A 
ATOM     24  C   UNL     1      -8.066  55.327  53.748  0.00  0.00    +0.000 A 
ATOM     25  H   UNL     1     -10.695  51.841  48.889  0.00  0.00    +0.000 HD
ATOM     26  H   UNL     1      -8.478  54.395  46.770  0.00  0.00    +0.000 HD
ENDROOT
BRANCH  17  27
ATOM     27  C   UNL     1      -5.589  54.707  50.250  0.00  0.00    +0.000 C 
BRANCH  27  28
ATOM     28  C   UNL     1      -4.588  53.538  50.244  0.00  0.00    +0.000 C 
BRANCH  28  29
ATOM     29  C   UNL     1      -4.068  53.058  51.608  0.00  0.00    +0.000 C 
ATOM     30  C   UNL     1      -3.847  54.207  52.590  0.00  0.00    +0.000 C 
ATOM     31  C   UNL     1      -5.081  52.066  52.195  0.00  0.00    +0.000 C 
ENDBRANCH  28  29
ENDBRANCH  27  28
ENDBRANCH  17  27
TORSDOF 3
ENDMDL
MODEL 9
REMARK VINA RESULT:      -7.0      3.512      7.229
REMARK  Name = 338609
REMARK  5 active torsions:
REMARK  status: ('A' for Active; 'I' for Inactive)
REMARK    1  A    between atoms: N_17  and  C_21
REMARK    2  A    between atoms: C_21  and  C_24
REMARK    3  A    between atoms: C_24  and  C_27
REMARK    4  A    between atoms: C_27  and  C_28
REMARK    5  A    between atoms: C_27  and  C_29
REMARK                            x       y       z     vdW  Elec       q    Type
REMARK                         _______ _______ _______ _____ _____    ______ ____
ROOT
ATOM      1  S   UNL     1     -13.775  57.349  48.510  0.00  0.00    +0.000 S 
ATOM      2  O   UNL     1     -15.074  56.794  48.178  0.00  0.00    +0.000 OA
ATOM      3  O   UNL     1     -13.475  58.735  48.215  0.00  0.00    +0.000 OA
ATOM      4  N   UNL     1     -12.622  56.431  47.839  0.00  0.00    +0.000 N 
ATOM      5  C   UNL     1     -13.636  57.205  50.258  0.00  0.00    +0.000 A 
ATOM      6  C   UNL     1     -11.894  55.633  48.547  0.00  0.00    +0.000 C 
ATOM      7  C   UNL     1     -12.737  56.278  50.756  0.00  0.00    +0.000 A 
ATOM      8  C   UNL     1     -14.398  58.020  51.100  0.00  0.00    +0.000 A 
ATOM      9  N   UNL     1     -10.906  54.875  47.887  0.00  0.00    +0.000 N 
ATOM     10  N   UNL     1     -11.997  55.464  49.908  0.00  0.00    +0.000 N 
ATOM     11  C   UNL     1     -12.630  56.133  52.142  0.00  0.00    +0.000 A 
ATOM     12  C   UNL     1     -14.265  57.881  52.481  0.00  0.00    +0.000 A 
ATOM     13  C   UNL     1      -9.729  54.569  48.568  0.00  0.00    +0.000 A 
ATOM     14  C   UNL     1     -11.182  54.392  46.613  0.00  0.00    +0.000 A 
ATOM     15  C   UNL     1     -13.381  56.935  53.003  0.00  0.00    +0.000 A 
ATOM     16  O   UNL     1      -9.597  54.821  49.774  0.00  0.00    +0.000 OA
ATOM     17  N   UNL     1      -8.702  53.933  47.875  0.00  0.00    +0.000 N 
ATOM     18  O   UNL     1     -12.284  54.405  46.069  0.00  0.00    +0.000 OA
ATOM     19  C   UNL     1     -10.118  53.642  45.926  0.00  0.00    +0.000 A 
ATOM     20  C   UNL     1      -8.917  53.388  46.581  0.00  0.00    +0.000 A 
ATOM     21  C   UNL     1     -10.369  53.113  44.647  0.00  0.00    +0.000 A 
ATOM     22  C   UNL     1      -7.989  52.550  45.946  0.00  0.00    +0.000 A 
ATOM     23  C   UNL     1      -9.421  52.312  44.019  0.00  0.00    +0.000 A 
ATOM     24  C   UNL     1      -8.232  52.025  44.673  0.00  0.00    +0.000 A 
ATOM     25  H   UNL     1     -12.472  56.483  46.868  0.00  0.00    +0.000 HD
ATOM     26  H   UNL     1     -11.509  54.710  50.311  0.00  0.00    +0.000 HD
ENDROOT
BRANCH  17  27
ATOM     27  C   UNL     1      -7.440  53.684  48.595  0.00  0.00    +0.000 C 
BRANCH  27  28
ATOM     28  C   UNL     1      -6.419  54.836  48.611  0.00  0.00    +0.000 C 
BRANCH  28  29
ATOM     29  C   UNL     1      -5.575  55.003  49.884  0.00  0.00    +0.000 C 
ATOM     30  C   UNL     1      -6.426  55.049  51.152  0.00  0.00    +0.000 C 
ATOM     31  C   UNL     1      -4.585  53.833  49.970  0.00  0.00    +0.000 C 
ENDBRANCH  28  29
ENDBRANCH  27  28
ENDBRANCH  17  27
TORSDOF 3
ENDMDL
