MODEL 1
REMARK VINA RESULT:      -9.0      0.000      0.000
REMARK  Name = 338174
REMARK  5 active torsions:
REMARK  status: ('A' for Active; 'I' for Inactive)
REMARK    1  A    between atoms: C_6  and  C_10
REMARK    2  A    between atoms: C_14  and  O_18
REMARK    3  A    between atoms: N_17  and  C_21
REMARK    4  A    between atoms: C_21  and  C_24
REMARK    5  A    between atoms: C_31  and  N_32
REMARK                            x       y       z     vdW  Elec       q    Type
REMARK                         _______ _______ _______ _____ _____    ______ ____
ROOT
ATOM      1  C   UNL     1     -10.176  55.199  50.738  0.00  0.00    +0.000 A 
ATOM      2  C   UNL     1      -9.715  55.367  49.323  0.00  0.00    +0.000 A 
ATOM      3  C   UNL     1     -11.437  55.549  51.061  0.00  0.00    +0.000 A 
ATOM      4  O   UNL     1      -8.522  55.175  49.063  0.00  0.00    +0.000 OA
ATOM      5  N   UNL     1     -10.639  55.720  48.351  0.00  0.00    +0.000 N 
ATOM      6  C   UNL     1     -12.372  56.042  50.041  0.00  0.00    +0.000 A 
ATOM      7  C   UNL     1     -11.978  56.093  48.694  0.00  0.00    +0.000 A 
ATOM      8  C   UNL     1     -13.678  56.427  50.402  0.00  0.00    +0.000 A 
ATOM      9  C   UNL     1     -12.914  56.521  47.738  0.00  0.00    +0.000 A 
ATOM     10  C   UNL     1     -14.592  56.847  49.442  0.00  0.00    +0.000 A 
ATOM     11  C   UNL     1     -14.211  56.892  48.108  0.00  0.00    +0.000 A 
ENDROOT
BRANCH   1  17
ATOM     12  S   UNL     1      -7.004  54.780  53.039  0.00  0.00    +0.000 S 
ATOM     13  O   UNL     1      -7.016  55.760  54.109  0.00  0.00    +0.000 OA
ATOM     14  O   UNL     1      -5.771  54.469  52.344  0.00  0.00    +0.000 OA
ATOM     15  N   UNL     1      -8.088  55.242  51.931  0.00  0.00    +0.000 N 
ATOM     16  C   UNL     1      -7.555  53.278  53.752  0.00  0.00    +0.000 A 
ATOM     17  C   UNL     1      -9.220  54.619  51.777  0.00  0.00    +0.000 C 
ATOM     18  C   UNL     1      -8.810  52.814  53.396  0.00  0.00    +0.000 A 
ATOM     19  C   UNL     1      -6.732  52.596  54.653  0.00  0.00    +0.000 A 
ATOM     20  N   UNL     1      -9.605  53.504  52.487  0.00  0.00    +0.000 N 
ATOM     21  C   UNL     1      -9.266  51.634  53.994  0.00  0.00    +0.000 A 
ATOM     22  C   UNL     1      -7.192  51.416  55.226  0.00  0.00    +0.000 A 
ATOM     23  C   UNL     1      -8.460  50.938  54.900  0.00  0.00    +0.000 A 
ATOM     24  H   UNL     1      -7.885  56.016  51.358  0.00  0.00    +0.000 HD
ATOM     25  H   UNL     1     -10.519  53.166  52.339  0.00  0.00    +0.000 HD
ENDBRANCH   1  17
BRANCH   3  26
ATOM     26  O   UNL     1     -11.979  55.455  52.330  0.00  0.00    +0.000 OA
ATOM     27  H   UNL     1     -11.814  56.127  52.961  0.00  0.00    +0.000 HD
ENDBRANCH   3  26
BRANCH   5  28
ATOM     28  C   UNL     1     -10.171  55.765  46.960  0.00  0.00    +0.000 C 
BRANCH  28  29
ATOM     29  C   UNL     1     -10.249  54.427  46.249  0.00  0.00    +0.000 A 
ATOM     30  C   UNL     1      -9.152  53.552  46.220  0.00  0.00    +0.000 A 
ATOM     31  C   UNL     1     -11.432  54.060  45.585  0.00  0.00    +0.000 A 
ATOM     32  C   UNL     1      -9.177  52.408  45.422  0.00  0.00    +0.000 A 
ATOM     33  C   UNL     1     -11.469  52.913  44.789  0.00  0.00    +0.000 A 
ATOM     34  C   UNL     1     -10.321  52.118  44.673  0.00  0.00    +0.000 A 
BRANCH  34  35
ATOM     35  N   UNL     1     -10.298  51.009  43.714  0.00  0.00    +0.000 N 
ATOM     36  O   UNL     1     -10.239  49.856  44.166  0.00  0.00    +0.000 OA
ATOM     37  O   UNL     1     -10.310  51.290  42.507  0.00  0.00    +0.000 OA
ENDBRANCH  34  35
ENDBRANCH  28  29
ENDBRANCH   5  28
TORSDOF 5
ENDMDL
MODEL 2
REMARK VINA RESULT:      -8.8      2.782      5.689
REMARK  Name = 338174
REMARK  5 active torsions:
REMARK  status: ('A' for Active; 'I' for Inactive)
REMARK    1  A    between atoms: C_6  and  C_10
REMARK    2  A    between atoms: C_14  and  O_18
REMARK    3  A    between atoms: N_17  and  C_21
REMARK    4  A    between atoms: C_21  and  C_24
REMARK    5  A    between atoms: C_31  and  N_32
REMARK                            x       y       z     vdW  Elec       q    Type
REMARK                         _______ _______ _______ _____ _____    ______ ____
ROOT
ATOM      1  C   UNL     1      -9.029  54.215  49.834  0.00  0.00    +0.000 A 
ATOM      2  C   UNL     1     -10.502  54.257  50.099  0.00  0.00    +0.000 A 
ATOM      3  C   UNL     1      -8.596  54.021  48.573  0.00  0.00    +0.000 A 
ATOM      4  O   UNL     1     -10.891  54.296  51.272  0.00  0.00    +0.000 OA
ATOM      5  N   UNL     1     -11.379  54.259  49.025  0.00  0.00    +0.000 N 
ATOM      6  C   UNL     1      -9.543  53.900  47.456  0.00  0.00    +0.000 A 
ATOM      7  C   UNL     1     -10.920  54.052  47.685  0.00  0.00    +0.000 A 
ATOM      8  C   UNL     1      -9.074  53.673  46.148  0.00  0.00    +0.000 A 
ATOM      9  C   UNL     1     -11.794  53.982  46.588  0.00  0.00    +0.000 A 
ATOM     10  C   UNL     1      -9.953  53.608  45.072  0.00  0.00    +0.000 A 
ATOM     11  C   UNL     1     -11.314  53.764  45.292  0.00  0.00    +0.000 A 
ENDROOT
BRANCH   1  17
ATOM     12  S   UNL     1      -7.394  55.686  53.105  0.00  0.00    +0.000 S 
ATOM     13  O   UNL     1      -8.154  55.293  54.277  0.00  0.00    +0.000 OA
ATOM     14  O   UNL     1      -6.876  57.034  52.986  0.00  0.00    +0.000 OA
ATOM     15  N   UNL     1      -8.307  55.396  51.802  0.00  0.00    +0.000 N 
ATOM     16  C   UNL     1      -6.005  54.621  53.050  0.00  0.00    +0.000 A 
ATOM     17  C   UNL     1      -8.050  54.412  50.989  0.00  0.00    +0.000 C 
ATOM     18  C   UNL     1      -5.965  53.660  52.054  0.00  0.00    +0.000 A 
ATOM     19  C   UNL     1      -4.988  54.759  53.999  0.00  0.00    +0.000 A 
ATOM     20  N   UNL     1      -6.982  53.551  51.112  0.00  0.00    +0.000 N 
ATOM     21  C   UNL     1      -4.874  52.785  52.032  0.00  0.00    +0.000 A 
ATOM     22  C   UNL     1      -3.902  53.893  53.954  0.00  0.00    +0.000 A 
ATOM     23  C   UNL     1      -3.847  52.903  52.974  0.00  0.00    +0.000 A 
ATOM     24  H   UNL     1      -9.078  55.979  51.619  0.00  0.00    +0.000 HD
ATOM     25  H   UNL     1      -6.936  52.796  50.482  0.00  0.00    +0.000 HD
ENDBRANCH   1  17
BRANCH   3  26
ATOM     26  O   UNL     1      -7.266  53.950  48.198  0.00  0.00    +0.000 OA
ATOM     27  H   UNL     1      -6.958  54.445  47.465  0.00  0.00    +0.000 HD
ENDBRANCH   3  26
BRANCH   5  28
ATOM     28  C   UNL     1     -12.809  54.414  49.323  0.00  0.00    +0.000 C 
BRANCH  28  29
ATOM     29  C   UNL     1     -13.265  55.860  49.379  0.00  0.00    +0.000 A 
ATOM     30  C   UNL     1     -13.495  56.596  48.206  0.00  0.00    +0.000 A 
ATOM     31  C   UNL     1     -13.441  56.487  50.623  0.00  0.00    +0.000 A 
ATOM     32  C   UNL     1     -13.745  57.968  48.265  0.00  0.00    +0.000 A 
ATOM     33  C   UNL     1     -13.699  57.858  50.693  0.00  0.00    +0.000 A 
ATOM     34  C   UNL     1     -13.800  58.602  49.511  0.00  0.00    +0.000 A 
BRANCH  34  35
ATOM     35  N   UNL     1     -13.905  60.063  49.575  0.00  0.00    +0.000 N 
ATOM     36  O   UNL     1     -15.020  60.570  49.391  0.00  0.00    +0.000 OA
ATOM     37  O   UNL     1     -12.866  60.706  49.783  0.00  0.00    +0.000 OA
ENDBRANCH  34  35
ENDBRANCH  28  29
ENDBRANCH   5  28
TORSDOF 5
ENDMDL
MODEL 3
REMARK VINA RESULT:      -8.7      3.207      7.316
REMARK  Name = 338174
REMARK  5 active torsions:
REMARK  status: ('A' for Active; 'I' for Inactive)
REMARK    1  A    between atoms: C_6  and  C_10
REMARK    2  A    between atoms: C_14  and  O_18
REMARK    3  A    between atoms: N_17  and  C_21
REMARK    4  A    between atoms: C_21  and  C_24
REMARK    5  A    between atoms: C_31  and  N_32
REMARK                            x       y       z     vdW  Elec       q    Type
REMARK                         _______ _______ _______ _____ _____    ______ ____
ROOT
ATOM      1  C   UNL     1     -11.391  56.174  48.643  0.00  0.00    +0.000 A 
ATOM      2  C   UNL     1     -10.084  55.812  49.277  0.00  0.00    +0.000 A 
ATOM      3  C   UNL     1     -11.701  55.652  47.439  0.00  0.00    +0.000 A 
ATOM      4  O   UNL     1      -9.746  56.399  50.311  0.00  0.00    +0.000 OA
ATOM      5  N   UNL     1      -9.301  54.827  48.692  0.00  0.00    +0.000 N 
ATOM      6  C   UNL     1     -10.802  54.702  46.770  0.00  0.00    +0.000 A 
ATOM      7  C   UNL     1      -9.629  54.274  47.414  0.00  0.00    +0.000 A 
ATOM      8  C   UNL     1     -11.130  54.187  45.501  0.00  0.00    +0.000 A 
ATOM      9  C   UNL     1      -8.818  53.326  46.768  0.00  0.00    +0.000 A 
ATOM     10  C   UNL     1     -10.316  53.248  44.877  0.00  0.00    +0.000 A 
ATOM     11  C   UNL     1      -9.160  52.816  45.511  0.00  0.00    +0.000 A 
ENDROOT
BRANCH   1  17
ATOM     12  S   UNL     1     -13.576  59.347  49.475  0.00  0.00    +0.000 S 
ATOM     13  O   UNL     1     -14.731  59.415  48.601  0.00  0.00    +0.000 OA
ATOM     14  O   UNL     1     -12.828  60.546  49.797  0.00  0.00    +0.000 OA
ATOM     15  N   UNL     1     -12.539  58.279  48.844  0.00  0.00    +0.000 N 
ATOM     16  C   UNL     1     -14.159  58.710  50.999  0.00  0.00    +0.000 A 
ATOM     17  C   UNL     1     -12.352  57.106  49.377  0.00  0.00    +0.000 C 
ATOM     18  C   UNL     1     -13.788  57.422  51.348  0.00  0.00    +0.000 A 
ATOM     19  C   UNL     1     -14.976  59.501  51.813  0.00  0.00    +0.000 A 
ATOM     20  N   UNL     1     -12.964  56.660  50.527  0.00  0.00    +0.000 N 
ATOM     21  C   UNL     1     -14.285  56.899  52.546  0.00  0.00    +0.000 A 
ATOM     22  C   UNL     1     -15.447  58.974  53.010  0.00  0.00    +0.000 A 
ATOM     23  C   UNL     1     -15.105  57.672  53.374  0.00  0.00    +0.000 A 
ATOM     24  H   UNL     1     -12.035  58.522  48.035  0.00  0.00    +0.000 HD
ATOM     25  H   UNL     1     -12.805  55.724  50.790  0.00  0.00    +0.000 HD
ENDBRANCH   1  17
BRANCH   3  26
ATOM     26  O   UNL     1     -12.867  55.916  46.743  0.00  0.00    +0.000 OA
ATOM     27  H   UNL     1     -13.535  55.263  46.683  0.00  0.00    +0.000 HD
ENDBRANCH   3  26
BRANCH   5  28
ATOM     28  C   UNL     1      -8.083  54.423  49.406  0.00  0.00    +0.000 C 
BRANCH  28  29
ATOM     29  C   UNL     1      -8.352  53.604  50.653  0.00  0.00    +0.000 A 
ATOM     30  C   UNL     1      -9.201  52.486  50.622  0.00  0.00    +0.000 A 
ATOM     31  C   UNL     1      -7.763  53.978  51.873  0.00  0.00    +0.000 A 
ATOM     32  C   UNL     1      -9.578  51.846  51.802  0.00  0.00    +0.000 A 
ATOM     33  C   UNL     1      -8.128  53.338  53.059  0.00  0.00    +0.000 A 
ATOM     34  C   UNL     1      -9.074  52.306  53.023  0.00  0.00    +0.000 A 
BRANCH  34  35
ATOM     35  N   UNL     1      -9.585  51.742  54.276  0.00  0.00    +0.000 N 
ATOM     36  O   UNL     1      -8.925  50.844  54.817  0.00  0.00    +0.000 OA
ATOM     37  O   UNL     1     -10.663  52.178  54.706  0.00  0.00    +0.000 OA
ENDBRANCH  34  35
ENDBRANCH  28  29
ENDBRANCH   5  28
TORSDOF 5
ENDMDL
MODEL 4
REMARK VINA RESULT:      -8.6      2.252      2.631
REMARK  Name = 338174
REMARK  5 active torsions:
REMARK  status: ('A' for Active; 'I' for Inactive)
REMARK    1  A    between atoms: C_6  and  C_10
REMARK    2  A    between atoms: C_14  and  O_18
REMARK    3  A    between atoms: N_17  and  C_21
REMARK    4  A    between atoms: C_21  and  C_24
REMARK    5  A    between atoms: C_31  and  N_32
REMARK                            x       y       z     vdW  Elec       q    Type
REMARK                         _______ _______ _______ _____ _____    ______ ____
ROOT
ATOM      1  C   UNL     1      -9.557  55.268  50.462  0.00  0.00    +0.000 A 
ATOM      2  C   UNL     1      -9.884  55.441  49.011  0.00  0.00    +0.000 A 
ATOM      3  C   UNL     1     -10.528  55.457  51.378  0.00  0.00    +0.000 A 
ATOM      4  O   UNL     1      -8.962  55.402  48.188  0.00  0.00    +0.000 OA
ATOM      5  N   UNL     1     -11.206  55.629  48.636  0.00  0.00    +0.000 N 
ATOM      6  C   UNL     1     -11.902  55.780  50.971  0.00  0.00    +0.000 A 
ATOM      7  C   UNL     1     -12.237  55.831  49.608  0.00  0.00    +0.000 A 
ATOM      8  C   UNL     1     -12.897  56.000  51.943  0.00  0.00    +0.000 A 
ATOM      9  C   UNL     1     -13.571  56.093  49.255  0.00  0.00    +0.000 A 
ATOM     10  C   UNL     1     -14.214  56.255  51.576  0.00  0.00    +0.000 A 
ATOM     11  C   UNL     1     -14.551  56.300  50.231  0.00  0.00    +0.000 A 
ENDROOT
BRANCH   1  17
ATOM     12  S   UNL     1      -5.984  53.610  50.328  0.00  0.00    +0.000 S 
ATOM     13  O   UNL     1      -5.133  54.306  49.382  0.00  0.00    +0.000 OA
ATOM     14  O   UNL     1      -5.970  52.162  50.398  0.00  0.00    +0.000 OA
ATOM     15  N   UNL     1      -7.510  54.071  50.056  0.00  0.00    +0.000 N 
ATOM     16  C   UNL     1      -5.513  54.181  51.915  0.00  0.00    +0.000 A 
ATOM     17  C   UNL     1      -8.144  54.862  50.872  0.00  0.00    +0.000 C 
ATOM     18  C   UNL     1      -6.395  55.004  52.595  0.00  0.00    +0.000 A 
ATOM     19  C   UNL     1      -4.277  53.804  52.448  0.00  0.00    +0.000 A 
ATOM     20  N   UNL     1      -7.625  55.354  52.050  0.00  0.00    +0.000 N 
ATOM     21  C   UNL     1      -6.004  55.491  53.847  0.00  0.00    +0.000 A 
ATOM     22  C   UNL     1      -3.909  54.282  53.701  0.00  0.00    +0.000 A 
ATOM     23  C   UNL     1      -4.770  55.129  54.397  0.00  0.00    +0.000 A 
ATOM     24  H   UNL     1      -7.972  53.746  49.250  0.00  0.00    +0.000 HD
ATOM     25  H   UNL     1      -8.170  56.008  52.546  0.00  0.00    +0.000 HD
ENDBRANCH   1  17
BRANCH   3  26
ATOM     26  O   UNL     1     -10.353  55.341  52.745  0.00  0.00    +0.000 OA
ATOM     27  H   UNL     1     -10.887  55.840  53.330  0.00  0.00    +0.000 HD
ENDBRANCH   3  26
BRANCH   5  28
ATOM     28  C   UNL     1     -11.497  55.682  47.197  0.00  0.00    +0.000 C 
BRANCH  28  29
ATOM     29  C   UNL     1     -11.643  54.315  46.556  0.00  0.00    +0.000 A 
ATOM     30  C   UNL     1     -12.130  53.218  47.283  0.00  0.00    +0.000 A 
ATOM     31  C   UNL     1     -11.265  54.131  45.216  0.00  0.00    +0.000 A 
ATOM     32  C   UNL     1     -12.097  51.934  46.739  0.00  0.00    +0.000 A 
ATOM     33  C   UNL     1     -11.236  52.851  44.659  0.00  0.00    +0.000 A 
ATOM     34  C   UNL     1     -11.607  51.750  45.442  0.00  0.00    +0.000 A 
BRANCH  34  35
ATOM     35  N   UNL     1     -11.423  50.391  44.923  0.00  0.00    +0.000 N 
ATOM     36  O   UNL     1     -12.200  49.511  45.320  0.00  0.00    +0.000 OA
ATOM     37  O   UNL     1     -10.483  50.197  44.138  0.00  0.00    +0.000 OA
ENDBRANCH  34  35
ENDBRANCH  28  29
ENDBRANCH   5  28
TORSDOF 5
ENDMDL
MODEL 5
REMARK VINA RESULT:      -8.6      1.535      2.208
REMARK  Name = 338174
REMARK  5 active torsions:
REMARK  status: ('A' for Active; 'I' for Inactive)
REMARK    1  A    between atoms: C_6  and  C_10
REMARK    2  A    between atoms: C_14  and  O_18
REMARK    3  A    between atoms: N_17  and  C_21
REMARK    4  A    between atoms: C_21  and  C_24
REMARK    5  A    between atoms: C_31  and  N_32
REMARK                            x       y       z     vdW  Elec       q    Type
REMARK                         _______ _______ _______ _____ _____    ______ ____
ROOT
ATOM      1  C   UNL     1     -10.426  54.967  50.491  0.00  0.00    +0.000 A 
ATOM      2  C   UNL     1      -9.943  55.070  49.078  0.00  0.00    +0.000 A 
ATOM      3  C   UNL     1     -11.639  55.464  50.806  0.00  0.00    +0.000 A 
ATOM      4  O   UNL     1      -8.779  54.739  48.825  0.00  0.00    +0.000 OA
ATOM      5  N   UNL     1     -10.816  55.523  48.099  0.00  0.00    +0.000 N 
ATOM      6  C   UNL     1     -12.506  56.056  49.779  0.00  0.00    +0.000 A 
ATOM      7  C   UNL     1     -12.104  56.052  48.433  0.00  0.00    +0.000 A 
ATOM      8  C   UNL     1     -13.760  56.593  50.130  0.00  0.00    +0.000 A 
ATOM      9  C   UNL     1     -12.978  56.580  47.470  0.00  0.00    +0.000 A 
ATOM     10  C   UNL     1     -14.615  57.110  49.164  0.00  0.00    +0.000 A 
ATOM     11  C   UNL     1     -14.225  57.102  47.831  0.00  0.00    +0.000 A 
ENDROOT
BRANCH   1  17
ATOM     12  S   UNL     1      -9.077  52.246  53.002  0.00  0.00    +0.000 S 
ATOM     13  O   UNL     1      -8.463  51.146  52.282  0.00  0.00    +0.000 OA
ATOM     14  O   UNL     1      -9.923  51.988  54.150  0.00  0.00    +0.000 OA
ATOM     15  N   UNL     1      -9.939  53.112  51.944  0.00  0.00    +0.000 N 
ATOM     16  C   UNL     1      -7.757  53.241  53.581  0.00  0.00    +0.000 A 
ATOM     17  C   UNL     1      -9.549  54.286  51.539  0.00  0.00    +0.000 C 
ATOM     18  C   UNL     1      -7.572  54.479  52.988  0.00  0.00    +0.000 A 
ATOM     19  C   UNL     1      -6.932  52.770  54.606  0.00  0.00    +0.000 A 
ATOM     20  N   UNL     1      -8.414  54.931  51.978  0.00  0.00    +0.000 N 
ATOM     21  C   UNL     1      -6.495  55.259  53.424  0.00  0.00    +0.000 A 
ATOM     22  C   UNL     1      -5.877  53.564  55.041  0.00  0.00    +0.000 A 
ATOM     23  C   UNL     1      -5.656  54.806  54.446  0.00  0.00    +0.000 A 
ATOM     24  H   UNL     1     -10.781  52.741  51.595  0.00  0.00    +0.000 HD
ATOM     25  H   UNL     1      -8.180  55.782  51.541  0.00  0.00    +0.000 HD
ENDBRANCH   1  17
BRANCH   3  26
ATOM     26  O   UNL     1     -12.194  55.442  52.073  0.00  0.00    +0.000 OA
ATOM     27  H   UNL     1     -11.646  55.534  52.827  0.00  0.00    +0.000 HD
ENDBRANCH   3  26
BRANCH   5  28
ATOM     28  C   UNL     1     -10.339  55.503  46.710  0.00  0.00    +0.000 C 
BRANCH  28  29
ATOM     29  C   UNL     1     -10.512  54.160  46.028  0.00  0.00    +0.000 A 
ATOM     30  C   UNL     1     -11.728  53.461  46.092  0.00  0.00    +0.000 A 
ATOM     31  C   UNL     1      -9.433  53.586  45.335  0.00  0.00    +0.000 A 
ATOM     32  C   UNL     1     -11.823  52.155  45.612  0.00  0.00    +0.000 A 
ATOM     33  C   UNL     1      -9.521  52.282  44.843  0.00  0.00    +0.000 A 
ATOM     34  C   UNL     1     -10.703  51.554  45.029  0.00  0.00    +0.000 A 
BRANCH  34  35
ATOM     35  N   UNL     1     -10.748  50.135  44.666  0.00  0.00    +0.000 N 
ATOM     36  O   UNL     1     -11.643  49.439  45.167  0.00  0.00    +0.000 OA
ATOM     37  O   UNL     1      -9.872  49.708  43.900  0.00  0.00    +0.000 OA
ENDBRANCH  34  35
ENDBRANCH  28  29
ENDBRANCH   5  28
TORSDOF 5
ENDMDL
MODEL 6
REMARK VINA RESULT:      -8.6      2.612      7.569
REMARK  Name = 338174
REMARK  5 active torsions:
REMARK  status: ('A' for Active; 'I' for Inactive)
REMARK    1  A    between atoms: C_6  and  C_10
REMARK    2  A    between atoms: C_14  and  O_18
REMARK    3  A    between atoms: N_17  and  C_21
REMARK    4  A    between atoms: C_21  and  C_24
REMARK    5  A    between atoms: C_31  and  N_32
REMARK                            x       y       z     vdW  Elec       q    Type
REMARK                         _______ _______ _______ _____ _____    ______ ____
ROOT
ATOM      1  C   UNL     1     -11.385  54.313  47.935  0.00  0.00    +0.000 A 
ATOM      2  C   UNL     1     -11.479  53.499  49.188  0.00  0.00    +0.000 A 
ATOM      3  C   UNL     1     -12.096  55.454  47.841  0.00  0.00    +0.000 A 
ATOM      4  O   UNL     1     -10.936  52.389  49.215  0.00  0.00    +0.000 OA
ATOM      5  N   UNL     1     -12.163  54.018  50.278  0.00  0.00    +0.000 N 
ATOM      6  C   UNL     1     -12.918  55.930  48.961  0.00  0.00    +0.000 A 
ATOM      7  C   UNL     1     -12.920  55.229  50.178  0.00  0.00    +0.000 A 
ATOM      8  C   UNL     1     -13.675  57.111  48.835  0.00  0.00    +0.000 A 
ATOM      9  C   UNL     1     -13.677  55.739  51.245  0.00  0.00    +0.000 A 
ATOM     10  C   UNL     1     -14.417  57.604  49.903  0.00  0.00    +0.000 A 
ATOM     11  C   UNL     1     -14.417  56.919  51.110  0.00  0.00    +0.000 A 
ENDROOT
BRANCH   1  17
ATOM     12  S   UNL     1      -8.176  53.901  45.684  0.00  0.00    +0.000 S 
ATOM     13  O   UNL     1      -7.188  53.072  46.349  0.00  0.00    +0.000 OA
ATOM     14  O   UNL     1      -7.768  55.090  44.963  0.00  0.00    +0.000 OA
ATOM     15  N   UNL     1      -9.271  54.348  46.786  0.00  0.00    +0.000 N 
ATOM     16  C   UNL     1      -8.967  52.866  44.513  0.00  0.00    +0.000 A 
ATOM     17  C   UNL     1     -10.473  53.848  46.802  0.00  0.00    +0.000 C 
ATOM     18  C   UNL     1     -10.277  52.493  44.760  0.00  0.00    +0.000 A 
ATOM     19  C   UNL     1      -8.268  52.443  43.379  0.00  0.00    +0.000 A 
ATOM     20  N   UNL     1     -10.956  52.938  45.889  0.00  0.00    +0.000 N 
ATOM     21  C   UNL     1     -10.898  51.636  43.844  0.00  0.00    +0.000 A 
ATOM     22  C   UNL     1      -8.903  51.606  42.469  0.00  0.00    +0.000 A 
ATOM     23  C   UNL     1     -10.216  51.199  42.704  0.00  0.00    +0.000 A 
ATOM     24  H   UNL     1      -9.022  55.017  47.464  0.00  0.00    +0.000 HD
ATOM     25  H   UNL     1     -11.856  52.570  46.050  0.00  0.00    +0.000 HD
ENDBRANCH   1  17
BRANCH   3  26
ATOM     26  O   UNL     1     -12.105  56.287  46.736  0.00  0.00    +0.000 OA
ATOM     27  H   UNL     1     -12.576  56.039  45.965  0.00  0.00    +0.000 HD
ENDBRANCH   3  26
BRANCH   5  28
ATOM     28  C   UNL     1     -12.137  53.238  51.523  0.00  0.00    +0.000 C 
BRANCH  28  29
ATOM     29  C   UNL     1     -10.893  53.469  52.358  0.00  0.00    +0.000 A 
ATOM     30  C   UNL     1     -10.468  54.765  52.690  0.00  0.00    +0.000 A 
ATOM     31  C   UNL     1     -10.133  52.370  52.794  0.00  0.00    +0.000 A 
ATOM     32  C   UNL     1      -9.234  54.972  53.307  0.00  0.00    +0.000 A 
ATOM     33  C   UNL     1      -8.901  52.567  53.420  0.00  0.00    +0.000 A 
ATOM     34  C   UNL     1      -8.434  53.871  53.629  0.00  0.00    +0.000 A 
BRANCH  34  35
ATOM     35  N   UNL     1      -7.074  54.086  54.133  0.00  0.00    +0.000 N 
ATOM     36  O   UNL     1      -6.535  53.159  54.753  0.00  0.00    +0.000 OA
ATOM     37  O   UNL     1      -6.555  55.193  53.932  0.00  0.00    +0.000 OA
ENDBRANCH  34  35
ENDBRANCH  28  29
ENDBRANCH   5  28
TORSDOF 5
ENDMDL
MODEL 7
REMARK VINA RESULT:      -8.4      3.041      6.239
REMARK  Name = 338174
REMARK  5 active torsions:
REMARK  status: ('A' for Active; 'I' for Inactive)
REMARK    1  A    between atoms: C_6  and  C_10
REMARK    2  A    between atoms: C_14  and  O_18
REMARK    3  A    between atoms: N_17  and  C_21
REMARK    4  A    between atoms: C_21  and  C_24
REMARK    5  A    between atoms: C_31  and  N_32
REMARK                            x       y       z     vdW  Elec       q    Type
REMARK                         _______ _______ _______ _____ _____    ______ ____
ROOT
ATOM      1  C   UNL     1     -11.545  54.199  51.032  0.00  0.00    +0.000 A 
ATOM      2  C   UNL     1     -11.570  53.122  49.992  0.00  0.00    +0.000 A 
ATOM      3  C   UNL     1     -10.716  54.071  52.087  0.00  0.00    +0.000 A 
ATOM      4  O   UNL     1     -12.428  53.178  49.104  0.00  0.00    +0.000 OA
ATOM      5  N   UNL     1     -10.628  52.105  50.053  0.00  0.00    +0.000 N 
ATOM      6  C   UNL     1      -9.808  52.921  52.203  0.00  0.00    +0.000 A 
ATOM      7  C   UNL     1      -9.749  51.968  51.174  0.00  0.00    +0.000 A 
ATOM      8  C   UNL     1      -8.968  52.791  53.325  0.00  0.00    +0.000 A 
ATOM      9  C   UNL     1      -8.834  50.909  51.293  0.00  0.00    +0.000 A 
ATOM     10  C   UNL     1      -8.066  51.737  53.427  0.00  0.00    +0.000 A 
ATOM     11  C   UNL     1      -7.998  50.796  52.409  0.00  0.00    +0.000 A 
ENDROOT
BRANCH   1  17
ATOM     12  S   UNL     1     -13.471  57.188  49.332  0.00  0.00    +0.000 S 
ATOM     13  O   UNL     1     -14.599  56.697  48.562  0.00  0.00    +0.000 OA
ATOM     14  O   UNL     1     -12.633  58.248  48.809  0.00  0.00    +0.000 OA
ATOM     15  N   UNL     1     -12.515  55.929  49.670  0.00  0.00    +0.000 N 
ATOM     16  C   UNL     1     -14.138  57.789  50.836  0.00  0.00    +0.000 A 
ATOM     17  C   UNL     1     -12.439  55.426  50.868  0.00  0.00    +0.000 C 
ATOM     18  C   UNL     1     -13.884  57.068  51.991  0.00  0.00    +0.000 A 
ATOM     19  C   UNL     1     -14.902  58.959  50.837  0.00  0.00    +0.000 A 
ATOM     20  N   UNL     1     -13.110  55.913  51.967  0.00  0.00    +0.000 N 
ATOM     21  C   UNL     1     -14.448  57.526  53.187  0.00  0.00    +0.000 A 
ATOM     22  C   UNL     1     -15.441  59.413  52.035  0.00  0.00    +0.000 A 
ATOM     23  C   UNL     1     -15.218  58.694  53.209  0.00  0.00    +0.000 A 
ATOM     24  H   UNL     1     -11.975  55.531  48.949  0.00  0.00    +0.000 HD
ATOM     25  H   UNL     1     -13.036  55.401  52.806  0.00  0.00    +0.000 HD
ENDBRANCH   1  17
BRANCH   3  26
ATOM     26  O   UNL     1     -10.607  54.986  53.119  0.00  0.00    +0.000 OA
ATOM     27  H   UNL     1     -10.426  55.885  52.931  0.00  0.00    +0.000 HD
ENDBRANCH   3  26
BRANCH   5  28
ATOM     28  C   UNL     1     -10.616  51.132  48.953  0.00  0.00    +0.000 C 
BRANCH  28  29
ATOM     29  C   UNL     1      -9.954  51.650  47.691  0.00  0.00    +0.000 A 
ATOM     30  C   UNL     1      -8.633  52.126  47.704  0.00  0.00    +0.000 A 
ATOM     31  C   UNL     1     -10.677  51.679  46.487  0.00  0.00    +0.000 A 
ATOM     32  C   UNL     1      -8.095  52.758  46.583  0.00  0.00    +0.000 A 
ATOM     33  C   UNL     1     -10.144  52.302  45.357  0.00  0.00    +0.000 A 
ATOM     34  C   UNL     1      -8.871  52.884  45.426  0.00  0.00    +0.000 A 
BRANCH  34  35
ATOM     35  N   UNL     1      -8.372  53.681  44.302  0.00  0.00    +0.000 N 
ATOM     36  O   UNL     1      -8.530  53.230  43.159  0.00  0.00    +0.000 OA
ATOM     37  O   UNL     1      -7.797  54.748  44.563  0.00  0.00    +0.000 OA
ENDBRANCH  34  35
ENDBRANCH  28  29
ENDBRANCH   5  28
TORSDOF 5
ENDMDL
MODEL 8
REMARK VINA RESULT:      -8.3      2.878      5.826
REMARK  Name = 338174
REMARK  5 active torsions:
REMARK  status: ('A' for Active; 'I' for Inactive)
REMARK    1  A    between atoms: C_6  and  C_10
REMARK    2  A    between atoms: C_14  and  O_18
REMARK    3  A    between atoms: N_17  and  C_21
REMARK    4  A    between atoms: C_21  and  C_24
REMARK    5  A    between atoms: C_31  and  N_32
REMARK                            x       y       z     vdW  Elec       q    Type
REMARK                         _______ _______ _______ _____ _____    ______ ____
ROOT
ATOM      1  C   UNL     1      -8.667  53.358  49.059  0.00  0.00    +0.000 A 
ATOM      2  C   UNL     1     -10.099  53.462  49.482  0.00  0.00    +0.000 A 
ATOM      3  C   UNL     1      -8.379  53.245  47.747  0.00  0.00    +0.000 A 
ATOM      4  O   UNL     1     -10.364  53.426  50.688  0.00  0.00    +0.000 OA
ATOM      5  N   UNL     1     -11.079  53.605  48.510  0.00  0.00    +0.000 N 
ATOM      6  C   UNL     1      -9.440  53.273  46.732  0.00  0.00    +0.000 A 
ATOM      7  C   UNL     1     -10.774  53.485  47.117  0.00  0.00    +0.000 A 
ATOM      8  C   UNL     1      -9.122  53.129  45.368  0.00  0.00    +0.000 A 
ATOM      9  C   UNL     1     -11.757  53.557  46.117  0.00  0.00    +0.000 A 
ATOM     10  C   UNL     1     -10.108  53.205  44.390  0.00  0.00    +0.000 A 
ATOM     11  C   UNL     1     -11.427  53.421  44.765  0.00  0.00    +0.000 A 
ENDROOT
BRANCH   1  17
ATOM     12  S   UNL     1      -5.285  52.584  50.929  0.00  0.00    +0.000 S 
ATOM     13  O   UNL     1      -4.168  53.203  50.242  0.00  0.00    +0.000 OA
ATOM     14  O   UNL     1      -5.165  51.241  51.460  0.00  0.00    +0.000 OA
ATOM     15  N   UNL     1      -6.555  52.601  49.928  0.00  0.00    +0.000 N 
ATOM     16  C   UNL     1      -5.648  53.619  52.294  0.00  0.00    +0.000 A 
ATOM     17  C   UNL     1      -7.565  53.401  50.114  0.00  0.00    +0.000 C 
ATOM     18  C   UNL     1      -6.818  54.358  52.253  0.00  0.00    +0.000 A 
ATOM     19  C   UNL     1      -4.762  53.679  53.373  0.00  0.00    +0.000 A 
ATOM     20  N   UNL     1      -7.691  54.272  51.173  0.00  0.00    +0.000 N 
ATOM     21  C   UNL     1      -7.090  55.214  53.325  0.00  0.00    +0.000 A 
ATOM     22  C   UNL     1      -5.054  54.521  54.440  0.00  0.00    +0.000 A 
ATOM     23  C   UNL     1      -6.216  55.292  54.414  0.00  0.00    +0.000 A 
ATOM     24  H   UNL     1      -6.564  51.991  49.156  0.00  0.00    +0.000 HD
ATOM     25  H   UNL     1      -8.463  54.884  51.166  0.00  0.00    +0.000 HD
ENDBRANCH   1  17
BRANCH   3  26
ATOM     26  O   UNL     1      -7.101  53.129  47.228  0.00  0.00    +0.000 OA
ATOM     27  H   UNL     1      -6.891  53.524  46.406  0.00  0.00    +0.000 HD
ENDBRANCH   3  26
BRANCH   5  28
ATOM     28  C   UNL     1     -12.458  53.817  48.971  0.00  0.00    +0.000 C 
BRANCH  28  29
ATOM     29  C   UNL     1     -12.753  55.251  49.368  0.00  0.00    +0.000 A 
ATOM     30  C   UNL     1     -13.012  55.599  50.703  0.00  0.00    +0.000 A 
ATOM     31  C   UNL     1     -12.791  56.252  48.383  0.00  0.00    +0.000 A 
ATOM     32  C   UNL     1     -13.451  56.882  51.031  0.00  0.00    +0.000 A 
ATOM     33  C   UNL     1     -13.221  57.542  48.703  0.00  0.00    +0.000 A 
ATOM     34  C   UNL     1     -13.597  57.836  50.019  0.00  0.00    +0.000 A 
BRANCH  34  35
ATOM     35  N   UNL     1     -14.205  59.134  50.331  0.00  0.00    +0.000 N 
ATOM     36  O   UNL     1     -15.334  59.135  50.842  0.00  0.00    +0.000 OA
ATOM     37  O   UNL     1     -13.564  60.154  50.039  0.00  0.00    +0.000 OA
ENDBRANCH  34  35
ENDBRANCH  28  29
ENDBRANCH   5  28
TORSDOF 5
ENDMDL
MODEL 9
REMARK VINA RESULT:      -8.3      3.191      8.278
REMARK  Name = 338174
REMARK  5 active torsions:
REMARK  status: ('A' for Active; 'I' for Inactive)
REMARK    1  A    between atoms: C_6  and  C_10
REMARK    2  A    between atoms: C_14  and  O_18
REMARK    3  A    between atoms: N_17  and  C_21
REMARK    4  A    between atoms: C_21  and  C_24
REMARK    5  A    between atoms: C_31  and  N_32
REMARK                            x       y       z     vdW  Elec       q    Type
REMARK                         _______ _______ _______ _____ _____    ______ ____
ROOT
ATOM      1  C   UNL     1     -10.024  53.276  48.457  0.00  0.00    +0.000 A 
ATOM      2  C   UNL     1     -11.313  53.713  49.080  0.00  0.00    +0.000 A 
ATOM      3  C   UNL     1      -8.871  53.485  49.125  0.00  0.00    +0.000 A 
ATOM      4  O   UNL     1     -12.348  53.645  48.407  0.00  0.00    +0.000 OA
ATOM      5  N   UNL     1     -11.308  54.170  50.390  0.00  0.00    +0.000 N 
ATOM      6  C   UNL     1      -8.869  54.086  50.465  0.00  0.00    +0.000 A 
ATOM      7  C   UNL     1     -10.085  54.393  51.098  0.00  0.00    +0.000 A 
ATOM      8  C   UNL     1      -7.654  54.321  51.136  0.00  0.00    +0.000 A 
ATOM      9  C   UNL     1     -10.049  54.919  52.400  0.00  0.00    +0.000 A 
ATOM     10  C   UNL     1      -7.636  54.841  52.426  0.00  0.00    +0.000 A 
ATOM     11  C   UNL     1      -8.835  55.139  53.059  0.00  0.00    +0.000 A 
ENDROOT
BRANCH   1  17
ATOM     12  S   UNL     1     -10.752  50.596  45.662  0.00  0.00    +0.000 S 
ATOM     13  O   UNL     1     -12.148  50.634  45.269  0.00  0.00    +0.000 OA
ATOM     14  O   UNL     1     -10.072  49.326  45.828  0.00  0.00    +0.000 OA
ATOM     15  N   UNL     1     -10.604  51.415  47.048  0.00  0.00    +0.000 N 
ATOM     16  C   UNL     1      -9.875  51.460  44.417  0.00  0.00    +0.000 A 
ATOM     17  C   UNL     1     -10.040  52.587  47.095  0.00  0.00    +0.000 C 
ATOM     18  C   UNL     1      -9.343  52.698  44.739  0.00  0.00    +0.000 A 
ATOM     19  C   UNL     1      -9.737  50.894  43.146  0.00  0.00    +0.000 A 
ATOM     20  N   UNL     1      -9.482  53.234  46.015  0.00  0.00    +0.000 N 
ATOM     21  C   UNL     1      -8.676  53.406  43.735  0.00  0.00    +0.000 A 
ATOM     22  C   UNL     1      -9.055  51.602  42.163  0.00  0.00    +0.000 A 
ATOM     23  C   UNL     1      -8.529  52.860  42.456  0.00  0.00    +0.000 A 
ATOM     24  H   UNL     1     -10.951  51.017  47.878  0.00  0.00    +0.000 HD
ATOM     25  H   UNL     1      -9.155  54.153  46.157  0.00  0.00    +0.000 HD
ENDBRANCH   1  17
BRANCH   3  26
ATOM     26  O   UNL     1      -7.616  53.141  48.656  0.00  0.00    +0.000 OA
ATOM     27  H   UNL     1      -6.851  53.504  49.055  0.00  0.00    +0.000 HD
ENDBRANCH   3  26
BRANCH   5  28
ATOM     28  C   UNL     1     -12.608  54.482  50.999  0.00  0.00    +0.000 C 
BRANCH  28  29
ATOM     29  C   UNL     1     -12.992  55.945  50.895  0.00  0.00    +0.000 A 
ATOM     30  C   UNL     1     -13.788  56.561  51.874  0.00  0.00    +0.000 A 
ATOM     31  C   UNL     1     -12.568  56.699  49.789  0.00  0.00    +0.000 A 
ATOM     32  C   UNL     1     -14.279  57.852  51.682  0.00  0.00    +0.000 A 
ATOM     33  C   UNL     1     -13.047  57.996  49.591  0.00  0.00    +0.000 A 
ATOM     34  C   UNL     1     -13.941  58.549  50.517  0.00  0.00    +0.000 A 
BRANCH  34  35
ATOM     35  N   UNL     1     -14.576  59.840  50.235  0.00  0.00    +0.000 N 
ATOM     36  O   UNL     1     -15.718  60.030  50.678  0.00  0.00    +0.000 OA
ATOM     37  O   UNL     1     -13.944  60.654  49.547  0.00  0.00    +0.000 OA
ENDBRANCH  34  35
ENDBRANCH  28  29
ENDBRANCH   5  28
TORSDOF 5
ENDMDL
