MODEL 1
REMARK VINA RESULT:      -8.5      0.000      0.000
REMARK  Name = 338092
REMARK  7 active torsions:
REMARK  status: ('A' for Active; 'I' for Inactive)
REMARK    1  A    between atoms: C_6  and  C_10
REMARK    2  A    between atoms: C_14  and  O_18
REMARK    3  A    between atoms: N_17  and  C_21
REMARK    4  A    between atoms: C_21  and  C_24
REMARK    5  A    between atoms: C_24  and  C_27
REMARK    6  A    between atoms: C_27  and  C_29
REMARK    7  A    between atoms: C_27  and  C_30
REMARK                            x       y       z     vdW  Elec       q    Type
REMARK                         _______ _______ _______ _____ _____    ______ ____
ROOT
ATOM      1  C   UNL     1     -10.203  54.353  52.302  0.00  0.00    +0.000 A 
ATOM      2  C   UNL     1      -8.824  54.935  52.294  0.00  0.00    +0.000 A 
ATOM      3  C   UNL     1     -10.456  53.224  52.985  0.00  0.00    +0.000 A 
ATOM      4  O   UNL     1      -8.665  56.046  51.782  0.00  0.00    +0.000 OA
ATOM      5  N   UNL     1      -7.794  54.214  52.881  0.00  0.00    +0.000 N 
ATOM      6  C   UNL     1      -9.381  52.549  53.725  0.00  0.00    +0.000 A 
ATOM      7  C   UNL     1      -8.069  53.059  53.677  0.00  0.00    +0.000 A 
ATOM      8  C   UNL     1      -9.656  51.414  54.503  0.00  0.00    +0.000 A 
ATOM      9  C   UNL     1      -7.076  52.435  54.451  0.00  0.00    +0.000 A 
ATOM     10  C   UNL     1      -8.649  50.808  55.238  0.00  0.00    +0.000 A 
ATOM     11  C   UNL     1      -7.360  51.308  55.218  0.00  0.00    +0.000 A 
ATOM     12  F   UNL     1      -8.927  49.740  55.995  0.00  0.00    +0.000 F 
ENDROOT
BRANCH   1  18
ATOM     13  S   UNL     1     -12.373  55.953  49.449  0.00  0.00    +0.000 S 
ATOM     14  O   UNL     1     -13.254  54.989  48.811  0.00  0.00    +0.000 OA
ATOM     15  O   UNL     1     -11.670  56.938  48.658  0.00  0.00    +0.000 OA
ATOM     16  N   UNL     1     -11.277  55.121  50.305  0.00  0.00    +0.000 N 
ATOM     17  C   UNL     1     -13.376  56.857  50.572  0.00  0.00    +0.000 A 
ATOM     18  C   UNL     1     -11.317  55.101  51.603  0.00  0.00    +0.000 C 
ATOM     19  C   UNL     1     -13.192  56.637  51.928  0.00  0.00    +0.000 A 
ATOM     20  C   UNL     1     -14.313  57.774  50.092  0.00  0.00    +0.000 A 
ATOM     21  N   UNL     1     -12.269  55.706  52.392  0.00  0.00    +0.000 N 
ATOM     22  C   UNL     1     -14.017  57.319  52.829  0.00  0.00    +0.000 A 
ATOM     23  C   UNL     1     -15.110  58.467  51.001  0.00  0.00    +0.000 A 
ATOM     24  C   UNL     1     -14.964  58.234  52.369  0.00  0.00    +0.000 A 
ATOM     25  H   UNL     1     -10.569  54.624  49.834  0.00  0.00    +0.000 HD
ATOM     26  H   UNL     1     -12.300  55.464  53.346  0.00  0.00    +0.000 HD
ENDBRANCH   1  18
BRANCH   3  27
ATOM     27  O   UNL     1     -11.705  52.640  53.102  0.00  0.00    +0.000 OA
ATOM     28  H   UNL     1     -12.138  52.305  52.342  0.00  0.00    +0.000 HD
ENDBRANCH   3  27
BRANCH   5  29
ATOM     29  C   UNL     1      -6.439  54.773  52.798  0.00  0.00    +0.000 C 
BRANCH  29  30
ATOM     30  C   UNL     1      -5.539  54.192  51.694  0.00  0.00    +0.000 C 
BRANCH  30  31
ATOM     31  C   UNL     1      -4.107  53.810  52.099  0.00  0.00    +0.000 C 
ATOM     32  C   UNL     1      -3.847  54.024  53.588  0.00  0.00    +0.000 C 
ATOM     33  C   UNL     1      -3.882  52.336  51.735  0.00  0.00    +0.000 C 
ENDBRANCH  30  31
ENDBRANCH  29  30
ENDBRANCH   5  29
TORSDOF 5
ENDMDL
MODEL 2
REMARK VINA RESULT:      -8.3      0.762      1.308
REMARK  Name = 338092
REMARK  7 active torsions:
REMARK  status: ('A' for Active; 'I' for Inactive)
REMARK    1  A    between atoms: C_6  and  C_10
REMARK    2  A    between atoms: C_14  and  O_18
REMARK    3  A    between atoms: N_17  and  C_21
REMARK    4  A    between atoms: C_21  and  C_24
REMARK    5  A    between atoms: C_24  and  C_27
REMARK    6  A    between atoms: C_27  and  C_29
REMARK    7  A    between atoms: C_27  and  C_30
REMARK                            x       y       z     vdW  Elec       q    Type
REMARK                         _______ _______ _______ _____ _____    ______ ____
ROOT
ATOM      1  C   UNL     1     -10.137  54.409  52.258  0.00  0.00    +0.000 A 
ATOM      2  C   UNL     1      -8.752  54.953  52.102  0.00  0.00    +0.000 A 
ATOM      3  C   UNL     1     -10.355  53.323  53.017  0.00  0.00    +0.000 A 
ATOM      4  O   UNL     1      -8.613  56.033  51.520  0.00  0.00    +0.000 OA
ATOM      5  N   UNL     1      -7.690  54.235  52.634  0.00  0.00    +0.000 N 
ATOM      6  C   UNL     1      -9.235  52.657  53.697  0.00  0.00    +0.000 A 
ATOM      7  C   UNL     1      -7.921  53.129  53.510  0.00  0.00    +0.000 A 
ATOM      8  C   UNL     1      -9.467  51.570  54.554  0.00  0.00    +0.000 A 
ATOM      9  C   UNL     1      -6.879  52.519  54.228  0.00  0.00    +0.000 A 
ATOM     10  C   UNL     1      -8.413  50.975  55.231  0.00  0.00    +0.000 A 
ATOM     11  C   UNL     1      -7.120  51.439  55.074  0.00  0.00    +0.000 A 
ATOM     12  F   UNL     1      -8.649  49.954  56.063  0.00  0.00    +0.000 F 
ENDROOT
BRANCH   1  18
ATOM     13  S   UNL     1     -12.478  55.973  49.522  0.00  0.00    +0.000 S 
ATOM     14  O   UNL     1     -13.401  55.003  48.957  0.00  0.00    +0.000 OA
ATOM     15  O   UNL     1     -11.823  56.942  48.672  0.00  0.00    +0.000 OA
ATOM     16  N   UNL     1     -11.332  55.150  50.320  0.00  0.00    +0.000 N 
ATOM     17  C   UNL     1     -13.405  56.900  50.692  0.00  0.00    +0.000 A 
ATOM     18  C   UNL     1     -11.291  55.151  51.619  0.00  0.00    +0.000 C 
ATOM     19  C   UNL     1     -13.135  56.701  52.036  0.00  0.00    +0.000 A 
ATOM     20  C   UNL     1     -14.367  57.814  50.257  0.00  0.00    +0.000 A 
ATOM     21  N   UNL     1     -12.188  55.774  52.457  0.00  0.00    +0.000 N 
ATOM     22  C   UNL     1     -13.899  57.401  52.977  0.00  0.00    +0.000 A 
ATOM     23  C   UNL     1     -15.102  58.524  51.204  0.00  0.00    +0.000 A 
ATOM     24  C   UNL     1     -14.870  58.313  52.563  0.00  0.00    +0.000 A 
ATOM     25  H   UNL     1     -10.658  54.642  49.814  0.00  0.00    +0.000 HD
ATOM     26  H   UNL     1     -12.159  55.547  53.414  0.00  0.00    +0.000 HD
ENDBRANCH   1  18
BRANCH   3  27
ATOM     27  O   UNL     1     -11.602  52.780  53.271  0.00  0.00    +0.000 OA
ATOM     28  H   UNL     1     -12.125  52.457  52.564  0.00  0.00    +0.000 HD
ENDBRANCH   3  27
BRANCH   5  29
ATOM     29  C   UNL     1      -6.335  54.753  52.408  0.00  0.00    +0.000 C 
BRANCH  29  30
ATOM     30  C   UNL     1      -5.412  53.867  51.555  0.00  0.00    +0.000 C 
BRANCH  30  31
ATOM     31  C   UNL     1      -5.613  53.923  50.032  0.00  0.00    +0.000 C 
ATOM     32  C   UNL     1      -6.780  53.055  49.568  0.00  0.00    +0.000 C 
ATOM     33  C   UNL     1      -5.855  55.384  49.633  0.00  0.00    +0.000 C 
ENDBRANCH  30  31
ENDBRANCH  29  30
ENDBRANCH   5  29
TORSDOF 5
ENDMDL
MODEL 3
REMARK VINA RESULT:      -8.2      4.148      5.702
REMARK  Name = 338092
REMARK  7 active torsions:
REMARK  status: ('A' for Active; 'I' for Inactive)
REMARK    1  A    between atoms: C_6  and  C_10
REMARK    2  A    between atoms: C_14  and  O_18
REMARK    3  A    between atoms: N_17  and  C_21
REMARK    4  A    between atoms: C_21  and  C_24
REMARK    5  A    between atoms: C_24  and  C_27
REMARK    6  A    between atoms: C_27  and  C_29
REMARK    7  A    between atoms: C_27  and  C_30
REMARK                            x       y       z     vdW  Elec       q    Type
REMARK                         _______ _______ _______ _____ _____    ______ ____
ROOT
ATOM      1  C   UNL     1     -11.736  56.074  48.697  0.00  0.00    +0.000 A 
ATOM      2  C   UNL     1     -10.660  55.420  49.506  0.00  0.00    +0.000 A 
ATOM      3  C   UNL     1     -11.912  55.735  47.409  0.00  0.00    +0.000 A 
ATOM      4  O   UNL     1     -10.626  55.648  50.719  0.00  0.00    +0.000 OA
ATOM      5  N   UNL     1      -9.766  54.574  48.867  0.00  0.00    +0.000 N 
ATOM      6  C   UNL     1     -11.048  54.725  46.783  0.00  0.00    +0.000 A 
ATOM      7  C   UNL     1      -9.997  54.146  47.522  0.00  0.00    +0.000 A 
ATOM      8  C   UNL     1     -11.277  54.311  45.462  0.00  0.00    +0.000 A 
ATOM      9  C   UNL     1      -9.232  53.132  46.922  0.00  0.00    +0.000 A 
ATOM     10  C   UNL     1     -10.489  53.323  44.891  0.00  0.00    +0.000 A 
ATOM     11  C   UNL     1      -9.467  52.731  45.610  0.00  0.00    +0.000 A 
ATOM     12  F   UNL     1     -10.731  52.919  43.639  0.00  0.00    +0.000 F 
ENDROOT
BRANCH   1  18
ATOM     13  S   UNL     1     -13.647  59.397  49.539  0.00  0.00    +0.000 S 
ATOM     14  O   UNL     1     -14.803  59.609  48.684  0.00  0.00    +0.000 OA
ATOM     15  O   UNL     1     -12.781  60.502  49.886  0.00  0.00    +0.000 OA
ATOM     16  N   UNL     1     -12.739  58.242  48.856  0.00  0.00    +0.000 N 
ATOM     17  C   UNL     1     -14.276  58.777  51.058  0.00  0.00    +0.000 A 
ATOM     18  C   UNL     1     -12.671  57.052  49.375  0.00  0.00    +0.000 C 
ATOM     19  C   UNL     1     -14.039  57.446  51.362  0.00  0.00    +0.000 A 
ATOM     20  C   UNL     1     -14.977  59.620  51.922  0.00  0.00    +0.000 A 
ATOM     21  N   UNL     1     -13.358  56.612  50.483  0.00  0.00    +0.000 N 
ATOM     22  C   UNL     1     -14.575  56.931  52.547  0.00  0.00    +0.000 A 
ATOM     23  C   UNL     1     -15.481  59.102  53.113  0.00  0.00    +0.000 A 
ATOM     24  C   UNL     1     -15.284  57.756  53.422  0.00  0.00    +0.000 A 
ATOM     25  H   UNL     1     -12.231  58.444  48.038  0.00  0.00    +0.000 HD
ATOM     26  H   UNL     1     -13.368  55.644  50.666  0.00  0.00    +0.000 HD
ENDBRANCH   1  18
BRANCH   3  27
ATOM     27  O   UNL     1     -12.913  56.236  46.595  0.00  0.00    +0.000 OA
ATOM     28  H   UNL     1     -12.866  57.119  46.286  0.00  0.00    +0.000 HD
ENDBRANCH   3  27
BRANCH   5  29
ATOM     29  C   UNL     1      -8.678  54.001  49.669  0.00  0.00    +0.000 C 
BRANCH  29  30
ATOM     30  C   UNL     1      -7.342  54.762  49.628  0.00  0.00    +0.000 C 
BRANCH  30  31
ATOM     31  C   UNL     1      -6.982  55.594  50.870  0.00  0.00    +0.000 C 
ATOM     32  C   UNL     1      -7.590  56.993  50.828  0.00  0.00    +0.000 C 
ATOM     33  C   UNL     1      -7.480  54.843  52.111  0.00  0.00    +0.000 C 
ENDBRANCH  30  31
ENDBRANCH  29  30
ENDBRANCH   5  29
TORSDOF 5
ENDMDL
MODEL 4
REMARK VINA RESULT:      -8.1      1.551      2.241
REMARK  Name = 338092
REMARK  7 active torsions:
REMARK  status: ('A' for Active; 'I' for Inactive)
REMARK    1  A    between atoms: C_6  and  C_10
REMARK    2  A    between atoms: C_14  and  O_18
REMARK    3  A    between atoms: N_17  and  C_21
REMARK    4  A    between atoms: C_21  and  C_24
REMARK    5  A    between atoms: C_24  and  C_27
REMARK    6  A    between atoms: C_27  and  C_29
REMARK    7  A    between atoms: C_27  and  C_30
REMARK                            x       y       z     vdW  Elec       q    Type
REMARK                         _______ _______ _______ _____ _____    ______ ____
ROOT
ATOM      1  C   UNL     1     -10.172  54.529  52.149  0.00  0.00    +0.000 A 
ATOM      2  C   UNL     1      -8.770  55.050  52.140  0.00  0.00    +0.000 A 
ATOM      3  C   UNL     1     -10.476  53.418  52.838  0.00  0.00    +0.000 A 
ATOM      4  O   UNL     1      -8.561  56.150  51.620  0.00  0.00    +0.000 OA
ATOM      5  N   UNL     1      -7.773  54.289  52.734  0.00  0.00    +0.000 N 
ATOM      6  C   UNL     1      -9.434  52.701  53.586  0.00  0.00    +0.000 A 
ATOM      7  C   UNL     1      -8.100  53.153  53.537  0.00  0.00    +0.000 A 
ATOM      8  C   UNL     1      -9.760  51.584  54.371  0.00  0.00    +0.000 A 
ATOM      9  C   UNL     1      -7.137  52.491  54.317  0.00  0.00    +0.000 A 
ATOM     10  C   UNL     1      -8.781  50.940  55.112  0.00  0.00    +0.000 A 
ATOM     11  C   UNL     1      -7.472  51.383  55.091  0.00  0.00    +0.000 A 
ATOM     12  F   UNL     1      -9.108  49.890  55.875  0.00  0.00    +0.000 F 
ENDROOT
BRANCH   1  18
ATOM     13  S   UNL     1     -13.511  56.493  51.509  0.00  0.00    +0.000 S 
ATOM     14  O   UNL     1     -13.437  57.877  51.946  0.00  0.00    +0.000 OA
ATOM     15  O   UNL     1     -14.706  55.714  51.744  0.00  0.00    +0.000 OA
ATOM     16  N   UNL     1     -12.258  55.704  52.169  0.00  0.00    +0.000 N 
ATOM     17  C   UNL     1     -13.285  56.523  49.767  0.00  0.00    +0.000 A 
ATOM     18  C   UNL     1     -11.252  55.321  51.443  0.00  0.00    +0.000 C 
ATOM     19  C   UNL     1     -12.094  56.031  49.259  0.00  0.00    +0.000 A 
ATOM     20  C   UNL     1     -14.294  57.018  48.938  0.00  0.00    +0.000 A 
ATOM     21  N   UNL     1     -11.089  55.559  50.097  0.00  0.00    +0.000 N 
ATOM     22  C   UNL     1     -11.885  56.092  47.877  0.00  0.00    +0.000 A 
ATOM     23  C   UNL     1     -14.085  57.048  47.562  0.00  0.00    +0.000 A 
ATOM     24  C   UNL     1     -12.878  56.589  47.033  0.00  0.00    +0.000 A 
ATOM     25  H   UNL     1     -12.261  55.512  53.135  0.00  0.00    +0.000 HD
ATOM     26  H   UNL     1     -10.204  55.385  49.701  0.00  0.00    +0.000 HD
ENDBRANCH   1  18
BRANCH   3  27
ATOM     27  O   UNL     1     -11.750  52.890  52.957  0.00  0.00    +0.000 OA
ATOM     28  H   UNL     1     -12.453  53.430  53.260  0.00  0.00    +0.000 HD
ENDBRANCH   3  27
BRANCH   5  29
ATOM     29  C   UNL     1      -6.394  54.788  52.651  0.00  0.00    +0.000 C 
BRANCH  29  30
ATOM     30  C   UNL     1      -5.577  54.301  51.442  0.00  0.00    +0.000 C 
BRANCH  30  31
ATOM     31  C   UNL     1      -4.361  53.410  51.744  0.00  0.00    +0.000 C 
ATOM     32  C   UNL     1      -3.849  53.588  53.170  0.00  0.00    +0.000 C 
ATOM     33  C   UNL     1      -4.768  51.949  51.511  0.00  0.00    +0.000 C 
ENDBRANCH  30  31
ENDBRANCH  29  30
ENDBRANCH   5  29
TORSDOF 5
ENDMDL
MODEL 5
REMARK VINA RESULT:      -8.0      3.877      7.561
REMARK  Name = 338092
REMARK  7 active torsions:
REMARK  status: ('A' for Active; 'I' for Inactive)
REMARK    1  A    between atoms: C_6  and  C_10
REMARK    2  A    between atoms: C_14  and  O_18
REMARK    3  A    between atoms: N_17  and  C_21
REMARK    4  A    between atoms: C_21  and  C_24
REMARK    5  A    between atoms: C_24  and  C_27
REMARK    6  A    between atoms: C_27  and  C_29
REMARK    7  A    between atoms: C_27  and  C_30
REMARK                            x       y       z     vdW  Elec       q    Type
REMARK                         _______ _______ _______ _____ _____    ______ ____
ROOT
ATOM      1  C   UNL     1     -10.207  55.216  50.931  0.00  0.00    +0.000 A 
ATOM      2  C   UNL     1      -9.872  55.146  49.474  0.00  0.00    +0.000 A 
ATOM      3  C   UNL     1     -11.414  55.654  51.326  0.00  0.00    +0.000 A 
ATOM      4  O   UNL     1      -8.813  54.602  49.147  0.00  0.00    +0.000 OA
ATOM      5  N   UNL     1     -10.770  55.672  48.557  0.00  0.00    +0.000 N 
ATOM      6  C   UNL     1     -12.413  56.071  50.332  0.00  0.00    +0.000 A 
ATOM      7  C   UNL     1     -12.085  56.061  48.962  0.00  0.00    +0.000 A 
ATOM      8  C   UNL     1     -13.701  56.454  50.735  0.00  0.00    +0.000 A 
ATOM      9  C   UNL     1     -13.081  56.397  48.030  0.00  0.00    +0.000 A 
ATOM     10  C   UNL     1     -14.656  56.802  49.791  0.00  0.00    +0.000 A 
ATOM     11  C   UNL     1     -14.356  56.777  48.442  0.00  0.00    +0.000 A 
ATOM     12  F   UNL     1     -15.888  57.143  50.185  0.00  0.00    +0.000 F 
ENDROOT
BRANCH   1  18
ATOM     13  S   UNL     1      -6.860  54.795  52.939  0.00  0.00    +0.000 S 
ATOM     14  O   UNL     1      -6.714  55.785  53.993  0.00  0.00    +0.000 OA
ATOM     15  O   UNL     1      -5.727  54.423  52.122  0.00  0.00    +0.000 OA
ATOM     16  N   UNL     1      -8.044  55.301  51.955  0.00  0.00    +0.000 N 
ATOM     17  C   UNL     1      -7.394  53.321  53.730  0.00  0.00    +0.000 A 
ATOM     18  C   UNL     1      -9.200  54.707  51.939  0.00  0.00    +0.000 C 
ATOM     19  C   UNL     1      -8.702  52.911  53.522  0.00  0.00    +0.000 A 
ATOM     20  C   UNL     1      -6.508  52.592  54.526  0.00  0.00    +0.000 A 
ATOM     21  N   UNL     1      -9.580  53.657  52.743  0.00  0.00    +0.000 N 
ATOM     22  C   UNL     1      -9.151  51.763  54.184  0.00  0.00    +0.000 A 
ATOM     23  C   UNL     1      -6.960  51.436  55.157  0.00  0.00    +0.000 A 
ATOM     24  C   UNL     1      -8.283  51.025  54.990  0.00  0.00    +0.000 A 
ATOM     25  H   UNL     1      -7.886  56.069  51.360  0.00  0.00    +0.000 HD
ATOM     26  H   UNL     1     -10.535  53.418  52.770  0.00  0.00    +0.000 HD
ENDBRANCH   1  18
BRANCH   3  27
ATOM     27  O   UNL     1     -11.840  55.700  52.642  0.00  0.00    +0.000 OA
ATOM     28  H   UNL     1     -11.356  56.195  53.273  0.00  0.00    +0.000 HD
ENDBRANCH   3  27
BRANCH   5  29
ATOM     29  C   UNL     1     -10.387  55.654  47.140  0.00  0.00    +0.000 C 
BRANCH  29  30
ATOM     30  C   UNL     1     -10.749  54.378  46.363  0.00  0.00    +0.000 C 
BRANCH  30  31
ATOM     31  C   UNL     1      -9.583  53.593  45.741  0.00  0.00    +0.000 C 
ATOM     32  C   UNL     1      -9.939  53.009  44.377  0.00  0.00    +0.000 C 
ATOM     33  C   UNL     1      -8.383  54.540  45.609  0.00  0.00    +0.000 C 
ENDBRANCH  30  31
ENDBRANCH  29  30
ENDBRANCH   5  29
TORSDOF 5
ENDMDL
MODEL 6
REMARK VINA RESULT:      -8.0      3.910      5.023
REMARK  Name = 338092
REMARK  7 active torsions:
REMARK  status: ('A' for Active; 'I' for Inactive)
REMARK    1  A    between atoms: C_6  and  C_10
REMARK    2  A    between atoms: C_14  and  O_18
REMARK    3  A    between atoms: N_17  and  C_21
REMARK    4  A    between atoms: C_21  and  C_24
REMARK    5  A    between atoms: C_24  and  C_27
REMARK    6  A    between atoms: C_27  and  C_29
REMARK    7  A    between atoms: C_27  and  C_30
REMARK                            x       y       z     vdW  Elec       q    Type
REMARK                         _______ _______ _______ _____ _____    ______ ____
ROOT
ATOM      1  C   UNL     1     -12.447  54.391  49.744  0.00  0.00    +0.000 A 
ATOM      2  C   UNL     1     -12.103  54.245  48.295  0.00  0.00    +0.000 A 
ATOM      3  C   UNL     1     -11.960  53.522  50.645  0.00  0.00    +0.000 A 
ATOM      4  O   UNL     1     -12.446  55.144  47.522  0.00  0.00    +0.000 OA
ATOM      5  N   UNL     1     -11.396  53.122  47.888  0.00  0.00    +0.000 N 
ATOM      6  C   UNL     1     -11.089  52.419  50.216  0.00  0.00    +0.000 A 
ATOM      7  C   UNL     1     -10.805  52.242  48.847  0.00  0.00    +0.000 A 
ATOM      8  C   UNL     1     -10.514  51.556  51.161  0.00  0.00    +0.000 A 
ATOM      9  C   UNL     1      -9.913  51.223  48.472  0.00  0.00    +0.000 A 
ATOM     10  C   UNL     1      -9.655  50.546  50.756  0.00  0.00    +0.000 A 
ATOM     11  C   UNL     1      -9.350  50.371  49.419  0.00  0.00    +0.000 A 
ATOM     12  F   UNL     1      -9.094  49.743  51.668  0.00  0.00    +0.000 F 
ENDROOT
BRANCH   1  18
ATOM     13  S   UNL     1     -15.396  56.494  51.257  0.00  0.00    +0.000 S 
ATOM     14  O   UNL     1     -15.311  56.614  52.703  0.00  0.00    +0.000 OA
ATOM     15  O   UNL     1     -16.671  56.266  50.615  0.00  0.00    +0.000 OA
ATOM     16  N   UNL     1     -14.386  55.309  50.805  0.00  0.00    +0.000 N 
ATOM     17  C   UNL     1     -14.790  58.010  50.609  0.00  0.00    +0.000 A 
ATOM     18  C   UNL     1     -13.278  55.577  50.183  0.00  0.00    +0.000 C 
ATOM     19  C   UNL     1     -13.558  57.997  49.974  0.00  0.00    +0.000 A 
ATOM     20  C   UNL     1     -15.548  59.176  50.728  0.00  0.00    +0.000 A 
ATOM     21  N   UNL     1     -12.803  56.833  49.879  0.00  0.00    +0.000 N 
ATOM     22  C   UNL     1     -13.046  59.208  49.494  0.00  0.00    +0.000 A 
ATOM     23  C   UNL     1     -15.039  60.370  50.222  0.00  0.00    +0.000 A 
ATOM     24  C   UNL     1     -13.785  60.385  49.610  0.00  0.00    +0.000 A 
ATOM     25  H   UNL     1     -14.617  54.373  51.004  0.00  0.00    +0.000 HD
ATOM     26  H   UNL     1     -11.870  56.913  49.577  0.00  0.00    +0.000 HD
ENDBRANCH   1  18
BRANCH   3  27
ATOM     27  O   UNL     1     -12.171  53.606  52.010  0.00  0.00    +0.000 OA
ATOM     28  H   UNL     1     -12.933  53.217  52.391  0.00  0.00    +0.000 HD
ENDBRANCH   3  27
BRANCH   5  29
ATOM     29  C   UNL     1     -11.131  52.967  46.452  0.00  0.00    +0.000 C 
BRANCH  29  30
ATOM     30  C   UNL     1     -10.283  54.073  45.803  0.00  0.00    +0.000 C 
BRANCH  30  31
ATOM     31  C   UNL     1      -8.833  54.211  46.295  0.00  0.00    +0.000 C 
ATOM     32  C   UNL     1      -7.859  54.504  45.157  0.00  0.00    +0.000 C 
ATOM     33  C   UNL     1      -8.783  55.341  47.331  0.00  0.00    +0.000 C 
ENDBRANCH  30  31
ENDBRANCH  29  30
ENDBRANCH   5  29
TORSDOF 5
ENDMDL
MODEL 7
REMARK VINA RESULT:      -7.9      4.728      6.491
REMARK  Name = 338092
REMARK  7 active torsions:
REMARK  status: ('A' for Active; 'I' for Inactive)
REMARK    1  A    between atoms: C_6  and  C_10
REMARK    2  A    between atoms: C_14  and  O_18
REMARK    3  A    between atoms: N_17  and  C_21
REMARK    4  A    between atoms: C_21  and  C_24
REMARK    5  A    between atoms: C_24  and  C_27
REMARK    6  A    between atoms: C_27  and  C_29
REMARK    7  A    between atoms: C_27  and  C_30
REMARK                            x       y       z     vdW  Elec       q    Type
REMARK                         _______ _______ _______ _____ _____    ______ ____
ROOT
ATOM      1  C   UNL     1     -10.920  55.684  48.625  0.00  0.00    +0.000 A 
ATOM      2  C   UNL     1     -11.326  55.235  47.257  0.00  0.00    +0.000 A 
ATOM      3  C   UNL     1      -9.656  55.511  49.045  0.00  0.00    +0.000 A 
ATOM      4  O   UNL     1     -12.451  55.544  46.853  0.00  0.00    +0.000 OA
ATOM      5  N   UNL     1     -10.418  54.513  46.495  0.00  0.00    +0.000 N 
ATOM      6  C   UNL     1      -8.663  54.875  48.167  0.00  0.00    +0.000 A 
ATOM      7  C   UNL     1      -9.052  54.399  46.900  0.00  0.00    +0.000 A 
ATOM      8  C   UNL     1      -7.324  54.763  48.571  0.00  0.00    +0.000 A 
ATOM      9  C   UNL     1      -8.068  53.860  46.054  0.00  0.00    +0.000 A 
ATOM     10  C   UNL     1      -6.381  54.205  47.721  0.00  0.00    +0.000 A 
ATOM     11  C   UNL     1      -6.742  53.751  46.466  0.00  0.00    +0.000 A 
ATOM     12  F   UNL     1      -5.103  54.124  48.107  0.00  0.00    +0.000 F 
ENDROOT
BRANCH   1  18
ATOM     13  S   UNL     1     -13.573  56.387  51.431  0.00  0.00    +0.000 S 
ATOM     14  O   UNL     1     -12.961  56.687  52.715  0.00  0.00    +0.000 OA
ATOM     15  O   UNL     1     -14.744  55.543  51.358  0.00  0.00    +0.000 OA
ATOM     16  N   UNL     1     -12.427  55.741  50.483  0.00  0.00    +0.000 N 
ATOM     17  C   UNL     1     -14.045  57.934  50.747  0.00  0.00    +0.000 A 
ATOM     18  C   UNL     1     -11.930  56.410  49.487  0.00  0.00    +0.000 C 
ATOM     19  C   UNL     1     -13.329  58.408  49.659  0.00  0.00    +0.000 A 
ATOM     20  C   UNL     1     -15.122  58.640  51.288  0.00  0.00    +0.000 A 
ATOM     21  N   UNL     1     -12.247  57.705  49.142  0.00  0.00    +0.000 N 
ATOM     22  C   UNL     1     -13.668  59.660  49.135  0.00  0.00    +0.000 A 
ATOM     23  C   UNL     1     -15.467  59.873  50.739  0.00  0.00    +0.000 A 
ATOM     24  C   UNL     1     -14.736  60.384  49.666  0.00  0.00    +0.000 A 
ATOM     25  H   UNL     1     -12.106  54.829  50.665  0.00  0.00    +0.000 HD
ATOM     26  H   UNL     1     -11.670  58.163  48.489  0.00  0.00    +0.000 HD
ENDBRANCH   1  18
BRANCH   3  27
ATOM     27  O   UNL     1      -9.168  55.944  50.266  0.00  0.00    +0.000 OA
ATOM     28  H   UNL     1      -9.389  55.480  51.049  0.00  0.00    +0.000 HD
ENDBRANCH   3  27
BRANCH   5  29
ATOM     29  C   UNL     1     -10.864  54.024  45.185  0.00  0.00    +0.000 C 
BRANCH  29  30
ATOM     30  C   UNL     1     -11.347  52.564  45.144  0.00  0.00    +0.000 C 
BRANCH  30  31
ATOM     31  C   UNL     1     -10.726  51.660  44.067  0.00  0.00    +0.000 C 
ATOM     32  C   UNL     1      -9.966  52.455  43.009  0.00  0.00    +0.000 C 
ATOM     33  C   UNL     1      -9.781  50.670  44.759  0.00  0.00    +0.000 C 
ENDBRANCH  30  31
ENDBRANCH  29  30
ENDBRANCH   5  29
TORSDOF 5
ENDMDL
MODEL 8
REMARK VINA RESULT:      -7.9      4.239      5.536
REMARK  Name = 338092
REMARK  7 active torsions:
REMARK  status: ('A' for Active; 'I' for Inactive)
REMARK    1  A    between atoms: C_6  and  C_10
REMARK    2  A    between atoms: C_14  and  O_18
REMARK    3  A    between atoms: N_17  and  C_21
REMARK    4  A    between atoms: C_21  and  C_24
REMARK    5  A    between atoms: C_24  and  C_27
REMARK    6  A    between atoms: C_27  and  C_29
REMARK    7  A    between atoms: C_27  and  C_30
REMARK                            x       y       z     vdW  Elec       q    Type
REMARK                         _______ _______ _______ _____ _____    ______ ____
ROOT
ATOM      1  C   UNL     1     -10.912  55.607  48.817  0.00  0.00    +0.000 A 
ATOM      2  C   UNL     1      -9.672  55.121  49.497  0.00  0.00    +0.000 A 
ATOM      3  C   UNL     1     -11.142  55.300  47.530  0.00  0.00    +0.000 A 
ATOM      4  O   UNL     1      -9.569  55.297  50.715  0.00  0.00    +0.000 OA
ATOM      5  N   UNL     1      -8.705  54.476  48.739  0.00  0.00    +0.000 N 
ATOM      6  C   UNL     1     -10.174  54.488  46.778  0.00  0.00    +0.000 A 
ATOM      7  C   UNL     1      -8.977  54.074  47.394  0.00  0.00    +0.000 A 
ATOM      8  C   UNL     1     -10.445  54.099  45.457  0.00  0.00    +0.000 A 
ATOM      9  C   UNL     1      -8.104  53.241  46.676  0.00  0.00    +0.000 A 
ATOM     10  C   UNL     1      -9.552  53.294  44.767  0.00  0.00    +0.000 A 
ATOM     11  C   UNL     1      -8.382  52.862  45.365  0.00  0.00    +0.000 A 
ATOM     12  F   UNL     1      -9.831  52.910  43.516  0.00  0.00    +0.000 F 
ENDROOT
BRANCH   1  18
ATOM     13  S   UNL     1     -13.642  56.429  51.515  0.00  0.00    +0.000 S 
ATOM     14  O   UNL     1     -13.067  56.760  52.809  0.00  0.00    +0.000 OA
ATOM     15  O   UNL     1     -14.822  55.598  51.431  0.00  0.00    +0.000 OA
ATOM     16  N   UNL     1     -12.477  55.740  50.624  0.00  0.00    +0.000 N 
ATOM     17  C   UNL     1     -14.072  57.961  50.770  0.00  0.00    +0.000 A 
ATOM     18  C   UNL     1     -11.939  56.372  49.625  0.00  0.00    +0.000 C 
ATOM     19  C   UNL     1     -13.315  58.392  49.692  0.00  0.00    +0.000 A 
ATOM     20  C   UNL     1     -15.154  58.697  51.255  0.00  0.00    +0.000 A 
ATOM     21  N   UNL     1     -12.227  57.659  49.232  0.00  0.00    +0.000 N 
ATOM     22  C   UNL     1     -13.620  59.631  49.121  0.00  0.00    +0.000 A 
ATOM     23  C   UNL     1     -15.465  59.917  50.659  0.00  0.00    +0.000 A 
ATOM     24  C   UNL     1     -14.694  60.385  49.595  0.00  0.00    +0.000 A 
ATOM     25  H   UNL     1     -12.174  54.829  50.843  0.00  0.00    +0.000 HD
ATOM     26  H   UNL     1     -11.623  58.090  48.584  0.00  0.00    +0.000 HD
ENDBRANCH   1  18
BRANCH   3  27
ATOM     27  O   UNL     1     -12.283  55.650  46.830  0.00  0.00    +0.000 OA
ATOM     28  H   UNL     1     -13.073  55.847  47.292  0.00  0.00    +0.000 HD
ENDBRANCH   3  27
BRANCH   5  29
ATOM     29  C   UNL     1      -7.466  54.071  49.416  0.00  0.00    +0.000 C 
BRANCH  29  30
ATOM     30  C   UNL     1      -6.357  55.135  49.477  0.00  0.00    +0.000 C 
BRANCH  30  31
ATOM     31  C   UNL     1      -4.908  54.624  49.466  0.00  0.00    +0.000 C 
ATOM     32  C   UNL     1      -4.515  53.961  50.783  0.00  0.00    +0.000 C 
ATOM     33  C   UNL     1      -4.760  53.624  48.312  0.00  0.00    +0.000 C 
ENDBRANCH  30  31
ENDBRANCH  29  30
ENDBRANCH   5  29
TORSDOF 5
ENDMDL
MODEL 9
REMARK VINA RESULT:      -7.7      3.903      7.735
REMARK  Name = 338092
REMARK  7 active torsions:
REMARK  status: ('A' for Active; 'I' for Inactive)
REMARK    1  A    between atoms: C_6  and  C_10
REMARK    2  A    between atoms: C_14  and  O_18
REMARK    3  A    between atoms: N_17  and  C_21
REMARK    4  A    between atoms: C_21  and  C_24
REMARK    5  A    between atoms: C_24  and  C_27
REMARK    6  A    between atoms: C_27  and  C_29
REMARK    7  A    between atoms: C_27  and  C_30
REMARK                            x       y       z     vdW  Elec       q    Type
REMARK                         _______ _______ _______ _____ _____    ______ ____
ROOT
ATOM      1  C   UNL     1     -10.503  54.972  50.694  0.00  0.00    +0.000 A 
ATOM      2  C   UNL     1     -10.283  54.927  49.215  0.00  0.00    +0.000 A 
ATOM      3  C   UNL     1     -11.578  55.599  51.198  0.00  0.00    +0.000 A 
ATOM      4  O   UNL     1      -9.368  54.218  48.784  0.00  0.00    +0.000 OA
ATOM      5  N   UNL     1     -11.126  55.661  48.393  0.00  0.00    +0.000 N 
ATOM      6  C   UNL     1     -12.545  56.249  50.302  0.00  0.00    +0.000 A 
ATOM      7  C   UNL     1     -12.316  56.259  48.912  0.00  0.00    +0.000 A 
ATOM      8  C   UNL     1     -13.710  56.838  50.818  0.00  0.00    +0.000 A 
ATOM      9  C   UNL     1     -13.291  56.826  48.074  0.00  0.00    +0.000 A 
ATOM     10  C   UNL     1     -14.643  57.409  49.965  0.00  0.00    +0.000 A 
ATOM     11  C   UNL     1     -14.442  57.408  48.597  0.00  0.00    +0.000 A 
ATOM     12  F   UNL     1     -15.761  57.946  50.466  0.00  0.00    +0.000 F 
ENDROOT
BRANCH   1  18
ATOM     13  S   UNL     1      -8.985  52.165  52.980  0.00  0.00    +0.000 S 
ATOM     14  O   UNL     1      -8.342  51.109  52.215  0.00  0.00    +0.000 OA
ATOM     15  O   UNL     1      -9.796  51.844  54.133  0.00  0.00    +0.000 OA
ATOM     16  N   UNL     1      -9.893  53.029  51.952  0.00  0.00    +0.000 N 
ATOM     17  C   UNL     1      -7.689  53.195  53.568  0.00  0.00    +0.000 A 
ATOM     18  C   UNL     1      -9.544  54.230  51.600  0.00  0.00    +0.000 C 
ATOM     19  C   UNL     1      -7.557  54.455  53.007  0.00  0.00    +0.000 A 
ATOM     20  C   UNL     1      -6.840  52.743  54.581  0.00  0.00    +0.000 A 
ATOM     21  N   UNL     1      -8.396  54.885  51.985  0.00  0.00    +0.000 N 
ATOM     22  C   UNL     1      -6.500  55.265  53.436  0.00  0.00    +0.000 A 
ATOM     23  C   UNL     1      -5.809  53.571  55.018  0.00  0.00    +0.000 A 
ATOM     24  C   UNL     1      -5.637  54.830  54.441  0.00  0.00    +0.000 A 
ATOM     25  H   UNL     1     -10.722  52.639  51.591  0.00  0.00    +0.000 HD
ATOM     26  H   UNL     1      -8.153  55.710  51.506  0.00  0.00    +0.000 HD
ENDBRANCH   1  18
BRANCH   3  27
ATOM     27  O   UNL     1     -11.901  55.646  52.543  0.00  0.00    +0.000 OA
ATOM     28  H   UNL     1     -11.836  54.873  53.067  0.00  0.00    +0.000 HD
ENDBRANCH   3  27
BRANCH   5  29
ATOM     29  C   UNL     1     -10.847  55.656  46.951  0.00  0.00    +0.000 C 
BRANCH  29  30
ATOM     30  C   UNL     1     -11.615  54.613  46.123  0.00  0.00    +0.000 C 
BRANCH  30  31
ATOM     31  C   UNL     1     -10.856  53.330  45.750  0.00  0.00    +0.000 C 
ATOM     32  C   UNL     1     -11.602  52.492  44.716  0.00  0.00    +0.000 C 
ATOM     33  C   UNL     1      -9.478  53.728  45.206  0.00  0.00    +0.000 C 
ENDBRANCH  30  31
ENDBRANCH  29  30
ENDBRANCH   5  29
TORSDOF 5
ENDMDL
