MODEL 1
REMARK VINA RESULT:      -8.3      0.000      0.000
REMARK  Name = 338598
REMARK  10 active torsions:
REMARK  status: ('A' for Active; 'I' for Inactive)
REMARK    1  A    between atoms: C_6  and  C_10
REMARK    2  A    between atoms: C_14  and  O_18
REMARK    3  A    between atoms: N_17  and  C_21
REMARK    4  A    between atoms: C_21  and  C_24
REMARK    5  A    between atoms: C_24  and  C_27
REMARK    6  A    between atoms: C_25  and  N_28
REMARK    7  A    between atoms: C_27  and  C_29
REMARK    8  A    between atoms: C_27  and  C_30
REMARK    9  A    between atoms: N_28  and  C_31
REMARK   10  A    between atoms: C_31  and  C_32
REMARK                            x       y       z     vdW  Elec       q    Type
REMARK                         _______ _______ _______ _____ _____    ______ ____
ROOT
ATOM      1  C   UNL     1     -10.742  54.301  48.633  0.00  0.00    +0.000 A 
ATOM      2  C   UNL     1     -10.226  53.931  49.986  0.00  0.00    +0.000 A 
ATOM      3  C   UNL     1     -11.803  55.119  48.522  0.00  0.00    +0.000 A 
ATOM      4  O   UNL     1      -9.178  53.280  50.050  0.00  0.00    +0.000 OA
ATOM      5  N   UNL     1     -10.929  54.349  51.110  0.00  0.00    +0.000 N 
ATOM      6  C   UNL     1     -12.444  55.676  49.723  0.00  0.00    +0.000 A 
ATOM      7  C   UNL     1     -11.998  55.292  50.995  0.00  0.00    +0.000 A 
ATOM      8  C   UNL     1     -13.481  56.624  49.605  0.00  0.00    +0.000 A 
ATOM      9  C   UNL     1     -12.590  55.896  52.114  0.00  0.00    +0.000 A 
ATOM     10  C   UNL     1     -14.105  57.192  50.724  0.00  0.00    +0.000 A 
ATOM     11  C   UNL     1     -13.623  56.833  51.979  0.00  0.00    +0.000 A 
ENDROOT
BRANCH   1  17
ATOM     12  S   UNL     1      -7.911  53.817  45.948  0.00  0.00    +0.000 S 
ATOM     13  O   UNL     1      -6.881  52.889  46.370  0.00  0.00    +0.000 OA
ATOM     14  O   UNL     1      -7.559  55.040  45.255  0.00  0.00    +0.000 OA
ATOM     15  N   UNL     1      -8.778  54.217  47.257  0.00  0.00    +0.000 N 
ATOM     16  C   UNL     1      -8.945  52.924  44.846  0.00  0.00    +0.000 A 
ATOM     17  C   UNL     1     -10.004  53.805  47.402  0.00  0.00    +0.000 C 
ATOM     18  C   UNL     1     -10.226  52.613  45.272  0.00  0.00    +0.000 A 
ATOM     19  C   UNL     1      -8.476  52.566  43.579  0.00  0.00    +0.000 A 
ATOM     20  N   UNL     1     -10.679  52.971  46.537  0.00  0.00    +0.000 N 
ATOM     21  C   UNL     1     -11.040  51.853  44.420  0.00  0.00    +0.000 A 
ATOM     22  C   UNL     1      -9.313  51.841  42.730  0.00  0.00    +0.000 A 
ATOM     23  C   UNL     1     -10.590  51.475  43.155  0.00  0.00    +0.000 A 
ATOM     24  H   UNL     1      -8.372  54.781  47.954  0.00  0.00    +0.000 HD
ATOM     25  H   UNL     1     -11.542  52.604  46.836  0.00  0.00    +0.000 HD
ENDBRANCH   1  17
BRANCH   3  26
ATOM     26  O   UNL     1     -12.343  55.540  47.318  0.00  0.00    +0.000 OA
ATOM     27  H   UNL     1     -13.000  55.024  46.893  0.00  0.00    +0.000 HD
ENDBRANCH   3  26
BRANCH  10  28
ATOM     28  N   UNL     1     -15.076  58.196  50.525  0.00  0.00    +0.000 N 
ATOM     29  H   UNL     1     -15.951  58.003  50.117  0.00  0.00    +0.000 HD
BRANCH  28  30
ATOM     30  C   UNL     1     -14.698  59.552  50.966  0.00  0.00    +0.000 C 
BRANCH  30  31
ATOM     31  C   UNL     1     -13.949  60.259  49.841  0.00  0.00    +0.000 C 
ATOM     32  O   UNL     1     -12.734  60.359  49.768  0.00  0.00    +0.000 OA
ATOM     33  O   UNL     1     -14.791  60.793  48.917  0.00  0.00    +0.000 OA
ENDBRANCH  30  31
ENDBRANCH  28  30
ENDBRANCH  10  28
BRANCH   5  34
ATOM     34  C   UNL     1     -10.428  53.921  52.423  0.00  0.00    +0.000 C 
BRANCH  34  35
ATOM     35  C   UNL     1      -9.598  54.958  53.197  0.00  0.00    +0.000 C 
BRANCH  35  36
ATOM     36  C   UNL     1      -8.084  54.972  52.929  0.00  0.00    +0.000 C 
ATOM     37  C   UNL     1      -7.689  55.958  51.832  0.00  0.00    +0.000 C 
ATOM     38  C   UNL     1      -7.359  55.335  54.233  0.00  0.00    +0.000 C 
ENDBRANCH  35  36
ENDBRANCH  34  35
ENDBRANCH   5  34
TORSDOF 8
ENDMDL
MODEL 2
REMARK VINA RESULT:      -8.2      2.742      8.168
REMARK  Name = 338598
REMARK  10 active torsions:
REMARK  status: ('A' for Active; 'I' for Inactive)
REMARK    1  A    between atoms: C_6  and  C_10
REMARK    2  A    between atoms: C_14  and  O_18
REMARK    3  A    between atoms: N_17  and  C_21
REMARK    4  A    between atoms: C_21  and  C_24
REMARK    5  A    between atoms: C_24  and  C_27
REMARK    6  A    between atoms: C_25  and  N_28
REMARK    7  A    between atoms: C_27  and  C_29
REMARK    8  A    between atoms: C_27  and  C_30
REMARK    9  A    between atoms: N_28  and  C_31
REMARK   10  A    between atoms: C_31  and  C_32
REMARK                            x       y       z     vdW  Elec       q    Type
REMARK                         _______ _______ _______ _____ _____    ______ ____
ROOT
ATOM      1  C   UNL     1     -11.455  56.161  48.653  0.00  0.00    +0.000 A 
ATOM      2  C   UNL     1     -10.246  55.715  49.410  0.00  0.00    +0.000 A 
ATOM      3  C   UNL     1     -11.679  55.694  47.412  0.00  0.00    +0.000 A 
ATOM      4  O   UNL     1     -10.136  56.068  50.589  0.00  0.00    +0.000 OA
ATOM      5  N   UNL     1      -9.311  54.911  48.769  0.00  0.00    +0.000 N 
ATOM      6  C   UNL     1     -10.757  54.721  46.804  0.00  0.00    +0.000 A 
ATOM      7  C   UNL     1      -9.594  54.339  47.488  0.00  0.00    +0.000 A 
ATOM      8  C   UNL     1     -11.052  54.142  45.553  0.00  0.00    +0.000 A 
ATOM      9  C   UNL     1      -8.776  53.361  46.905  0.00  0.00    +0.000 A 
ATOM     10  C   UNL     1     -10.209  53.200  44.949  0.00  0.00    +0.000 A 
ATOM     11  C   UNL     1      -9.081  52.798  45.658  0.00  0.00    +0.000 A 
ENDROOT
BRANCH   1  17
ATOM     12  S   UNL     1     -13.600  59.351  49.474  0.00  0.00    +0.000 S 
ATOM     13  O   UNL     1     -14.760  59.493  48.615  0.00  0.00    +0.000 OA
ATOM     14  O   UNL     1     -12.802  60.508  49.826  0.00  0.00    +0.000 OA
ATOM     15  N   UNL     1     -12.619  58.254  48.797  0.00  0.00    +0.000 N 
ATOM     16  C   UNL     1     -14.199  58.704  50.992  0.00  0.00    +0.000 A 
ATOM     17  C   UNL     1     -12.453  57.080  49.334  0.00  0.00    +0.000 C 
ATOM     18  C   UNL     1     -13.863  57.400  51.314  0.00  0.00    +0.000 A 
ATOM     19  C   UNL     1     -14.972  59.503  51.840  0.00  0.00    +0.000 A 
ATOM     20  N   UNL     1     -13.097  56.613  50.460  0.00  0.00    +0.000 N 
ATOM     21  C   UNL     1     -14.380  56.856  52.498  0.00  0.00    +0.000 A 
ATOM     22  C   UNL     1     -15.449  58.957  53.031  0.00  0.00    +0.000 A 
ATOM     23  C   UNL     1     -15.163  57.631  53.355  0.00  0.00    +0.000 A 
ATOM     24  H   UNL     1     -12.141  58.479  47.967  0.00  0.00    +0.000 HD
ATOM     25  H   UNL     1     -13.007  55.657  50.674  0.00  0.00    +0.000 HD
ENDBRANCH   1  17
BRANCH   3  26
ATOM     26  O   UNL     1     -12.778  56.025  46.638  0.00  0.00    +0.000 OA
ATOM     27  H   UNL     1     -12.703  56.048  45.704  0.00  0.00    +0.000 HD
ENDBRANCH   3  26
BRANCH  10  28
ATOM     28  N   UNL     1     -10.615  52.603  43.737  0.00  0.00    +0.000 N 
ATOM     29  H   UNL     1     -11.505  52.197  43.627  0.00  0.00    +0.000 HD
BRANCH  28  30
ATOM     30  C   UNL     1      -9.623  52.626  42.645  0.00  0.00    +0.000 C 
BRANCH  30  31
ATOM     31  C   UNL     1      -8.960  51.256  42.537  0.00  0.00    +0.000 C 
ATOM     32  O   UNL     1      -9.510  50.194  42.783  0.00  0.00    +0.000 OA
ATOM     33  O   UNL     1      -7.661  51.342  42.145  0.00  0.00    +0.000 OA
ENDBRANCH  30  31
ENDBRANCH  28  30
ENDBRANCH  10  28
BRANCH   5  34
ATOM     34  C   UNL     1      -8.106  54.537  49.520  0.00  0.00    +0.000 C 
BRANCH  34  35
ATOM     35  C   UNL     1      -6.938  55.534  49.460  0.00  0.00    +0.000 C 
BRANCH  35  36
ATOM     36  C   UNL     1      -5.522  54.950  49.593  0.00  0.00    +0.000 C 
ATOM     37  C   UNL     1      -5.288  54.274  50.942  0.00  0.00    +0.000 C 
ATOM     38  C   UNL     1      -5.303  53.933  48.464  0.00  0.00    +0.000 C 
ENDBRANCH  35  36
ENDBRANCH  34  35
ENDBRANCH   5  34
TORSDOF 8
ENDMDL
MODEL 3
REMARK VINA RESULT:      -8.1      2.996      6.679
REMARK  Name = 338598
REMARK  10 active torsions:
REMARK  status: ('A' for Active; 'I' for Inactive)
REMARK    1  A    between atoms: C_6  and  C_10
REMARK    2  A    between atoms: C_14  and  O_18
REMARK    3  A    between atoms: N_17  and  C_21
REMARK    4  A    between atoms: C_21  and  C_24
REMARK    5  A    between atoms: C_24  and  C_27
REMARK    6  A    between atoms: C_25  and  N_28
REMARK    7  A    between atoms: C_27  and  C_29
REMARK    8  A    between atoms: C_27  and  C_30
REMARK    9  A    between atoms: N_28  and  C_31
REMARK   10  A    between atoms: C_31  and  C_32
REMARK                            x       y       z     vdW  Elec       q    Type
REMARK                         _______ _______ _______ _____ _____    ______ ____
ROOT
ATOM      1  C   UNL     1      -9.336  54.719  50.449  0.00  0.00    +0.000 A 
ATOM      2  C   UNL     1      -8.858  54.436  49.061  0.00  0.00    +0.000 A 
ATOM      3  C   UNL     1     -10.508  55.349  50.638  0.00  0.00    +0.000 A 
ATOM      4  O   UNL     1      -7.840  53.749  48.926  0.00  0.00    +0.000 OA
ATOM      5  N   UNL     1      -9.583  54.936  47.985  0.00  0.00    +0.000 N 
ATOM      6  C   UNL     1     -11.340  55.737  49.488  0.00  0.00    +0.000 A 
ATOM      7  C   UNL     1     -10.874  55.522  48.183  0.00  0.00    +0.000 A 
ATOM      8  C   UNL     1     -12.621  56.292  49.687  0.00  0.00    +0.000 A 
ATOM      9  C   UNL     1     -11.724  55.843  47.116  0.00  0.00    +0.000 A 
ATOM     10  C   UNL     1     -13.451  56.658  48.620  0.00  0.00    +0.000 A 
ATOM     11  C   UNL     1     -12.993  56.399  47.332  0.00  0.00    +0.000 A 
ENDROOT
BRANCH   1  17
ATOM     12  S   UNL     1      -6.312  54.168  52.900  0.00  0.00    +0.000 S 
ATOM     13  O   UNL     1      -6.138  55.258  53.841  0.00  0.00    +0.000 OA
ATOM     14  O   UNL     1      -5.163  53.552  52.269  0.00  0.00    +0.000 OA
ATOM     15  N   UNL     1      -7.309  54.684  51.731  0.00  0.00    +0.000 N 
ATOM     16  C   UNL     1      -7.114  52.885  53.790  0.00  0.00    +0.000 A 
ATOM     17  C   UNL     1      -8.518  54.217  51.625  0.00  0.00    +0.000 C 
ATOM     18  C   UNL     1      -8.429  52.598  53.463  0.00  0.00    +0.000 A 
ATOM     19  C   UNL     1      -6.422  52.179  54.779  0.00  0.00    +0.000 A 
ATOM     20  N   UNL     1      -9.107  53.310  52.481  0.00  0.00    +0.000 N 
ATOM     21  C   UNL     1      -9.094  51.611  54.205  0.00  0.00    +0.000 A 
ATOM     22  C   UNL     1      -7.089  51.177  55.483  0.00  0.00    +0.000 A 
ATOM     23  C   UNL     1      -8.428  50.900  55.205  0.00  0.00    +0.000 A 
ATOM     24  H   UNL     1      -6.993  55.361  51.090  0.00  0.00    +0.000 HD
ATOM     25  H   UNL     1     -10.075  53.156  52.389  0.00  0.00    +0.000 HD
ENDBRANCH   1  17
BRANCH   3  26
ATOM     26  O   UNL     1     -11.049  55.637  51.879  0.00  0.00    +0.000 OA
ATOM     27  H   UNL     1     -11.435  56.476  52.039  0.00  0.00    +0.000 HD
ENDBRANCH   3  26
BRANCH  10  28
ATOM     28  N   UNL     1     -14.751  57.127  48.899  0.00  0.00    +0.000 N 
ATOM     29  H   UNL     1     -15.466  57.121  48.222  0.00  0.00    +0.000 HD
BRANCH  28  30
ATOM     30  C   UNL     1     -14.974  57.626  50.271  0.00  0.00    +0.000 C 
BRANCH  30  31
ATOM     31  C   UNL     1     -15.973  56.720  50.983  0.00  0.00    +0.000 C 
ATOM     32  O   UNL     1     -16.773  55.987  50.421  0.00  0.00    +0.000 OA
ATOM     33  O   UNL     1     -15.891  56.825  52.335  0.00  0.00    +0.000 OA
ENDBRANCH  30  31
ENDBRANCH  28  30
ENDBRANCH  10  28
BRANCH   5  34
ATOM     34  C   UNL     1      -9.058  54.690  46.637  0.00  0.00    +0.000 C 
BRANCH  34  35
ATOM     35  C   UNL     1      -9.449  53.348  45.996  0.00  0.00    +0.000 C 
BRANCH  35  36
ATOM     36  C   UNL     1     -10.338  53.413  44.743  0.00  0.00    +0.000 C 
ATOM     37  C   UNL     1      -9.719  52.697  43.544  0.00  0.00    +0.000 C 
ATOM     38  C   UNL     1     -11.697  52.782  45.073  0.00  0.00    +0.000 C 
ENDBRANCH  35  36
ENDBRANCH  34  35
ENDBRANCH   5  34
TORSDOF 8
ENDMDL
MODEL 4
REMARK VINA RESULT:      -8.1      2.096      6.343
REMARK  Name = 338598
REMARK  10 active torsions:
REMARK  status: ('A' for Active; 'I' for Inactive)
REMARK    1  A    between atoms: C_6  and  C_10
REMARK    2  A    between atoms: C_14  and  O_18
REMARK    3  A    between atoms: N_17  and  C_21
REMARK    4  A    between atoms: C_21  and  C_24
REMARK    5  A    between atoms: C_24  and  C_27
REMARK    6  A    between atoms: C_25  and  N_28
REMARK    7  A    between atoms: C_27  and  C_29
REMARK    8  A    between atoms: C_27  and  C_30
REMARK    9  A    between atoms: N_28  and  C_31
REMARK   10  A    between atoms: C_31  and  C_32
REMARK                            x       y       z     vdW  Elec       q    Type
REMARK                         _______ _______ _______ _____ _____    ______ ____
ROOT
ATOM      1  C   UNL     1     -10.063  54.614  50.031  0.00  0.00    +0.000 A 
ATOM      2  C   UNL     1      -9.998  54.382  48.555  0.00  0.00    +0.000 A 
ATOM      3  C   UNL     1     -11.003  55.429  50.540  0.00  0.00    +0.000 A 
ATOM      4  O   UNL     1      -9.204  53.535  48.135  0.00  0.00    +0.000 OA
ATOM      5  N   UNL     1     -10.842  55.109  47.724  0.00  0.00    +0.000 N 
ATOM      6  C   UNL     1     -11.989  56.073  49.658  0.00  0.00    +0.000 A 
ATOM      7  C   UNL     1     -11.902  55.902  48.269  0.00  0.00    +0.000 A 
ATOM      8  C   UNL     1     -13.045  56.833  50.201  0.00  0.00    +0.000 A 
ATOM      9  C   UNL     1     -12.898  56.477  47.468  0.00  0.00    +0.000 A 
ATOM     10  C   UNL     1     -14.014  57.448  49.397  0.00  0.00    +0.000 A 
ATOM     11  C   UNL     1     -13.939  57.234  48.024  0.00  0.00    +0.000 A 
ENDROOT
BRANCH   1  17
ATOM     12  S   UNL     1      -8.140  51.642  51.740  0.00  0.00    +0.000 S 
ATOM     13  O   UNL     1      -7.040  51.140  50.938  0.00  0.00    +0.000 OA
ATOM     14  O   UNL     1      -9.009  50.724  52.449  0.00  0.00    +0.000 OA
ATOM     15  N   UNL     1      -9.064  52.567  50.783  0.00  0.00    +0.000 N 
ATOM     16  C   UNL     1      -7.415  52.662  52.970  0.00  0.00    +0.000 A 
ATOM     17  C   UNL     1      -9.108  53.858  50.937  0.00  0.00    +0.000 C 
ATOM     18  C   UNL     1      -7.629  54.027  52.884  0.00  0.00    +0.000 A 
ATOM     19  C   UNL     1      -6.666  52.090  54.003  0.00  0.00    +0.000 A 
ATOM     20  N   UNL     1      -8.372  54.584  51.849  0.00  0.00    +0.000 N 
ATOM     21  C   UNL     1      -7.010  54.855  53.831  0.00  0.00    +0.000 A 
ATOM     22  C   UNL     1      -6.086  52.926  54.958  0.00  0.00    +0.000 A 
ATOM     23  C   UNL     1      -6.248  54.309  54.866  0.00  0.00    +0.000 A 
ATOM     24  H   UNL     1      -9.601  52.145  50.074  0.00  0.00    +0.000 HD
ATOM     25  H   UNL     1      -8.374  55.564  51.761  0.00  0.00    +0.000 HD
ENDBRANCH   1  17
BRANCH   3  26
ATOM     26  O   UNL     1     -11.162  55.691  51.890  0.00  0.00    +0.000 OA
ATOM     27  H   UNL     1     -11.390  54.998  52.478  0.00  0.00    +0.000 HD
ENDBRANCH   3  26
BRANCH  10  28
ATOM     28  N   UNL     1     -15.086  58.120  50.019  0.00  0.00    +0.000 N 
ATOM     29  H   UNL     1     -16.005  57.767  50.001  0.00  0.00    +0.000 HD
BRANCH  28  30
ATOM     30  C   UNL     1     -14.745  59.386  50.696  0.00  0.00    +0.000 C 
BRANCH  30  31
ATOM     31  C   UNL     1     -14.210  60.380  49.670  0.00  0.00    +0.000 C 
ATOM     32  O   UNL     1     -14.867  60.868  48.763  0.00  0.00    +0.000 OA
ATOM     33  O   UNL     1     -12.894  60.661  49.863  0.00  0.00    +0.000 OA
ENDBRANCH  30  31
ENDBRANCH  28  30
ENDBRANCH  10  28
BRANCH   5  34
ATOM     34  C   UNL     1     -10.715  54.901  46.276  0.00  0.00    +0.000 C 
BRANCH  34  35
ATOM     35  C   UNL     1     -11.613  53.810  45.671  0.00  0.00    +0.000 C 
BRANCH  35  36
ATOM     36  C   UNL     1     -11.036  53.018  44.486  0.00  0.00    +0.000 C 
ATOM     37  C   UNL     1      -9.511  53.072  44.428  0.00  0.00    +0.000 C 
ATOM     38  C   UNL     1     -11.495  51.557  44.604  0.00  0.00    +0.000 C 
ENDBRANCH  35  36
ENDBRANCH  34  35
ENDBRANCH   5  34
TORSDOF 8
ENDMDL
MODEL 5
REMARK VINA RESULT:      -7.7      3.027      7.831
REMARK  Name = 338598
REMARK  10 active torsions:
REMARK  status: ('A' for Active; 'I' for Inactive)
REMARK    1  A    between atoms: C_6  and  C_10
REMARK    2  A    between atoms: C_14  and  O_18
REMARK    3  A    between atoms: N_17  and  C_21
REMARK    4  A    between atoms: C_21  and  C_24
REMARK    5  A    between atoms: C_24  and  C_27
REMARK    6  A    between atoms: C_25  and  N_28
REMARK    7  A    between atoms: C_27  and  C_29
REMARK    8  A    between atoms: C_27  and  C_30
REMARK    9  A    between atoms: N_28  and  C_31
REMARK   10  A    between atoms: C_31  and  C_32
REMARK                            x       y       z     vdW  Elec       q    Type
REMARK                         _______ _______ _______ _____ _____    ______ ____
ROOT
ATOM      1  C   UNL     1      -9.781  53.907  50.943  0.00  0.00    +0.000 A 
ATOM      2  C   UNL     1     -10.817  54.951  51.213  0.00  0.00    +0.000 A 
ATOM      3  C   UNL     1      -9.602  53.449  49.692  0.00  0.00    +0.000 A 
ATOM      4  O   UNL     1     -10.870  55.436  52.347  0.00  0.00    +0.000 OA
ATOM      5  N   UNL     1     -11.658  55.346  50.178  0.00  0.00    +0.000 N 
ATOM      6  C   UNL     1     -10.398  53.989  48.579  0.00  0.00    +0.000 A 
ATOM      7  C   UNL     1     -11.406  54.930  48.832  0.00  0.00    +0.000 A 
ATOM      8  C   UNL     1     -10.131  53.595  47.252  0.00  0.00    +0.000 A 
ATOM      9  C   UNL     1     -12.097  55.471  47.738  0.00  0.00    +0.000 A 
ATOM     10  C   UNL     1     -10.854  54.100  46.162  0.00  0.00    +0.000 A 
ATOM     11  C   UNL     1     -11.822  55.064  46.425  0.00  0.00    +0.000 A 
ENDROOT
BRANCH   1  17
ATOM     12  S   UNL     1      -6.585  53.308  53.152  0.00  0.00    +0.000 S 
ATOM     13  O   UNL     1      -6.235  54.455  53.968  0.00  0.00    +0.000 OA
ATOM     14  O   UNL     1      -5.554  52.543  52.479  0.00  0.00    +0.000 OA
ATOM     15  N   UNL     1      -7.648  53.806  52.035  0.00  0.00    +0.000 N 
ATOM     16  C   UNL     1      -7.394  52.179  54.226  0.00  0.00    +0.000 A 
ATOM     17  C   UNL     1      -8.895  53.438  52.082  0.00  0.00    +0.000 C 
ATOM     18  C   UNL     1      -8.752  51.979  54.047  0.00  0.00    +0.000 A 
ATOM     19  C   UNL     1      -6.666  51.503  55.210  0.00  0.00    +0.000 A 
ATOM     20  N   UNL     1      -9.466  52.661  53.068  0.00  0.00    +0.000 N 
ATOM     21  C   UNL     1      -9.416  51.120  54.934  0.00  0.00    +0.000 A 
ATOM     22  C   UNL     1      -7.337  50.625  56.060  0.00  0.00    +0.000 A 
ATOM     23  C   UNL     1      -8.713  50.442  55.931  0.00  0.00    +0.000 A 
ATOM     24  H   UNL     1      -7.345  54.396  51.308  0.00  0.00    +0.000 HD
ATOM     25  H   UNL     1     -10.447  52.584  53.078  0.00  0.00    +0.000 HD
ENDBRANCH   1  17
BRANCH   3  26
ATOM     26  O   UNL     1      -8.657  52.502  49.334  0.00  0.00    +0.000 OA
ATOM     27  H   UNL     1      -8.539  51.736  49.860  0.00  0.00    +0.000 HD
ENDBRANCH   3  26
BRANCH  10  28
ATOM     28  N   UNL     1     -10.471  53.722  44.859  0.00  0.00    +0.000 N 
ATOM     29  H   UNL     1     -11.087  53.789  44.093  0.00  0.00    +0.000 HD
BRANCH  28  30
ATOM     30  C   UNL     1      -9.091  53.219  44.714  0.00  0.00    +0.000 C 
BRANCH  30  31
ATOM     31  C   UNL     1      -8.966  52.460  43.397  0.00  0.00    +0.000 C 
ATOM     32  O   UNL     1      -9.639  52.676  42.401  0.00  0.00    +0.000 OA
ATOM     33  O   UNL     1      -8.018  51.487  43.451  0.00  0.00    +0.000 OA
ENDBRANCH  30  31
ENDBRANCH  28  30
ENDBRANCH  10  28
BRANCH   5  34
ATOM     34  C   UNL     1     -12.701  56.331  50.489  0.00  0.00    +0.000 C 
BRANCH  34  35
ATOM     35  C   UNL     1     -14.063  55.758  50.912  0.00  0.00    +0.000 C 
BRANCH  35  36
ATOM     36  C   UNL     1     -15.213  56.764  51.085  0.00  0.00    +0.000 C 
ATOM     37  C   UNL     1     -16.554  56.215  50.601  0.00  0.00    +0.000 C 
ATOM     38  C   UNL     1     -15.317  57.139  52.570  0.00  0.00    +0.000 C 
ENDBRANCH  35  36
ENDBRANCH  34  35
ENDBRANCH   5  34
TORSDOF 8
ENDMDL
MODEL 6
REMARK VINA RESULT:      -7.6      2.882      8.417
REMARK  Name = 338598
REMARK  10 active torsions:
REMARK  status: ('A' for Active; 'I' for Inactive)
REMARK    1  A    between atoms: C_6  and  C_10
REMARK    2  A    between atoms: C_14  and  O_18
REMARK    3  A    between atoms: N_17  and  C_21
REMARK    4  A    between atoms: C_21  and  C_24
REMARK    5  A    between atoms: C_24  and  C_27
REMARK    6  A    between atoms: C_25  and  N_28
REMARK    7  A    between atoms: C_27  and  C_29
REMARK    8  A    between atoms: C_27  and  C_30
REMARK    9  A    between atoms: N_28  and  C_31
REMARK   10  A    between atoms: C_31  and  C_32
REMARK                            x       y       z     vdW  Elec       q    Type
REMARK                         _______ _______ _______ _____ _____    ______ ____
ROOT
ATOM      1  C   UNL     1     -11.179  55.196  49.850  0.00  0.00    +0.000 A 
ATOM      2  C   UNL     1     -11.248  54.383  48.597  0.00  0.00    +0.000 A 
ATOM      3  C   UNL     1     -10.170  55.004  50.718  0.00  0.00    +0.000 A 
ATOM      4  O   UNL     1     -12.116  54.670  47.767  0.00  0.00    +0.000 OA
ATOM      5  N   UNL     1     -10.326  53.360  48.408  0.00  0.00    +0.000 N 
ATOM      6  C   UNL     1      -9.115  54.020  50.429  0.00  0.00    +0.000 A 
ATOM      7  C   UNL     1      -9.201  53.219  49.282  0.00  0.00    +0.000 A 
ATOM      8  C   UNL     1      -7.996  53.901  51.279  0.00  0.00    +0.000 A 
ATOM      9  C   UNL     1      -8.143  52.341  49.007  0.00  0.00    +0.000 A 
ATOM     10  C   UNL     1      -6.961  52.989  51.030  0.00  0.00    +0.000 A 
ATOM     11  C   UNL     1      -7.040  52.231  49.865  0.00  0.00    +0.000 A 
ENDROOT
BRANCH   1  17
ATOM     12  S   UNL     1     -13.288  58.476  49.358  0.00  0.00    +0.000 S 
ATOM     13  O   UNL     1     -14.337  58.333  48.366  0.00  0.00    +0.000 OA
ATOM     14  O   UNL     1     -12.495  59.687  49.418  0.00  0.00    +0.000 OA
ATOM     15  N   UNL     1     -12.276  57.222  49.185  0.00  0.00    +0.000 N 
ATOM     16  C   UNL     1     -14.078  58.344  50.920  0.00  0.00    +0.000 A 
ATOM     17  C   UNL     1     -12.214  56.281  50.082  0.00  0.00    +0.000 C 
ATOM     18  C   UNL     1     -13.828  57.211  51.675  0.00  0.00    +0.000 A 
ATOM     19  C   UNL     1     -14.914  59.370  51.372  0.00  0.00    +0.000 A 
ATOM     20  N   UNL     1     -12.998  56.196  51.212  0.00  0.00    +0.000 N 
ATOM     21  C   UNL     1     -14.496  57.072  52.900  0.00  0.00    +0.000 A 
ATOM     22  C   UNL     1     -15.542  59.231  52.609  0.00  0.00    +0.000 A 
ATOM     23  C   UNL     1     -15.343  58.078  53.368  0.00  0.00    +0.000 A 
ATOM     24  H   UNL     1     -11.699  57.172  48.390  0.00  0.00    +0.000 HD
ATOM     25  H   UNL     1     -12.968  55.357  51.727  0.00  0.00    +0.000 HD
ENDBRANCH   1  17
BRANCH   3  26
ATOM     26  O   UNL     1     -10.002  55.718  51.892  0.00  0.00    +0.000 OA
ATOM     27  H   UNL     1      -9.345  55.459  52.508  0.00  0.00    +0.000 HD
ENDBRANCH   3  26
BRANCH  10  28
ATOM     28  N   UNL     1      -5.836  52.989  51.879  0.00  0.00    +0.000 N 
ATOM     29  H   UNL     1      -5.344  52.164  52.094  0.00  0.00    +0.000 HD
BRANCH  28  30
ATOM     30  C   UNL     1      -5.442  54.303  52.425  0.00  0.00    +0.000 C 
BRANCH  30  31
ATOM     31  C   UNL     1      -5.351  54.211  53.945  0.00  0.00    +0.000 C 
ATOM     32  O   UNL     1      -6.115  53.572  54.652  0.00  0.00    +0.000 OA
ATOM     33  O   UNL     1      -4.320  54.943  54.444  0.00  0.00    +0.000 OA
ENDBRANCH  30  31
ENDBRANCH  28  30
ENDBRANCH  10  28
BRANCH   5  34
ATOM     34  C   UNL     1     -10.455  52.543  47.195  0.00  0.00    +0.000 C 
BRANCH  34  35
ATOM     35  C   UNL     1      -9.808  53.118  45.925  0.00  0.00    +0.000 C 
BRANCH  35  36
ATOM     36  C   UNL     1     -10.711  53.253  44.688  0.00  0.00    +0.000 C 
ATOM     37  C   UNL     1     -10.085  52.650  43.432  0.00  0.00    +0.000 C 
ATOM     38  C   UNL     1     -12.048  52.557  44.980  0.00  0.00    +0.000 C 
ENDBRANCH  35  36
ENDBRANCH  34  35
ENDBRANCH   5  34
TORSDOF 8
ENDMDL
MODEL 7
REMARK VINA RESULT:      -7.4      2.851      7.966
REMARK  Name = 338598
REMARK  10 active torsions:
REMARK  status: ('A' for Active; 'I' for Inactive)
REMARK    1  A    between atoms: C_6  and  C_10
REMARK    2  A    between atoms: C_14  and  O_18
REMARK    3  A    between atoms: N_17  and  C_21
REMARK    4  A    between atoms: C_21  and  C_24
REMARK    5  A    between atoms: C_24  and  C_27
REMARK    6  A    between atoms: C_25  and  N_28
REMARK    7  A    between atoms: C_27  and  C_29
REMARK    8  A    between atoms: C_27  and  C_30
REMARK    9  A    between atoms: N_28  and  C_31
REMARK   10  A    between atoms: C_31  and  C_32
REMARK                            x       y       z     vdW  Elec       q    Type
REMARK                         _______ _______ _______ _____ _____    ______ ____
ROOT
ATOM      1  C   UNL     1     -10.733  55.730  48.604  0.00  0.00    +0.000 A 
ATOM      2  C   UNL     1      -9.386  55.467  49.196  0.00  0.00    +0.000 A 
ATOM      3  C   UNL     1     -11.015  55.297  47.363  0.00  0.00    +0.000 A 
ATOM      4  O   UNL     1      -9.203  55.769  50.380  0.00  0.00    +0.000 OA
ATOM      5  N   UNL     1      -8.407  54.878  48.403  0.00  0.00    +0.000 N 
ATOM      6  C   UNL     1     -10.017  54.540  46.592  0.00  0.00    +0.000 A 
ATOM      7  C   UNL     1      -8.735  54.334  47.121  0.00  0.00    +0.000 A 
ATOM      8  C   UNL     1     -10.351  53.985  45.340  0.00  0.00    +0.000 A 
ATOM      9  C   UNL     1      -7.834  53.551  46.386  0.00  0.00    +0.000 A 
ATOM     10  C   UNL     1      -9.435  53.242  44.583  0.00  0.00    +0.000 A 
ATOM     11  C   UNL     1      -8.180  53.011  45.139  0.00  0.00    +0.000 A 
ENDROOT
BRANCH   1  17
ATOM     12  S   UNL     1     -13.457  56.326  51.375  0.00  0.00    +0.000 S 
ATOM     13  O   UNL     1     -12.888  56.613  52.678  0.00  0.00    +0.000 OA
ATOM     14  O   UNL     1     -14.606  55.452  51.252  0.00  0.00    +0.000 OA
ATOM     15  N   UNL     1     -12.273  55.730  50.444  0.00  0.00    +0.000 N 
ATOM     16  C   UNL     1     -13.960  57.873  50.716  0.00  0.00    +0.000 A 
ATOM     17  C   UNL     1     -11.788  56.418  49.451  0.00  0.00    +0.000 C 
ATOM     18  C   UNL     1     -13.248  58.378  49.641  0.00  0.00    +0.000 A 
ATOM     19  C   UNL     1     -15.057  58.545  51.263  0.00  0.00    +0.000 A 
ATOM     20  N   UNL     1     -12.156  57.702  49.109  0.00  0.00    +0.000 N 
ATOM     21  C   UNL     1     -13.609  59.637  49.142  0.00  0.00    +0.000 A 
ATOM     22  C   UNL     1     -15.424  59.780  50.731  0.00  0.00    +0.000 A 
ATOM     23  C   UNL     1     -14.694  60.332  49.679  0.00  0.00    +0.000 A 
ATOM     24  H   UNL     1     -11.914  54.832  50.631  0.00  0.00    +0.000 HD
ATOM     25  H   UNL     1     -11.606  58.172  48.441  0.00  0.00    +0.000 HD
ENDBRANCH   1  17
BRANCH   3  26
ATOM     26  O   UNL     1     -12.237  55.469  46.734  0.00  0.00    +0.000 OA
ATOM     27  H   UNL     1     -12.621  56.322  46.680  0.00  0.00    +0.000 HD
ENDBRANCH   3  26
BRANCH  10  28
ATOM     28  N   UNL     1      -9.870  52.649  43.380  0.00  0.00    +0.000 N 
ATOM     29  H   UNL     1      -9.740  53.083  42.506  0.00  0.00    +0.000 HD
BRANCH  28  30
ATOM     30  C   UNL     1     -10.532  51.336  43.513  0.00  0.00    +0.000 C 
BRANCH  30  31
ATOM     31  C   UNL     1      -9.495  50.229  43.356  0.00  0.00    +0.000 C 
ATOM     32  O   UNL     1      -9.223  49.401  44.212  0.00  0.00    +0.000 OA
ATOM     33  O   UNL     1      -8.879  50.268  42.145  0.00  0.00    +0.000 OA
ENDBRANCH  30  31
ENDBRANCH  28  30
ENDBRANCH  10  28
BRANCH   5  34
ATOM     34  C   UNL     1      -7.078  54.685  48.996  0.00  0.00    +0.000 C 
BRANCH  34  35
ATOM     35  C   UNL     1      -6.840  53.334  49.691  0.00  0.00    +0.000 C 
BRANCH  35  36
ATOM     36  C   UNL     1      -6.486  53.379  51.186  0.00  0.00    +0.000 C 
ATOM     37  C   UNL     1      -6.146  54.786  51.670  0.00  0.00    +0.000 C 
ATOM     38  C   UNL     1      -7.677  52.834  51.988  0.00  0.00    +0.000 C 
ENDBRANCH  35  36
ENDBRANCH  34  35
ENDBRANCH   5  34
TORSDOF 8
ENDMDL
MODEL 8
REMARK VINA RESULT:      -7.3      2.327      7.667
REMARK  Name = 338598
REMARK  10 active torsions:
REMARK  status: ('A' for Active; 'I' for Inactive)
REMARK    1  A    between atoms: C_6  and  C_10
REMARK    2  A    between atoms: C_14  and  O_18
REMARK    3  A    between atoms: N_17  and  C_21
REMARK    4  A    between atoms: C_21  and  C_24
REMARK    5  A    between atoms: C_24  and  C_27
REMARK    6  A    between atoms: C_25  and  N_28
REMARK    7  A    between atoms: C_27  and  C_29
REMARK    8  A    between atoms: C_27  and  C_30
REMARK    9  A    between atoms: N_28  and  C_31
REMARK   10  A    between atoms: C_31  and  C_32
REMARK                            x       y       z     vdW  Elec       q    Type
REMARK                         _______ _______ _______ _____ _____    ______ ____
ROOT
ATOM      1  C   UNL     1     -11.228  55.222  49.859  0.00  0.00    +0.000 A 
ATOM      2  C   UNL     1     -10.338  54.794  50.981  0.00  0.00    +0.000 A 
ATOM      3  C   UNL     1     -11.164  54.588  48.675  0.00  0.00    +0.000 A 
ATOM      4  O   UNL     1     -10.508  55.315  52.088  0.00  0.00    +0.000 OA
ATOM      5  N   UNL     1      -9.377  53.818  50.742  0.00  0.00    +0.000 N 
ATOM      6  C   UNL     1     -10.246  53.454  48.484  0.00  0.00    +0.000 A 
ATOM      7  C   UNL     1      -9.373  53.081  49.515  0.00  0.00    +0.000 A 
ATOM      8  C   UNL     1     -10.262  52.715  47.284  0.00  0.00    +0.000 A 
ATOM      9  C   UNL     1      -8.562  51.954  49.320  0.00  0.00    +0.000 A 
ATOM     10  C   UNL     1      -9.417  51.618  47.070  0.00  0.00    +0.000 A 
ATOM     11  C   UNL     1      -8.587  51.234  48.118  0.00  0.00    +0.000 A 
ENDROOT
BRANCH   1  17
ATOM     12  S   UNL     1     -13.281  58.544  49.409  0.00  0.00    +0.000 S 
ATOM     13  O   UNL     1     -14.331  58.433  48.415  0.00  0.00    +0.000 OA
ATOM     14  O   UNL     1     -12.467  59.741  49.487  0.00  0.00    +0.000 OA
ATOM     15  N   UNL     1     -12.290  57.276  49.221  0.00  0.00    +0.000 N 
ATOM     16  C   UNL     1     -14.075  58.404  50.969  0.00  0.00    +0.000 A 
ATOM     17  C   UNL     1     -12.245  56.322  50.104  0.00  0.00    +0.000 C 
ATOM     18  C   UNL     1     -13.845  57.257  51.709  0.00  0.00    +0.000 A 
ATOM     19  C   UNL     1     -14.894  59.438  51.434  0.00  0.00    +0.000 A 
ATOM     20  N   UNL     1     -13.032  56.234  51.232  0.00  0.00    +0.000 N 
ATOM     21  C   UNL     1     -14.517  57.112  52.930  0.00  0.00    +0.000 A 
ATOM     22  C   UNL     1     -15.526  59.292  52.669  0.00  0.00    +0.000 A 
ATOM     23  C   UNL     1     -15.348  58.125  53.411  0.00  0.00    +0.000 A 
ATOM     24  H   UNL     1     -11.712  57.227  48.426  0.00  0.00    +0.000 HD
ATOM     25  H   UNL     1     -13.016  55.388  51.736  0.00  0.00    +0.000 HD
ENDBRANCH   1  17
BRANCH   3  26
ATOM     26  O   UNL     1     -11.959  54.892  47.582  0.00  0.00    +0.000 OA
ATOM     27  H   UNL     1     -11.764  54.520  46.744  0.00  0.00    +0.000 HD
ENDBRANCH   3  26
BRANCH  10  28
ATOM     28  N   UNL     1      -9.552  50.878  45.877  0.00  0.00    +0.000 N 
ATOM     29  H   UNL     1      -9.393  49.907  45.843  0.00  0.00    +0.000 HD
BRANCH  28  30
ATOM     30  C   UNL     1      -9.948  51.650  44.683  0.00  0.00    +0.000 C 
BRANCH  30  31
ATOM     31  C   UNL     1      -8.697  52.083  43.924  0.00  0.00    +0.000 C 
ATOM     32  O   UNL     1      -7.903  51.320  43.395  0.00  0.00    +0.000 OA
ATOM     33  O   UNL     1      -8.543  53.433  43.911  0.00  0.00    +0.000 OA
ENDBRANCH  30  31
ENDBRANCH  28  30
ENDBRANCH  10  28
BRANCH   5  34
ATOM     34  C   UNL     1      -8.481  53.460  51.849  0.00  0.00    +0.000 C 
BRANCH  34  35
ATOM     35  C   UNL     1      -7.076  54.084  51.807  0.00  0.00    +0.000 C 
BRANCH  35  36
ATOM     36  C   UNL     1      -6.754  55.135  52.882  0.00  0.00    +0.000 C 
ATOM     37  C   UNL     1      -7.799  55.179  53.995  0.00  0.00    +0.000 C 
ATOM     38  C   UNL     1      -5.377  54.817  53.481  0.00  0.00    +0.000 C 
ENDBRANCH  35  36
ENDBRANCH  34  35
ENDBRANCH   5  34
TORSDOF 8
ENDMDL
MODEL 9
REMARK VINA RESULT:      -7.3      2.832      7.981
REMARK  Name = 338598
REMARK  10 active torsions:
REMARK  status: ('A' for Active; 'I' for Inactive)
REMARK    1  A    between atoms: C_6  and  C_10
REMARK    2  A    between atoms: C_14  and  O_18
REMARK    3  A    between atoms: N_17  and  C_21
REMARK    4  A    between atoms: C_21  and  C_24
REMARK    5  A    between atoms: C_24  and  C_27
REMARK    6  A    between atoms: C_25  and  N_28
REMARK    7  A    between atoms: C_27  and  C_29
REMARK    8  A    between atoms: C_27  and  C_30
REMARK    9  A    between atoms: N_28  and  C_31
REMARK   10  A    between atoms: C_31  and  C_32
REMARK                            x       y       z     vdW  Elec       q    Type
REMARK                         _______ _______ _______ _____ _____    ______ ____
ROOT
ATOM      1  C   UNL     1      -9.749  53.683  49.672  0.00  0.00    +0.000 A 
ATOM      2  C   UNL     1     -10.585  54.922  49.708  0.00  0.00    +0.000 A 
ATOM      3  C   UNL     1      -9.693  52.946  48.549  0.00  0.00    +0.000 A 
ATOM      4  O   UNL     1     -10.516  55.639  50.712  0.00  0.00    +0.000 OA
ATOM      5  N   UNL     1     -11.384  55.226  48.612  0.00  0.00    +0.000 N 
ATOM      6  C   UNL     1     -10.426  53.365  47.344  0.00  0.00    +0.000 A 
ATOM      7  C   UNL     1     -11.253  54.497  47.387  0.00  0.00    +0.000 A 
ATOM      8  C   UNL     1     -10.276  52.658  46.134  0.00  0.00    +0.000 A 
ATOM      9  C   UNL     1     -11.882  54.902  46.201  0.00  0.00    +0.000 A 
ATOM     10  C   UNL     1     -10.942  53.036  44.960  0.00  0.00    +0.000 A 
ATOM     11  C   UNL     1     -11.725  54.185  45.007  0.00  0.00    +0.000 A 
ENDROOT
BRANCH   1  17
ATOM     12  S   UNL     1      -8.318  51.656  52.721  0.00  0.00    +0.000 S 
ATOM     13  O   UNL     1      -7.342  50.657  52.331  0.00  0.00    +0.000 OA
ATOM     14  O   UNL     1      -9.312  51.357  53.732  0.00  0.00    +0.000 OA
ATOM     15  N   UNL     1      -9.095  52.133  51.381  0.00  0.00    +0.000 N 
ATOM     16  C   UNL     1      -7.397  53.015  53.344  0.00  0.00    +0.000 A 
ATOM     17  C   UNL     1      -8.914  53.322  50.887  0.00  0.00    +0.000 C 
ATOM     18  C   UNL     1      -7.377  54.178  52.593  0.00  0.00    +0.000 A 
ATOM     19  C   UNL     1      -6.730  52.907  54.568  0.00  0.00    +0.000 A 
ATOM     20  N   UNL     1      -8.041  54.271  51.376  0.00  0.00    +0.000 N 
ATOM     21  C   UNL     1      -6.600  55.250  53.056  0.00  0.00    +0.000 A 
ATOM     22  C   UNL     1      -5.991  53.996  55.030  0.00  0.00    +0.000 A 
ATOM     23  C   UNL     1      -5.916  55.163  54.270  0.00  0.00    +0.000 A 
ATOM     24  H   UNL     1      -9.715  51.512  50.934  0.00  0.00    +0.000 HD
ATOM     25  H   UNL     1      -7.877  55.069  50.823  0.00  0.00    +0.000 HD
ENDBRANCH   1  17
BRANCH   3  26
ATOM     26  O   UNL     1      -8.933  51.798  48.405  0.00  0.00    +0.000 OA
ATOM     27  H   UNL     1      -9.285  50.967  48.661  0.00  0.00    +0.000 HD
ENDBRANCH   3  26
BRANCH  10  28
ATOM     28  N   UNL     1     -10.674  52.329  43.769  0.00  0.00    +0.000 N 
ATOM     29  H   UNL     1     -11.276  52.370  42.991  0.00  0.00    +0.000 HD
BRANCH  28  30
ATOM     30  C   UNL     1      -9.437  51.526  43.763  0.00  0.00    +0.000 C 
BRANCH  30  31
ATOM     31  C   UNL     1      -8.491  52.063  42.693  0.00  0.00    +0.000 C 
ATOM     32  O   UNL     1      -8.514  53.200  42.250  0.00  0.00    +0.000 OA
ATOM     33  O   UNL     1      -7.612  51.120  42.263  0.00  0.00    +0.000 OA
ENDBRANCH  30  31
ENDBRANCH  28  30
ENDBRANCH  10  28
BRANCH   5  34
ATOM     34  C   UNL     1     -12.236  56.418  48.701  0.00  0.00    +0.000 C 
BRANCH  34  35
ATOM     35  C   UNL     1     -13.681  56.179  49.169  0.00  0.00    +0.000 C 
BRANCH  35  36
ATOM     36  C   UNL     1     -14.177  57.037  50.345  0.00  0.00    +0.000 C 
ATOM     37  C   UNL     1     -14.230  58.525  50.009  0.00  0.00    +0.000 C 
ATOM     38  C   UNL     1     -15.577  56.551  50.749  0.00  0.00    +0.000 C 
ENDBRANCH  35  36
ENDBRANCH  34  35
ENDBRANCH   5  34
TORSDOF 8
ENDMDL
