MODEL 1
REMARK VINA RESULT:      -8.2      0.000      0.000
REMARK  Name = 338298
REMARK  5 active torsions:
REMARK  status: ('A' for Active; 'I' for Inactive)
REMARK    1  A    between atoms: C_6  and  C_10
REMARK    2  A    between atoms: C_14  and  O_18
REMARK    3  A    between atoms: N_17  and  C_21
REMARK    4  A    between atoms: C_21  and  C_24
REMARK    5  A    between atoms: C_24  and  C_27
REMARK                            x       y       z     vdW  Elec       q    Type
REMARK                         _______ _______ _______ _____ _____    ______ ____
ROOT
ATOM      1  C   UNL     1     -10.126  54.405  52.274  0.00  0.00    +0.000 A 
ATOM      2  C   UNL     1      -8.746  54.944  52.117  0.00  0.00    +0.000 A 
ATOM      3  C   UNL     1     -10.340  53.310  53.018  0.00  0.00    +0.000 A 
ATOM      4  O   UNL     1      -8.625  55.941  51.400  0.00  0.00    +0.000 OA
ATOM      5  N   UNL     1      -7.687  54.341  52.786  0.00  0.00    +0.000 N 
ATOM      6  C   UNL     1      -9.222  52.660  53.717  0.00  0.00    +0.000 A 
ATOM      7  C   UNL     1      -7.911  53.161  53.582  0.00  0.00    +0.000 A 
ATOM      8  C   UNL     1      -9.465  51.539  54.534  0.00  0.00    +0.000 A 
ATOM      9  C   UNL     1      -6.875  52.491  54.256  0.00  0.00    +0.000 A 
ATOM     10  C   UNL     1      -8.430  50.916  55.225  0.00  0.00    +0.000 A 
ATOM     11  C   UNL     1      -7.135  51.389  55.081  0.00  0.00    +0.000 A 
ENDROOT
BRANCH   1  17
ATOM     12  S   UNL     1     -12.435  55.981  49.511  0.00  0.00    +0.000 S 
ATOM     13  O   UNL     1     -13.351  55.020  48.916  0.00  0.00    +0.000 OA
ATOM     14  O   UNL     1     -11.766  56.956  48.675  0.00  0.00    +0.000 OA
ATOM     15  N   UNL     1     -11.304  55.148  50.316  0.00  0.00    +0.000 N 
ATOM     16  C   UNL     1     -13.385  56.902  50.665  0.00  0.00    +0.000 A 
ATOM     17  C   UNL     1     -11.272  55.154  51.616  0.00  0.00    +0.000 C 
ATOM     18  C   UNL     1     -13.129  56.705  52.011  0.00  0.00    +0.000 A 
ATOM     19  C   UNL     1     -14.349  57.810  50.220  0.00  0.00    +0.000 A 
ATOM     20  N   UNL     1     -12.177  55.785  52.443  0.00  0.00    +0.000 N 
ATOM     21  C   UNL     1     -13.917  57.393  52.941  0.00  0.00    +0.000 A 
ATOM     22  C   UNL     1     -15.101  58.514  51.156  0.00  0.00    +0.000 A 
ATOM     23  C   UNL     1     -14.892  58.298  52.519  0.00  0.00    +0.000 A 
ATOM     24  H   UNL     1     -10.632  54.632  49.816  0.00  0.00    +0.000 HD
ATOM     25  H   UNL     1     -12.150  55.570  53.403  0.00  0.00    +0.000 HD
ENDBRANCH   1  17
BRANCH   3  26
ATOM     26  O   UNL     1     -11.583  52.732  53.211  0.00  0.00    +0.000 OA
ATOM     27  H   UNL     1     -11.666  51.800  53.241  0.00  0.00    +0.000 HD
ENDBRANCH   3  26
BRANCH   5  28
ATOM     28  C   UNL     1      -6.313  54.835  52.532  0.00  0.00    +0.000 C 
BRANCH  28  29
ATOM     29  C   UNL     1      -5.532  54.136  51.403  0.00  0.00    +0.000 C 
BRANCH  29  30
ATOM     30  C   UNL     1      -5.483  54.931  50.129  0.00  0.00    +0.000 C 
ATOM     31  C   UNL     1      -6.338  54.623  48.929  0.00  0.00    +0.000 C 
ATOM     32  C   UNL     1      -4.874  54.283  48.910  0.00  0.00    +0.000 C 
ENDBRANCH  29  30
ENDBRANCH  28  29
ENDBRANCH   5  28
TORSDOF 5
ENDMDL
MODEL 2
REMARK VINA RESULT:      -8.0      2.595      7.817
REMARK  Name = 338298
REMARK  5 active torsions:
REMARK  status: ('A' for Active; 'I' for Inactive)
REMARK    1  A    between atoms: C_6  and  C_10
REMARK    2  A    between atoms: C_14  and  O_18
REMARK    3  A    between atoms: N_17  and  C_21
REMARK    4  A    between atoms: C_21  and  C_24
REMARK    5  A    between atoms: C_24  and  C_27
REMARK                            x       y       z     vdW  Elec       q    Type
REMARK                         _______ _______ _______ _____ _____    ______ ____
ROOT
ATOM      1  C   UNL     1     -10.044  54.793  50.886  0.00  0.00    +0.000 A 
ATOM      2  C   UNL     1     -11.371  55.317  51.313  0.00  0.00    +0.000 A 
ATOM      3  C   UNL     1      -9.739  54.713  49.583  0.00  0.00    +0.000 A 
ATOM      4  O   UNL     1     -11.587  55.339  52.528  0.00  0.00    +0.000 OA
ATOM      5  N   UNL     1     -12.274  55.772  50.360  0.00  0.00    +0.000 N 
ATOM      6  C   UNL     1     -10.695  55.181  48.569  0.00  0.00    +0.000 A 
ATOM      7  C   UNL     1     -11.955  55.684  48.958  0.00  0.00    +0.000 A 
ATOM      8  C   UNL     1     -10.347  55.138  47.205  0.00  0.00    +0.000 A 
ATOM      9  C   UNL     1     -12.840  56.100  47.948  0.00  0.00    +0.000 A 
ATOM     10  C   UNL     1     -11.224  55.593  46.225  0.00  0.00    +0.000 A 
ATOM     11  C   UNL     1     -12.472  56.069  46.597  0.00  0.00    +0.000 A 
ENDROOT
BRANCH   1  17
ATOM     12  S   UNL     1      -6.767  54.711  53.057  0.00  0.00    +0.000 S 
ATOM     13  O   UNL     1      -6.727  55.755  54.069  0.00  0.00    +0.000 OA
ATOM     14  O   UNL     1      -5.575  54.386  52.304  0.00  0.00    +0.000 OA
ATOM     15  N   UNL     1      -7.938  55.091  52.005  0.00  0.00    +0.000 N 
ATOM     16  C   UNL     1      -7.224  53.240  53.901  0.00  0.00    +0.000 A 
ATOM     17  C   UNL     1      -9.041  54.405  51.960  0.00  0.00    +0.000 C 
ATOM     18  C   UNL     1      -8.483  52.721  53.651  0.00  0.00    +0.000 A 
ATOM     19  C   UNL     1      -6.328  52.621  54.775  0.00  0.00    +0.000 A 
ATOM     20  N   UNL     1      -9.374  53.356  52.790  0.00  0.00    +0.000 N 
ATOM     21  C   UNL     1      -8.879  51.579  54.359  0.00  0.00    +0.000 A 
ATOM     22  C   UNL     1      -6.721  51.466  55.445  0.00  0.00    +0.000 A 
ATOM     23  C   UNL     1      -8.002  50.950  55.244  0.00  0.00    +0.000 A 
ATOM     24  H   UNL     1      -7.813  55.851  51.392  0.00  0.00    +0.000 HD
ATOM     25  H   UNL     1     -10.304  53.034  52.775  0.00  0.00    +0.000 HD
ENDBRANCH   1  17
BRANCH   3  26
ATOM     26  O   UNL     1      -8.538  54.230  49.093  0.00  0.00    +0.000 OA
ATOM     27  H   UNL     1      -8.097  54.684  48.402  0.00  0.00    +0.000 HD
ENDBRANCH   3  26
BRANCH   5  28
ATOM     28  C   UNL     1     -13.624  56.193  50.804  0.00  0.00    +0.000 C 
BRANCH  28  29
ATOM     29  C   UNL     1     -13.834  57.703  51.023  0.00  0.00    +0.000 C 
BRANCH  29  30
ATOM     30  C   UNL     1     -14.075  58.072  52.459  0.00  0.00    +0.000 C 
ATOM     31  C   UNL     1     -15.339  57.728  53.200  0.00  0.00    +0.000 C 
ATOM     32  C   UNL     1     -15.096  59.143  52.756  0.00  0.00    +0.000 C 
ENDBRANCH  29  30
ENDBRANCH  28  29
ENDBRANCH   5  28
TORSDOF 5
ENDMDL
MODEL 3
REMARK VINA RESULT:      -8.0      3.447      4.439
REMARK  Name = 338298
REMARK  5 active torsions:
REMARK  status: ('A' for Active; 'I' for Inactive)
REMARK    1  A    between atoms: C_6  and  C_10
REMARK    2  A    between atoms: C_14  and  O_18
REMARK    3  A    between atoms: N_17  and  C_21
REMARK    4  A    between atoms: C_21  and  C_24
REMARK    5  A    between atoms: C_24  and  C_27
REMARK                            x       y       z     vdW  Elec       q    Type
REMARK                         _______ _______ _______ _____ _____    ______ ____
ROOT
ATOM      1  C   UNL     1     -12.425  54.249  49.868  0.00  0.00    +0.000 A 
ATOM      2  C   UNL     1     -12.145  54.012  48.425  0.00  0.00    +0.000 A 
ATOM      3  C   UNL     1     -11.930  53.415  50.795  0.00  0.00    +0.000 A 
ATOM      4  O   UNL     1     -12.652  54.808  47.630  0.00  0.00    +0.000 OA
ATOM      5  N   UNL     1     -11.326  52.956  48.042  0.00  0.00    +0.000 N 
ATOM      6  C   UNL     1     -11.075  52.288  50.397  0.00  0.00    +0.000 A 
ATOM      7  C   UNL     1     -10.797  52.054  49.033  0.00  0.00    +0.000 A 
ATOM      8  C   UNL     1     -10.521  51.447  51.380  0.00  0.00    +0.000 A 
ATOM      9  C   UNL     1      -9.989  50.951  48.705  0.00  0.00    +0.000 A 
ATOM     10  C   UNL     1      -9.691  50.385  51.034  0.00  0.00    +0.000 A 
ATOM     11  C   UNL     1      -9.430  50.135  49.696  0.00  0.00    +0.000 A 
ENDROOT
BRANCH   1  17
ATOM     12  S   UNL     1     -15.334  56.493  51.265  0.00  0.00    +0.000 S 
ATOM     13  O   UNL     1     -15.283  56.660  52.709  0.00  0.00    +0.000 OA
ATOM     14  O   UNL     1     -16.605  56.280  50.606  0.00  0.00    +0.000 OA
ATOM     15  N   UNL     1     -14.355  55.263  50.878  0.00  0.00    +0.000 N 
ATOM     16  C   UNL     1     -14.677  57.972  50.585  0.00  0.00    +0.000 A 
ATOM     17  C   UNL     1     -13.234  55.475  50.255  0.00  0.00    +0.000 C 
ATOM     18  C   UNL     1     -13.442  57.900  49.964  0.00  0.00    +0.000 A 
ATOM     19  C   UNL     1     -15.398  59.166  50.663  0.00  0.00    +0.000 A 
ATOM     20  N   UNL     1     -12.724  56.708  49.908  0.00  0.00    +0.000 N 
ATOM     21  C   UNL     1     -12.883  59.083  49.466  0.00  0.00    +0.000 A 
ATOM     22  C   UNL     1     -14.846  60.328  50.132  0.00  0.00    +0.000 A 
ATOM     23  C   UNL     1     -13.582  60.289  49.541  0.00  0.00    +0.000 A 
ATOM     24  H   UNL     1     -14.611  54.343  51.117  0.00  0.00    +0.000 HD
ATOM     25  H   UNL     1     -11.791  56.750  49.600  0.00  0.00    +0.000 HD
ENDBRANCH   1  17
BRANCH   3  26
ATOM     26  O   UNL     1     -12.147  53.548  52.156  0.00  0.00    +0.000 OA
ATOM     27  H   UNL     1     -12.731  54.207  52.475  0.00  0.00    +0.000 HD
ENDBRANCH   3  26
BRANCH   5  28
ATOM     28  C   UNL     1     -11.147  52.683  46.597  0.00  0.00    +0.000 C 
BRANCH  28  29
ATOM     29  C   UNL     1     -10.253  53.668  45.820  0.00  0.00    +0.000 C 
BRANCH  29  30
ATOM     30  C   UNL     1      -8.943  53.951  46.499  0.00  0.00    +0.000 C 
ATOM     31  C   UNL     1      -8.625  55.261  47.169  0.00  0.00    +0.000 C 
ATOM     32  C   UNL     1      -8.000  54.930  45.843  0.00  0.00    +0.000 C 
ENDBRANCH  29  30
ENDBRANCH  28  29
ENDBRANCH   5  28
TORSDOF 5
ENDMDL
MODEL 4
REMARK VINA RESULT:      -7.9      3.231      7.145
REMARK  Name = 338298
REMARK  5 active torsions:
REMARK  status: ('A' for Active; 'I' for Inactive)
REMARK    1  A    between atoms: C_6  and  C_10
REMARK    2  A    between atoms: C_14  and  O_18
REMARK    3  A    between atoms: N_17  and  C_21
REMARK    4  A    between atoms: C_21  and  C_24
REMARK    5  A    between atoms: C_24  and  C_27
REMARK                            x       y       z     vdW  Elec       q    Type
REMARK                         _______ _______ _______ _____ _____    ______ ____
ROOT
ATOM      1  C   UNL     1     -10.100  55.208  50.694  0.00  0.00    +0.000 A 
ATOM      2  C   UNL     1      -9.619  55.145  49.286  0.00  0.00    +0.000 A 
ATOM      3  C   UNL     1     -11.330  55.671  50.964  0.00  0.00    +0.000 A 
ATOM      4  O   UNL     1      -8.469  54.729  49.117  0.00  0.00    +0.000 OA
ATOM      5  N   UNL     1     -10.465  55.516  48.248  0.00  0.00    +0.000 N 
ATOM      6  C   UNL     1     -12.224  56.078  49.872  0.00  0.00    +0.000 A 
ATOM      7  C   UNL     1     -11.784  56.019  48.533  0.00  0.00    +0.000 A 
ATOM      8  C   UNL     1     -13.530  56.517  50.163  0.00  0.00    +0.000 A 
ATOM      9  C   UNL     1     -12.673  56.439  47.527  0.00  0.00    +0.000 A 
ATOM     10  C   UNL     1     -14.407  56.888  49.148  0.00  0.00    +0.000 A 
ATOM     11  C   UNL     1     -13.976  56.854  47.831  0.00  0.00    +0.000 A 
ENDROOT
BRANCH   1  17
ATOM     12  S   UNL     1      -6.967  54.789  53.031  0.00  0.00    +0.000 S 
ATOM     13  O   UNL     1      -6.925  55.763  54.110  0.00  0.00    +0.000 OA
ATOM     14  O   UNL     1      -5.753  54.439  52.324  0.00  0.00    +0.000 OA
ATOM     15  N   UNL     1      -8.050  55.306  51.944  0.00  0.00    +0.000 N 
ATOM     16  C   UNL     1      -7.557  53.299  53.748  0.00  0.00    +0.000 A 
ATOM     17  C   UNL     1      -9.187  54.693  51.793  0.00  0.00    +0.000 C 
ATOM     18  C   UNL     1      -8.827  52.874  53.396  0.00  0.00    +0.000 A 
ATOM     19  C   UNL     1      -6.750  52.572  54.628  0.00  0.00    +0.000 A 
ATOM     20  N   UNL     1      -9.627  53.616  52.533  0.00  0.00    +0.000 N 
ATOM     21  C   UNL     1      -9.328  51.717  54.005  0.00  0.00    +0.000 A 
ATOM     22  C   UNL     1      -7.248  51.404  55.197  0.00  0.00    +0.000 A 
ATOM     23  C   UNL     1      -8.543  50.980  54.893  0.00  0.00    +0.000 A 
ATOM     24  H   UNL     1      -7.846  56.093  51.390  0.00  0.00    +0.000 HD
ATOM     25  H   UNL     1     -10.572  53.353  52.445  0.00  0.00    +0.000 HD
ENDBRANCH   1  17
BRANCH   3  26
ATOM     26  O   UNL     1     -11.857  55.777  52.240  0.00  0.00    +0.000 OA
ATOM     27  H   UNL     1     -11.735  55.083  52.857  0.00  0.00    +0.000 HD
ENDBRANCH   3  26
BRANCH   5  28
ATOM     28  C   UNL     1      -9.928  55.540  46.867  0.00  0.00    +0.000 C 
BRANCH  28  29
ATOM     29  C   UNL     1      -9.903  54.194  46.118  0.00  0.00    +0.000 C 
BRANCH  29  30
ATOM     30  C   UNL     1     -11.167  53.908  45.358  0.00  0.00    +0.000 C 
ATOM     31  C   UNL     1     -11.986  52.661  45.555  0.00  0.00    +0.000 C 
ATOM     32  C   UNL     1     -11.141  52.812  44.322  0.00  0.00    +0.000 C 
ENDBRANCH  29  30
ENDBRANCH  28  29
ENDBRANCH   5  28
TORSDOF 5
ENDMDL
MODEL 5
REMARK VINA RESULT:      -7.8      1.949      2.546
REMARK  Name = 338298
REMARK  5 active torsions:
REMARK  status: ('A' for Active; 'I' for Inactive)
REMARK    1  A    between atoms: C_6  and  C_10
REMARK    2  A    between atoms: C_14  and  O_18
REMARK    3  A    between atoms: N_17  and  C_21
REMARK    4  A    between atoms: C_21  and  C_24
REMARK    5  A    between atoms: C_24  and  C_27
REMARK                            x       y       z     vdW  Elec       q    Type
REMARK                         _______ _______ _______ _____ _____    ______ ____
ROOT
ATOM      1  C   UNL     1     -11.188  54.520  50.901  0.00  0.00    +0.000 A 
ATOM      2  C   UNL     1      -9.762  54.911  50.720  0.00  0.00    +0.000 A 
ATOM      3  C   UNL     1     -11.506  53.252  51.203  0.00  0.00    +0.000 A 
ATOM      4  O   UNL     1      -9.550  56.089  50.421  0.00  0.00    +0.000 OA
ATOM      5  N   UNL     1      -8.757  53.971  50.917  0.00  0.00    +0.000 N 
ATOM      6  C   UNL     1     -10.448  52.251  51.399  0.00  0.00    +0.000 A 
ATOM      7  C   UNL     1      -9.092  52.607  51.236  0.00  0.00    +0.000 A 
ATOM      8  C   UNL     1     -10.789  50.934  51.763  0.00  0.00    +0.000 A 
ATOM      9  C   UNL     1      -8.121  51.606  51.416  0.00  0.00    +0.000 A 
ATOM     10  C   UNL     1      -9.808  49.970  51.976  0.00  0.00    +0.000 A 
ATOM     11  C   UNL     1      -8.475  50.306  51.798  0.00  0.00    +0.000 A 
ENDROOT
BRANCH   1  17
ATOM     12  S   UNL     1     -13.486  57.325  49.382  0.00  0.00    +0.000 S 
ATOM     13  O   UNL     1     -14.620  56.794  48.641  0.00  0.00    +0.000 OA
ATOM     14  O   UNL     1     -12.756  58.465  48.869  0.00  0.00    +0.000 OA
ATOM     15  N   UNL     1     -12.435  56.113  49.604  0.00  0.00    +0.000 N 
ATOM     16  C   UNL     1     -14.118  57.816  50.945  0.00  0.00    +0.000 A 
ATOM     17  C   UNL     1     -12.253  55.598  50.784  0.00  0.00    +0.000 C 
ATOM     18  C   UNL     1     -13.746  57.071  52.051  0.00  0.00    +0.000 A 
ATOM     19  C   UNL     1     -14.950  58.933  51.050  0.00  0.00    +0.000 A 
ATOM     20  N   UNL     1     -12.929  55.950  51.932  0.00  0.00    +0.000 N 
ATOM     21  C   UNL     1     -14.287  57.420  53.294  0.00  0.00    +0.000 A 
ATOM     22  C   UNL     1     -15.452  59.290  52.298  0.00  0.00    +0.000 A 
ATOM     23  C   UNL     1     -15.129  58.527  53.421  0.00  0.00    +0.000 A 
ATOM     24  H   UNL     1     -11.928  55.763  48.837  0.00  0.00    +0.000 HD
ATOM     25  H   UNL     1     -12.830  55.370  52.721  0.00  0.00    +0.000 HD
ENDBRANCH   1  17
BRANCH   3  26
ATOM     26  O   UNL     1     -12.801  52.796  51.378  0.00  0.00    +0.000 OA
ATOM     27  H   UNL     1     -13.031  52.327  52.155  0.00  0.00    +0.000 HD
ENDBRANCH   3  26
BRANCH   5  28
ATOM     28  C   UNL     1      -7.356  54.359  50.632  0.00  0.00    +0.000 C 
BRANCH  28  29
ATOM     29  C   UNL     1      -6.588  55.044  51.779  0.00  0.00    +0.000 C 
BRANCH  29  30
ATOM     30  C   UNL     1      -7.018  54.587  53.144  0.00  0.00    +0.000 C 
ATOM     31  C   UNL     1      -7.687  55.490  54.146  0.00  0.00    +0.000 C 
ATOM     32  C   UNL     1      -6.250  55.096  54.339  0.00  0.00    +0.000 C 
ENDBRANCH  29  30
ENDBRANCH  28  29
ENDBRANCH   5  28
TORSDOF 5
ENDMDL
MODEL 6
REMARK VINA RESULT:      -7.7      3.235      4.906
REMARK  Name = 338298
REMARK  5 active torsions:
REMARK  status: ('A' for Active; 'I' for Inactive)
REMARK    1  A    between atoms: C_6  and  C_10
REMARK    2  A    between atoms: C_14  and  O_18
REMARK    3  A    between atoms: N_17  and  C_21
REMARK    4  A    between atoms: C_21  and  C_24
REMARK    5  A    between atoms: C_24  and  C_27
REMARK                            x       y       z     vdW  Elec       q    Type
REMARK                         _______ _______ _______ _____ _____    ______ ____
ROOT
ATOM      1  C   UNL     1     -11.451  56.089  48.731  0.00  0.00    +0.000 A 
ATOM      2  C   UNL     1     -10.291  55.622  49.540  0.00  0.00    +0.000 A 
ATOM      3  C   UNL     1     -11.610  55.657  47.472  0.00  0.00    +0.000 A 
ATOM      4  O   UNL     1     -10.198  56.080  50.682  0.00  0.00    +0.000 OA
ATOM      5  N   UNL     1      -9.402  54.696  49.006  0.00  0.00    +0.000 N 
ATOM      6  C   UNL     1     -10.666  54.688  46.896  0.00  0.00    +0.000 A 
ATOM      7  C   UNL     1      -9.565  54.233  47.651  0.00  0.00    +0.000 A 
ATOM      8  C   UNL     1     -10.870  54.204  45.589  0.00  0.00    +0.000 A 
ATOM      9  C   UNL     1      -8.682  53.321  47.047  0.00  0.00    +0.000 A 
ATOM     10  C   UNL     1     -10.004  53.271  45.026  0.00  0.00    +0.000 A 
ATOM     11  C   UNL     1      -8.909  52.834  45.754  0.00  0.00    +0.000 A 
ENDROOT
BRANCH   1  17
ATOM     12  S   UNL     1     -13.607  59.284  49.503  0.00  0.00    +0.000 S 
ATOM     13  O   UNL     1     -14.765  59.414  48.634  0.00  0.00    +0.000 OA
ATOM     14  O   UNL     1     -12.821  60.452  49.841  0.00  0.00    +0.000 OA
ATOM     15  N   UNL     1     -12.617  58.187  48.841  0.00  0.00    +0.000 N 
ATOM     16  C   UNL     1     -14.213  58.650  51.024  0.00  0.00    +0.000 A 
ATOM     17  C   UNL     1     -12.460  57.017  49.385  0.00  0.00    +0.000 C 
ATOM     18  C   UNL     1     -13.878  57.348  51.357  0.00  0.00    +0.000 A 
ATOM     19  C   UNL     1     -14.989  59.453  51.864  0.00  0.00    +0.000 A 
ATOM     20  N   UNL     1     -13.118  56.553  50.504  0.00  0.00    +0.000 N 
ATOM     21  C   UNL     1     -14.401  56.814  52.541  0.00  0.00    +0.000 A 
ATOM     22  C   UNL     1     -15.472  58.920  53.055  0.00  0.00    +0.000 A 
ATOM     23  C   UNL     1     -15.186  57.596  53.390  0.00  0.00    +0.000 A 
ATOM     24  H   UNL     1     -12.128  58.408  48.016  0.00  0.00    +0.000 HD
ATOM     25  H   UNL     1     -13.047  55.594  50.715  0.00  0.00    +0.000 HD
ENDBRANCH   1  17
BRANCH   3  26
ATOM     26  O   UNL     1     -12.648  56.045  46.642  0.00  0.00    +0.000 OA
ATOM     27  H   UNL     1     -12.825  55.566  45.857  0.00  0.00    +0.000 HD
ENDBRANCH   3  26
BRANCH   5  28
ATOM     28  C   UNL     1      -8.203  54.325  49.793  0.00  0.00    +0.000 C 
BRANCH  28  29
ATOM     29  C   UNL     1      -6.987  55.264  49.671  0.00  0.00    +0.000 C 
BRANCH  29  30
ATOM     30  C   UNL     1      -5.809  54.632  48.986  0.00  0.00    +0.000 C 
ATOM     31  C   UNL     1      -5.407  53.195  49.187  0.00  0.00    +0.000 C 
ATOM     32  C   UNL     1      -4.599  54.293  49.820  0.00  0.00    +0.000 C 
ENDBRANCH  29  30
ENDBRANCH  28  29
ENDBRANCH   5  28
TORSDOF 5
ENDMDL
MODEL 7
REMARK VINA RESULT:      -7.6      1.598      2.306
REMARK  Name = 338298
REMARK  5 active torsions:
REMARK  status: ('A' for Active; 'I' for Inactive)
REMARK    1  A    between atoms: C_6  and  C_10
REMARK    2  A    between atoms: C_14  and  O_18
REMARK    3  A    between atoms: N_17  and  C_21
REMARK    4  A    between atoms: C_21  and  C_24
REMARK    5  A    between atoms: C_24  and  C_27
REMARK                            x       y       z     vdW  Elec       q    Type
REMARK                         _______ _______ _______ _____ _____    ______ ____
ROOT
ATOM      1  C   UNL     1     -10.187  54.432  52.173  0.00  0.00    +0.000 A 
ATOM      2  C   UNL     1      -8.769  54.878  52.074  0.00  0.00    +0.000 A 
ATOM      3  C   UNL     1     -10.505  53.360  52.914  0.00  0.00    +0.000 A 
ATOM      4  O   UNL     1      -8.551  55.858  51.356  0.00  0.00    +0.000 OA
ATOM      5  N   UNL     1      -7.782  54.214  52.794  0.00  0.00    +0.000 N 
ATOM      6  C   UNL     1      -9.464  52.645  53.666  0.00  0.00    +0.000 A 
ATOM      7  C   UNL     1      -8.118  53.059  53.586  0.00  0.00    +0.000 A 
ATOM      8  C   UNL     1      -9.815  51.551  54.479  0.00  0.00    +0.000 A 
ATOM      9  C   UNL     1      -7.159  52.328  54.310  0.00  0.00    +0.000 A 
ATOM     10  C   UNL     1      -8.855  50.868  55.219  0.00  0.00    +0.000 A 
ATOM     11  C   UNL     1      -7.527  51.254  55.131  0.00  0.00    +0.000 A 
ENDROOT
BRANCH   1  17
ATOM     12  S   UNL     1     -13.475  56.480  51.507  0.00  0.00    +0.000 S 
ATOM     13  O   UNL     1     -13.382  57.866  51.939  0.00  0.00    +0.000 OA
ATOM     14  O   UNL     1     -14.690  55.729  51.743  0.00  0.00    +0.000 OA
ATOM     15  N   UNL     1     -12.245  55.672  52.181  0.00  0.00    +0.000 N 
ATOM     16  C   UNL     1     -13.248  56.501  49.766  0.00  0.00    +0.000 A 
ATOM     17  C   UNL     1     -11.251  55.247  51.459  0.00  0.00    +0.000 C 
ATOM     18  C   UNL     1     -12.073  55.967  49.265  0.00  0.00    +0.000 A 
ATOM     19  C   UNL     1     -14.239  57.026  48.932  0.00  0.00    +0.000 A 
ATOM     20  N   UNL     1     -11.086  55.463  50.107  0.00  0.00    +0.000 N 
ATOM     21  C   UNL     1     -11.857  56.029  47.883  0.00  0.00    +0.000 A 
ATOM     22  C   UNL     1     -14.026  57.047  47.557  0.00  0.00    +0.000 A 
ATOM     23  C   UNL     1     -12.829  56.557  47.031  0.00  0.00    +0.000 A 
ATOM     24  H   UNL     1     -12.250  55.499  53.150  0.00  0.00    +0.000 HD
ATOM     25  H   UNL     1     -10.212  55.246  49.710  0.00  0.00    +0.000 HD
ENDBRANCH   1  17
BRANCH   3  26
ATOM     26  O   UNL     1     -11.790  52.866  53.055  0.00  0.00    +0.000 OA
ATOM     27  H   UNL     1     -11.927  52.009  53.406  0.00  0.00    +0.000 HD
ENDBRANCH   3  26
BRANCH   5  28
ATOM     28  C   UNL     1      -6.369  54.614  52.598  0.00  0.00    +0.000 C 
BRANCH  28  29
ATOM     29  C   UNL     1      -5.548  53.768  51.606  0.00  0.00    +0.000 C 
BRANCH  29  30
ATOM     30  C   UNL     1      -4.894  54.581  50.525  0.00  0.00    +0.000 C 
ATOM     31  C   UNL     1      -5.658  55.238  49.407  0.00  0.00    +0.000 C 
ATOM     32  C   UNL     1      -4.847  54.003  49.132  0.00  0.00    +0.000 C 
ENDBRANCH  29  30
ENDBRANCH  28  29
ENDBRANCH   5  28
TORSDOF 5
ENDMDL
MODEL 8
REMARK VINA RESULT:      -7.6      3.203      7.132
REMARK  Name = 338298
REMARK  5 active torsions:
REMARK  status: ('A' for Active; 'I' for Inactive)
REMARK    1  A    between atoms: C_6  and  C_10
REMARK    2  A    between atoms: C_14  and  O_18
REMARK    3  A    between atoms: N_17  and  C_21
REMARK    4  A    between atoms: C_21  and  C_24
REMARK    5  A    between atoms: C_24  and  C_27
REMARK                            x       y       z     vdW  Elec       q    Type
REMARK                         _______ _______ _______ _____ _____    ______ ____
ROOT
ATOM      1  C   UNL     1     -10.429  54.926  50.432  0.00  0.00    +0.000 A 
ATOM      2  C   UNL     1     -10.116  54.833  48.979  0.00  0.00    +0.000 A 
ATOM      3  C   UNL     1     -11.529  55.573  50.843  0.00  0.00    +0.000 A 
ATOM      4  O   UNL     1      -9.075  54.242  48.679  0.00  0.00    +0.000 OA
ATOM      5  N   UNL     1     -10.994  55.371  48.045  0.00  0.00    +0.000 N 
ATOM      6  C   UNL     1     -12.455  56.157  49.862  0.00  0.00    +0.000 A 
ATOM      7  C   UNL     1     -12.175  56.072  48.482  0.00  0.00    +0.000 A 
ATOM      8  C   UNL     1     -13.632  56.791  50.301  0.00  0.00    +0.000 A 
ATOM      9  C   UNL     1     -13.083  56.664  47.586  0.00  0.00    +0.000 A 
ATOM     10  C   UNL     1     -14.537  57.335  49.395  0.00  0.00    +0.000 A 
ATOM     11  C   UNL     1     -14.260  57.274  48.038  0.00  0.00    +0.000 A 
ENDROOT
BRANCH   1  17
ATOM     12  S   UNL     1      -8.974  52.243  52.910  0.00  0.00    +0.000 S 
ATOM     13  O   UNL     1      -8.295  51.150  52.233  0.00  0.00    +0.000 OA
ATOM     14  O   UNL     1      -9.831  51.971  54.045  0.00  0.00    +0.000 OA
ATOM     15  N   UNL     1      -9.846  53.040  51.803  0.00  0.00    +0.000 N 
ATOM     16  C   UNL     1      -7.708  53.306  53.501  0.00  0.00    +0.000 A 
ATOM     17  C   UNL     1      -9.502  54.233  51.416  0.00  0.00    +0.000 C 
ATOM     18  C   UNL     1      -7.571  54.543  52.894  0.00  0.00    +0.000 A 
ATOM     19  C   UNL     1      -6.891  52.907  54.562  0.00  0.00    +0.000 A 
ATOM     20  N   UNL     1      -8.381  54.922  51.827  0.00  0.00    +0.000 N 
ATOM     21  C   UNL     1      -6.530  55.376  53.320  0.00  0.00    +0.000 A 
ATOM     22  C   UNL     1      -5.883  53.761  54.999  0.00  0.00    +0.000 A 
ATOM     23  C   UNL     1      -5.695  54.994  54.372  0.00  0.00    +0.000 A 
ATOM     24  H   UNL     1     -10.647  52.617  51.418  0.00  0.00    +0.000 HD
ATOM     25  H   UNL     1      -8.135  55.737  51.333  0.00  0.00    +0.000 HD
ENDBRANCH   1  17
BRANCH   3  26
ATOM     26  O   UNL     1     -11.894  55.721  52.170  0.00  0.00    +0.000 OA
ATOM     27  H   UNL     1     -11.531  56.417  52.681  0.00  0.00    +0.000 HD
ENDBRANCH   3  26
BRANCH   5  28
ATOM     28  C   UNL     1     -10.609  55.353  46.615  0.00  0.00    +0.000 C 
BRANCH  28  29
ATOM     29  C   UNL     1     -11.220  54.230  45.755  0.00  0.00    +0.000 C 
BRANCH  29  30
ATOM     30  C   UNL     1     -10.230  53.169  45.366  0.00  0.00    +0.000 C 
ATOM     31  C   UNL     1      -8.994  53.448  44.553  0.00  0.00    +0.000 C 
ATOM     32  C   UNL     1     -10.166  52.754  43.917  0.00  0.00    +0.000 C 
ENDBRANCH  29  30
ENDBRANCH  28  29
ENDBRANCH   5  28
TORSDOF 5
ENDMDL
MODEL 9
REMARK VINA RESULT:      -7.6      4.314      7.974
REMARK  Name = 338298
REMARK  5 active torsions:
REMARK  status: ('A' for Active; 'I' for Inactive)
REMARK    1  A    between atoms: C_6  and  C_10
REMARK    2  A    between atoms: C_14  and  O_18
REMARK    3  A    between atoms: N_17  and  C_21
REMARK    4  A    between atoms: C_21  and  C_24
REMARK    5  A    between atoms: C_24  and  C_27
REMARK                            x       y       z     vdW  Elec       q    Type
REMARK                         _______ _______ _______ _____ _____    ______ ____
ROOT
ATOM      1  C   UNL     1     -10.810  54.891  47.947  0.00  0.00    +0.000 A 
ATOM      2  C   UNL     1     -12.102  55.565  47.641  0.00  0.00    +0.000 A 
ATOM      3  C   UNL     1     -10.389  54.787  49.216  0.00  0.00    +0.000 A 
ATOM      4  O   UNL     1     -12.412  55.643  46.449  0.00  0.00    +0.000 OA
ATOM      5  N   UNL     1     -12.898  56.039  48.678  0.00  0.00    +0.000 N 
ATOM      6  C   UNL     1     -11.220  55.299  50.316  0.00  0.00    +0.000 A 
ATOM      7  C   UNL     1     -12.449  55.935  50.042  0.00  0.00    +0.000 A 
ATOM      8  C   UNL     1     -10.792  55.141  51.648  0.00  0.00    +0.000 A 
ATOM      9  C   UNL     1     -13.195  56.424  51.129  0.00  0.00    +0.000 A 
ATOM     10  C   UNL     1     -11.567  55.597  52.710  0.00  0.00    +0.000 A 
ATOM     11  C   UNL     1     -12.766  56.242  52.450  0.00  0.00    +0.000 A 
ENDROOT
BRANCH   1  17
ATOM     12  S   UNL     1      -7.914  54.232  45.372  0.00  0.00    +0.000 S 
ATOM     13  O   UNL     1      -6.849  53.400  45.911  0.00  0.00    +0.000 OA
ATOM     14  O   UNL     1      -7.590  55.379  44.550  0.00  0.00    +0.000 OA
ATOM     15  N   UNL     1      -8.814  54.744  46.616  0.00  0.00    +0.000 N 
ATOM     16  C   UNL     1      -8.891  53.174  44.367  0.00  0.00    +0.000 A 
ATOM     17  C   UNL     1     -10.019  54.290  46.797  0.00  0.00    +0.000 C 
ATOM     18  C   UNL     1     -10.162  52.856  44.815  0.00  0.00    +0.000 A 
ATOM     19  C   UNL     1      -8.392  52.696  43.153  0.00  0.00    +0.000 A 
ATOM     20  N   UNL     1     -10.641  53.325  46.035  0.00  0.00    +0.000 N 
ATOM     21  C   UNL     1     -10.929  51.970  44.049  0.00  0.00    +0.000 A 
ATOM     22  C   UNL     1      -9.180  51.845  42.384  0.00  0.00    +0.000 A 
ATOM     23  C   UNL     1     -10.446  51.472  42.837  0.00  0.00    +0.000 A 
ATOM     24  H   UNL     1      -8.446  55.407  47.243  0.00  0.00    +0.000 HD
ATOM     25  H   UNL     1     -11.480  52.940  46.375  0.00  0.00    +0.000 HD
ENDBRANCH   1  17
BRANCH   3  26
ATOM     26  O   UNL     1      -9.199  54.189  49.595  0.00  0.00    +0.000 OA
ATOM     27  H   UNL     1      -8.582  54.663  50.115  0.00  0.00    +0.000 HD
ENDBRANCH   3  26
BRANCH   5  28
ATOM     28  C   UNL     1     -14.128  56.794  48.341  0.00  0.00    +0.000 C 
BRANCH  28  29
ATOM     29  C   UNL     1     -13.946  58.289  48.014  0.00  0.00    +0.000 C 
BRANCH  29  30
ATOM     30  C   UNL     1     -13.752  59.149  49.230  0.00  0.00    +0.000 C 
ATOM     31  C   UNL     1     -14.846  59.436  50.223  0.00  0.00    +0.000 C 
ATOM     32  C   UNL     1     -14.417  60.503  49.256  0.00  0.00    +0.000 C 
ENDBRANCH  29  30
ENDBRANCH  28  29
ENDBRANCH   5  28
TORSDOF 5
ENDMDL
