MODEL 1
REMARK VINA RESULT:      -8.6      0.000      0.000
REMARK  Name = 338534
REMARK  6 active torsions:
REMARK  status: ('A' for Active; 'I' for Inactive)
REMARK    1  A    between atoms: C_6  and  C_10
REMARK    2  A    between atoms: C_14  and  O_18
REMARK    3  A    between atoms: N_17  and  C_21
REMARK    4  A    between atoms: C_21  and  C_24
REMARK    5  A    between atoms: C_24  and  C_27
REMARK    6  A    between atoms: C_27  and  C_28
REMARK                            x       y       z     vdW  Elec       q    Type
REMARK                         _______ _______ _______ _____ _____    ______ ____
ROOT
ATOM      1  C   UNL     1     -10.116  54.756  50.849  0.00  0.00    +0.000 A 
ATOM      2  C   UNL     1     -11.431  55.349  51.239  0.00  0.00    +0.000 A 
ATOM      3  C   UNL     1      -9.800  54.625  49.549  0.00  0.00    +0.000 A 
ATOM      4  O   UNL     1     -11.652  55.538  52.441  0.00  0.00    +0.000 OA
ATOM      5  N   UNL     1     -12.347  55.676  50.244  0.00  0.00    +0.000 N 
ATOM      6  C   UNL     1     -10.725  55.091  48.506  0.00  0.00    +0.000 A 
ATOM      7  C   UNL     1     -11.973  55.631  48.862  0.00  0.00    +0.000 A 
ATOM      8  C   UNL     1     -10.360  55.026  47.148  0.00  0.00    +0.000 A 
ATOM      9  C   UNL     1     -12.799  56.139  47.846  0.00  0.00    +0.000 A 
ATOM     10  C   UNL     1     -11.210  55.500  46.151  0.00  0.00    +0.000 A 
ATOM     11  C   UNL     1     -12.428  56.062  46.502  0.00  0.00    +0.000 A 
ENDROOT
BRANCH   1  17
ATOM     12  S   UNL     1      -6.879  54.737  53.080  0.00  0.00    +0.000 S 
ATOM     13  O   UNL     1      -6.892  55.772  54.095  0.00  0.00    +0.000 OA
ATOM     14  O   UNL     1      -5.665  54.445  52.344  0.00  0.00    +0.000 OA
ATOM     15  N   UNL     1      -8.042  55.083  52.008  0.00  0.00    +0.000 N 
ATOM     16  C   UNL     1      -7.312  53.245  53.904  0.00  0.00    +0.000 A 
ATOM     17  C   UNL     1      -9.127  54.370  51.935  0.00  0.00    +0.000 C 
ATOM     18  C   UNL     1      -8.554  52.696  53.632  0.00  0.00    +0.000 A 
ATOM     19  C   UNL     1      -6.410  52.648  54.790  0.00  0.00    +0.000 A 
ATOM     20  N   UNL     1      -9.443  53.304  52.750  0.00  0.00    +0.000 N 
ATOM     21  C   UNL     1      -8.931  51.545  54.333  0.00  0.00    +0.000 A 
ATOM     22  C   UNL     1      -6.785  51.481  55.451  0.00  0.00    +0.000 A 
ATOM     23  C   UNL     1      -8.050  50.936  55.232  0.00  0.00    +0.000 A 
ATOM     24  H   UNL     1      -7.926  55.849  51.400  0.00  0.00    +0.000 HD
ATOM     25  H   UNL     1     -10.360  52.948  52.704  0.00  0.00    +0.000 HD
ENDBRANCH   1  17
BRANCH   3  26
ATOM     26  O   UNL     1      -8.601  54.112  49.083  0.00  0.00    +0.000 OA
ATOM     27  H   UNL     1      -8.521  53.195  48.909  0.00  0.00    +0.000 HD
ENDBRANCH   3  26
BRANCH   5  28
ATOM     28  C   UNL     1     -13.645  56.221  50.663  0.00  0.00    +0.000 C 
BRANCH  28  29
ATOM     29  C   UNL     1     -13.719  57.745  50.824  0.00  0.00    +0.000 C 
BRANCH  29  30
ATOM     30  C   UNL     1     -15.004  58.272  51.461  0.00  0.00    +0.000 C 
BRANCH  30  31
ATOM     31  C   UNL     1     -15.096  57.876  52.930  0.00  0.00    +0.000 C 
ATOM     32  F   UNL     1     -13.888  57.588  53.464  0.00  0.00    +0.000 F 
ATOM     33  F   UNL     1     -15.636  58.872  53.666  0.00  0.00    +0.000 F 
ATOM     34  F   UNL     1     -15.875  56.783  53.085  0.00  0.00    +0.000 F 
ENDBRANCH  30  31
ENDBRANCH  29  30
ENDBRANCH  28  29
ENDBRANCH   5  28
TORSDOF 6
ENDMDL
MODEL 2
REMARK VINA RESULT:      -8.5      3.858      7.884
REMARK  Name = 338534
REMARK  6 active torsions:
REMARK  status: ('A' for Active; 'I' for Inactive)
REMARK    1  A    between atoms: C_6  and  C_10
REMARK    2  A    between atoms: C_14  and  O_18
REMARK    3  A    between atoms: N_17  and  C_21
REMARK    4  A    between atoms: C_21  and  C_24
REMARK    5  A    between atoms: C_24  and  C_27
REMARK    6  A    between atoms: C_27  and  C_28
REMARK                            x       y       z     vdW  Elec       q    Type
REMARK                         _______ _______ _______ _____ _____    ______ ____
ROOT
ATOM      1  C   UNL     1     -10.156  54.546  52.148  0.00  0.00    +0.000 A 
ATOM      2  C   UNL     1      -8.771  55.072  51.946  0.00  0.00    +0.000 A 
ATOM      3  C   UNL     1     -10.351  53.447  52.897  0.00  0.00    +0.000 A 
ATOM      4  O   UNL     1      -8.635  56.134  51.329  0.00  0.00    +0.000 OA
ATOM      5  N   UNL     1      -7.695  54.359  52.467  0.00  0.00    +0.000 N 
ATOM      6  C   UNL     1      -9.217  52.774  53.546  0.00  0.00    +0.000 A 
ATOM      7  C   UNL     1      -7.909  53.249  53.346  0.00  0.00    +0.000 A 
ATOM      8  C   UNL     1      -9.431  51.671  54.394  0.00  0.00    +0.000 A 
ATOM      9  C   UNL     1      -6.858  52.633  54.043  0.00  0.00    +0.000 A 
ATOM     10  C   UNL     1      -8.370  51.049  55.047  0.00  0.00    +0.000 A 
ATOM     11  C   UNL     1      -7.083  51.534  54.875  0.00  0.00    +0.000 A 
ENDROOT
BRANCH   1  17
ATOM     12  S   UNL     1     -12.558  56.179  49.499  0.00  0.00    +0.000 S 
ATOM     13  O   UNL     1     -13.463  55.219  48.897  0.00  0.00    +0.000 OA
ATOM     14  O   UNL     1     -11.924  57.200  48.689  0.00  0.00    +0.000 OA
ATOM     15  N   UNL     1     -11.393  55.348  50.257  0.00  0.00    +0.000 N 
ATOM     16  C   UNL     1     -13.500  57.040  50.709  0.00  0.00    +0.000 A 
ATOM     17  C   UNL     1     -11.330  55.305  51.555  0.00  0.00    +0.000 C 
ATOM     18  C   UNL     1     -13.214  56.796  52.041  0.00  0.00    +0.000 A 
ATOM     19  C   UNL     1     -14.491  57.943  50.312  0.00  0.00    +0.000 A 
ATOM     20  N   UNL     1     -12.227  55.891  52.422  0.00  0.00    +0.000 N 
ATOM     21  C   UNL     1     -14.003  57.428  53.008  0.00  0.00    +0.000 A 
ATOM     22  C   UNL     1     -15.242  58.594  51.287  0.00  0.00    +0.000 A 
ATOM     23  C   UNL     1     -15.007  58.328  52.635  0.00  0.00    +0.000 A 
ATOM     24  H   UNL     1     -10.719  54.866  49.725  0.00  0.00    +0.000 HD
ATOM     25  H   UNL     1     -12.164  55.654  53.376  0.00  0.00    +0.000 HD
ENDBRANCH   1  17
BRANCH   3  26
ATOM     26  O   UNL     1     -11.592  52.894  53.165  0.00  0.00    +0.000 OA
ATOM     27  H   UNL     1     -11.934  52.220  52.611  0.00  0.00    +0.000 HD
ENDBRANCH   3  26
BRANCH   5  28
ATOM     28  C   UNL     1      -6.346  54.883  52.217  0.00  0.00    +0.000 C 
BRANCH  28  29
ATOM     29  C   UNL     1      -5.614  54.313  50.996  0.00  0.00    +0.000 C 
BRANCH  29  30
ATOM     30  C   UNL     1      -5.670  55.178  49.737  0.00  0.00    +0.000 C 
BRANCH  30  31
ATOM     31  C   UNL     1      -6.690  54.639  48.741  0.00  0.00    +0.000 C 
ATOM     32  F   UNL     1      -7.367  53.572  49.221  0.00  0.00    +0.000 F 
ATOM     33  F   UNL     1      -7.600  55.585  48.422  0.00  0.00    +0.000 F 
ATOM     34  F   UNL     1      -6.086  54.249  47.598  0.00  0.00    +0.000 F 
ENDBRANCH  30  31
ENDBRANCH  29  30
ENDBRANCH  28  29
ENDBRANCH   5  28
TORSDOF 6
ENDMDL
MODEL 3
REMARK VINA RESULT:      -8.5      3.657      7.282
REMARK  Name = 338534
REMARK  6 active torsions:
REMARK  status: ('A' for Active; 'I' for Inactive)
REMARK    1  A    between atoms: C_6  and  C_10
REMARK    2  A    between atoms: C_14  and  O_18
REMARK    3  A    between atoms: N_17  and  C_21
REMARK    4  A    between atoms: C_21  and  C_24
REMARK    5  A    between atoms: C_24  and  C_27
REMARK    6  A    between atoms: C_27  and  C_28
REMARK                            x       y       z     vdW  Elec       q    Type
REMARK                         _______ _______ _______ _____ _____    ______ ____
ROOT
ATOM      1  C   UNL     1     -11.737  54.000  51.009  0.00  0.00    +0.000 A 
ATOM      2  C   UNL     1     -10.870  53.926  52.225  0.00  0.00    +0.000 A 
ATOM      3  C   UNL     1     -11.793  52.957  50.164  0.00  0.00    +0.000 A 
ATOM      4  O   UNL     1     -10.911  54.864  53.028  0.00  0.00    +0.000 OA
ATOM      5  N   UNL     1     -10.065  52.807  52.413  0.00  0.00    +0.000 N 
ATOM      6  C   UNL     1     -11.033  51.729  50.440  0.00  0.00    +0.000 A 
ATOM      7  C   UNL     1     -10.199  51.658  51.570  0.00  0.00    +0.000 A 
ATOM      8  C   UNL     1     -11.154  50.609  49.596  0.00  0.00    +0.000 A 
ATOM      9  C   UNL     1      -9.550  50.444  51.848  0.00  0.00    +0.000 A 
ATOM     10  C   UNL     1     -10.472  49.426  49.868  0.00  0.00    +0.000 A 
ATOM     11  C   UNL     1      -9.673  49.343  50.998  0.00  0.00    +0.000 A 
ENDROOT
BRANCH   1  17
ATOM     12  S   UNL     1     -13.402  57.086  49.232  0.00  0.00    +0.000 S 
ATOM     13  O   UNL     1     -14.528  56.713  48.399  0.00  0.00    +0.000 OA
ATOM     14  O   UNL     1     -12.450  58.081  48.779  0.00  0.00    +0.000 OA
ATOM     15  N   UNL     1     -12.582  55.735  49.587  0.00  0.00    +0.000 N 
ATOM     16  C   UNL     1     -14.090  57.722  50.720  0.00  0.00    +0.000 A 
ATOM     17  C   UNL     1     -12.594  55.233  50.786  0.00  0.00    +0.000 C 
ATOM     18  C   UNL     1     -13.953  56.962  51.870  0.00  0.00    +0.000 A 
ATOM     19  C   UNL     1     -14.738  58.961  50.718  0.00  0.00    +0.000 A 
ATOM     20  N   UNL     1     -13.308  55.728  51.856  0.00  0.00    +0.000 N 
ATOM     21  C   UNL     1     -14.555  57.431  53.042  0.00  0.00    +0.000 A 
ATOM     22  C   UNL     1     -15.299  59.432  51.903  0.00  0.00    +0.000 A 
ATOM     23  C   UNL     1     -15.218  58.662  53.062  0.00  0.00    +0.000 A 
ATOM     24  H   UNL     1     -12.064  55.285  48.880  0.00  0.00    +0.000 HD
ATOM     25  H   UNL     1     -13.365  55.171  52.666  0.00  0.00    +0.000 HD
ENDBRANCH   1  17
BRANCH   3  26
ATOM     26  O   UNL     1     -12.581  52.915  49.025  0.00  0.00    +0.000 OA
ATOM     27  H   UNL     1     -12.325  53.393  48.261  0.00  0.00    +0.000 HD
ENDBRANCH   3  26
BRANCH   5  28
ATOM     28  C   UNL     1      -9.196  52.783  53.597  0.00  0.00    +0.000 C 
BRANCH  28  29
ATOM     29  C   UNL     1      -7.714  53.101  53.357  0.00  0.00    +0.000 C 
BRANCH  29  30
ATOM     30  C   UNL     1      -7.416  54.534  52.917  0.00  0.00    +0.000 C 
BRANCH  30  31
ATOM     31  C   UNL     1      -7.243  55.455  54.119  0.00  0.00    +0.000 C 
ATOM     32  F   UNL     1      -8.424  55.795  54.683  0.00  0.00    +0.000 F 
ATOM     33  F   UNL     1      -6.493  54.866  55.075  0.00  0.00    +0.000 F 
ATOM     34  F   UNL     1      -6.625  56.602  53.760  0.00  0.00    +0.000 F 
ENDBRANCH  30  31
ENDBRANCH  29  30
ENDBRANCH  28  29
ENDBRANCH   5  28
TORSDOF 6
ENDMDL
MODEL 4
REMARK VINA RESULT:      -8.3      3.827      6.963
REMARK  Name = 338534
REMARK  6 active torsions:
REMARK  status: ('A' for Active; 'I' for Inactive)
REMARK    1  A    between atoms: C_6  and  C_10
REMARK    2  A    between atoms: C_14  and  O_18
REMARK    3  A    between atoms: N_17  and  C_21
REMARK    4  A    between atoms: C_21  and  C_24
REMARK    5  A    between atoms: C_24  and  C_27
REMARK    6  A    between atoms: C_27  and  C_28
REMARK                            x       y       z     vdW  Elec       q    Type
REMARK                         _______ _______ _______ _____ _____    ______ ____
ROOT
ATOM      1  C   UNL     1     -11.338  55.970  48.929  0.00  0.00    +0.000 A 
ATOM      2  C   UNL     1     -10.313  55.363  49.833  0.00  0.00    +0.000 A 
ATOM      3  C   UNL     1     -11.376  55.621  47.632  0.00  0.00    +0.000 A 
ATOM      4  O   UNL     1     -10.363  55.636  51.037  0.00  0.00    +0.000 OA
ATOM      5  N   UNL     1      -9.356  54.509  49.292  0.00  0.00    +0.000 N 
ATOM      6  C   UNL     1     -10.438  54.623  47.099  0.00  0.00    +0.000 A 
ATOM      7  C   UNL     1      -9.458  54.061  47.936  0.00  0.00    +0.000 A 
ATOM      8  C   UNL     1     -10.530  54.200  45.759  0.00  0.00    +0.000 A 
ATOM      9  C   UNL     1      -8.630  53.053  47.417  0.00  0.00    +0.000 A 
ATOM     10  C   UNL     1      -9.674  53.225  45.252  0.00  0.00    +0.000 A 
ATOM     11  C   UNL     1      -8.727  52.648  46.084  0.00  0.00    +0.000 A 
ENDROOT
BRANCH   1  17
ATOM     12  S   UNL     1     -13.527  59.193  49.449  0.00  0.00    +0.000 S 
ATOM     13  O   UNL     1     -14.656  59.257  48.542  0.00  0.00    +0.000 OA
ATOM     14  O   UNL     1     -12.753  60.383  49.744  0.00  0.00    +0.000 OA
ATOM     15  N   UNL     1     -12.512  58.061  48.894  0.00  0.00    +0.000 N 
ATOM     16  C   UNL     1     -14.175  58.648  50.990  0.00  0.00    +0.000 A 
ATOM     17  C   UNL     1     -12.364  56.926  49.511  0.00  0.00    +0.000 C 
ATOM     18  C   UNL     1     -13.851  57.369  51.410  0.00  0.00    +0.000 A 
ATOM     19  C   UNL     1     -14.979  59.501  51.753  0.00  0.00    +0.000 A 
ATOM     20  N   UNL     1     -13.051  56.529  50.639  0.00  0.00    +0.000 N 
ATOM     21  C   UNL     1     -14.415  56.906  52.603  0.00  0.00    +0.000 A 
ATOM     22  C   UNL     1     -15.503  59.039  52.957  0.00  0.00    +0.000 A 
ATOM     23  C   UNL     1     -15.231  57.737  53.377  0.00  0.00    +0.000 A 
ATOM     24  H   UNL     1     -11.996  58.235  48.074  0.00  0.00    +0.000 HD
ATOM     25  H   UNL     1     -12.971  55.588  50.917  0.00  0.00    +0.000 HD
ENDBRANCH   1  17
BRANCH   3  26
ATOM     26  O   UNL     1     -12.297  56.106  46.718  0.00  0.00    +0.000 OA
ATOM     27  H   UNL     1     -12.411  57.031  46.614  0.00  0.00    +0.000 HD
ENDBRANCH   3  26
BRANCH   5  28
ATOM     28  C   UNL     1      -8.341  53.960  50.201  0.00  0.00    +0.000 C 
BRANCH  28  29
ATOM     29  C   UNL     1      -7.072  54.802  50.386  0.00  0.00    +0.000 C 
BRANCH  29  30
ATOM     30  C   UNL     1      -6.496  54.814  51.801  0.00  0.00    +0.000 C 
BRANCH  30  31
ATOM     31  C   UNL     1      -7.167  55.877  52.663  0.00  0.00    +0.000 C 
ATOM     32  F   UNL     1      -8.306  55.433  53.238  0.00  0.00    +0.000 F 
ATOM     33  F   UNL     1      -6.345  56.284  53.654  0.00  0.00    +0.000 F 
ATOM     34  F   UNL     1      -7.486  56.962  51.924  0.00  0.00    +0.000 F 
ENDBRANCH  30  31
ENDBRANCH  29  30
ENDBRANCH  28  29
ENDBRANCH   5  28
TORSDOF 6
ENDMDL
MODEL 5
REMARK VINA RESULT:      -8.2      2.346      2.637
REMARK  Name = 338534
REMARK  6 active torsions:
REMARK  status: ('A' for Active; 'I' for Inactive)
REMARK    1  A    between atoms: C_6  and  C_10
REMARK    2  A    between atoms: C_14  and  O_18
REMARK    3  A    between atoms: N_17  and  C_21
REMARK    4  A    between atoms: C_21  and  C_24
REMARK    5  A    between atoms: C_24  and  C_27
REMARK    6  A    between atoms: C_27  and  C_28
REMARK                            x       y       z     vdW  Elec       q    Type
REMARK                         _______ _______ _______ _____ _____    ______ ____
ROOT
ATOM      1  C   UNL     1     -10.115  55.279  50.244  0.00  0.00    +0.000 A 
ATOM      2  C   UNL     1     -11.184  55.366  51.284  0.00  0.00    +0.000 A 
ATOM      3  C   UNL     1     -10.396  55.592  48.967  0.00  0.00    +0.000 A 
ATOM      4  O   UNL     1     -10.871  55.160  52.462  0.00  0.00    +0.000 OA
ATOM      5  N   UNL     1     -12.481  55.686  50.895  0.00  0.00    +0.000 N 
ATOM      6  C   UNL     1     -11.741  56.051  48.590  0.00  0.00    +0.000 A 
ATOM      7  C   UNL     1     -12.759  56.116  49.558  0.00  0.00    +0.000 A 
ATOM      8  C   UNL     1     -12.013  56.453  47.269  0.00  0.00    +0.000 A 
ATOM      9  C   UNL     1     -14.009  56.634  49.181  0.00  0.00    +0.000 A 
ATOM     10  C   UNL     1     -13.271  56.928  46.907  0.00  0.00    +0.000 A 
ATOM     11  C   UNL     1     -14.268  57.023  47.865  0.00  0.00    +0.000 A 
ENDROOT
BRANCH   1  17
ATOM     12  S   UNL     1      -6.619  53.481  50.295  0.00  0.00    +0.000 S 
ATOM     13  O   UNL     1      -5.693  54.028  49.322  0.00  0.00    +0.000 OA
ATOM     14  O   UNL     1      -6.702  52.050  50.506  0.00  0.00    +0.000 OA
ATOM     15  N   UNL     1      -8.100  54.019  49.922  0.00  0.00    +0.000 N 
ATOM     16  C   UNL     1      -6.155  54.169  51.845  0.00  0.00    +0.000 A 
ATOM     17  C   UNL     1      -8.705  54.900  50.662  0.00  0.00    +0.000 C 
ATOM     18  C   UNL     1      -7.003  55.104  52.415  0.00  0.00    +0.000 A 
ATOM     19  C   UNL     1      -4.971  53.761  52.466  0.00  0.00    +0.000 A 
ATOM     20  N   UNL     1      -8.178  55.504  51.784  0.00  0.00    +0.000 N 
ATOM     21  C   UNL     1      -6.608  55.703  53.616  0.00  0.00    +0.000 A 
ATOM     22  C   UNL     1      -4.610  54.339  53.681  0.00  0.00    +0.000 A 
ATOM     23  C   UNL     1      -5.423  55.318  54.250  0.00  0.00    +0.000 A 
ATOM     24  H   UNL     1      -8.552  53.672  49.118  0.00  0.00    +0.000 HD
ATOM     25  H   UNL     1      -8.666  56.269  52.164  0.00  0.00    +0.000 HD
ENDBRANCH   1  17
BRANCH   3  26
ATOM     26  O   UNL     1      -9.474  55.567  47.935  0.00  0.00    +0.000 OA
ATOM     27  H   UNL     1      -9.119  56.370  47.605  0.00  0.00    +0.000 HD
ENDBRANCH   3  26
BRANCH   5  28
ATOM     28  C   UNL     1     -13.516  55.726  51.936  0.00  0.00    +0.000 C 
BRANCH  28  29
ATOM     29  C   UNL     1     -13.668  57.053  52.690  0.00  0.00    +0.000 C 
BRANCH  29  30
ATOM     30  C   UNL     1     -15.080  57.638  52.706  0.00  0.00    +0.000 C 
BRANCH  30  31
ATOM     31  C   UNL     1     -15.058  59.140  52.447  0.00  0.00    +0.000 C 
ATOM     32  F   UNL     1     -13.817  59.665  52.553  0.00  0.00    +0.000 F 
ATOM     33  F   UNL     1     -15.512  59.422  51.206  0.00  0.00    +0.000 F 
ATOM     34  F   UNL     1     -15.847  59.791  53.330  0.00  0.00    +0.000 F 
ENDBRANCH  30  31
ENDBRANCH  29  30
ENDBRANCH  28  29
ENDBRANCH   5  28
TORSDOF 6
ENDMDL
MODEL 6
REMARK VINA RESULT:      -8.2      2.809      4.345
REMARK  Name = 338534
REMARK  6 active torsions:
REMARK  status: ('A' for Active; 'I' for Inactive)
REMARK    1  A    between atoms: C_6  and  C_10
REMARK    2  A    between atoms: C_14  and  O_18
REMARK    3  A    between atoms: N_17  and  C_21
REMARK    4  A    between atoms: C_21  and  C_24
REMARK    5  A    between atoms: C_24  and  C_27
REMARK    6  A    between atoms: C_27  and  C_28
REMARK                            x       y       z     vdW  Elec       q    Type
REMARK                         _______ _______ _______ _____ _____    ______ ____
ROOT
ATOM      1  C   UNL     1     -10.257  55.153  50.815  0.00  0.00    +0.000 A 
ATOM      2  C   UNL     1      -9.849  55.073  49.379  0.00  0.00    +0.000 A 
ATOM      3  C   UNL     1     -11.456  55.662  51.143  0.00  0.00    +0.000 A 
ATOM      4  O   UNL     1      -8.779  54.518  49.106  0.00  0.00    +0.000 OA
ATOM      5  N   UNL     1     -10.688  55.611  48.408  0.00  0.00    +0.000 N 
ATOM      6  C   UNL     1     -12.387  56.112  50.098  0.00  0.00    +0.000 A 
ATOM      7  C   UNL     1     -12.005  56.060  48.745  0.00  0.00    +0.000 A 
ATOM      8  C   UNL     1     -13.674  56.571  50.437  0.00  0.00    +0.000 A 
ATOM      9  C   UNL     1     -12.947  56.423  47.769  0.00  0.00    +0.000 A 
ATOM     10  C   UNL     1     -14.580  56.963  49.455  0.00  0.00    +0.000 A 
ATOM     11  C   UNL     1     -14.218  56.883  48.119  0.00  0.00    +0.000 A 
ENDROOT
BRANCH   1  17
ATOM     12  S   UNL     1      -7.055  54.616  53.033  0.00  0.00    +0.000 S 
ATOM     13  O   UNL     1      -6.938  55.596  54.095  0.00  0.00    +0.000 OA
ATOM     14  O   UNL     1      -5.886  54.206  52.280  0.00  0.00    +0.000 OA
ATOM     15  N   UNL     1      -8.162  55.158  51.982  0.00  0.00    +0.000 N 
ATOM     16  C   UNL     1      -7.678  53.156  53.787  0.00  0.00    +0.000 A 
ATOM     17  C   UNL     1      -9.329  54.594  51.879  0.00  0.00    +0.000 C 
ATOM     18  C   UNL     1      -8.979  52.783  53.494  0.00  0.00    +0.000 A 
ATOM     19  C   UNL     1      -6.863  52.407  54.642  0.00  0.00    +0.000 A 
ATOM     20  N   UNL     1      -9.781  53.540  52.644  0.00  0.00    +0.000 N 
ATOM     21  C   UNL     1      -9.502  51.659  54.142  0.00  0.00    +0.000 A 
ATOM     22  C   UNL     1      -7.386  51.268  55.249  0.00  0.00    +0.000 A 
ATOM     23  C   UNL     1      -8.709  50.901  55.009  0.00  0.00    +0.000 A 
ATOM     24  H   UNL     1      -7.947  55.931  51.409  0.00  0.00    +0.000 HD
ATOM     25  H   UNL     1     -10.735  53.307  52.584  0.00  0.00    +0.000 HD
ENDBRANCH   1  17
BRANCH   3  26
ATOM     26  O   UNL     1     -11.938  55.758  52.438  0.00  0.00    +0.000 OA
ATOM     27  H   UNL     1     -11.683  56.479  52.979  0.00  0.00    +0.000 HD
ENDBRANCH   3  26
BRANCH   5  28
ATOM     28  C   UNL     1     -10.241  55.551  47.010  0.00  0.00    +0.000 C 
BRANCH  28  29
ATOM     29  C   UNL     1     -10.240  54.161  46.359  0.00  0.00    +0.000 C 
BRANCH  29  30
ATOM     30  C   UNL     1     -11.617  53.614  45.986  0.00  0.00    +0.000 C 
BRANCH  30  31
ATOM     31  C   UNL     1     -12.034  52.484  46.920  0.00  0.00    +0.000 C 
ATOM     32  F   UNL     1     -12.567  52.938  48.076  0.00  0.00    +0.000 F 
ATOM     33  F   UNL     1     -12.956  51.689  46.334  0.00  0.00    +0.000 F 
ATOM     34  F   UNL     1     -10.973  51.712  47.243  0.00  0.00    +0.000 F 
ENDBRANCH  30  31
ENDBRANCH  29  30
ENDBRANCH  28  29
ENDBRANCH   5  28
TORSDOF 6
ENDMDL
MODEL 7
REMARK VINA RESULT:      -8.1      1.665      1.901
REMARK  Name = 338534
REMARK  6 active torsions:
REMARK  status: ('A' for Active; 'I' for Inactive)
REMARK    1  A    between atoms: C_6  and  C_10
REMARK    2  A    between atoms: C_14  and  O_18
REMARK    3  A    between atoms: N_17  and  C_21
REMARK    4  A    between atoms: C_21  and  C_24
REMARK    5  A    between atoms: C_24  and  C_27
REMARK    6  A    between atoms: C_27  and  C_28
REMARK                            x       y       z     vdW  Elec       q    Type
REMARK                         _______ _______ _______ _____ _____    ______ ____
ROOT
ATOM      1  C   UNL     1      -9.858  54.294  50.558  0.00  0.00    +0.000 A 
ATOM      2  C   UNL     1     -10.997  55.234  50.793  0.00  0.00    +0.000 A 
ATOM      3  C   UNL     1      -9.603  53.850  49.316  0.00  0.00    +0.000 A 
ATOM      4  O   UNL     1     -11.148  55.693  51.931  0.00  0.00    +0.000 OA
ATOM      5  N   UNL     1     -11.830  55.565  49.729  0.00  0.00    +0.000 N 
ATOM      6  C   UNL     1     -10.414  54.307  48.178  0.00  0.00    +0.000 A 
ATOM      7  C   UNL     1     -11.500  55.175  48.392  0.00  0.00    +0.000 A 
ATOM      8  C   UNL     1     -10.097  53.904  46.867  0.00  0.00    +0.000 A 
ATOM      9  C   UNL     1     -12.205  55.655  47.276  0.00  0.00    +0.000 A 
ATOM     10  C   UNL     1     -10.833  54.361  45.776  0.00  0.00    +0.000 A 
ATOM     11  C   UNL     1     -11.884  55.242  45.981  0.00  0.00    +0.000 A 
ENDROOT
BRANCH   1  17
ATOM     12  S   UNL     1      -6.724  54.099  52.923  0.00  0.00    +0.000 S 
ATOM     13  O   UNL     1      -6.625  55.236  53.817  0.00  0.00    +0.000 OA
ATOM     14  O   UNL     1      -5.540  53.564  52.280  0.00  0.00    +0.000 OA
ATOM     15  N   UNL     1      -7.796  54.472  51.768  0.00  0.00    +0.000 N 
ATOM     16  C   UNL     1      -7.384  52.783  53.885  0.00  0.00    +0.000 A 
ATOM     17  C   UNL     1      -8.966  53.907  51.724  0.00  0.00    +0.000 C 
ATOM     18  C   UNL     1      -8.681  52.377  53.619  0.00  0.00    +0.000 A 
ATOM     19  C   UNL     1      -6.601  52.176  54.872  0.00  0.00    +0.000 A 
ATOM     20  N   UNL     1      -9.451  52.993  52.636  0.00  0.00    +0.000 N 
ATOM     21  C   UNL     1      -9.234  51.376  54.424  0.00  0.00    +0.000 A 
ATOM     22  C   UNL     1      -7.153  51.154  55.640  0.00  0.00    +0.000 A 
ATOM     23  C   UNL     1      -8.473  50.762  55.424  0.00  0.00    +0.000 A 
ATOM     24  H   UNL     1      -7.556  55.140  51.085  0.00  0.00    +0.000 HD
ATOM     25  H   UNL     1     -10.406  52.761  52.587  0.00  0.00    +0.000 HD
ENDBRANCH   1  17
BRANCH   3  26
ATOM     26  O   UNL     1      -8.561  52.999  48.988  0.00  0.00    +0.000 OA
ATOM     27  H   UNL     1      -8.449  52.194  49.456  0.00  0.00    +0.000 HD
ENDBRANCH   3  26
BRANCH   5  28
ATOM     28  C   UNL     1     -12.962  56.461  50.003  0.00  0.00    +0.000 C 
BRANCH  28  29
ATOM     29  C   UNL     1     -12.744  57.945  49.680  0.00  0.00    +0.000 C 
BRANCH  29  30
ATOM     30  C   UNL     1     -13.909  58.637  48.972  0.00  0.00    +0.000 C 
BRANCH  30  31
ATOM     31  C   UNL     1     -14.268  59.951  49.655  0.00  0.00    +0.000 C 
ATOM     32  F   UNL     1     -15.149  59.785  50.666  0.00  0.00    +0.000 F 
ATOM     33  F   UNL     1     -13.169  60.543  50.171  0.00  0.00    +0.000 F 
ATOM     34  F   UNL     1     -14.823  60.814  48.776  0.00  0.00    +0.000 F 
ENDBRANCH  30  31
ENDBRANCH  29  30
ENDBRANCH  28  29
ENDBRANCH   5  28
TORSDOF 6
ENDMDL
MODEL 8
REMARK VINA RESULT:      -8.0      4.506      7.843
REMARK  Name = 338534
REMARK  6 active torsions:
REMARK  status: ('A' for Active; 'I' for Inactive)
REMARK    1  A    between atoms: C_6  and  C_10
REMARK    2  A    between atoms: C_14  and  O_18
REMARK    3  A    between atoms: N_17  and  C_21
REMARK    4  A    between atoms: C_21  and  C_24
REMARK    5  A    between atoms: C_24  and  C_27
REMARK    6  A    between atoms: C_27  and  C_28
REMARK                            x       y       z     vdW  Elec       q    Type
REMARK                         _______ _______ _______ _____ _____    ______ ____
ROOT
ATOM      1  C   UNL     1     -11.916  54.393  50.180  0.00  0.00    +0.000 A 
ATOM      2  C   UNL     1     -10.807  54.562  49.191  0.00  0.00    +0.000 A 
ATOM      3  C   UNL     1     -12.015  53.253  50.884  0.00  0.00    +0.000 A 
ATOM      4  O   UNL     1     -10.691  55.655  48.626  0.00  0.00    +0.000 OA
ATOM      5  N   UNL     1      -9.946  53.495  48.952  0.00  0.00    +0.000 N 
ATOM      6  C   UNL     1     -11.024  52.181  50.714  0.00  0.00    +0.000 A 
ATOM      7  C   UNL     1      -9.990  52.322  49.772  0.00  0.00    +0.000 A 
ATOM      8  C   UNL     1     -11.084  51.020  51.509  0.00  0.00    +0.000 A 
ATOM      9  C   UNL     1      -9.015  51.314  49.690  0.00  0.00    +0.000 A 
ATOM     10  C   UNL     1     -10.129  50.015  51.386  0.00  0.00    +0.000 A 
ATOM     11  C   UNL     1      -9.090  50.165  50.480  0.00  0.00    +0.000 A 
ENDROOT
BRANCH   1  17
ATOM     12  S   UNL     1     -15.183  56.361  51.133  0.00  0.00    +0.000 S 
ATOM     13  O   UNL     1     -15.333  56.538  52.564  0.00  0.00    +0.000 OA
ATOM     14  O   UNL     1     -16.327  56.025  50.309  0.00  0.00    +0.000 OA
ATOM     15  N   UNL     1     -14.045  55.234  50.892  0.00  0.00    +0.000 N 
ATOM     16  C   UNL     1     -14.581  57.894  50.517  0.00  0.00    +0.000 A 
ATOM     17  C   UNL     1     -12.875  55.546  50.420  0.00  0.00    +0.000 C 
ATOM     18  C   UNL     1     -13.271  57.940  50.070  0.00  0.00    +0.000 A 
ATOM     19  C   UNL     1     -15.420  59.012  50.479  0.00  0.00    +0.000 A 
ATOM     20  N   UNL     1     -12.445  56.820  50.117  0.00  0.00    +0.000 N 
ATOM     21  C   UNL     1     -12.766  59.172  49.640  0.00  0.00    +0.000 A 
ATOM     22  C   UNL     1     -14.915  60.222  50.012  0.00  0.00    +0.000 A 
ATOM     23  C   UNL     1     -13.584  60.305  49.604  0.00  0.00    +0.000 A 
ATOM     24  H   UNL     1     -14.244  54.294  51.109  0.00  0.00    +0.000 HD
ATOM     25  H   UNL     1     -11.488  56.946  49.921  0.00  0.00    +0.000 HD
ENDBRANCH   1  17
BRANCH   3  26
ATOM     26  O   UNL     1     -12.987  53.007  51.840  0.00  0.00    +0.000 OA
ATOM     27  H   UNL     1     -13.053  52.158  52.233  0.00  0.00    +0.000 HD
ENDBRANCH   3  26
BRANCH   5  28
ATOM     28  C   UNL     1      -8.893  53.681  47.946  0.00  0.00    +0.000 C 
BRANCH  28  29
ATOM     29  C   UNL     1      -9.182  53.116  46.550  0.00  0.00    +0.000 C 
BRANCH  29  30
ATOM     30  C   UNL     1      -9.787  54.107  45.556  0.00  0.00    +0.000 C 
BRANCH  30  31
ATOM     31  C   UNL     1     -11.291  53.901  45.415  0.00  0.00    +0.000 C 
ATOM     32  F   UNL     1     -11.634  53.417  44.201  0.00  0.00    +0.000 F 
ATOM     33  F   UNL     1     -11.746  53.029  46.341  0.00  0.00    +0.000 F 
ATOM     34  F   UNL     1     -11.954  55.065  45.586  0.00  0.00    +0.000 F 
ENDBRANCH  30  31
ENDBRANCH  29  30
ENDBRANCH  28  29
ENDBRANCH   5  28
TORSDOF 6
ENDMDL
MODEL 9
REMARK VINA RESULT:      -7.9      3.997      7.582
REMARK  Name = 338534
REMARK  6 active torsions:
REMARK  status: ('A' for Active; 'I' for Inactive)
REMARK    1  A    between atoms: C_6  and  C_10
REMARK    2  A    between atoms: C_14  and  O_18
REMARK    3  A    between atoms: N_17  and  C_21
REMARK    4  A    between atoms: C_21  and  C_24
REMARK    5  A    between atoms: C_24  and  C_27
REMARK    6  A    between atoms: C_27  and  C_28
REMARK                            x       y       z     vdW  Elec       q    Type
REMARK                         _______ _______ _______ _____ _____    ______ ____
ROOT
ATOM      1  C   UNL     1     -11.075  54.744  50.813  0.00  0.00    +0.000 A 
ATOM      2  C   UNL     1      -9.685  55.160  50.455  0.00  0.00    +0.000 A 
ATOM      3  C   UNL     1     -11.311  53.489  51.232  0.00  0.00    +0.000 A 
ATOM      4  O   UNL     1      -9.488  56.344  50.161  0.00  0.00    +0.000 OA
ATOM      5  N   UNL     1      -8.668  54.210  50.478  0.00  0.00    +0.000 N 
ATOM      6  C   UNL     1     -10.207  52.528  51.372  0.00  0.00    +0.000 A 
ATOM      7  C   UNL     1      -8.899  52.904  51.019  0.00  0.00    +0.000 A 
ATOM      8  C   UNL     1     -10.443  51.239  51.886  0.00  0.00    +0.000 A 
ATOM      9  C   UNL     1      -7.856  51.990  51.240  0.00  0.00    +0.000 A 
ATOM     10  C   UNL     1      -9.400  50.333  52.063  0.00  0.00    +0.000 A 
ATOM     11  C   UNL     1      -8.105  50.712  51.744  0.00  0.00    +0.000 A 
ENDROOT
BRANCH   1  17
ATOM     12  S   UNL     1     -13.553  57.457  49.414  0.00  0.00    +0.000 S 
ATOM     13  O   UNL     1     -14.670  56.878  48.694  0.00  0.00    +0.000 OA
ATOM     14  O   UNL     1     -12.893  58.647  48.913  0.00  0.00    +0.000 OA
ATOM     15  N   UNL     1     -12.432  56.302  49.596  0.00  0.00    +0.000 N 
ATOM     16  C   UNL     1     -14.170  57.884  51.004  0.00  0.00    +0.000 A 
ATOM     17  C   UNL     1     -12.192  55.772  50.758  0.00  0.00    +0.000 C 
ATOM     18  C   UNL     1     -13.738  57.135  52.086  0.00  0.00    +0.000 A 
ATOM     19  C   UNL     1     -15.058  58.955  51.146  0.00  0.00    +0.000 A 
ATOM     20  N   UNL     1     -12.856  56.069  51.929  0.00  0.00    +0.000 N 
ATOM     21  C   UNL     1     -14.275  57.427  53.344  0.00  0.00    +0.000 A 
ATOM     22  C   UNL     1     -15.554  59.258  52.412  0.00  0.00    +0.000 A 
ATOM     23  C   UNL     1     -15.172  58.487  53.509  0.00  0.00    +0.000 A 
ATOM     24  H   UNL     1     -11.922  55.996  48.811  0.00  0.00    +0.000 HD
ATOM     25  H   UNL     1     -12.695  55.488  52.707  0.00  0.00    +0.000 HD
ENDBRANCH   1  17
BRANCH   3  26
ATOM     26  O   UNL     1     -12.555  53.011  51.609  0.00  0.00    +0.000 OA
ATOM     27  H   UNL     1     -13.305  53.572  51.565  0.00  0.00    +0.000 HD
ENDBRANCH   3  26
BRANCH   5  28
ATOM     28  C   UNL     1      -7.321  54.642  50.084  0.00  0.00    +0.000 C 
BRANCH  28  29
ATOM     29  C   UNL     1      -7.061  54.756  48.576  0.00  0.00    +0.000 C 
BRANCH  29  30
ATOM     30  C   UNL     1      -7.901  53.831  47.696  0.00  0.00    +0.000 C 
BRANCH  30  31
ATOM     31  C   UNL     1      -8.629  54.613  46.610  0.00  0.00    +0.000 C 
ATOM     32  F   UNL     1      -9.314  55.668  47.104  0.00  0.00    +0.000 F 
ATOM     33  F   UNL     1      -7.759  55.090  45.693  0.00  0.00    +0.000 F 
ATOM     34  F   UNL     1      -9.516  53.826  45.963  0.00  0.00    +0.000 F 
ENDBRANCH  30  31
ENDBRANCH  29  30
ENDBRANCH  28  29
ENDBRANCH   5  28
TORSDOF 6
ENDMDL
