MODEL 1
REMARK VINA RESULT:      -8.2      0.000      0.000
REMARK  Name = 338520
REMARK  7 active torsions:
REMARK  status: ('A' for Active; 'I' for Inactive)
REMARK    1  A    between atoms: C_6  and  C_10
REMARK    2  A    between atoms: C_14  and  N_18
REMARK    3  A    between atoms: N_17  and  C_21
REMARK    4  A    between atoms: C_21  and  C_24
REMARK    5  A    between atoms: C_24  and  C_27
REMARK    6  A    between atoms: C_27  and  C_28
REMARK    7  A    between atoms: C_27  and  C_29
REMARK                            x       y       z     vdW  Elec       q    Type
REMARK                         _______ _______ _______ _____ _____    ______ ____
ROOT
ATOM      1  C   UNL     1     -10.120  54.305  52.326  0.00  0.00    +0.000 A 
ATOM      2  C   UNL     1      -8.781  54.968  52.341  0.00  0.00    +0.000 A 
ATOM      3  C   UNL     1     -10.364  53.178  53.025  0.00  0.00    +0.000 A 
ATOM      4  O   UNL     1      -8.653  56.061  51.779  0.00  0.00    +0.000 OA
ATOM      5  N   UNL     1      -7.740  54.356  53.020  0.00  0.00    +0.000 N 
ATOM      6  C   UNL     1      -9.233  52.554  53.767  0.00  0.00    +0.000 A 
ATOM      7  C   UNL     1      -7.952  53.146  53.749  0.00  0.00    +0.000 A 
ATOM      8  C   UNL     1      -9.425  51.383  54.531  0.00  0.00    +0.000 A 
ATOM      9  C   UNL     1      -6.913  52.550  54.491  0.00  0.00    +0.000 A 
ATOM     10  C   UNL     1      -8.390  50.822  55.278  0.00  0.00    +0.000 A 
ATOM     11  C   UNL     1      -7.138  51.411  55.265  0.00  0.00    +0.000 A 
ENDROOT
BRANCH   1  17
ATOM     12  S   UNL     1     -12.356  55.660  49.376  0.00  0.00    +0.000 S 
ATOM     13  O   UNL     1     -13.221  54.621  48.847  0.00  0.00    +0.000 OA
ATOM     14  O   UNL     1     -11.703  56.592  48.483  0.00  0.00    +0.000 OA
ATOM     15  N   UNL     1     -11.217  54.944  50.281  0.00  0.00    +0.000 N 
ATOM     16  C   UNL     1     -13.360  56.629  50.440  0.00  0.00    +0.000 A 
ATOM     17  C   UNL     1     -11.249  54.997  51.577  0.00  0.00    +0.000 C 
ATOM     18  C   UNL     1     -13.142  56.532  51.805  0.00  0.00    +0.000 A 
ATOM     19  C   UNL     1     -14.322  57.487  49.901  0.00  0.00    +0.000 A 
ATOM     20  N   UNL     1     -12.205  55.647  52.329  0.00  0.00    +0.000 N 
ATOM     21  C   UNL     1     -13.953  57.285  52.659  0.00  0.00    +0.000 A 
ATOM     22  C   UNL     1     -15.108  58.247  50.763  0.00  0.00    +0.000 A 
ATOM     23  C   UNL     1     -14.926  58.144  52.142  0.00  0.00    +0.000 A 
ATOM     24  H   UNL     1     -10.485  54.458  49.837  0.00  0.00    +0.000 HD
ATOM     25  H   UNL     1     -12.225  55.475  53.298  0.00  0.00    +0.000 HD
ENDBRANCH   1  17
BRANCH   3  26
ATOM     26  N   UNL     1     -11.619  52.581  53.149  0.00  0.00    +0.000 N 
ATOM     27  H   UNL     1     -12.426  53.070  52.868  0.00  0.00    +0.000 HD
ATOM     28  H   UNL     1     -11.697  51.671  53.517  0.00  0.00    +0.000 HD
ENDBRANCH   3  26
BRANCH   5  29
ATOM     29  C   UNL     1      -6.433  55.033  53.011  0.00  0.00    +0.000 C 
BRANCH  29  30
ATOM     30  C   UNL     1      -5.538  54.575  51.850  0.00  0.00    +0.000 C 
BRANCH  30  31
ATOM     31  C   UNL     1      -4.127  54.114  52.280  0.00  0.00    +0.000 C 
ATOM     32  C   UNL     1      -3.847  54.374  53.761  0.00  0.00    +0.000 C 
ATOM     33  C   UNL     1      -3.964  52.618  51.987  0.00  0.00    +0.000 C 
ENDBRANCH  30  31
ENDBRANCH  29  30
ENDBRANCH   5  29
TORSDOF 5
ENDMDL
MODEL 2
REMARK VINA RESULT:      -7.8      3.350      7.495
REMARK  Name = 338520
REMARK  7 active torsions:
REMARK  status: ('A' for Active; 'I' for Inactive)
REMARK    1  A    between atoms: C_6  and  C_10
REMARK    2  A    between atoms: C_14  and  N_18
REMARK    3  A    between atoms: N_17  and  C_21
REMARK    4  A    between atoms: C_21  and  C_24
REMARK    5  A    between atoms: C_24  and  C_27
REMARK    6  A    between atoms: C_27  and  C_28
REMARK    7  A    between atoms: C_27  and  C_29
REMARK                            x       y       z     vdW  Elec       q    Type
REMARK                         _______ _______ _______ _____ _____    ______ ____
ROOT
ATOM      1  C   UNL     1     -10.304  55.217  50.658  0.00  0.00    +0.000 A 
ATOM      2  C   UNL     1      -9.853  55.069  49.242  0.00  0.00    +0.000 A 
ATOM      3  C   UNL     1     -11.521  55.707  50.970  0.00  0.00    +0.000 A 
ATOM      4  O   UNL     1      -8.777  54.504  49.017  0.00  0.00    +0.000 OA
ATOM      5  N   UNL     1     -10.674  55.531  48.227  0.00  0.00    +0.000 N 
ATOM      6  C   UNL     1     -12.395  56.173  49.857  0.00  0.00    +0.000 A 
ATOM      7  C   UNL     1     -11.959  56.082  48.518  0.00  0.00    +0.000 A 
ATOM      8  C   UNL     1     -13.686  56.681  50.114  0.00  0.00    +0.000 A 
ATOM      9  C   UNL     1     -12.825  56.499  47.487  0.00  0.00    +0.000 A 
ATOM     10  C   UNL     1     -14.538  57.066  49.079  0.00  0.00    +0.000 A 
ATOM     11  C   UNL     1     -14.110  56.965  47.767  0.00  0.00    +0.000 A 
ENDROOT
BRANCH   1  17
ATOM     12  S   UNL     1      -7.218  54.881  53.087  0.00  0.00    +0.000 S 
ATOM     13  O   UNL     1      -7.319  55.805  54.203  0.00  0.00    +0.000 OA
ATOM     14  O   UNL     1      -5.943  54.653  52.440  0.00  0.00    +0.000 OA
ATOM     15  N   UNL     1      -8.281  55.350  51.957  0.00  0.00    +0.000 N 
ATOM     16  C   UNL     1      -7.736  53.322  53.702  0.00  0.00    +0.000 A 
ATOM     17  C   UNL     1      -9.386  54.700  51.756  0.00  0.00    +0.000 C 
ATOM     18  C   UNL     1      -8.958  52.828  53.275  0.00  0.00    +0.000 A 
ATOM     19  C   UNL     1      -6.911  52.606  54.572  0.00  0.00    +0.000 A 
ATOM     20  N   UNL     1      -9.786  53.568  52.436  0.00  0.00    +0.000 N 
ATOM     21  C   UNL     1      -9.387  51.597  53.777  0.00  0.00    +0.000 A 
ATOM     22  C   UNL     1      -7.341  51.370  55.050  0.00  0.00    +0.000 A 
ATOM     23  C   UNL     1      -8.581  50.866  54.654  0.00  0.00    +0.000 A 
ATOM     24  H   UNL     1      -8.085  56.145  51.412  0.00  0.00    +0.000 HD
ATOM     25  H   UNL     1     -10.715  53.264  52.320  0.00  0.00    +0.000 HD
ENDBRANCH   1  17
BRANCH   3  26
ATOM     26  N   UNL     1     -12.045  55.757  52.262  0.00  0.00    +0.000 N 
ATOM     27  H   UNL     1     -11.552  55.350  53.009  0.00  0.00    +0.000 HD
ATOM     28  H   UNL     1     -12.910  56.199  52.425  0.00  0.00    +0.000 HD
ENDBRANCH   3  26
BRANCH   5  29
ATOM     29  C   UNL     1     -10.197  55.374  46.843  0.00  0.00    +0.000 C 
BRANCH  29  30
ATOM     30  C   UNL     1     -10.654  54.053  46.207  0.00  0.00    +0.000 C 
BRANCH  30  31
ATOM     31  C   UNL     1      -9.559  53.325  45.396  0.00  0.00    +0.000 C 
ATOM     32  C   UNL     1     -10.043  52.884  44.013  0.00  0.00    +0.000 C 
ATOM     33  C   UNL     1      -8.340  54.243  45.239  0.00  0.00    +0.000 C 
ENDBRANCH  30  31
ENDBRANCH  29  30
ENDBRANCH   5  29
TORSDOF 5
ENDMDL
MODEL 3
REMARK VINA RESULT:      -7.7      3.663      5.176
REMARK  Name = 338520
REMARK  7 active torsions:
REMARK  status: ('A' for Active; 'I' for Inactive)
REMARK    1  A    between atoms: C_6  and  C_10
REMARK    2  A    between atoms: C_14  and  N_18
REMARK    3  A    between atoms: N_17  and  C_21
REMARK    4  A    between atoms: C_21  and  C_24
REMARK    5  A    between atoms: C_24  and  C_27
REMARK    6  A    between atoms: C_27  and  C_28
REMARK    7  A    between atoms: C_27  and  C_29
REMARK                            x       y       z     vdW  Elec       q    Type
REMARK                         _______ _______ _______ _____ _____    ______ ____
ROOT
ATOM      1  C   UNL     1     -12.167  54.261  50.243  0.00  0.00    +0.000 A 
ATOM      2  C   UNL     1     -11.937  53.849  48.825  0.00  0.00    +0.000 A 
ATOM      3  C   UNL     1     -11.543  53.651  51.271  0.00  0.00    +0.000 A 
ATOM      4  O   UNL     1     -12.444  54.523  47.921  0.00  0.00    +0.000 OA
ATOM      5  N   UNL     1     -11.129  52.754  48.570  0.00  0.00    +0.000 N 
ATOM      6  C   UNL     1     -10.659  52.491  50.966  0.00  0.00    +0.000 A 
ATOM      7  C   UNL     1     -10.472  52.064  49.634  0.00  0.00    +0.000 A 
ATOM      8  C   UNL     1      -9.964  51.820  51.995  0.00  0.00    +0.000 A 
ATOM      9  C   UNL     1      -9.601  50.986  49.378  0.00  0.00    +0.000 A 
ATOM     10  C   UNL     1      -9.088  50.771  51.718  0.00  0.00    +0.000 A 
ATOM     11  C   UNL     1      -8.900  50.362  50.410  0.00  0.00    +0.000 A 
ENDROOT
BRANCH   1  17
ATOM     12  S   UNL     1     -15.267  56.449  51.308  0.00  0.00    +0.000 S 
ATOM     13  O   UNL     1     -15.293  56.668  52.743  0.00  0.00    +0.000 OA
ATOM     14  O   UNL     1     -16.493  56.177  50.589  0.00  0.00    +0.000 OA
ATOM     15  N   UNL     1     -14.228  55.242  51.009  0.00  0.00    +0.000 N 
ATOM     16  C   UNL     1     -14.608  57.916  50.608  0.00  0.00    +0.000 A 
ATOM     17  C   UNL     1     -13.056  55.469  50.498  0.00  0.00    +0.000 C 
ATOM     18  C   UNL     1     -13.330  57.864  50.074  0.00  0.00    +0.000 A 
ATOM     19  C   UNL     1     -15.378  59.081  50.574  0.00  0.00    +0.000 A 
ATOM     20  N   UNL     1     -12.560  56.707  50.147  0.00  0.00    +0.000 N 
ATOM     21  C   UNL     1     -12.790  59.034  49.534  0.00  0.00    +0.000 A 
ATOM     22  C   UNL     1     -14.836  60.235  50.014  0.00  0.00    +0.000 A 
ATOM     23  C   UNL     1     -13.541  60.212  49.495  0.00  0.00    +0.000 A 
ATOM     24  H   UNL     1     -14.490  54.318  51.219  0.00  0.00    +0.000 HD
ATOM     25  H   UNL     1     -11.602  56.776  49.933  0.00  0.00    +0.000 HD
ENDBRANCH   1  17
BRANCH   3  26
ATOM     26  N   UNL     1     -11.622  54.066  52.601  0.00  0.00    +0.000 N 
ATOM     27  H   UNL     1     -11.883  53.426  53.301  0.00  0.00    +0.000 HD
ATOM     28  H   UNL     1     -11.417  55.000  52.838  0.00  0.00    +0.000 HD
ENDBRANCH   3  26
BRANCH   5  29
ATOM     29  C   UNL     1     -10.927  52.372  47.162  0.00  0.00    +0.000 C 
BRANCH  29  30
ATOM     30  C   UNL     1      -9.704  53.057  46.535  0.00  0.00    +0.000 C 
BRANCH  30  31
ATOM     31  C   UNL     1      -9.959  53.648  45.129  0.00  0.00    +0.000 C 
ATOM     32  C   UNL     1      -9.001  53.091  44.073  0.00  0.00    +0.000 C 
ATOM     33  C   UNL     1     -11.404  53.361  44.705  0.00  0.00    +0.000 C 
ENDBRANCH  30  31
ENDBRANCH  29  30
ENDBRANCH   5  29
TORSDOF 5
ENDMDL
MODEL 4
REMARK VINA RESULT:      -7.7      3.479      7.618
REMARK  Name = 338520
REMARK  7 active torsions:
REMARK  status: ('A' for Active; 'I' for Inactive)
REMARK    1  A    between atoms: C_6  and  C_10
REMARK    2  A    between atoms: C_14  and  N_18
REMARK    3  A    between atoms: N_17  and  C_21
REMARK    4  A    between atoms: C_21  and  C_24
REMARK    5  A    between atoms: C_24  and  C_27
REMARK    6  A    between atoms: C_27  and  C_28
REMARK    7  A    between atoms: C_27  and  C_29
REMARK                            x       y       z     vdW  Elec       q    Type
REMARK                         _______ _______ _______ _____ _____    ______ ____
ROOT
ATOM      1  C   UNL     1     -10.458  54.895  50.409  0.00  0.00    +0.000 A 
ATOM      2  C   UNL     1     -10.230  54.792  48.936  0.00  0.00    +0.000 A 
ATOM      3  C   UNL     1     -11.527  55.542  50.919  0.00  0.00    +0.000 A 
ATOM      4  O   UNL     1      -9.301  54.086  48.528  0.00  0.00    +0.000 OA
ATOM      5  N   UNL     1     -11.091  55.454  48.078  0.00  0.00    +0.000 N 
ATOM      6  C   UNL     1     -12.452  56.224  49.972  0.00  0.00    +0.000 A 
ATOM      7  C   UNL     1     -12.219  56.172  48.581  0.00  0.00    +0.000 A 
ATOM      8  C   UNL     1     -13.596  56.904  50.440  0.00  0.00    +0.000 A 
ATOM      9  C   UNL     1     -13.133  56.798  47.710  0.00  0.00    +0.000 A 
ATOM     10  C   UNL     1     -14.503  57.497  49.561  0.00  0.00    +0.000 A 
ATOM     11  C   UNL     1     -14.276  57.434  48.198  0.00  0.00    +0.000 A 
ENDROOT
BRANCH   1  17
ATOM     12  S   UNL     1      -8.759  51.999  52.473  0.00  0.00    +0.000 S 
ATOM     13  O   UNL     1      -7.893  51.190  51.635  0.00  0.00    +0.000 OA
ATOM     14  O   UNL     1      -9.600  51.376  53.472  0.00  0.00    +0.000 OA
ATOM     15  N   UNL     1      -9.704  52.886  51.499  0.00  0.00    +0.000 N 
ATOM     16  C   UNL     1      -7.702  53.096  53.344  0.00  0.00    +0.000 A 
ATOM     17  C   UNL     1      -9.501  54.157  51.332  0.00  0.00    +0.000 C 
ATOM     18  C   UNL     1      -7.724  54.437  52.993  0.00  0.00    +0.000 A 
ATOM     19  C   UNL     1      -6.895  52.614  54.377  0.00  0.00    +0.000 A 
ATOM     20  N   UNL     1      -8.508  54.897  51.939  0.00  0.00    +0.000 N 
ATOM     21  C   UNL     1      -6.869  55.311  53.668  0.00  0.00    +0.000 A 
ATOM     22  C   UNL     1      -6.062  53.500  55.055  0.00  0.00    +0.000 A 
ATOM     23  C   UNL     1      -6.048  54.850  54.699  0.00  0.00    +0.000 A 
ATOM     24  H   UNL     1     -10.447  52.451  51.023  0.00  0.00    +0.000 HD
ATOM     25  H   UNL     1      -8.342  55.809  51.606  0.00  0.00    +0.000 HD
ENDBRANCH   1  17
BRANCH   3  26
ATOM     26  N   UNL     1     -11.859  55.570  52.274  0.00  0.00    +0.000 N 
ATOM     27  H   UNL     1     -12.708  55.974  52.564  0.00  0.00    +0.000 HD
ATOM     28  H   UNL     1     -11.244  55.186  52.940  0.00  0.00    +0.000 HD
ENDBRANCH   3  26
BRANCH   5  29
ATOM     29  C   UNL     1     -10.835  55.334  46.632  0.00  0.00    +0.000 C 
BRANCH  29  30
ATOM     30  C   UNL     1     -11.664  54.220  45.976  0.00  0.00    +0.000 C 
BRANCH  30  31
ATOM     31  C   UNL     1     -10.945  53.490  44.820  0.00  0.00    +0.000 C 
ATOM     32  C   UNL     1      -9.425  53.462  44.996  0.00  0.00    +0.000 C 
ATOM     33  C   UNL     1     -11.469  52.053  44.714  0.00  0.00    +0.000 C 
ENDBRANCH  30  31
ENDBRANCH  29  30
ENDBRANCH   5  29
TORSDOF 5
ENDMDL
MODEL 5
REMARK VINA RESULT:      -7.7      1.587      1.865
REMARK  Name = 338520
REMARK  7 active torsions:
REMARK  status: ('A' for Active; 'I' for Inactive)
REMARK    1  A    between atoms: C_6  and  C_10
REMARK    2  A    between atoms: C_14  and  N_18
REMARK    3  A    between atoms: N_17  and  C_21
REMARK    4  A    between atoms: C_21  and  C_24
REMARK    5  A    between atoms: C_24  and  C_27
REMARK    6  A    between atoms: C_27  and  C_28
REMARK    7  A    between atoms: C_27  and  C_29
REMARK                            x       y       z     vdW  Elec       q    Type
REMARK                         _______ _______ _______ _____ _____    ______ ____
ROOT
ATOM      1  C   UNL     1     -10.942  54.581  51.253  0.00  0.00    +0.000 A 
ATOM      2  C   UNL     1      -9.534  55.081  51.286  0.00  0.00    +0.000 A 
ATOM      3  C   UNL     1     -11.248  53.298  51.535  0.00  0.00    +0.000 A 
ATOM      4  O   UNL     1      -9.331  56.291  51.136  0.00  0.00    +0.000 OA
ATOM      5  N   UNL     1      -8.510  54.180  51.525  0.00  0.00    +0.000 N 
ATOM      6  C   UNL     1     -10.129  52.356  51.815  0.00  0.00    +0.000 A 
ATOM      7  C   UNL     1      -8.792  52.807  51.802  0.00  0.00    +0.000 A 
ATOM      8  C   UNL     1     -10.382  51.004  52.133  0.00  0.00    +0.000 A 
ATOM      9  C   UNL     1      -7.759  51.898  52.106  0.00  0.00    +0.000 A 
ATOM     10  C   UNL     1      -9.348  50.125  52.455  0.00  0.00    +0.000 A 
ATOM     11  C   UNL     1      -8.040  50.575  52.451  0.00  0.00    +0.000 A 
ENDROOT
BRANCH   1  17
ATOM     12  S   UNL     1     -13.343  57.076  49.370  0.00  0.00    +0.000 S 
ATOM     13  O   UNL     1     -14.414  56.370  48.692  0.00  0.00    +0.000 OA
ATOM     14  O   UNL     1     -12.690  58.200  48.732  0.00  0.00    +0.000 OA
ATOM     15  N   UNL     1     -12.206  55.990  49.766  0.00  0.00    +0.000 N 
ATOM     16  C   UNL     1     -14.037  57.698  50.856  0.00  0.00    +0.000 A 
ATOM     17  C   UNL     1     -12.050  55.589  50.991  0.00  0.00    +0.000 C 
ATOM     18  C   UNL     1     -13.650  57.110  52.050  0.00  0.00    +0.000 A 
ATOM     19  C   UNL     1     -14.929  58.772  50.814  0.00  0.00    +0.000 A 
ATOM     20  N   UNL     1     -12.788  56.017  52.074  0.00  0.00    +0.000 N 
ATOM     21  C   UNL     1     -14.215  57.586  53.236  0.00  0.00    +0.000 A 
ATOM     22  C   UNL     1     -15.470  59.250  52.005  0.00  0.00    +0.000 A 
ATOM     23  C   UNL     1     -15.114  58.655  53.216  0.00  0.00    +0.000 A 
ATOM     24  H   UNL     1     -11.622  55.627  49.063  0.00  0.00    +0.000 HD
ATOM     25  H   UNL     1     -12.699  55.519  52.919  0.00  0.00    +0.000 HD
ENDBRANCH   1  17
BRANCH   3  26
ATOM     26  N   UNL     1     -12.547  52.801  51.640  0.00  0.00    +0.000 N 
ATOM     27  H   UNL     1     -13.050  52.563  50.828  0.00  0.00    +0.000 HD
ATOM     28  H   UNL     1     -12.961  52.688  52.527  0.00  0.00    +0.000 HD
ENDBRANCH   3  26
BRANCH   5  29
ATOM     29  C   UNL     1      -7.135  54.706  51.547  0.00  0.00    +0.000 C 
BRANCH  29  30
ATOM     30  C   UNL     1      -6.807  55.451  52.849  0.00  0.00    +0.000 C 
BRANCH  30  31
ATOM     31  C   UNL     1      -5.637  54.841  53.653  0.00  0.00    +0.000 C 
ATOM     32  C   UNL     1      -6.111  53.905  54.767  0.00  0.00    +0.000 C 
ATOM     33  C   UNL     1      -4.707  54.073  52.705  0.00  0.00    +0.000 C 
ENDBRANCH  30  31
ENDBRANCH  29  30
ENDBRANCH   5  29
TORSDOF 5
ENDMDL
MODEL 6
REMARK VINA RESULT:      -7.6      2.495      8.088
REMARK  Name = 338520
REMARK  7 active torsions:
REMARK  status: ('A' for Active; 'I' for Inactive)
REMARK    1  A    between atoms: C_6  and  C_10
REMARK    2  A    between atoms: C_14  and  N_18
REMARK    3  A    between atoms: N_17  and  C_21
REMARK    4  A    between atoms: C_21  and  C_24
REMARK    5  A    between atoms: C_24  and  C_27
REMARK    6  A    between atoms: C_27  and  C_28
REMARK    7  A    between atoms: C_27  and  C_29
REMARK                            x       y       z     vdW  Elec       q    Type
REMARK                         _______ _______ _______ _____ _____    ______ ____
ROOT
ATOM      1  C   UNL     1     -10.145  54.891  50.973  0.00  0.00    +0.000 A 
ATOM      2  C   UNL     1     -11.441  55.456  51.455  0.00  0.00    +0.000 A 
ATOM      3  C   UNL     1      -9.843  54.824  49.660  0.00  0.00    +0.000 A 
ATOM      4  O   UNL     1     -11.610  55.601  52.671  0.00  0.00    +0.000 OA
ATOM      5  N   UNL     1     -12.392  55.838  50.524  0.00  0.00    +0.000 N 
ATOM      6  C   UNL     1     -10.874  55.266  48.680  0.00  0.00    +0.000 A 
ATOM      7  C   UNL     1     -12.120  55.757  49.124  0.00  0.00    +0.000 A 
ATOM      8  C   UNL     1     -10.614  55.237  47.293  0.00  0.00    +0.000 A 
ATOM      9  C   UNL     1     -13.059  56.201  48.171  0.00  0.00    +0.000 A 
ATOM     10  C   UNL     1     -11.547  55.702  46.367  0.00  0.00    +0.000 A 
ATOM     11  C   UNL     1     -12.763  56.193  46.807  0.00  0.00    +0.000 A 
ENDROOT
BRANCH   1  17
ATOM     12  S   UNL     1      -6.825  54.788  53.094  0.00  0.00    +0.000 S 
ATOM     13  O   UNL     1      -6.821  55.813  54.122  0.00  0.00    +0.000 OA
ATOM     14  O   UNL     1      -5.620  54.501  52.344  0.00  0.00    +0.000 OA
ATOM     15  N   UNL     1      -8.003  55.147  52.040  0.00  0.00    +0.000 N 
ATOM     16  C   UNL     1      -7.261  53.294  53.903  0.00  0.00    +0.000 A 
ATOM     17  C   UNL     1      -9.115  54.480  52.015  0.00  0.00    +0.000 C 
ATOM     18  C   UNL     1      -8.515  52.761  53.651  0.00  0.00    +0.000 A 
ATOM     19  C   UNL     1      -6.344  52.664  54.747  0.00  0.00    +0.000 A 
ATOM     20  N   UNL     1      -9.432  53.418  52.835  0.00  0.00    +0.000 N 
ATOM     21  C   UNL     1      -8.877  51.583  54.308  0.00  0.00    +0.000 A 
ATOM     22  C   UNL     1      -6.710  51.479  55.380  0.00  0.00    +0.000 A 
ATOM     23  C   UNL     1      -7.978  50.939  55.162  0.00  0.00    +0.000 A 
ATOM     24  H   UNL     1      -7.871  55.887  51.405  0.00  0.00    +0.000 HD
ATOM     25  H   UNL     1     -10.365  53.103  52.844  0.00  0.00    +0.000 HD
ENDBRANCH   1  17
BRANCH   3  26
ATOM     26  N   UNL     1      -8.607  54.421  49.154  0.00  0.00    +0.000 N 
ATOM     27  H   UNL     1      -8.466  54.370  48.182  0.00  0.00    +0.000 HD
ATOM     28  H   UNL     1      -7.875  54.187  49.771  0.00  0.00    +0.000 HD
ENDBRANCH   3  26
BRANCH   5  29
ATOM     29  C   UNL     1     -13.659  56.388  51.033  0.00  0.00    +0.000 C 
BRANCH  29  30
ATOM     30  C   UNL     1     -13.600  57.907  51.251  0.00  0.00    +0.000 C 
BRANCH  30  31
ATOM     31  C   UNL     1     -14.982  58.582  51.398  0.00  0.00    +0.000 C 
ATOM     32  C   UNL     1     -15.249  59.075  52.822  0.00  0.00    +0.000 C 
ATOM     33  C   UNL     1     -15.084  59.762  50.425  0.00  0.00    +0.000 C 
ENDBRANCH  30  31
ENDBRANCH  29  30
ENDBRANCH   5  29
TORSDOF 5
ENDMDL
MODEL 7
REMARK VINA RESULT:      -7.6      3.543      5.122
REMARK  Name = 338520
REMARK  7 active torsions:
REMARK  status: ('A' for Active; 'I' for Inactive)
REMARK    1  A    between atoms: C_6  and  C_10
REMARK    2  A    between atoms: C_14  and  N_18
REMARK    3  A    between atoms: N_17  and  C_21
REMARK    4  A    between atoms: C_21  and  C_24
REMARK    5  A    between atoms: C_24  and  C_27
REMARK    6  A    between atoms: C_27  and  C_28
REMARK    7  A    between atoms: C_27  and  C_29
REMARK                            x       y       z     vdW  Elec       q    Type
REMARK                         _______ _______ _______ _____ _____    ______ ____
ROOT
ATOM      1  C   UNL     1     -11.351  56.156  48.698  0.00  0.00    +0.000 A 
ATOM      2  C   UNL     1     -10.164  55.743  49.504  0.00  0.00    +0.000 A 
ATOM      3  C   UNL     1     -11.577  55.666  47.462  0.00  0.00    +0.000 A 
ATOM      4  O   UNL     1     -10.076  56.133  50.674  0.00  0.00    +0.000 OA
ATOM      5  N   UNL     1      -9.225  54.903  48.930  0.00  0.00    +0.000 N 
ATOM      6  C   UNL     1     -10.564  54.744  46.877  0.00  0.00    +0.000 A 
ATOM      7  C   UNL     1      -9.414  54.385  47.612  0.00  0.00    +0.000 A 
ATOM      8  C   UNL     1     -10.748  54.184  45.595  0.00  0.00    +0.000 A 
ATOM      9  C   UNL     1      -8.493  53.482  47.044  0.00  0.00    +0.000 A 
ATOM     10  C   UNL     1      -9.838  53.273  45.059  0.00  0.00    +0.000 A 
ATOM     11  C   UNL     1      -8.717  52.916  45.788  0.00  0.00    +0.000 A 
ENDROOT
BRANCH   1  17
ATOM     12  S   UNL     1     -13.535  59.343  49.478  0.00  0.00    +0.000 S 
ATOM     13  O   UNL     1     -14.664  59.446  48.571  0.00  0.00    +0.000 OA
ATOM     14  O   UNL     1     -12.791  60.526  49.856  0.00  0.00    +0.000 OA
ATOM     15  N   UNL     1     -12.494  58.269  48.853  0.00  0.00    +0.000 N 
ATOM     16  C   UNL     1     -14.173  58.673  50.969  0.00  0.00    +0.000 A 
ATOM     17  C   UNL     1     -12.371  57.077  49.351  0.00  0.00    +0.000 C 
ATOM     18  C   UNL     1     -13.834  57.368  51.292  0.00  0.00    +0.000 A 
ATOM     19  C   UNL     1     -14.970  59.460  51.803  0.00  0.00    +0.000 A 
ATOM     20  N   UNL     1     -13.068  56.585  50.435  0.00  0.00    +0.000 N 
ATOM     21  C   UNL     1     -14.356  56.822  52.467  0.00  0.00    +0.000 A 
ATOM     22  C   UNL     1     -15.467  58.909  52.981  0.00  0.00    +0.000 A 
ATOM     23  C   UNL     1     -15.161  57.589  53.313  0.00  0.00    +0.000 A 
ATOM     24  H   UNL     1     -11.944  58.526  48.080  0.00  0.00    +0.000 HD
ATOM     25  H   UNL     1     -13.020  55.618  50.613  0.00  0.00    +0.000 HD
ENDBRANCH   1  17
BRANCH   3  26
ATOM     26  N   UNL     1     -12.725  55.918  46.710  0.00  0.00    +0.000 N 
ATOM     27  H   UNL     1     -13.385  55.203  46.564  0.00  0.00    +0.000 HD
ATOM     28  H   UNL     1     -12.875  56.813  46.325  0.00  0.00    +0.000 HD
ENDBRANCH   3  26
BRANCH   5  29
ATOM     29  C   UNL     1      -8.064  54.519  49.751  0.00  0.00    +0.000 C 
BRANCH  29  30
ATOM     30  C   UNL     1      -6.968  55.594  49.763  0.00  0.00    +0.000 C 
BRANCH  30  31
ATOM     31  C   UNL     1      -5.528  55.033  49.742  0.00  0.00    +0.000 C 
ATOM     32  C   UNL     1      -5.145  54.340  51.052  0.00  0.00    +0.000 C 
ATOM     33  C   UNL     1      -5.379  54.041  48.582  0.00  0.00    +0.000 C 
ENDBRANCH  30  31
ENDBRANCH  29  30
ENDBRANCH   5  29
TORSDOF 5
ENDMDL
MODEL 8
REMARK VINA RESULT:      -7.5      2.543      8.078
REMARK  Name = 338520
REMARK  7 active torsions:
REMARK  status: ('A' for Active; 'I' for Inactive)
REMARK    1  A    between atoms: C_6  and  C_10
REMARK    2  A    between atoms: C_14  and  N_18
REMARK    3  A    between atoms: N_17  and  C_21
REMARK    4  A    between atoms: C_21  and  C_24
REMARK    5  A    between atoms: C_24  and  C_27
REMARK    6  A    between atoms: C_27  and  C_28
REMARK    7  A    between atoms: C_27  and  C_29
REMARK                            x       y       z     vdW  Elec       q    Type
REMARK                         _______ _______ _______ _____ _____    ______ ____
ROOT
ATOM      1  C   UNL     1     -10.469  54.917  50.511  0.00  0.00    +0.000 A 
ATOM      2  C   UNL     1     -11.589  55.296  51.424  0.00  0.00    +0.000 A 
ATOM      3  C   UNL     1     -10.513  55.172  49.187  0.00  0.00    +0.000 A 
ATOM      4  O   UNL     1     -11.439  55.146  52.642  0.00  0.00    +0.000 OA
ATOM      5  N   UNL     1     -12.740  55.841  50.880  0.00  0.00    +0.000 N 
ATOM      6  C   UNL     1     -11.753  55.782  48.632  0.00  0.00    +0.000 A 
ATOM      7  C   UNL     1     -12.837  56.100  49.479  0.00  0.00    +0.000 A 
ATOM      8  C   UNL     1     -11.858  56.088  47.258  0.00  0.00    +0.000 A 
ATOM      9  C   UNL     1     -13.981  56.710  48.927  0.00  0.00    +0.000 A 
ATOM     10  C   UNL     1     -12.989  56.714  46.735  0.00  0.00    +0.000 A 
ATOM     11  C   UNL     1     -14.044  57.033  47.570  0.00  0.00    +0.000 A 
ENDROOT
BRANCH   1  17
ATOM     12  S   UNL     1      -7.716  52.307  51.581  0.00  0.00    +0.000 S 
ATOM     13  O   UNL     1      -6.784  52.047  50.499  0.00  0.00    +0.000 OA
ATOM     14  O   UNL     1      -8.184  51.224  52.419  0.00  0.00    +0.000 OA
ATOM     15  N   UNL     1      -9.010  53.054  50.952  0.00  0.00    +0.000 N 
ATOM     16  C   UNL     1      -6.909  53.437  52.654  0.00  0.00    +0.000 A 
ATOM     17  C   UNL     1      -9.213  54.323  51.132  0.00  0.00    +0.000 C 
ATOM     18  C   UNL     1      -7.372  54.743  52.689  0.00  0.00    +0.000 A 
ATOM     19  C   UNL     1      -5.854  53.003  53.459  0.00  0.00    +0.000 A 
ATOM     20  N   UNL     1      -8.402  55.171  51.856  0.00  0.00    +0.000 N 
ATOM     21  C   UNL     1      -6.721  55.653  53.525  0.00  0.00    +0.000 A 
ATOM     22  C   UNL     1      -5.227  53.916  54.303  0.00  0.00    +0.000 A 
ATOM     23  C   UNL     1      -5.659  55.242  54.334  0.00  0.00    +0.000 A 
ATOM     24  H   UNL     1      -9.656  52.534  50.423  0.00  0.00    +0.000 HD
ATOM     25  H   UNL     1      -8.560  56.139  51.778  0.00  0.00    +0.000 HD
ENDBRANCH   1  17
BRANCH   3  26
ATOM     26  N   UNL     1      -9.454  54.954  48.305  0.00  0.00    +0.000 N 
ATOM     27  H   UNL     1      -9.538  54.281  47.592  0.00  0.00    +0.000 HD
ATOM     28  H   UNL     1      -8.623  55.474  48.397  0.00  0.00    +0.000 HD
ENDBRANCH   3  26
BRANCH   5  29
ATOM     29  C   UNL     1     -13.826  56.198  51.808  0.00  0.00    +0.000 C 
BRANCH  29  30
ATOM     30  C   UNL     1     -13.701  57.634  52.338  0.00  0.00    +0.000 C 
BRANCH  30  31
ATOM     31  C   UNL     1     -14.922  58.532  52.035  0.00  0.00    +0.000 C 
ATOM     32  C   UNL     1     -15.429  59.276  53.272  0.00  0.00    +0.000 C 
ATOM     33  C   UNL     1     -14.556  59.547  50.946  0.00  0.00    +0.000 C 
ENDBRANCH  30  31
ENDBRANCH  29  30
ENDBRANCH   5  29
TORSDOF 5
ENDMDL
MODEL 9
REMARK VINA RESULT:      -7.5      3.678      5.183
REMARK  Name = 338520
REMARK  7 active torsions:
REMARK  status: ('A' for Active; 'I' for Inactive)
REMARK    1  A    between atoms: C_6  and  C_10
REMARK    2  A    between atoms: C_14  and  N_18
REMARK    3  A    between atoms: N_17  and  C_21
REMARK    4  A    between atoms: C_21  and  C_24
REMARK    5  A    between atoms: C_24  and  C_27
REMARK    6  A    between atoms: C_27  and  C_28
REMARK    7  A    between atoms: C_27  and  C_29
REMARK                            x       y       z     vdW  Elec       q    Type
REMARK                         _______ _______ _______ _____ _____    ______ ____
ROOT
ATOM      1  C   UNL     1     -10.643  55.884  48.656  0.00  0.00    +0.000 A 
ATOM      2  C   UNL     1      -9.258  55.847  49.216  0.00  0.00    +0.000 A 
ATOM      3  C   UNL     1     -10.951  55.297  47.482  0.00  0.00    +0.000 A 
ATOM      4  O   UNL     1      -9.065  56.298  50.351  0.00  0.00    +0.000 OA
ATOM      5  N   UNL     1      -8.248  55.272  48.464  0.00  0.00    +0.000 N 
ATOM      6  C   UNL     1      -9.850  54.662  46.705  0.00  0.00    +0.000 A 
ATOM      7  C   UNL     1      -8.529  54.664  47.202  0.00  0.00    +0.000 A 
ATOM      8  C   UNL     1     -10.108  54.017  45.477  0.00  0.00    +0.000 A 
ATOM      9  C   UNL     1      -7.518  54.023  46.459  0.00  0.00    +0.000 A 
ATOM     10  C   UNL     1      -9.098  53.368  44.767  0.00  0.00    +0.000 A 
ATOM     11  C   UNL     1      -7.807  53.363  45.264  0.00  0.00    +0.000 A 
ENDROOT
BRANCH   1  17
ATOM     12  S   UNL     1     -13.451  56.347  51.384  0.00  0.00    +0.000 S 
ATOM     13  O   UNL     1     -12.880  56.620  52.690  0.00  0.00    +0.000 OA
ATOM     14  O   UNL     1     -14.590  55.465  51.254  0.00  0.00    +0.000 OA
ATOM     15  N   UNL     1     -12.265  55.784  50.432  0.00  0.00    +0.000 N 
ATOM     16  C   UNL     1     -13.963  57.900  50.746  0.00  0.00    +0.000 A 
ATOM     17  C   UNL     1     -11.737  56.519  49.502  0.00  0.00    +0.000 C 
ATOM     18  C   UNL     1     -13.239  58.442  49.696  0.00  0.00    +0.000 A 
ATOM     19  C   UNL     1     -15.088  58.535  51.277  0.00  0.00    +0.000 A 
ATOM     20  N   UNL     1     -12.100  57.815  49.201  0.00  0.00    +0.000 N 
ATOM     21  C   UNL     1     -13.629  59.688  49.198  0.00  0.00    +0.000 A 
ATOM     22  C   UNL     1     -15.478  59.766  50.758  0.00  0.00    +0.000 A 
ATOM     23  C   UNL     1     -14.746  60.344  49.719  0.00  0.00    +0.000 A 
ATOM     24  H   UNL     1     -11.938  54.866  50.563  0.00  0.00    +0.000 HD
ATOM     25  H   UNL     1     -11.516  58.329  48.597  0.00  0.00    +0.000 HD
ENDBRANCH   1  17
BRANCH   3  26
ATOM     26  N   UNL     1     -12.244  55.192  46.967  0.00  0.00    +0.000 N 
ATOM     27  H   UNL     1     -12.515  55.748  46.201  0.00  0.00    +0.000 HD
ATOM     28  H   UNL     1     -12.884  54.562  47.369  0.00  0.00    +0.000 HD
ENDBRANCH   3  26
BRANCH   5  29
ATOM     29  C   UNL     1      -6.895  55.256  49.044  0.00  0.00    +0.000 C 
BRANCH  29  30
ATOM     30  C   UNL     1      -6.648  54.030  49.935  0.00  0.00    +0.000 C 
BRANCH  30  31
ATOM     31  C   UNL     1      -5.225  53.439  49.822  0.00  0.00    +0.000 C 
ATOM     32  C   UNL     1      -4.478  53.931  48.580  0.00  0.00    +0.000 C 
ATOM     33  C   UNL     1      -4.418  53.799  51.075  0.00  0.00    +0.000 C 
ENDBRANCH  30  31
ENDBRANCH  29  30
ENDBRANCH   5  29
TORSDOF 5
ENDMDL
