MODEL 1
REMARK VINA RESULT:      -8.4      0.000      0.000
REMARK  Name = 338153
REMARK  8 active torsions:
REMARK  status: ('A' for Active; 'I' for Inactive)
REMARK    1  A    between atoms: C_6  and  C_10
REMARK    2  A    between atoms: C_14  and  O_18
REMARK    3  A    between atoms: N_17  and  C_21
REMARK    4  A    between atoms: C_21  and  C_24
REMARK    5  A    between atoms: C_22  and  C_26
REMARK    6  A    between atoms: C_24  and  C_28
REMARK    7  A    between atoms: C_28  and  C_29
REMARK    8  A    between atoms: C_28  and  C_30
REMARK                            x       y       z     vdW  Elec       q    Type
REMARK                         _______ _______ _______ _____ _____    ______ ____
ROOT
ATOM      1  C   UNL     1     -10.184  55.294  50.860  0.00  0.00    +0.000 A 
ATOM      2  C   UNL     1      -9.820  55.265  49.419  0.00  0.00    +0.000 A 
ATOM      3  C   UNL     1     -11.408  55.698  51.245  0.00  0.00    +0.000 A 
ATOM      4  O   UNL     1      -8.708  54.833  49.101  0.00  0.00    +0.000 OA
ATOM      5  N   UNL     1     -10.760  55.676  48.490  0.00  0.00    +0.000 N 
ATOM      6  C   UNL     1     -12.406  56.191  50.265  0.00  0.00    +0.000 A 
ATOM      7  C   UNL     1     -12.063  56.128  48.887  0.00  0.00    +0.000 A 
ATOM      8  C   UNL     1     -13.678  56.715  50.631  0.00  0.00    +0.000 A 
ATOM      9  C   UNL     1     -13.015  56.503  47.922  0.00  0.00    +0.000 A 
ATOM     10  C   UNL     1     -14.623  57.002  49.629  0.00  0.00    +0.000 A 
ATOM     11  C   UNL     1     -14.142  56.993  52.040  0.00  0.00    +0.000 C 
ATOM     12  C   UNL     1     -14.297  56.895  48.288  0.00  0.00    +0.000 A 
ENDROOT
BRANCH   1  18
ATOM     13  S   UNL     1      -6.878  54.880  52.941  0.00  0.00    +0.000 S 
ATOM     14  O   UNL     1      -6.766  55.857  54.006  0.00  0.00    +0.000 OA
ATOM     15  O   UNL     1      -5.715  54.539  52.144  0.00  0.00    +0.000 OA
ATOM     16  N   UNL     1      -8.045  55.377  51.933  0.00  0.00    +0.000 N 
ATOM     17  C   UNL     1      -7.398  53.388  53.700  0.00  0.00    +0.000 A 
ATOM     18  C   UNL     1      -9.191  54.763  51.877  0.00  0.00    +0.000 C 
ATOM     19  C   UNL     1      -8.690  52.955  53.451  0.00  0.00    +0.000 A 
ATOM     20  C   UNL     1      -6.518  52.677  54.518  0.00  0.00    +0.000 A 
ATOM     21  N   UNL     1      -9.561  53.682  52.644  0.00  0.00    +0.000 N 
ATOM     22  C   UNL     1      -9.134  51.803  54.108  0.00  0.00    +0.000 A 
ATOM     23  C   UNL     1      -6.962  51.512  55.136  0.00  0.00    +0.000 A 
ATOM     24  C   UNL     1      -8.273  51.080  54.938  0.00  0.00    +0.000 A 
ATOM     25  H   UNL     1      -7.885  56.157  51.355  0.00  0.00    +0.000 HD
ATOM     26  H   UNL     1     -10.504  53.403  52.620  0.00  0.00    +0.000 HD
ENDBRANCH   1  18
BRANCH   3  27
ATOM     27  O   UNL     1     -11.841  55.601  52.555  0.00  0.00    +0.000 OA
ATOM     28  H   UNL     1     -12.126  56.367  53.013  0.00  0.00    +0.000 HD
ENDBRANCH   3  27
BRANCH   5  29
ATOM     29  C   UNL     1     -10.350  55.657  47.077  0.00  0.00    +0.000 C 
BRANCH  29  30
ATOM     30  C   UNL     1     -10.692  54.324  46.394  0.00  0.00    +0.000 C 
BRANCH  30  31
ATOM     31  C   UNL     1      -9.479  53.614  45.757  0.00  0.00    +0.000 C 
ATOM     32  C   UNL     1      -9.795  53.029  44.380  0.00  0.00    +0.000 C 
ATOM     33  C   UNL     1      -8.307  54.595  45.634  0.00  0.00    +0.000 C 
ENDBRANCH  30  31
ENDBRANCH  29  30
ENDBRANCH   5  29
TORSDOF 5
ENDMDL
MODEL 2
REMARK VINA RESULT:      -8.2      1.116      4.381
REMARK  Name = 338153
REMARK  8 active torsions:
REMARK  status: ('A' for Active; 'I' for Inactive)
REMARK    1  A    between atoms: C_6  and  C_10
REMARK    2  A    between atoms: C_14  and  O_18
REMARK    3  A    between atoms: N_17  and  C_21
REMARK    4  A    between atoms: C_21  and  C_24
REMARK    5  A    between atoms: C_22  and  C_26
REMARK    6  A    between atoms: C_24  and  C_28
REMARK    7  A    between atoms: C_28  and  C_29
REMARK    8  A    between atoms: C_28  and  C_30
REMARK                            x       y       z     vdW  Elec       q    Type
REMARK                         _______ _______ _______ _____ _____    ______ ____
ROOT
ATOM      1  C   UNL     1     -10.160  54.990  51.004  0.00  0.00    +0.000 A 
ATOM      2  C   UNL     1     -11.460  55.429  51.577  0.00  0.00    +0.000 A 
ATOM      3  C   UNL     1      -9.951  55.040  49.677  0.00  0.00    +0.000 A 
ATOM      4  O   UNL     1     -11.595  55.424  52.805  0.00  0.00    +0.000 OA
ATOM      5  N   UNL     1     -12.448  55.873  50.715  0.00  0.00    +0.000 N 
ATOM      6  C   UNL     1     -11.019  55.463  48.738  0.00  0.00    +0.000 A 
ATOM      7  C   UNL     1     -12.246  55.914  49.296  0.00  0.00    +0.000 A 
ATOM      8  C   UNL     1     -10.876  55.445  47.322  0.00  0.00    +0.000 A 
ATOM      9  C   UNL     1     -13.250  56.405  48.443  0.00  0.00    +0.000 A 
ATOM     10  C   UNL     1     -11.876  56.020  46.517  0.00  0.00    +0.000 A 
ATOM     11  C   UNL     1      -9.709  54.860  46.563  0.00  0.00    +0.000 C 
ATOM     12  C   UNL     1     -13.051  56.499  47.071  0.00  0.00    +0.000 A 
ENDROOT
BRANCH   1  18
ATOM     13  S   UNL     1      -6.656  54.914  52.779  0.00  0.00    +0.000 S 
ATOM     14  O   UNL     1      -6.516  55.958  53.776  0.00  0.00    +0.000 OA
ATOM     15  O   UNL     1      -5.551  54.602  51.894  0.00  0.00    +0.000 OA
ATOM     16  N   UNL     1      -7.943  55.275  51.862  0.00  0.00    +0.000 N 
ATOM     17  C   UNL     1      -7.000  53.439  53.661  0.00  0.00    +0.000 A 
ATOM     18  C   UNL     1      -9.043  54.585  51.948  0.00  0.00    +0.000 C 
ATOM     19  C   UNL     1      -8.276  52.910  53.560  0.00  0.00    +0.000 A 
ATOM     20  C   UNL     1      -6.000  52.835  54.428  0.00  0.00    +0.000 A 
ATOM     21  N   UNL     1      -9.265  53.529  52.803  0.00  0.00    +0.000 N 
ATOM     22  C   UNL     1      -8.576  51.772  54.316  0.00  0.00    +0.000 A 
ATOM     23  C   UNL     1      -6.304  51.683  55.146  0.00  0.00    +0.000 A 
ATOM     24  C   UNL     1      -7.594  51.156  55.097  0.00  0.00    +0.000 A 
ATOM     25  H   UNL     1      -7.891  56.028  51.231  0.00  0.00    +0.000 HD
ATOM     26  H   UNL     1     -10.185  53.189  52.883  0.00  0.00    +0.000 HD
ENDBRANCH   1  18
BRANCH   3  27
ATOM     27  O   UNL     1      -8.713  54.786  49.113  0.00  0.00    +0.000 OA
ATOM     28  H   UNL     1      -8.490  53.917  48.845  0.00  0.00    +0.000 HD
ENDBRANCH   3  27
BRANCH   5  29
ATOM     29  C   UNL     1     -13.728  56.272  51.322  0.00  0.00    +0.000 C 
BRANCH  29  30
ATOM     30  C   UNL     1     -13.674  57.694  51.903  0.00  0.00    +0.000 C 
BRANCH  30  31
ATOM     31  C   UNL     1     -14.991  58.484  51.757  0.00  0.00    +0.000 C 
ATOM     32  C   UNL     1     -15.380  59.222  53.039  0.00  0.00    +0.000 C 
ATOM     33  C   UNL     1     -14.868  59.493  50.610  0.00  0.00    +0.000 C 
ENDBRANCH  30  31
ENDBRANCH  29  30
ENDBRANCH   5  29
TORSDOF 5
ENDMDL
MODEL 3
REMARK VINA RESULT:      -8.1      1.578      2.130
REMARK  Name = 338153
REMARK  8 active torsions:
REMARK  status: ('A' for Active; 'I' for Inactive)
REMARK    1  A    between atoms: C_6  and  C_10
REMARK    2  A    between atoms: C_14  and  O_18
REMARK    3  A    between atoms: N_17  and  C_21
REMARK    4  A    between atoms: C_21  and  C_24
REMARK    5  A    between atoms: C_22  and  C_26
REMARK    6  A    between atoms: C_24  and  C_28
REMARK    7  A    between atoms: C_28  and  C_29
REMARK    8  A    between atoms: C_28  and  C_30
REMARK                            x       y       z     vdW  Elec       q    Type
REMARK                         _______ _______ _______ _____ _____    ______ ____
ROOT
ATOM      1  C   UNL     1     -10.413  54.905  50.529  0.00  0.00    +0.000 A 
ATOM      2  C   UNL     1     -10.066  54.884  49.083  0.00  0.00    +0.000 A 
ATOM      3  C   UNL     1     -11.571  55.450  50.943  0.00  0.00    +0.000 A 
ATOM      4  O   UNL     1      -9.023  54.323  48.736  0.00  0.00    +0.000 OA
ATOM      5  N   UNL     1     -10.951  55.449  48.181  0.00  0.00    +0.000 N 
ATOM      6  C   UNL     1     -12.503  56.106  49.993  0.00  0.00    +0.000 A 
ATOM      7  C   UNL     1     -12.181  56.051  48.610  0.00  0.00    +0.000 A 
ATOM      8  C   UNL     1     -13.693  56.777  50.393  0.00  0.00    +0.000 A 
ATOM      9  C   UNL     1     -13.082  56.584  47.671  0.00  0.00    +0.000 A 
ATOM     10  C   UNL     1     -14.600  57.222  49.415  0.00  0.00    +0.000 A 
ATOM     11  C   UNL     1     -14.107  57.059  51.818  0.00  0.00    +0.000 C 
ATOM     12  C   UNL     1     -14.300  57.125  48.066  0.00  0.00    +0.000 A 
ENDROOT
BRANCH   1  18
ATOM     13  S   UNL     1      -8.995  52.203  53.003  0.00  0.00    +0.000 S 
ATOM     14  O   UNL     1      -8.357  51.099  52.312  0.00  0.00    +0.000 OA
ATOM     15  O   UNL     1      -9.842  51.949  54.152  0.00  0.00    +0.000 OA
ATOM     16  N   UNL     1      -9.864  53.031  51.915  0.00  0.00    +0.000 N 
ATOM     17  C   UNL     1      -7.698  53.233  53.577  0.00  0.00    +0.000 A 
ATOM     18  C   UNL     1      -9.490  54.211  51.514  0.00  0.00    +0.000 C 
ATOM     19  C   UNL     1      -7.534  54.465  52.964  0.00  0.00    +0.000 A 
ATOM     20  C   UNL     1      -6.877  52.805  54.622  0.00  0.00    +0.000 A 
ATOM     21  N   UNL     1      -8.352  54.873  51.914  0.00  0.00    +0.000 N 
ATOM     22  C   UNL     1      -6.459  55.262  53.370  0.00  0.00    +0.000 A 
ATOM     23  C   UNL     1      -5.834  53.625  55.041  0.00  0.00    +0.000 A 
ATOM     24  C   UNL     1      -5.619  54.849  54.409  0.00  0.00    +0.000 A 
ATOM     25  H   UNL     1     -10.688  52.634  51.551  0.00  0.00    +0.000 HD
ATOM     26  H   UNL     1      -8.099  55.689  51.426  0.00  0.00    +0.000 HD
ENDBRANCH   1  18
BRANCH   3  27
ATOM     27  O   UNL     1     -12.004  55.360  52.253  0.00  0.00    +0.000 OA
ATOM     28  H   UNL     1     -12.026  56.125  52.794  0.00  0.00    +0.000 HD
ENDBRANCH   3  27
BRANCH   5  29
ATOM     29  C   UNL     1     -10.557  55.431  46.764  0.00  0.00    +0.000 C 
BRANCH  29  30
ATOM     30  C   UNL     1     -11.143  54.223  46.016  0.00  0.00    +0.000 C 
BRANCH  30  31
ATOM     31  C   UNL     1     -10.084  53.322  45.347  0.00  0.00    +0.000 C 
ATOM     32  C   UNL     1     -10.514  52.837  43.962  0.00  0.00    +0.000 C 
ATOM     33  C   UNL     1      -8.757  54.079  45.229  0.00  0.00    +0.000 C 
ENDBRANCH  30  31
ENDBRANCH  29  30
ENDBRANCH   5  29
TORSDOF 5
ENDMDL
MODEL 4
REMARK VINA RESULT:      -8.1      3.235      6.850
REMARK  Name = 338153
REMARK  8 active torsions:
REMARK  status: ('A' for Active; 'I' for Inactive)
REMARK    1  A    between atoms: C_6  and  C_10
REMARK    2  A    between atoms: C_14  and  O_18
REMARK    3  A    between atoms: N_17  and  C_21
REMARK    4  A    between atoms: C_21  and  C_24
REMARK    5  A    between atoms: C_22  and  C_26
REMARK    6  A    between atoms: C_24  and  C_28
REMARK    7  A    between atoms: C_28  and  C_29
REMARK    8  A    between atoms: C_28  and  C_30
REMARK                            x       y       z     vdW  Elec       q    Type
REMARK                         _______ _______ _______ _____ _____    ______ ____
ROOT
ATOM      1  C   UNL     1     -12.150  54.366  50.312  0.00  0.00    +0.000 A 
ATOM      2  C   UNL     1     -11.918  53.903  48.918  0.00  0.00    +0.000 A 
ATOM      3  C   UNL     1     -11.500  53.788  51.338  0.00  0.00    +0.000 A 
ATOM      4  O   UNL     1     -12.489  54.497  47.998  0.00  0.00    +0.000 OA
ATOM      5  N   UNL     1     -11.034  52.859  48.705  0.00  0.00    +0.000 N 
ATOM      6  C   UNL     1     -10.590  52.635  51.129  0.00  0.00    +0.000 A 
ATOM      7  C   UNL     1     -10.348  52.221  49.791  0.00  0.00    +0.000 A 
ATOM      8  C   UNL     1      -9.952  51.932  52.190  0.00  0.00    +0.000 A 
ATOM      9  C   UNL     1      -9.424  51.189  49.547  0.00  0.00    +0.000 A 
ATOM     10  C   UNL     1      -8.979  50.962  51.891  0.00  0.00    +0.000 A 
ATOM     11  C   UNL     1     -10.213  52.138  53.663  0.00  0.00    +0.000 C 
ATOM     12  C   UNL     1      -8.715  50.594  50.582  0.00  0.00    +0.000 A 
ENDROOT
BRANCH   1  18
ATOM     13  S   UNL     1     -15.275  56.503  51.362  0.00  0.00    +0.000 S 
ATOM     14  O   UNL     1     -15.322  56.753  52.789  0.00  0.00    +0.000 OA
ATOM     15  O   UNL     1     -16.488  56.171  50.641  0.00  0.00    +0.000 OA
ATOM     16  N   UNL     1     -14.200  55.319  51.102  0.00  0.00    +0.000 N 
ATOM     17  C   UNL     1     -14.666  57.975  50.629  0.00  0.00    +0.000 A 
ATOM     18  C   UNL     1     -13.050  55.565  50.545  0.00  0.00    +0.000 C 
ATOM     19  C   UNL     1     -13.389  57.948  50.093  0.00  0.00    +0.000 A 
ATOM     20  C   UNL     1     -15.465  59.120  50.594  0.00  0.00    +0.000 A 
ATOM     21  N   UNL     1     -12.599  56.803  50.147  0.00  0.00    +0.000 N 
ATOM     22  C   UNL     1     -12.872  59.137  49.569  0.00  0.00    +0.000 A 
ATOM     23  C   UNL     1     -14.951  60.286  50.036  0.00  0.00    +0.000 A 
ATOM     24  C   UNL     1     -13.651  60.297  49.533  0.00  0.00    +0.000 A 
ATOM     25  H   UNL     1     -14.421  54.398  51.370  0.00  0.00    +0.000 HD
ATOM     26  H   UNL     1     -11.655  56.885  49.882  0.00  0.00    +0.000 HD
ENDBRANCH   1  18
BRANCH   3  27
ATOM     27  O   UNL     1     -11.569  54.280  52.629  0.00  0.00    +0.000 OA
ATOM     28  H   UNL     1     -12.160  54.977  52.834  0.00  0.00    +0.000 HD
ENDBRANCH   3  27
BRANCH   5  29
ATOM     29  C   UNL     1     -10.854  52.415  47.314  0.00  0.00    +0.000 C 
BRANCH  29  30
ATOM     30  C   UNL     1      -9.723  53.177  46.605  0.00  0.00    +0.000 C 
BRANCH  30  31
ATOM     31  C   UNL     1     -10.071  53.629  45.172  0.00  0.00    +0.000 C 
ATOM     32  C   UNL     1      -9.104  53.070  44.127  0.00  0.00    +0.000 C 
ATOM     33  C   UNL     1     -11.500  53.199  44.823  0.00  0.00    +0.000 C 
ENDBRANCH  30  31
ENDBRANCH  29  30
ENDBRANCH   5  29
TORSDOF 5
ENDMDL
MODEL 5
REMARK VINA RESULT:      -8.1      3.274      7.481
REMARK  Name = 338153
REMARK  8 active torsions:
REMARK  status: ('A' for Active; 'I' for Inactive)
REMARK    1  A    between atoms: C_6  and  C_10
REMARK    2  A    between atoms: C_14  and  O_18
REMARK    3  A    between atoms: N_17  and  C_21
REMARK    4  A    between atoms: C_21  and  C_24
REMARK    5  A    between atoms: C_22  and  C_26
REMARK    6  A    between atoms: C_24  and  C_28
REMARK    7  A    between atoms: C_28  and  C_29
REMARK    8  A    between atoms: C_28  and  C_30
REMARK                            x       y       z     vdW  Elec       q    Type
REMARK                         _______ _______ _______ _____ _____    ______ ____
ROOT
ATOM      1  C   UNL     1     -11.617  54.050  51.119  0.00  0.00    +0.000 A 
ATOM      2  C   UNL     1     -10.698  54.053  52.287  0.00  0.00    +0.000 A 
ATOM      3  C   UNL     1     -11.739  52.952  50.352  0.00  0.00    +0.000 A 
ATOM      4  O   UNL     1     -10.657  55.060  53.002  0.00  0.00    +0.000 OA
ATOM      5  N   UNL     1      -9.963  52.911  52.555  0.00  0.00    +0.000 N 
ATOM      6  C   UNL     1     -10.919  51.740  50.597  0.00  0.00    +0.000 A 
ATOM      7  C   UNL     1     -10.068  51.739  51.736  0.00  0.00    +0.000 A 
ATOM      8  C   UNL     1     -10.944  50.589  49.759  0.00  0.00    +0.000 A 
ATOM      9  C   UNL     1      -9.341  50.577  52.051  0.00  0.00    +0.000 A 
ATOM     10  C   UNL     1     -10.262  49.426  50.160  0.00  0.00    +0.000 A 
ATOM     11  C   UNL     1     -11.667  50.478  48.439  0.00  0.00    +0.000 C 
ATOM     12  C   UNL     1      -9.470  49.418  51.296  0.00  0.00    +0.000 A 
ENDROOT
BRANCH   1  18
ATOM     13  S   UNL     1     -13.315  57.076  49.276  0.00  0.00    +0.000 S 
ATOM     14  O   UNL     1     -14.424  56.664  48.438  0.00  0.00    +0.000 OA
ATOM     15  O   UNL     1     -12.382  58.081  48.804  0.00  0.00    +0.000 OA
ATOM     16  N   UNL     1     -12.467  55.750  49.662  0.00  0.00    +0.000 N 
ATOM     17  C   UNL     1     -14.025  57.726  50.741  0.00  0.00    +0.000 A 
ATOM     18  C   UNL     1     -12.490  55.266  50.870  0.00  0.00    +0.000 C 
ATOM     19  C   UNL     1     -13.883  56.992  51.907  0.00  0.00    +0.000 A 
ATOM     20  C   UNL     1     -14.701  58.949  50.706  0.00  0.00    +0.000 A 
ATOM     21  N   UNL     1     -13.219  55.769  51.924  0.00  0.00    +0.000 N 
ATOM     22  C   UNL     1     -14.506  57.471  53.063  0.00  0.00    +0.000 A 
ATOM     23  C   UNL     1     -15.284  59.431  51.874  0.00  0.00    +0.000 A 
ATOM     24  C   UNL     1     -15.195  58.688  53.050  0.00  0.00    +0.000 A 
ATOM     25  H   UNL     1     -11.927  55.303  48.972  0.00  0.00    +0.000 HD
ATOM     26  H   UNL     1     -13.275  55.228  52.743  0.00  0.00    +0.000 HD
ENDBRANCH   1  18
BRANCH   3  27
ATOM     27  O   UNL     1     -12.687  52.851  49.350  0.00  0.00    +0.000 OA
ATOM     28  H   UNL     1     -13.354  52.196  49.400  0.00  0.00    +0.000 HD
ENDBRANCH   3  27
BRANCH   5  29
ATOM     29  C   UNL     1      -9.046  52.966  53.705  0.00  0.00    +0.000 C 
BRANCH  29  30
ATOM     30  C   UNL     1      -7.668  53.528  53.318  0.00  0.00    +0.000 C 
BRANCH  30  31
ATOM     31  C   UNL     1      -7.212  54.723  54.180  0.00  0.00    +0.000 C 
ATOM     32  C   UNL     1      -5.845  54.495  54.827  0.00  0.00    +0.000 C 
ATOM     33  C   UNL     1      -7.161  55.993  53.323  0.00  0.00    +0.000 C 
ENDBRANCH  30  31
ENDBRANCH  29  30
ENDBRANCH   5  29
TORSDOF 5
ENDMDL
MODEL 6
REMARK VINA RESULT:      -8.0      2.067      4.938
REMARK  Name = 338153
REMARK  8 active torsions:
REMARK  status: ('A' for Active; 'I' for Inactive)
REMARK    1  A    between atoms: C_6  and  C_10
REMARK    2  A    between atoms: C_14  and  O_18
REMARK    3  A    between atoms: N_17  and  C_21
REMARK    4  A    between atoms: C_21  and  C_24
REMARK    5  A    between atoms: C_22  and  C_26
REMARK    6  A    between atoms: C_24  and  C_28
REMARK    7  A    between atoms: C_28  and  C_29
REMARK    8  A    between atoms: C_28  and  C_30
REMARK                            x       y       z     vdW  Elec       q    Type
REMARK                         _______ _______ _______ _____ _____    ______ ____
ROOT
ATOM      1  C   UNL     1      -9.949  54.104  50.652  0.00  0.00    +0.000 A 
ATOM      2  C   UNL     1     -11.143  54.524  51.433  0.00  0.00    +0.000 A 
ATOM      3  C   UNL     1      -9.872  54.365  49.336  0.00  0.00    +0.000 A 
ATOM      4  O   UNL     1     -11.153  54.319  52.651  0.00  0.00    +0.000 OA
ATOM      5  N   UNL     1     -12.172  55.173  50.773  0.00  0.00    +0.000 N 
ATOM      6  C   UNL     1     -10.989  55.012  48.606  0.00  0.00    +0.000 A 
ATOM      7  C   UNL     1     -12.111  55.442  49.365  0.00  0.00    +0.000 A 
ATOM      8  C   UNL     1     -10.992  55.226  47.198  0.00  0.00    +0.000 A 
ATOM      9  C   UNL     1     -13.151  56.137  48.723  0.00  0.00    +0.000 A 
ATOM     10  C   UNL     1     -12.016  55.995  46.616  0.00  0.00    +0.000 A 
ATOM     11  C   UNL     1      -9.961  54.703  46.227  0.00  0.00    +0.000 C 
ATOM     12  C   UNL     1     -13.085  56.449  47.371  0.00  0.00    +0.000 A 
ENDROOT
BRANCH   1  18
ATOM     13  S   UNL     1      -7.921  51.738  53.045  0.00  0.00    +0.000 S 
ATOM     14  O   UNL     1      -7.689  50.430  52.466  0.00  0.00    +0.000 OA
ATOM     15  O   UNL     1      -8.282  51.860  54.444  0.00  0.00    +0.000 OA
ATOM     16  N   UNL     1      -9.069  52.472  52.167  0.00  0.00    +0.000 N 
ATOM     17  C   UNL     1      -6.423  52.629  52.853  0.00  0.00    +0.000 A 
ATOM     18  C   UNL     1      -8.781  53.471  51.385  0.00  0.00    +0.000 C 
ATOM     19  C   UNL     1      -6.405  53.671  51.941  0.00  0.00    +0.000 A 
ATOM     20  C   UNL     1      -5.302  52.281  53.612  0.00  0.00    +0.000 A 
ATOM     21  N   UNL     1      -7.525  53.997  51.183  0.00  0.00    +0.000 N 
ATOM     22  C   UNL     1      -5.195  54.340  51.734  0.00  0.00    +0.000 A 
ATOM     23  C   UNL     1      -4.115  52.981  53.422  0.00  0.00    +0.000 A 
ATOM     24  C   UNL     1      -4.058  54.004  52.476  0.00  0.00    +0.000 A 
ATOM     25  H   UNL     1      -9.999  52.156  52.227  0.00  0.00    +0.000 HD
ATOM     26  H   UNL     1      -7.412  54.648  50.454  0.00  0.00    +0.000 HD
ENDBRANCH   1  18
BRANCH   3  27
ATOM     27  O   UNL     1      -8.723  54.129  48.601  0.00  0.00    +0.000 OA
ATOM     28  H   UNL     1      -7.885  54.339  48.961  0.00  0.00    +0.000 HD
ENDBRANCH   3  27
BRANCH   5  29
ATOM     29  C   UNL     1     -13.346  55.547  51.577  0.00  0.00    +0.000 C 
BRANCH  29  30
ATOM     30  C   UNL     1     -13.154  56.898  52.286  0.00  0.00    +0.000 C 
BRANCH  30  31
ATOM     31  C   UNL     1     -14.468  57.553  52.758  0.00  0.00    +0.000 C 
ATOM     32  C   UNL     1     -14.542  59.041  52.410  0.00  0.00    +0.000 C 
ATOM     33  C   UNL     1     -15.665  56.827  52.134  0.00  0.00    +0.000 C 
ENDBRANCH  30  31
ENDBRANCH  29  30
ENDBRANCH   5  29
TORSDOF 5
ENDMDL
MODEL 7
REMARK VINA RESULT:      -7.8      3.130      6.424
REMARK  Name = 338153
REMARK  8 active torsions:
REMARK  status: ('A' for Active; 'I' for Inactive)
REMARK    1  A    between atoms: C_6  and  C_10
REMARK    2  A    between atoms: C_14  and  O_18
REMARK    3  A    between atoms: N_17  and  C_21
REMARK    4  A    between atoms: C_21  and  C_24
REMARK    5  A    between atoms: C_22  and  C_26
REMARK    6  A    between atoms: C_24  and  C_28
REMARK    7  A    between atoms: C_28  and  C_29
REMARK    8  A    between atoms: C_28  and  C_30
REMARK                            x       y       z     vdW  Elec       q    Type
REMARK                         _______ _______ _______ _____ _____    ______ ____
ROOT
ATOM      1  C   UNL     1     -11.512  55.681  48.944  0.00  0.00    +0.000 A 
ATOM      2  C   UNL     1     -11.596  55.350  47.497  0.00  0.00    +0.000 A 
ATOM      3  C   UNL     1     -10.547  55.142  49.710  0.00  0.00    +0.000 A 
ATOM      4  O   UNL     1     -12.459  55.910  46.814  0.00  0.00    +0.000 OA
ATOM      5  N   UNL     1     -10.672  54.469  46.964  0.00  0.00    +0.000 N 
ATOM      6  C   UNL     1      -9.584  54.156  49.164  0.00  0.00    +0.000 A 
ATOM      7  C   UNL     1      -9.648  53.872  47.773  0.00  0.00    +0.000 A 
ATOM      8  C   UNL     1      -8.604  53.490  49.955  0.00  0.00    +0.000 A 
ATOM      9  C   UNL     1      -8.696  53.009  47.202  0.00  0.00    +0.000 A 
ATOM     10  C   UNL     1      -7.626  52.699  49.325  0.00  0.00    +0.000 A 
ATOM     11  C   UNL     1      -8.495  53.557  51.459  0.00  0.00    +0.000 C 
ATOM     12  C   UNL     1      -7.669  52.462  47.961  0.00  0.00    +0.000 A 
ENDROOT
BRANCH   1  18
ATOM     13  S   UNL     1     -13.473  59.052  49.416  0.00  0.00    +0.000 S 
ATOM     14  O   UNL     1     -14.594  59.174  48.505  0.00  0.00    +0.000 OA
ATOM     15  O   UNL     1     -12.626  60.198  49.683  0.00  0.00    +0.000 OA
ATOM     16  N   UNL     1     -12.531  57.847  48.883  0.00  0.00    +0.000 N 
ATOM     17  C   UNL     1     -14.151  58.582  50.963  0.00  0.00    +0.000 A 
ATOM     18  C   UNL     1     -12.467  56.713  49.516  0.00  0.00    +0.000 C 
ATOM     19  C   UNL     1     -13.911  57.292  51.407  0.00  0.00    +0.000 A 
ATOM     20  C   UNL     1     -14.900  59.499  51.705  0.00  0.00    +0.000 A 
ATOM     21  N   UNL     1     -13.175  56.385  50.651  0.00  0.00    +0.000 N 
ATOM     22  C   UNL     1     -14.506  56.889  52.606  0.00  0.00    +0.000 A 
ATOM     23  C   UNL     1     -15.455  59.095  52.915  0.00  0.00    +0.000 A 
ATOM     24  C   UNL     1     -15.267  57.787  53.361  0.00  0.00    +0.000 A 
ATOM     25  H   UNL     1     -11.998  57.976  48.065  0.00  0.00    +0.000 HD
ATOM     26  H   UNL     1     -13.159  55.447  50.947  0.00  0.00    +0.000 HD
ENDBRANCH   1  18
BRANCH   3  27
ATOM     27  O   UNL     1     -10.339  55.533  51.021  0.00  0.00    +0.000 OA
ATOM     28  H   UNL     1     -10.541  56.408  51.287  0.00  0.00    +0.000 HD
ENDBRANCH   3  27
BRANCH   5  29
ATOM     29  C   UNL     1     -10.807  54.148  45.535  0.00  0.00    +0.000 C 
BRANCH  29  30
ATOM     30  C   UNL     1     -11.812  53.012  45.289  0.00  0.00    +0.000 C 
BRANCH  30  31
ATOM     31  C   UNL     1     -11.259  51.858  44.426  0.00  0.00    +0.000 C 
ATOM     32  C   UNL     1     -10.081  52.289  43.552  0.00  0.00    +0.000 C 
ATOM     33  C   UNL     1     -10.824  50.697  45.327  0.00  0.00    +0.000 C 
ENDBRANCH  30  31
ENDBRANCH  29  30
ENDBRANCH   5  29
TORSDOF 5
ENDMDL
MODEL 8
REMARK VINA RESULT:      -7.8      3.386      6.723
REMARK  Name = 338153
REMARK  8 active torsions:
REMARK  status: ('A' for Active; 'I' for Inactive)
REMARK    1  A    between atoms: C_6  and  C_10
REMARK    2  A    between atoms: C_14  and  O_18
REMARK    3  A    between atoms: N_17  and  C_21
REMARK    4  A    between atoms: C_21  and  C_24
REMARK    5  A    between atoms: C_22  and  C_26
REMARK    6  A    between atoms: C_24  and  C_28
REMARK    7  A    between atoms: C_28  and  C_29
REMARK    8  A    between atoms: C_28  and  C_30
REMARK                            x       y       z     vdW  Elec       q    Type
REMARK                         _______ _______ _______ _____ _____    ______ ____
ROOT
ATOM      1  C   UNL     1     -10.800  55.689  48.708  0.00  0.00    +0.000 A 
ATOM      2  C   UNL     1     -11.171  55.154  47.371  0.00  0.00    +0.000 A 
ATOM      3  C   UNL     1      -9.531  55.613  49.143  0.00  0.00    +0.000 A 
ATOM      4  O   UNL     1     -12.335  55.294  46.982  0.00  0.00    +0.000 OA
ATOM      5  N   UNL     1     -10.186  54.565  46.597  0.00  0.00    +0.000 N 
ATOM      6  C   UNL     1      -8.477  54.938  48.346  0.00  0.00    +0.000 A 
ATOM      7  C   UNL     1      -8.831  54.461  47.055  0.00  0.00    +0.000 A 
ATOM      8  C   UNL     1      -7.141  54.752  48.803  0.00  0.00    +0.000 A 
ATOM      9  C   UNL     1      -7.839  53.894  46.235  0.00  0.00    +0.000 A 
ATOM     10  C   UNL     1      -6.169  54.253  47.917  0.00  0.00    +0.000 A 
ATOM     11  C   UNL     1      -6.636  55.058  50.193  0.00  0.00    +0.000 C 
ATOM     12  C   UNL     1      -6.513  53.830  46.644  0.00  0.00    +0.000 A 
ENDROOT
BRANCH   1  18
ATOM     13  S   UNL     1     -13.531  56.387  51.445  0.00  0.00    +0.000 S 
ATOM     14  O   UNL     1     -12.954  56.702  52.737  0.00  0.00    +0.000 OA
ATOM     15  O   UNL     1     -14.691  55.520  51.359  0.00  0.00    +0.000 OA
ATOM     16  N   UNL     1     -12.362  55.748  50.523  0.00  0.00    +0.000 N 
ATOM     17  C   UNL     1     -14.019  57.917  50.742  0.00  0.00    +0.000 A 
ATOM     18  C   UNL     1     -11.855  56.412  49.525  0.00  0.00    +0.000 C 
ATOM     19  C   UNL     1     -13.294  58.389  49.659  0.00  0.00    +0.000 A 
ATOM     20  C   UNL     1     -15.108  58.613  51.271  0.00  0.00    +0.000 A 
ATOM     21  N   UNL     1     -12.203  57.691  49.151  0.00  0.00    +0.000 N 
ATOM     22  C   UNL     1     -13.635  59.641  49.138  0.00  0.00    +0.000 A 
ATOM     23  C   UNL     1     -15.458  59.841  50.718  0.00  0.00    +0.000 A 
ATOM     24  C   UNL     1     -14.715  60.359  49.658  0.00  0.00    +0.000 A 
ATOM     25  H   UNL     1     -12.029  54.844  50.721  0.00  0.00    +0.000 HD
ATOM     26  H   UNL     1     -11.643  58.141  48.479  0.00  0.00    +0.000 HD
ENDBRANCH   1  18
BRANCH   3  27
ATOM     27  O   UNL     1      -9.110  56.228  50.309  0.00  0.00    +0.000 OA
ATOM     28  H   UNL     1      -9.073  57.162  50.360  0.00  0.00    +0.000 HD
ENDBRANCH   3  27
BRANCH   5  29
ATOM     29  C   UNL     1     -10.601  54.025  45.293  0.00  0.00    +0.000 C 
BRANCH  29  30
ATOM     30  C   UNL     1     -11.054  52.560  45.392  0.00  0.00    +0.000 C 
BRANCH  30  31
ATOM     31  C   UNL     1     -10.493  51.650  44.279  0.00  0.00    +0.000 C 
ATOM     32  C   UNL     1      -9.960  52.442  43.085  0.00  0.00    +0.000 C 
ATOM     33  C   UNL     1      -9.374  50.768  44.843  0.00  0.00    +0.000 C 
ENDBRANCH  30  31
ENDBRANCH  29  30
ENDBRANCH   5  29
TORSDOF 5
ENDMDL
MODEL 9
REMARK VINA RESULT:      -7.7      3.071      6.857
REMARK  Name = 338153
REMARK  8 active torsions:
REMARK  status: ('A' for Active; 'I' for Inactive)
REMARK    1  A    between atoms: C_6  and  C_10
REMARK    2  A    between atoms: C_14  and  O_18
REMARK    3  A    between atoms: N_17  and  C_21
REMARK    4  A    between atoms: C_21  and  C_24
REMARK    5  A    between atoms: C_22  and  C_26
REMARK    6  A    between atoms: C_24  and  C_28
REMARK    7  A    between atoms: C_28  and  C_29
REMARK    8  A    between atoms: C_28  and  C_30
REMARK                            x       y       z     vdW  Elec       q    Type
REMARK                         _______ _______ _______ _____ _____    ______ ____
ROOT
ATOM      1  C   UNL     1     -11.208  55.558  49.444  0.00  0.00    +0.000 A 
ATOM      2  C   UNL     1     -10.219  55.109  50.460  0.00  0.00    +0.000 A 
ATOM      3  C   UNL     1     -11.237  54.990  48.226  0.00  0.00    +0.000 A 
ATOM      4  O   UNL     1     -10.261  55.614  51.586  0.00  0.00    +0.000 OA
ATOM      5  N   UNL     1      -9.325  54.110  50.118  0.00  0.00    +0.000 N 
ATOM      6  C   UNL     1     -10.251  53.955  47.828  0.00  0.00    +0.000 A 
ATOM      7  C   UNL     1      -9.332  53.508  48.816  0.00  0.00    +0.000 A 
ATOM      8  C   UNL     1     -10.183  53.391  46.523  0.00  0.00    +0.000 A 
ATOM      9  C   UNL     1      -8.439  52.466  48.504  0.00  0.00    +0.000 A 
ATOM     10  C   UNL     1      -9.329  52.299  46.283  0.00  0.00    +0.000 A 
ATOM     11  C   UNL     1     -10.974  53.854  45.323  0.00  0.00    +0.000 C 
ATOM     12  C   UNL     1      -8.466  51.839  47.265  0.00  0.00    +0.000 A 
ENDROOT
BRANCH   1  18
ATOM     13  S   UNL     1     -13.368  58.839  49.411  0.00  0.00    +0.000 S 
ATOM     14  O   UNL     1     -14.440  58.788  48.437  0.00  0.00    +0.000 OA
ATOM     15  O   UNL     1     -12.599  60.056  49.583  0.00  0.00    +0.000 OA
ATOM     16  N   UNL     1     -12.334  57.639  49.073  0.00  0.00    +0.000 N 
ATOM     17  C   UNL     1     -14.108  58.512  50.967  0.00  0.00    +0.000 A 
ATOM     18  C   UNL     1     -12.247  56.591  49.840  0.00  0.00    +0.000 C 
ATOM     19  C   UNL     1     -13.825  57.299  51.573  0.00  0.00    +0.000 A 
ATOM     20  C   UNL     1     -14.945  59.463  51.556  0.00  0.00    +0.000 A 
ATOM     21  N   UNL     1     -13.000  56.356  50.968  0.00  0.00    +0.000 N 
ATOM     22  C   UNL     1     -14.466  57.004  52.780  0.00  0.00    +0.000 A 
ATOM     23  C   UNL     1     -15.546  59.170  52.776  0.00  0.00    +0.000 A 
ATOM     24  C   UNL     1     -15.314  57.937  53.383  0.00  0.00    +0.000 A 
ATOM     25  H   UNL     1     -11.763  57.703  48.274  0.00  0.00    +0.000 HD
ATOM     26  H   UNL     1     -12.951  55.461  51.375  0.00  0.00    +0.000 HD
ENDBRANCH   1  18
BRANCH   3  27
ATOM     27  O   UNL     1     -12.230  55.267  47.304  0.00  0.00    +0.000 OA
ATOM     28  H   UNL     1     -12.828  55.971  47.456  0.00  0.00    +0.000 HD
ENDBRANCH   3  27
BRANCH   5  29
ATOM     29  C   UNL     1      -8.346  53.715  51.143  0.00  0.00    +0.000 C 
BRANCH  29  30
ATOM     30  C   UNL     1      -7.159  54.688  51.214  0.00  0.00    +0.000 C 
BRANCH  30  31
ATOM     31  C   UNL     1      -5.916  54.224  50.426  0.00  0.00    +0.000 C 
ATOM     32  C   UNL     1      -5.592  55.141  49.245  0.00  0.00    +0.000 C 
ATOM     33  C   UNL     1      -4.704  54.153  51.360  0.00  0.00    +0.000 C 
ENDBRANCH  30  31
ENDBRANCH  29  30
ENDBRANCH   5  29
TORSDOF 5
ENDMDL
