MODEL 1
REMARK VINA RESULT:      -8.2      0.000      0.000
REMARK  Name = 338298
REMARK  5 active torsions:
REMARK  status: ('A' for Active; 'I' for Inactive)
REMARK    1  A    between atoms: C_6  and  C_10
REMARK    2  A    between atoms: C_14  and  O_18
REMARK    3  A    between atoms: N_17  and  C_21
REMARK    4  A    between atoms: C_21  and  C_24
REMARK    5  A    between atoms: C_24  and  C_27
REMARK                            x       y       z     vdW  Elec       q    Type
REMARK                         _______ _______ _______ _____ _____    ______ ____
ROOT
ATOM      1  C   UNL     1     -10.101  54.391  52.287  0.00  0.00    +0.000 A 
ATOM      2  C   UNL     1      -8.727  54.945  52.146  0.00  0.00    +0.000 A 
ATOM      3  C   UNL     1     -10.317  53.294  53.026  0.00  0.00    +0.000 A 
ATOM      4  O   UNL     1      -8.615  55.962  51.457  0.00  0.00    +0.000 OA
ATOM      5  N   UNL     1      -7.665  54.331  52.797  0.00  0.00    +0.000 N 
ATOM      6  C   UNL     1      -9.197  52.645  53.726  0.00  0.00    +0.000 A 
ATOM      7  C   UNL     1      -7.887  53.150  53.591  0.00  0.00    +0.000 A 
ATOM      8  C   UNL     1      -9.440  51.529  54.547  0.00  0.00    +0.000 A 
ATOM      9  C   UNL     1      -6.852  52.489  54.275  0.00  0.00    +0.000 A 
ATOM     10  C   UNL     1      -8.407  50.922  55.253  0.00  0.00    +0.000 A 
ATOM     11  C   UNL     1      -7.113  51.400  55.115  0.00  0.00    +0.000 A 
ENDROOT
BRANCH   1  17
ATOM     12  S   UNL     1     -12.395  55.947  49.502  0.00  0.00    +0.000 S 
ATOM     13  O   UNL     1     -13.302  54.975  48.912  0.00  0.00    +0.000 OA
ATOM     14  O   UNL     1     -11.728  56.922  48.666  0.00  0.00    +0.000 OA
ATOM     15  N   UNL     1     -11.263  55.126  50.320  0.00  0.00    +0.000 N 
ATOM     16  C   UNL     1     -13.354  56.869  50.649  0.00  0.00    +0.000 A 
ATOM     17  C   UNL     1     -11.246  55.132  51.619  0.00  0.00    +0.000 C 
ATOM     18  C   UNL     1     -13.105  56.681  51.998  0.00  0.00    +0.000 A 
ATOM     19  C   UNL     1     -14.323  57.768  50.195  0.00  0.00    +0.000 A 
ATOM     20  N   UNL     1     -12.160  55.758  52.437  0.00  0.00    +0.000 N 
ATOM     21  C   UNL     1     -13.892  57.377  52.922  0.00  0.00    +0.000 A 
ATOM     22  C   UNL     1     -15.080  58.477  51.125  0.00  0.00    +0.000 A 
ATOM     23  C   UNL     1     -14.869  58.278  52.489  0.00  0.00    +0.000 A 
ATOM     24  H   UNL     1     -10.581  54.616  49.826  0.00  0.00    +0.000 HD
ATOM     25  H   UNL     1     -12.144  55.539  53.398  0.00  0.00    +0.000 HD
ENDBRANCH   1  17
BRANCH   3  26
ATOM     26  O   UNL     1     -11.560  52.715  53.218  0.00  0.00    +0.000 OA
ATOM     27  H   UNL     1     -11.675  52.060  53.878  0.00  0.00    +0.000 HD
ENDBRANCH   3  26
BRANCH   5  28
ATOM     28  C   UNL     1      -6.290  54.831  52.557  0.00  0.00    +0.000 C 
BRANCH  28  29
ATOM     29  C   UNL     1      -5.511  54.164  51.409  0.00  0.00    +0.000 C 
BRANCH  29  30
ATOM     30  C   UNL     1      -5.524  54.953  50.131  0.00  0.00    +0.000 C 
ATOM     31  C   UNL     1      -6.385  54.603  48.948  0.00  0.00    +0.000 C 
ATOM     32  C   UNL     1      -4.909  54.322  48.908  0.00  0.00    +0.000 C 
ENDBRANCH  29  30
ENDBRANCH  28  29
ENDBRANCH   5  28
TORSDOF 5
ENDMDL
MODEL 2
REMARK VINA RESULT:      -8.0      3.466      4.480
REMARK  Name = 338298
REMARK  5 active torsions:
REMARK  status: ('A' for Active; 'I' for Inactive)
REMARK    1  A    between atoms: C_6  and  C_10
REMARK    2  A    between atoms: C_14  and  O_18
REMARK    3  A    between atoms: N_17  and  C_21
REMARK    4  A    between atoms: C_21  and  C_24
REMARK    5  A    between atoms: C_24  and  C_27
REMARK                            x       y       z     vdW  Elec       q    Type
REMARK                         _______ _______ _______ _____ _____    ______ ____
ROOT
ATOM      1  C   UNL     1     -12.439  54.274  49.843  0.00  0.00    +0.000 A 
ATOM      2  C   UNL     1     -12.148  54.065  48.399  0.00  0.00    +0.000 A 
ATOM      3  C   UNL     1     -11.954  53.427  50.762  0.00  0.00    +0.000 A 
ATOM      4  O   UNL     1     -12.622  54.895  47.620  0.00  0.00    +0.000 OA
ATOM      5  N   UNL     1     -11.355  52.995  48.003  0.00  0.00    +0.000 N 
ATOM      6  C   UNL     1     -11.106  52.299  50.349  0.00  0.00    +0.000 A 
ATOM      7  C   UNL     1     -10.832  52.079  48.983  0.00  0.00    +0.000 A 
ATOM      8  C   UNL     1     -10.552  51.448  51.323  0.00  0.00    +0.000 A 
ATOM      9  C   UNL     1     -10.022  50.982  48.641  0.00  0.00    +0.000 A 
ATOM     10  C   UNL     1      -9.715  50.398  50.964  0.00  0.00    +0.000 A 
ATOM     11  C   UNL     1      -9.451  50.164  49.623  0.00  0.00    +0.000 A 
ENDROOT
BRANCH   1  17
ATOM     12  S   UNL     1     -15.346  56.497  51.272  0.00  0.00    +0.000 S 
ATOM     13  O   UNL     1     -15.277  56.654  52.717  0.00  0.00    +0.000 OA
ATOM     14  O   UNL     1     -16.623  56.286  50.624  0.00  0.00    +0.000 OA
ATOM     15  N   UNL     1     -14.367  55.273  50.866  0.00  0.00    +0.000 N 
ATOM     16  C   UNL     1     -14.697  57.981  50.593  0.00  0.00    +0.000 A 
ATOM     17  C   UNL     1     -13.249  55.495  50.243  0.00  0.00    +0.000 C 
ATOM     18  C   UNL     1     -13.468  57.918  49.959  0.00  0.00    +0.000 A 
ATOM     19  C   UNL     1     -15.420  59.174  50.687  0.00  0.00    +0.000 A 
ATOM     20  N   UNL     1     -12.744  56.731  49.902  0.00  0.00    +0.000 N 
ATOM     21  C   UNL     1     -12.921  59.102  49.453  0.00  0.00    +0.000 A 
ATOM     22  C   UNL     1     -14.877  60.340  50.152  0.00  0.00    +0.000 A 
ATOM     23  C   UNL     1     -13.625  60.306  49.539  0.00  0.00    +0.000 A 
ATOM     24  H   UNL     1     -14.622  54.350  51.095  0.00  0.00    +0.000 HD
ATOM     25  H   UNL     1     -11.808  56.777  49.597  0.00  0.00    +0.000 HD
ENDBRANCH   1  17
BRANCH   3  26
ATOM     26  O   UNL     1     -12.168  53.549  52.125  0.00  0.00    +0.000 OA
ATOM     27  H   UNL     1     -13.042  53.606  52.459  0.00  0.00    +0.000 HD
ENDBRANCH   3  26
BRANCH   5  28
ATOM     28  C   UNL     1     -11.166  52.741  46.555  0.00  0.00    +0.000 C 
BRANCH  28  29
ATOM     29  C   UNL     1     -10.255  53.727  45.801  0.00  0.00    +0.000 C 
BRANCH  29  30
ATOM     30  C   UNL     1      -8.923  53.943  46.458  0.00  0.00    +0.000 C 
ATOM     31  C   UNL     1      -8.556  55.202  47.197  0.00  0.00    +0.000 C 
ATOM     32  C   UNL     1      -7.983  54.941  45.833  0.00  0.00    +0.000 C 
ENDBRANCH  29  30
ENDBRANCH  28  29
ENDBRANCH   5  28
TORSDOF 5
ENDMDL
MODEL 3
REMARK VINA RESULT:      -8.0      2.574      7.808
REMARK  Name = 338298
REMARK  5 active torsions:
REMARK  status: ('A' for Active; 'I' for Inactive)
REMARK    1  A    between atoms: C_6  and  C_10
REMARK    2  A    between atoms: C_14  and  O_18
REMARK    3  A    between atoms: N_17  and  C_21
REMARK    4  A    between atoms: C_21  and  C_24
REMARK    5  A    between atoms: C_24  and  C_27
REMARK                            x       y       z     vdW  Elec       q    Type
REMARK                         _______ _______ _______ _____ _____    ______ ____
ROOT
ATOM      1  C   UNL     1     -10.064  54.776  50.911  0.00  0.00    +0.000 A 
ATOM      2  C   UNL     1     -11.379  55.314  51.354  0.00  0.00    +0.000 A 
ATOM      3  C   UNL     1      -9.773  54.688  49.606  0.00  0.00    +0.000 A 
ATOM      4  O   UNL     1     -11.564  55.372  52.572  0.00  0.00    +0.000 OA
ATOM      5  N   UNL     1     -12.303  55.741  50.409  0.00  0.00    +0.000 N 
ATOM      6  C   UNL     1     -10.744  55.148  48.601  0.00  0.00    +0.000 A 
ATOM      7  C   UNL     1     -12.000  55.647  49.005  0.00  0.00    +0.000 A 
ATOM      8  C   UNL     1     -10.410  55.107  47.235  0.00  0.00    +0.000 A 
ATOM      9  C   UNL     1     -12.895  56.067  48.005  0.00  0.00    +0.000 A 
ATOM     10  C   UNL     1     -11.292  55.574  46.268  0.00  0.00    +0.000 A 
ATOM     11  C   UNL     1     -12.535  56.051  46.652  0.00  0.00    +0.000 A 
ENDROOT
BRANCH   1  17
ATOM     12  S   UNL     1      -6.766  54.687  53.044  0.00  0.00    +0.000 S 
ATOM     13  O   UNL     1      -6.719  55.734  54.053  0.00  0.00    +0.000 OA
ATOM     14  O   UNL     1      -5.580  54.358  52.282  0.00  0.00    +0.000 OA
ATOM     15  N   UNL     1      -7.946  55.066  52.001  0.00  0.00    +0.000 N 
ATOM     16  C   UNL     1      -7.220  53.218  53.892  0.00  0.00    +0.000 A 
ATOM     17  C   UNL     1      -9.053  54.387  51.975  0.00  0.00    +0.000 C 
ATOM     18  C   UNL     1      -8.482  52.700  53.655  0.00  0.00    +0.000 A 
ATOM     19  C   UNL     1      -6.318  52.600  54.763  0.00  0.00    +0.000 A 
ATOM     20  N   UNL     1      -9.382  53.344  52.812  0.00  0.00    +0.000 N 
ATOM     21  C   UNL     1      -8.871  51.554  54.358  0.00  0.00    +0.000 A 
ATOM     22  C   UNL     1      -6.708  51.443  55.434  0.00  0.00    +0.000 A 
ATOM     23  C   UNL     1      -7.986  50.922  55.236  0.00  0.00    +0.000 A 
ATOM     24  H   UNL     1      -7.822  55.820  51.380  0.00  0.00    +0.000 HD
ATOM     25  H   UNL     1     -10.317  53.032  52.813  0.00  0.00    +0.000 HD
ENDBRANCH   1  17
BRANCH   3  26
ATOM     26  O   UNL     1      -8.574  54.208  49.104  0.00  0.00    +0.000 OA
ATOM     27  H   UNL     1      -8.572  53.632  48.366  0.00  0.00    +0.000 HD
ENDBRANCH   3  26
BRANCH   5  28
ATOM     28  C   UNL     1     -13.647  56.171  50.865  0.00  0.00    +0.000 C 
BRANCH  28  29
ATOM     29  C   UNL     1     -13.846  57.683  51.075  0.00  0.00    +0.000 C 
BRANCH  29  30
ATOM     30  C   UNL     1     -14.088  58.067  52.506  0.00  0.00    +0.000 C 
ATOM     31  C   UNL     1     -15.357  57.746  53.249  0.00  0.00    +0.000 C 
ATOM     32  C   UNL     1     -15.099  59.151  52.783  0.00  0.00    +0.000 C 
ENDBRANCH  29  30
ENDBRANCH  28  29
ENDBRANCH   5  28
TORSDOF 5
ENDMDL
MODEL 4
REMARK VINA RESULT:      -7.9      3.244      7.148
REMARK  Name = 338298
REMARK  5 active torsions:
REMARK  status: ('A' for Active; 'I' for Inactive)
REMARK    1  A    between atoms: C_6  and  C_10
REMARK    2  A    between atoms: C_14  and  O_18
REMARK    3  A    between atoms: N_17  and  C_21
REMARK    4  A    between atoms: C_21  and  C_24
REMARK    5  A    between atoms: C_24  and  C_27
REMARK                            x       y       z     vdW  Elec       q    Type
REMARK                         _______ _______ _______ _____ _____    ______ ____
ROOT
ATOM      1  C   UNL     1     -10.119  55.181  50.710  0.00  0.00    +0.000 A 
ATOM      2  C   UNL     1      -9.661  55.062  49.299  0.00  0.00    +0.000 A 
ATOM      3  C   UNL     1     -11.332  55.679  50.988  0.00  0.00    +0.000 A 
ATOM      4  O   UNL     1      -8.536  54.586  49.127  0.00  0.00    +0.000 OA
ATOM      5  N   UNL     1     -10.502  55.454  48.265  0.00  0.00    +0.000 N 
ATOM      6  C   UNL     1     -12.230  56.086  49.897  0.00  0.00    +0.000 A 
ATOM      7  C   UNL     1     -11.805  55.992  48.555  0.00  0.00    +0.000 A 
ATOM      8  C   UNL     1     -13.524  56.552  50.194  0.00  0.00    +0.000 A 
ATOM      9  C   UNL     1     -12.699  56.401  47.551  0.00  0.00    +0.000 A 
ATOM     10  C   UNL     1     -14.408  56.905  49.181  0.00  0.00    +0.000 A 
ATOM     11  C   UNL     1     -13.995  56.832  47.859  0.00  0.00    +0.000 A 
ENDROOT
BRANCH   1  17
ATOM     12  S   UNL     1      -6.977  54.791  53.036  0.00  0.00    +0.000 S 
ATOM     13  O   UNL     1      -6.947  55.771  54.111  0.00  0.00    +0.000 OA
ATOM     14  O   UNL     1      -5.761  54.447  52.331  0.00  0.00    +0.000 OA
ATOM     15  N   UNL     1      -8.066  55.293  51.947  0.00  0.00    +0.000 N 
ATOM     16  C   UNL     1      -7.557  53.299  53.759  0.00  0.00    +0.000 A 
ATOM     17  C   UNL     1      -9.200  54.676  51.808  0.00  0.00    +0.000 C 
ATOM     18  C   UNL     1      -8.824  52.862  53.410  0.00  0.00    +0.000 A 
ATOM     19  C   UNL     1      -6.746  52.583  54.643  0.00  0.00    +0.000 A 
ATOM     20  N   UNL     1      -9.634  53.603  52.554  0.00  0.00    +0.000 N 
ATOM     21  C   UNL     1      -9.314  51.698  54.013  0.00  0.00    +0.000 A 
ATOM     22  C   UNL     1      -7.235  51.409  55.213  0.00  0.00    +0.000 A 
ATOM     23  C   UNL     1      -8.521  50.969  54.902  0.00  0.00    +0.000 A 
ATOM     24  H   UNL     1      -7.865  56.076  51.384  0.00  0.00    +0.000 HD
ATOM     25  H   UNL     1     -10.581  53.341  52.477  0.00  0.00    +0.000 HD
ENDBRANCH   1  17
BRANCH   3  26
ATOM     26  O   UNL     1     -11.843  55.818  52.268  0.00  0.00    +0.000 OA
ATOM     27  H   UNL     1     -12.670  56.237  52.400  0.00  0.00    +0.000 HD
ENDBRANCH   3  26
BRANCH   5  28
ATOM     28  C   UNL     1      -9.987  55.431  46.875  0.00  0.00    +0.000 C 
BRANCH  28  29
ATOM     29  C   UNL     1      -9.975  54.060  46.174  0.00  0.00    +0.000 C 
BRANCH  29  30
ATOM     30  C   UNL     1     -11.120  53.856  45.224  0.00  0.00    +0.000 C 
ATOM     31  C   UNL     1     -11.978  52.621  45.210  0.00  0.00    +0.000 C 
ATOM     32  C   UNL     1     -10.954  52.831  44.131  0.00  0.00    +0.000 C 
ENDBRANCH  29  30
ENDBRANCH  28  29
ENDBRANCH   5  28
TORSDOF 5
ENDMDL
MODEL 5
REMARK VINA RESULT:      -7.9      2.233      3.225
REMARK  Name = 338298
REMARK  5 active torsions:
REMARK  status: ('A' for Active; 'I' for Inactive)
REMARK    1  A    between atoms: C_6  and  C_10
REMARK    2  A    between atoms: C_14  and  O_18
REMARK    3  A    between atoms: N_17  and  C_21
REMARK    4  A    between atoms: C_21  and  C_24
REMARK    5  A    between atoms: C_24  and  C_27
REMARK                            x       y       z     vdW  Elec       q    Type
REMARK                         _______ _______ _______ _____ _____    ______ ____
ROOT
ATOM      1  C   UNL     1     -11.713  53.991  51.049  0.00  0.00    +0.000 A 
ATOM      2  C   UNL     1     -10.817  53.979  52.237  0.00  0.00    +0.000 A 
ATOM      3  C   UNL     1     -11.788  52.920  50.246  0.00  0.00    +0.000 A 
ATOM      4  O   UNL     1     -10.813  55.000  52.929  0.00  0.00    +0.000 OA
ATOM      5  N   UNL     1     -10.066  52.846  52.524  0.00  0.00    +0.000 N 
ATOM      6  C   UNL     1     -11.003  51.714  50.552  0.00  0.00    +0.000 A 
ATOM      7  C   UNL     1     -10.139  51.692  51.666  0.00  0.00    +0.000 A 
ATOM      8  C   UNL     1     -11.131  50.573  49.739  0.00  0.00    +0.000 A 
ATOM      9  C   UNL     1      -9.406  50.518  51.909  0.00  0.00    +0.000 A 
ATOM     10  C   UNL     1     -10.432  49.406  50.028  0.00  0.00    +0.000 A 
ATOM     11  C   UNL     1      -9.568  49.379  51.111  0.00  0.00    +0.000 A 
ENDROOT
BRANCH   1  17
ATOM     12  S   UNL     1     -13.334  57.099  49.276  0.00  0.00    +0.000 S 
ATOM     13  O   UNL     1     -14.441  56.736  48.404  0.00  0.00    +0.000 OA
ATOM     14  O   UNL     1     -12.380  58.105  48.860  0.00  0.00    +0.000 OA
ATOM     15  N   UNL     1     -12.519  55.743  49.621  0.00  0.00    +0.000 N 
ATOM     16  C   UNL     1     -14.063  57.705  50.754  0.00  0.00    +0.000 A 
ATOM     17  C   UNL     1     -12.571  55.220  50.809  0.00  0.00    +0.000 C 
ATOM     18  C   UNL     1     -13.948  56.930  51.896  0.00  0.00    +0.000 A 
ATOM     19  C   UNL     1     -14.720  58.938  50.762  0.00  0.00    +0.000 A 
ATOM     20  N   UNL     1     -13.319  55.688  51.866  0.00  0.00    +0.000 N 
ATOM     21  C   UNL     1     -14.561  57.381  53.070  0.00  0.00    +0.000 A 
ATOM     22  C   UNL     1     -15.301  59.390  51.945  0.00  0.00    +0.000 A 
ATOM     23  C   UNL     1     -15.227  58.610  53.098  0.00  0.00    +0.000 A 
ATOM     24  H   UNL     1     -11.978  55.310  48.921  0.00  0.00    +0.000 HD
ATOM     25  H   UNL     1     -13.417  55.105  52.655  0.00  0.00    +0.000 HD
ENDBRANCH   1  17
BRANCH   3  26
ATOM     26  O   UNL     1     -12.599  52.840  49.127  0.00  0.00    +0.000 OA
ATOM     27  H   UNL     1     -13.272  52.190  49.081  0.00  0.00    +0.000 HD
ENDBRANCH   3  26
BRANCH   5  28
ATOM     28  C   UNL     1      -9.099  52.893  53.647  0.00  0.00    +0.000 C 
BRANCH  28  29
ATOM     29  C   UNL     1      -7.722  53.508  53.337  0.00  0.00    +0.000 C 
BRANCH  29  30
ATOM     30  C   UNL     1      -7.383  54.695  54.192  0.00  0.00    +0.000 C 
ATOM     31  C   UNL     1      -6.712  55.934  53.664  0.00  0.00    +0.000 C 
ATOM     32  C   UNL     1      -5.929  54.954  54.492  0.00  0.00    +0.000 C 
ENDBRANCH  29  30
ENDBRANCH  28  29
ENDBRANCH   5  28
TORSDOF 5
ENDMDL
MODEL 6
REMARK VINA RESULT:      -7.6      2.906      4.971
REMARK  Name = 338298
REMARK  5 active torsions:
REMARK  status: ('A' for Active; 'I' for Inactive)
REMARK    1  A    between atoms: C_6  and  C_10
REMARK    2  A    between atoms: C_14  and  O_18
REMARK    3  A    between atoms: N_17  and  C_21
REMARK    4  A    between atoms: C_21  and  C_24
REMARK    5  A    between atoms: C_24  and  C_27
REMARK                            x       y       z     vdW  Elec       q    Type
REMARK                         _______ _______ _______ _____ _____    ______ ____
ROOT
ATOM      1  C   UNL     1     -11.491  55.894  48.822  0.00  0.00    +0.000 A 
ATOM      2  C   UNL     1     -10.494  55.257  49.724  0.00  0.00    +0.000 A 
ATOM      3  C   UNL     1     -11.542  55.561  47.525  0.00  0.00    +0.000 A 
ATOM      4  O   UNL     1     -10.519  55.611  50.905  0.00  0.00    +0.000 OA
ATOM      5  N   UNL     1      -9.622  54.299  49.221  0.00  0.00    +0.000 N 
ATOM      6  C   UNL     1     -10.628  54.540  46.990  0.00  0.00    +0.000 A 
ATOM      7  C   UNL     1      -9.668  53.937  47.828  0.00  0.00    +0.000 A 
ATOM      8  C   UNL     1     -10.726  54.153  45.640  0.00  0.00    +0.000 A 
ATOM      9  C   UNL     1      -8.814  52.973  47.266  0.00  0.00    +0.000 A 
ATOM     10  C   UNL     1      -9.903  53.162  45.119  0.00  0.00    +0.000 A 
ATOM     11  C   UNL     1      -8.945  52.573  45.930  0.00  0.00    +0.000 A 
ENDROOT
BRANCH   1  17
ATOM     12  S   UNL     1     -13.528  59.196  49.438  0.00  0.00    +0.000 S 
ATOM     13  O   UNL     1     -14.666  59.331  48.542  0.00  0.00    +0.000 OA
ATOM     14  O   UNL     1     -12.707  60.346  49.750  0.00  0.00    +0.000 OA
ATOM     15  N   UNL     1     -12.568  58.039  48.838  0.00  0.00    +0.000 N 
ATOM     16  C   UNL     1     -14.183  58.640  50.970  0.00  0.00    +0.000 A 
ATOM     17  C   UNL     1     -12.473  56.883  49.424  0.00  0.00    +0.000 C 
ATOM     18  C   UNL     1     -13.904  57.341  51.358  0.00  0.00    +0.000 A 
ATOM     19  C   UNL     1     -14.946  59.501  51.764  0.00  0.00    +0.000 A 
ATOM     20  N   UNL     1     -13.171  56.484  50.542  0.00  0.00    +0.000 N 
ATOM     21  C   UNL     1     -14.457  56.872  52.555  0.00  0.00    +0.000 A 
ATOM     22  C   UNL     1     -15.466  59.031  52.969  0.00  0.00    +0.000 A 
ATOM     23  C   UNL     1     -15.225  57.715  53.363  0.00  0.00    +0.000 A 
ATOM     24  H   UNL     1     -12.050  58.214  48.019  0.00  0.00    +0.000 HD
ATOM     25  H   UNL     1     -13.149  55.528  50.782  0.00  0.00    +0.000 HD
ENDBRANCH   1  17
BRANCH   3  26
ATOM     26  O   UNL     1     -12.440  56.097  46.617  0.00  0.00    +0.000 OA
ATOM     27  H   UNL     1     -12.611  57.018  46.614  0.00  0.00    +0.000 HD
ENDBRANCH   3  26
BRANCH   5  28
ATOM     28  C   UNL     1      -8.565  53.755  50.108  0.00  0.00    +0.000 C 
BRANCH  28  29
ATOM     29  C   UNL     1      -7.292  54.608  50.255  0.00  0.00    +0.000 C 
BRANCH  29  30
ATOM     30  C   UNL     1      -6.846  54.789  51.677  0.00  0.00    +0.000 C 
ATOM     31  C   UNL     1      -7.774  54.688  52.857  0.00  0.00    +0.000 C 
ATOM     32  C   UNL     1      -7.290  56.035  52.401  0.00  0.00    +0.000 C 
ENDBRANCH  29  30
ENDBRANCH  28  29
ENDBRANCH   5  28
TORSDOF 5
ENDMDL
MODEL 7
REMARK VINA RESULT:      -7.6      3.221      7.143
REMARK  Name = 338298
REMARK  5 active torsions:
REMARK  status: ('A' for Active; 'I' for Inactive)
REMARK    1  A    between atoms: C_6  and  C_10
REMARK    2  A    between atoms: C_14  and  O_18
REMARK    3  A    between atoms: N_17  and  C_21
REMARK    4  A    between atoms: C_21  and  C_24
REMARK    5  A    between atoms: C_24  and  C_27
REMARK                            x       y       z     vdW  Elec       q    Type
REMARK                         _______ _______ _______ _____ _____    ______ ____
ROOT
ATOM      1  C   UNL     1     -10.425  54.924  50.423  0.00  0.00    +0.000 A 
ATOM      2  C   UNL     1     -10.124  54.806  48.970  0.00  0.00    +0.000 A 
ATOM      3  C   UNL     1     -11.513  55.587  50.838  0.00  0.00    +0.000 A 
ATOM      4  O   UNL     1      -9.109  54.172  48.671  0.00  0.00    +0.000 OA
ATOM      5  N   UNL     1     -10.986  55.372  48.039  0.00  0.00    +0.000 N 
ATOM      6  C   UNL     1     -12.435  56.179  49.856  0.00  0.00    +0.000 A 
ATOM      7  C   UNL     1     -12.157  56.087  48.476  0.00  0.00    +0.000 A 
ATOM      8  C   UNL     1     -13.606  56.822  50.296  0.00  0.00    +0.000 A 
ATOM      9  C   UNL     1     -13.065  56.676  47.580  0.00  0.00    +0.000 A 
ATOM     10  C   UNL     1     -14.515  57.354  49.389  0.00  0.00    +0.000 A 
ATOM     11  C   UNL     1     -14.243  57.284  48.031  0.00  0.00    +0.000 A 
ENDROOT
BRANCH   1  17
ATOM     12  S   UNL     1      -8.972  52.240  52.897  0.00  0.00    +0.000 S 
ATOM     13  O   UNL     1      -8.287  51.154  52.211  0.00  0.00    +0.000 OA
ATOM     14  O   UNL     1      -9.827  51.960  54.031  0.00  0.00    +0.000 OA
ATOM     15  N   UNL     1      -9.846  53.041  51.793  0.00  0.00    +0.000 N 
ATOM     16  C   UNL     1      -7.710  53.307  53.492  0.00  0.00    +0.000 A 
ATOM     17  C   UNL     1      -9.498  54.231  51.406  0.00  0.00    +0.000 C 
ATOM     18  C   UNL     1      -7.576  54.547  52.891  0.00  0.00    +0.000 A 
ATOM     19  C   UNL     1      -6.890  52.905  54.550  0.00  0.00    +0.000 A 
ATOM     20  N   UNL     1      -8.379  54.920  51.817  0.00  0.00    +0.000 N 
ATOM     21  C   UNL     1      -6.547  55.388  53.327  0.00  0.00    +0.000 A 
ATOM     22  C   UNL     1      -5.888  53.765  54.995  0.00  0.00    +0.000 A 
ATOM     23  C   UNL     1      -5.712  55.005  54.381  0.00  0.00    +0.000 A 
ATOM     24  H   UNL     1     -10.650  52.620  51.411  0.00  0.00    +0.000 HD
ATOM     25  H   UNL     1      -8.129  55.732  51.318  0.00  0.00    +0.000 HD
ENDBRANCH   1  17
BRANCH   3  26
ATOM     26  O   UNL     1     -11.874  55.739  52.166  0.00  0.00    +0.000 OA
ATOM     27  H   UNL     1     -11.375  56.302  52.726  0.00  0.00    +0.000 HD
ENDBRANCH   3  26
BRANCH   5  28
ATOM     28  C   UNL     1     -10.614  55.338  46.605  0.00  0.00    +0.000 C 
BRANCH  28  29
ATOM     29  C   UNL     1     -11.287  54.248  45.750  0.00  0.00    +0.000 C 
BRANCH  29  30
ATOM     30  C   UNL     1     -10.358  53.142  45.339  0.00  0.00    +0.000 C 
ATOM     31  C   UNL     1      -9.119  53.362  44.515  0.00  0.00    +0.000 C 
ATOM     32  C   UNL     1     -10.336  52.745  43.885  0.00  0.00    +0.000 C 
ENDBRANCH  29  30
ENDBRANCH  28  29
ENDBRANCH   5  28
TORSDOF 5
ENDMDL
MODEL 8
REMARK VINA RESULT:      -7.5      3.044      5.184
REMARK  Name = 338298
REMARK  5 active torsions:
REMARK  status: ('A' for Active; 'I' for Inactive)
REMARK    1  A    between atoms: C_6  and  C_10
REMARK    2  A    between atoms: C_14  and  O_18
REMARK    3  A    between atoms: N_17  and  C_21
REMARK    4  A    between atoms: C_21  and  C_24
REMARK    5  A    between atoms: C_24  and  C_27
REMARK                            x       y       z     vdW  Elec       q    Type
REMARK                         _______ _______ _______ _____ _____    ______ ____
ROOT
ATOM      1  C   UNL     1     -10.689  55.725  48.452  0.00  0.00    +0.000 A 
ATOM      2  C   UNL     1      -9.273  55.676  48.905  0.00  0.00    +0.000 A 
ATOM      3  C   UNL     1     -11.047  55.169  47.286  0.00  0.00    +0.000 A 
ATOM      4  O   UNL     1      -9.029  56.202  49.994  0.00  0.00    +0.000 OA
ATOM      5  N   UNL     1      -8.320  55.036  48.123  0.00  0.00    +0.000 N 
ATOM      6  C   UNL     1     -10.044  54.481  46.459  0.00  0.00    +0.000 A 
ATOM      7  C   UNL     1      -8.695  54.438  46.868  0.00  0.00    +0.000 A 
ATOM      8  C   UNL     1     -10.437  53.849  45.265  0.00  0.00    +0.000 A 
ATOM      9  C   UNL     1      -7.775  53.775  46.038  0.00  0.00    +0.000 A 
ATOM     10  C   UNL     1      -9.517  53.157  44.485  0.00  0.00    +0.000 A 
ATOM     11  C   UNL     1      -8.186  53.122  44.870  0.00  0.00    +0.000 A 
ENDROOT
BRANCH   1  17
ATOM     12  S   UNL     1     -13.303  56.204  51.345  0.00  0.00    +0.000 S 
ATOM     13  O   UNL     1     -12.678  56.480  52.629  0.00  0.00    +0.000 OA
ATOM     14  O   UNL     1     -14.440  55.312  51.266  0.00  0.00    +0.000 OA
ATOM     15  N   UNL     1     -12.153  55.645  50.351  0.00  0.00    +0.000 N 
ATOM     16  C   UNL     1     -13.862  57.754  50.737  0.00  0.00    +0.000 A 
ATOM     17  C   UNL     1     -11.715  56.370  49.367  0.00  0.00    +0.000 C 
ATOM     18  C   UNL     1     -13.204  58.295  49.645  0.00  0.00    +0.000 A 
ATOM     19  C   UNL     1     -14.946  58.398  51.339  0.00  0.00    +0.000 A 
ATOM     20  N   UNL     1     -12.105  57.659  49.076  0.00  0.00    +0.000 N 
ATOM     21  C   UNL     1     -13.611  59.549  49.178  0.00  0.00    +0.000 A 
ATOM     22  C   UNL     1     -15.361  59.633  50.846  0.00  0.00    +0.000 A 
ATOM     23  C   UNL     1     -14.691  60.212  49.768  0.00  0.00    +0.000 A 
ATOM     24  H   UNL     1     -11.783  54.744  50.496  0.00  0.00    +0.000 HD
ATOM     25  H   UNL     1     -11.570  58.164  48.420  0.00  0.00    +0.000 HD
ENDBRANCH   1  17
BRANCH   3  26
ATOM     26  O   UNL     1     -12.340  55.161  46.790  0.00  0.00    +0.000 OA
ATOM     27  H   UNL     1     -12.789  55.969  46.638  0.00  0.00    +0.000 HD
ENDBRANCH   3  26
BRANCH   5  28
ATOM     28  C   UNL     1      -6.898  55.092  48.538  0.00  0.00    +0.000 C 
BRANCH  28  29
ATOM     29  C   UNL     1      -6.450  54.054  49.583  0.00  0.00    +0.000 C 
BRANCH  29  30
ATOM     30  C   UNL     1      -5.213  54.450  50.337  0.00  0.00    +0.000 C 
ATOM     31  C   UNL     1      -4.221  53.459  50.883  0.00  0.00    +0.000 C 
ATOM     32  C   UNL     1      -5.167  54.162  51.816  0.00  0.00    +0.000 C 
ENDBRANCH  29  30
ENDBRANCH  28  29
ENDBRANCH   5  28
TORSDOF 5
ENDMDL
MODEL 9
REMARK VINA RESULT:      -7.5      4.112      7.336
REMARK  Name = 338298
REMARK  5 active torsions:
REMARK  status: ('A' for Active; 'I' for Inactive)
REMARK    1  A    between atoms: C_6  and  C_10
REMARK    2  A    between atoms: C_14  and  O_18
REMARK    3  A    between atoms: N_17  and  C_21
REMARK    4  A    between atoms: C_21  and  C_24
REMARK    5  A    between atoms: C_24  and  C_27
REMARK                            x       y       z     vdW  Elec       q    Type
REMARK                         _______ _______ _______ _____ _____    ______ ____
ROOT
ATOM      1  C   UNL     1     -11.058  54.544  48.297  0.00  0.00    +0.000 A 
ATOM      2  C   UNL     1     -10.731  54.116  49.684  0.00  0.00    +0.000 A 
ATOM      3  C   UNL     1     -12.034  55.435  48.075  0.00  0.00    +0.000 A 
ATOM      4  O   UNL     1      -9.813  53.300  49.802  0.00  0.00    +0.000 OA
ATOM      5  N   UNL     1     -11.430  54.655  50.755  0.00  0.00    +0.000 N 
ATOM      6  C   UNL     1     -12.771  56.017  49.207  0.00  0.00    +0.000 A 
ATOM      7  C   UNL     1     -12.482  55.611  50.527  0.00  0.00    +0.000 A 
ATOM      8  C   UNL     1     -13.755  56.996  48.972  0.00  0.00    +0.000 A 
ATOM      9  C   UNL     1     -13.220  56.193  51.572  0.00  0.00    +0.000 A 
ATOM     10  C   UNL     1     -14.438  57.592  50.025  0.00  0.00    +0.000 A 
ATOM     11  C   UNL     1     -14.173  57.189  51.325  0.00  0.00    +0.000 A 
ENDROOT
BRANCH   1  17
ATOM     12  S   UNL     1      -8.053  53.963  45.834  0.00  0.00    +0.000 S 
ATOM     13  O   UNL     1      -7.035  53.082  46.385  0.00  0.00    +0.000 OA
ATOM     14  O   UNL     1      -7.668  55.140  45.085  0.00  0.00    +0.000 OA
ATOM     15  N   UNL     1      -9.007  54.432  47.055  0.00  0.00    +0.000 N 
ATOM     16  C   UNL     1      -9.000  52.976  44.731  0.00  0.00    +0.000 A 
ATOM     17  C   UNL     1     -10.223  53.986  47.157  0.00  0.00    +0.000 C 
ATOM     18  C   UNL     1     -10.297  52.662  45.099  0.00  0.00    +0.000 A 
ATOM     19  C   UNL     1      -8.449  52.545  43.521  0.00  0.00    +0.000 A 
ATOM     20  N   UNL     1     -10.822  53.070  46.321  0.00  0.00    +0.000 N 
ATOM     21  C   UNL     1     -11.047  51.840  44.249  0.00  0.00    +0.000 A 
ATOM     22  C   UNL     1      -9.216  51.753  42.671  0.00  0.00    +0.000 A 
ATOM     23  C   UNL     1     -10.514  51.396  43.036  0.00  0.00    +0.000 A 
ATOM     24  H   UNL     1      -8.661  55.062  47.728  0.00  0.00    +0.000 HD
ATOM     25  H   UNL     1     -11.679  52.677  46.608  0.00  0.00    +0.000 HD
ENDBRANCH   1  17
BRANCH   3  26
ATOM     26  O   UNL     1     -12.400  55.895  46.821  0.00  0.00    +0.000 OA
ATOM     27  H   UNL     1     -12.838  56.719  46.734  0.00  0.00    +0.000 HD
ENDBRANCH   3  26
BRANCH   5  28
ATOM     28  C   UNL     1     -11.165  54.136  52.119  0.00  0.00    +0.000 C 
BRANCH  28  29
ATOM     29  C   UNL     1     -10.296  55.023  53.030  0.00  0.00    +0.000 C 
BRANCH  29  30
ATOM     30  C   UNL     1      -8.856  54.600  53.089  0.00  0.00    +0.000 C 
ATOM     31  C   UNL     1      -7.821  55.295  53.931  0.00  0.00    +0.000 C 
ATOM     32  C   UNL     1      -7.832  55.498  52.443  0.00  0.00    +0.000 C 
ENDBRANCH  29  30
ENDBRANCH  28  29
ENDBRANCH   5  28
TORSDOF 5
ENDMDL
