MODEL 1
REMARK VINA RESULT:      -8.2      0.000      0.000
REMARK  Name = 338298
REMARK  5 active torsions:
REMARK  status: ('A' for Active; 'I' for Inactive)
REMARK    1  A    between atoms: C_6  and  C_10
REMARK    2  A    between atoms: C_14  and  O_18
REMARK    3  A    between atoms: N_17  and  C_21
REMARK    4  A    between atoms: C_21  and  C_24
REMARK    5  A    between atoms: C_24  and  C_27
REMARK                            x       y       z     vdW  Elec       q    Type
REMARK                         _______ _______ _______ _____ _____    ______ ____
ROOT
ATOM      1  C   UNL     1     -10.126  54.412  52.285  0.00  0.00    +0.000 A 
ATOM      2  C   UNL     1      -8.748  54.954  52.129  0.00  0.00    +0.000 A 
ATOM      3  C   UNL     1     -10.339  53.316  53.028  0.00  0.00    +0.000 A 
ATOM      4  O   UNL     1      -8.627  55.950  51.410  0.00  0.00    +0.000 OA
ATOM      5  N   UNL     1      -7.688  54.354  52.799  0.00  0.00    +0.000 N 
ATOM      6  C   UNL     1      -9.219  52.668  53.727  0.00  0.00    +0.000 A 
ATOM      7  C   UNL     1      -7.909  53.172  53.593  0.00  0.00    +0.000 A 
ATOM      8  C   UNL     1      -9.459  51.545  54.542  0.00  0.00    +0.000 A 
ATOM      9  C   UNL     1      -6.872  52.501  54.266  0.00  0.00    +0.000 A 
ATOM     10  C   UNL     1      -8.423  50.920  55.229  0.00  0.00    +0.000 A 
ATOM     11  C   UNL     1      -7.129  51.397  55.086  0.00  0.00    +0.000 A 
ENDROOT
BRANCH   1  17
ATOM     12  S   UNL     1     -12.439  55.968  49.512  0.00  0.00    +0.000 S 
ATOM     13  O   UNL     1     -13.350  55.007  48.919  0.00  0.00    +0.000 OA
ATOM     14  O   UNL     1     -11.764  56.946  48.676  0.00  0.00    +0.000 OA
ATOM     15  N   UNL     1     -11.308  55.141  50.323  0.00  0.00    +0.000 N 
ATOM     16  C   UNL     1     -13.390  56.894  50.662  0.00  0.00    +0.000 A 
ATOM     17  C   UNL     1     -11.273  55.157  51.623  0.00  0.00    +0.000 C 
ATOM     18  C   UNL     1     -13.132  56.710  52.009  0.00  0.00    +0.000 A 
ATOM     19  C   UNL     1     -14.363  57.792  50.211  0.00  0.00    +0.000 A 
ATOM     20  N   UNL     1     -12.177  55.797  52.446  0.00  0.00    +0.000 N 
ATOM     21  C   UNL     1     -13.922  57.399  52.936  0.00  0.00    +0.000 A 
ATOM     22  C   UNL     1     -15.120  58.498  51.144  0.00  0.00    +0.000 A 
ATOM     23  C   UNL     1     -14.906  58.295  52.506  0.00  0.00    +0.000 A 
ATOM     24  H   UNL     1     -10.638  54.618  49.826  0.00  0.00    +0.000 HD
ATOM     25  H   UNL     1     -12.143  55.595  53.410  0.00  0.00    +0.000 HD
ENDBRANCH   1  17
BRANCH   3  26
ATOM     26  O   UNL     1     -11.580  52.734  53.218  0.00  0.00    +0.000 OA
ATOM     27  H   UNL     1     -12.232  53.177  53.725  0.00  0.00    +0.000 HD
ENDBRANCH   3  26
BRANCH   5  28
ATOM     28  C   UNL     1      -6.315  54.851  52.545  0.00  0.00    +0.000 C 
BRANCH  28  29
ATOM     29  C   UNL     1      -5.534  54.155  51.415  0.00  0.00    +0.000 C 
BRANCH  29  30
ATOM     30  C   UNL     1      -5.509  54.937  50.134  0.00  0.00    +0.000 C 
ATOM     31  C   UNL     1      -6.323  54.567  48.922  0.00  0.00    +0.000 C 
ATOM     32  C   UNL     1      -4.842  54.315  48.932  0.00  0.00    +0.000 C 
ENDBRANCH  29  30
ENDBRANCH  28  29
ENDBRANCH   5  28
TORSDOF 5
ENDMDL
MODEL 2
REMARK VINA RESULT:      -8.0      2.586      7.827
REMARK  Name = 338298
REMARK  5 active torsions:
REMARK  status: ('A' for Active; 'I' for Inactive)
REMARK    1  A    between atoms: C_6  and  C_10
REMARK    2  A    between atoms: C_14  and  O_18
REMARK    3  A    between atoms: N_17  and  C_21
REMARK    4  A    between atoms: C_21  and  C_24
REMARK    5  A    between atoms: C_24  and  C_27
REMARK                            x       y       z     vdW  Elec       q    Type
REMARK                         _______ _______ _______ _____ _____    ______ ____
ROOT
ATOM      1  C   UNL     1     -10.056  54.839  50.901  0.00  0.00    +0.000 A 
ATOM      2  C   UNL     1     -11.373  55.376  51.344  0.00  0.00    +0.000 A 
ATOM      3  C   UNL     1      -9.769  54.752  49.594  0.00  0.00    +0.000 A 
ATOM      4  O   UNL     1     -11.573  55.402  52.561  0.00  0.00    +0.000 OA
ATOM      5  N   UNL     1     -12.284  55.838  50.401  0.00  0.00    +0.000 N 
ATOM      6  C   UNL     1     -10.736  55.225  48.592  0.00  0.00    +0.000 A 
ATOM      7  C   UNL     1     -11.985  55.740  48.995  0.00  0.00    +0.000 A 
ATOM      8  C   UNL     1     -10.407  55.172  47.223  0.00  0.00    +0.000 A 
ATOM      9  C   UNL     1     -12.881  56.158  47.995  0.00  0.00    +0.000 A 
ATOM     10  C   UNL     1     -11.295  55.627  46.252  0.00  0.00    +0.000 A 
ATOM     11  C   UNL     1     -12.533  56.116  46.640  0.00  0.00    +0.000 A 
ENDROOT
BRANCH   1  17
ATOM     12  S   UNL     1      -6.762  54.744  53.045  0.00  0.00    +0.000 S 
ATOM     13  O   UNL     1      -6.705  55.781  54.058  0.00  0.00    +0.000 OA
ATOM     14  O   UNL     1      -5.576  54.415  52.272  0.00  0.00    +0.000 OA
ATOM     15  N   UNL     1      -7.942  55.131  52.006  0.00  0.00    +0.000 N 
ATOM     16  C   UNL     1      -7.212  53.269  53.883  0.00  0.00    +0.000 A 
ATOM     17  C   UNL     1      -9.045  54.443  51.963  0.00  0.00    +0.000 C 
ATOM     18  C   UNL     1      -8.471  52.747  53.640  0.00  0.00    +0.000 A 
ATOM     19  C   UNL     1      -6.311  52.649  54.755  0.00  0.00    +0.000 A 
ATOM     20  N   UNL     1      -9.368  53.384  52.788  0.00  0.00    +0.000 N 
ATOM     21  C   UNL     1      -8.863  51.604  54.346  0.00  0.00    +0.000 A 
ATOM     22  C   UNL     1      -6.701  51.491  55.426  0.00  0.00    +0.000 A 
ATOM     23  C   UNL     1      -7.980  50.974  55.228  0.00  0.00    +0.000 A 
ATOM     24  H   UNL     1      -7.824  55.897  51.400  0.00  0.00    +0.000 HD
ATOM     25  H   UNL     1     -10.297  53.057  52.772  0.00  0.00    +0.000 HD
ENDBRANCH   1  17
BRANCH   3  26
ATOM     26  O   UNL     1      -8.580  54.255  49.089  0.00  0.00    +0.000 OA
ATOM     27  H   UNL     1      -8.268  53.416  49.366  0.00  0.00    +0.000 HD
ENDBRANCH   3  26
BRANCH   5  28
ATOM     28  C   UNL     1     -13.624  56.270  50.863  0.00  0.00    +0.000 C 
BRANCH  28  29
ATOM     29  C   UNL     1     -13.817  57.783  51.081  0.00  0.00    +0.000 C 
BRANCH  29  30
ATOM     30  C   UNL     1     -14.075  58.154  52.513  0.00  0.00    +0.000 C 
ATOM     31  C   UNL     1     -15.307  57.729  53.269  0.00  0.00    +0.000 C 
ATOM     32  C   UNL     1     -15.169  59.151  52.805  0.00  0.00    +0.000 C 
ENDBRANCH  29  30
ENDBRANCH  28  29
ENDBRANCH   5  28
TORSDOF 5
ENDMDL
MODEL 3
REMARK VINA RESULT:      -7.9      3.611      4.574
REMARK  Name = 338298
REMARK  5 active torsions:
REMARK  status: ('A' for Active; 'I' for Inactive)
REMARK    1  A    between atoms: C_6  and  C_10
REMARK    2  A    between atoms: C_14  and  O_18
REMARK    3  A    between atoms: N_17  and  C_21
REMARK    4  A    between atoms: C_21  and  C_24
REMARK    5  A    between atoms: C_24  and  C_27
REMARK                            x       y       z     vdW  Elec       q    Type
REMARK                         _______ _______ _______ _____ _____    ______ ____
ROOT
ATOM      1  C   UNL     1     -12.555  54.256  49.615  0.00  0.00    +0.000 A 
ATOM      2  C   UNL     1     -12.121  54.192  48.191  0.00  0.00    +0.000 A 
ATOM      3  C   UNL     1     -12.224  53.272  50.464  0.00  0.00    +0.000 A 
ATOM      4  O   UNL     1     -12.485  55.121  47.464  0.00  0.00    +0.000 OA
ATOM      5  N   UNL     1     -11.327  53.137  47.756  0.00  0.00    +0.000 N 
ATOM      6  C   UNL     1     -11.396  52.146  50.007  0.00  0.00    +0.000 A 
ATOM      7  C   UNL     1     -10.974  52.074  48.662  0.00  0.00    +0.000 A 
ATOM      8  C   UNL     1     -11.015  51.142  50.917  0.00  0.00    +0.000 A 
ATOM      9  C   UNL     1     -10.203  50.965  48.272  0.00  0.00    +0.000 A 
ATOM     10  C   UNL     1     -10.220  50.073  50.517  0.00  0.00    +0.000 A 
ATOM     11  C   UNL     1      -9.818  49.984  49.193  0.00  0.00    +0.000 A 
ENDROOT
BRANCH   1  17
ATOM     12  S   UNL     1     -15.374  56.480  51.216  0.00  0.00    +0.000 S 
ATOM     13  O   UNL     1     -15.266  56.593  52.659  0.00  0.00    +0.000 OA
ATOM     14  O   UNL     1     -16.675  56.303  50.594  0.00  0.00    +0.000 OA
ATOM     15  N   UNL     1     -14.426  55.254  50.744  0.00  0.00    +0.000 N 
ATOM     16  C   UNL     1     -14.728  57.975  50.561  0.00  0.00    +0.000 A 
ATOM     17  C   UNL     1     -13.332  55.476  50.078  0.00  0.00    +0.000 C 
ATOM     18  C   UNL     1     -13.523  57.914  49.881  0.00  0.00    +0.000 A 
ATOM     19  C   UNL     1     -15.427  59.175  50.720  0.00  0.00    +0.000 A 
ATOM     20  N   UNL     1     -12.826  56.717  49.748  0.00  0.00    +0.000 N 
ATOM     21  C   UNL     1     -12.970  59.108  49.405  0.00  0.00    +0.000 A 
ATOM     22  C   UNL     1     -14.882  60.352  50.212  0.00  0.00    +0.000 A 
ATOM     23  C   UNL     1     -13.649  60.320  49.562  0.00  0.00    +0.000 A 
ATOM     24  H   UNL     1     -14.680  54.329  50.965  0.00  0.00    +0.000 HD
ATOM     25  H   UNL     1     -11.908  56.759  49.393  0.00  0.00    +0.000 HD
ENDBRANCH   1  17
BRANCH   3  26
ATOM     26  O   UNL     1     -12.592  53.240  51.798  0.00  0.00    +0.000 OA
ATOM     27  H   UNL     1     -12.324  52.524  52.341  0.00  0.00    +0.000 HD
ENDBRANCH   3  26
BRANCH   5  28
ATOM     28  C   UNL     1     -10.997  53.045  46.315  0.00  0.00    +0.000 C 
BRANCH  28  29
ATOM     29  C   UNL     1      -9.892  53.990  45.804  0.00  0.00    +0.000 C 
BRANCH  29  30
ATOM     30  C   UNL     1      -8.526  53.653  46.329  0.00  0.00    +0.000 C 
ATOM     31  C   UNL     1      -7.822  54.463  47.385  0.00  0.00    +0.000 C 
ATOM     32  C   UNL     1      -7.377  54.555  45.954  0.00  0.00    +0.000 C 
ENDBRANCH  29  30
ENDBRANCH  28  29
ENDBRANCH   5  28
TORSDOF 5
ENDMDL
MODEL 4
REMARK VINA RESULT:      -7.9      3.251      7.161
REMARK  Name = 338298
REMARK  5 active torsions:
REMARK  status: ('A' for Active; 'I' for Inactive)
REMARK    1  A    between atoms: C_6  and  C_10
REMARK    2  A    between atoms: C_14  and  O_18
REMARK    3  A    between atoms: N_17  and  C_21
REMARK    4  A    between atoms: C_21  and  C_24
REMARK    5  A    between atoms: C_24  and  C_27
REMARK                            x       y       z     vdW  Elec       q    Type
REMARK                         _______ _______ _______ _____ _____    ______ ____
ROOT
ATOM      1  C   UNL     1     -10.132  55.184  50.747  0.00  0.00    +0.000 A 
ATOM      2  C   UNL     1      -9.695  55.082  49.326  0.00  0.00    +0.000 A 
ATOM      3  C   UNL     1     -11.343  55.676  51.045  0.00  0.00    +0.000 A 
ATOM      4  O   UNL     1      -8.558  54.643  49.132  0.00  0.00    +0.000 OA
ATOM      5  N   UNL     1     -10.565  55.449  48.306  0.00  0.00    +0.000 N 
ATOM      6  C   UNL     1     -12.263  56.079  49.971  0.00  0.00    +0.000 A 
ATOM      7  C   UNL     1     -11.865  55.985  48.620  0.00  0.00    +0.000 A 
ATOM      8  C   UNL     1     -13.551  56.552  50.292  0.00  0.00    +0.000 A 
ATOM      9  C   UNL     1     -12.775  56.404  47.633  0.00  0.00    +0.000 A 
ATOM     10  C   UNL     1     -14.448  56.925  49.296  0.00  0.00    +0.000 A 
ATOM     11  C   UNL     1     -14.057  56.855  47.968  0.00  0.00    +0.000 A 
ENDROOT
BRANCH   1  17
ATOM     12  S   UNL     1      -6.948  54.785  53.019  0.00  0.00    +0.000 S 
ATOM     13  O   UNL     1      -6.878  55.765  54.086  0.00  0.00    +0.000 OA
ATOM     14  O   UNL     1      -5.750  54.424  52.279  0.00  0.00    +0.000 OA
ATOM     15  N   UNL     1      -8.056  55.293  51.953  0.00  0.00    +0.000 N 
ATOM     16  C   UNL     1      -7.520  53.300  53.759  0.00  0.00    +0.000 A 
ATOM     17  C   UNL     1      -9.194  54.676  51.828  0.00  0.00    +0.000 C 
ATOM     18  C   UNL     1      -8.795  52.867  53.436  0.00  0.00    +0.000 A 
ATOM     19  C   UNL     1      -6.696  52.584  54.634  0.00  0.00    +0.000 A 
ATOM     20  N   UNL     1      -9.614  53.599  52.582  0.00  0.00    +0.000 N 
ATOM     21  C   UNL     1      -9.283  51.715  54.065  0.00  0.00    +0.000 A 
ATOM     22  C   UNL     1      -7.182  51.420  55.227  0.00  0.00    +0.000 A 
ATOM     23  C   UNL     1      -8.478  50.991  54.949  0.00  0.00    +0.000 A 
ATOM     24  H   UNL     1      -7.867  56.080  51.393  0.00  0.00    +0.000 HD
ATOM     25  H   UNL     1     -10.559  53.329  52.510  0.00  0.00    +0.000 HD
ENDBRANCH   1  17
BRANCH   3  26
ATOM     26  O   UNL     1     -11.829  55.820  52.333  0.00  0.00    +0.000 OA
ATOM     27  H   UNL     1     -12.512  55.257  52.641  0.00  0.00    +0.000 HD
ENDBRANCH   3  26
BRANCH   5  28
ATOM     28  C   UNL     1     -10.068  55.434  46.910  0.00  0.00    +0.000 C 
BRANCH  28  29
ATOM     29  C   UNL     1     -10.034  54.062  46.210  0.00  0.00    +0.000 C 
BRANCH  29  30
ATOM     30  C   UNL     1     -11.153  53.862  45.230  0.00  0.00    +0.000 C 
ATOM     31  C   UNL     1     -11.984  52.608  45.168  0.00  0.00    +0.000 C 
ATOM     32  C   UNL     1     -10.951  52.872  44.111  0.00  0.00    +0.000 C 
ENDBRANCH  29  30
ENDBRANCH  28  29
ENDBRANCH   5  28
TORSDOF 5
ENDMDL
MODEL 5
REMARK VINA RESULT:      -7.8      1.564      2.274
REMARK  Name = 338298
REMARK  5 active torsions:
REMARK  status: ('A' for Active; 'I' for Inactive)
REMARK    1  A    between atoms: C_6  and  C_10
REMARK    2  A    between atoms: C_14  and  O_18
REMARK    3  A    between atoms: N_17  and  C_21
REMARK    4  A    between atoms: C_21  and  C_24
REMARK    5  A    between atoms: C_24  and  C_27
REMARK                            x       y       z     vdW  Elec       q    Type
REMARK                         _______ _______ _______ _____ _____    ______ ____
ROOT
ATOM      1  C   UNL     1     -10.170  54.547  52.145  0.00  0.00    +0.000 A 
ATOM      2  C   UNL     1      -8.767  55.036  52.040  0.00  0.00    +0.000 A 
ATOM      3  C   UNL     1     -10.451  53.457  52.874  0.00  0.00    +0.000 A 
ATOM      4  O   UNL     1      -8.584  56.030  51.332  0.00  0.00    +0.000 OA
ATOM      5  N   UNL     1      -7.755  54.391  52.742  0.00  0.00    +0.000 N 
ATOM      6  C   UNL     1      -9.382  52.762  53.606  0.00  0.00    +0.000 A 
ATOM      7  C   UNL     1      -8.049  53.215  53.521  0.00  0.00    +0.000 A 
ATOM      8  C   UNL     1      -9.693  51.645  54.406  0.00  0.00    +0.000 A 
ATOM      9  C   UNL     1      -7.062  52.501  54.223  0.00  0.00    +0.000 A 
ATOM     10  C   UNL     1      -8.706  50.976  55.123  0.00  0.00    +0.000 A 
ATOM     11  C   UNL     1      -7.390  51.403  55.028  0.00  0.00    +0.000 A 
ENDROOT
BRANCH   1  17
ATOM     12  S   UNL     1     -13.513  56.525  51.537  0.00  0.00    +0.000 S 
ATOM     13  O   UNL     1     -13.451  57.907  51.975  0.00  0.00    +0.000 OA
ATOM     14  O   UNL     1     -14.707  55.735  51.784  0.00  0.00    +0.000 OA
ATOM     15  N   UNL     1     -12.255  55.742  52.189  0.00  0.00    +0.000 N 
ATOM     16  C   UNL     1     -13.312  56.558  49.793  0.00  0.00    +0.000 A 
ATOM     17  C   UNL     1     -11.264  55.340  51.450  0.00  0.00    +0.000 C 
ATOM     18  C   UNL     1     -12.136  56.049  49.270  0.00  0.00    +0.000 A 
ATOM     19  C   UNL     1     -14.324  57.072  48.976  0.00  0.00    +0.000 A 
ATOM     20  N   UNL     1     -11.127  55.560  50.094  0.00  0.00    +0.000 N 
ATOM     21  C   UNL     1     -11.940  56.123  47.886  0.00  0.00    +0.000 A 
ATOM     22  C   UNL     1     -14.131  57.109  47.596  0.00  0.00    +0.000 A 
ATOM     23  C   UNL     1     -12.935  56.642  47.052  0.00  0.00    +0.000 A 
ATOM     24  H   UNL     1     -12.239  55.570  53.158  0.00  0.00    +0.000 HD
ATOM     25  H   UNL     1     -10.257  55.356  49.681  0.00  0.00    +0.000 HD
ENDBRANCH   1  17
BRANCH   3  26
ATOM     26  O   UNL     1     -11.719  52.923  53.019  0.00  0.00    +0.000 OA
ATOM     27  H   UNL     1     -12.132  52.493  52.295  0.00  0.00    +0.000 HD
ENDBRANCH   3  26
BRANCH   5  28
ATOM     28  C   UNL     1      -6.356  54.836  52.537  0.00  0.00    +0.000 C 
BRANCH  28  29
ATOM     29  C   UNL     1      -5.568  54.122  51.422  0.00  0.00    +0.000 C 
BRANCH  29  30
ATOM     30  C   UNL     1      -5.426  54.941  50.172  0.00  0.00    +0.000 C 
ATOM     31  C   UNL     1      -6.248  54.707  48.932  0.00  0.00    +0.000 C 
ATOM     32  C   UNL     1      -4.806  54.289  48.961  0.00  0.00    +0.000 C 
ENDBRANCH  29  30
ENDBRANCH  28  29
ENDBRANCH   5  28
TORSDOF 5
ENDMDL
MODEL 6
REMARK VINA RESULT:      -7.8      2.957      4.860
REMARK  Name = 338298
REMARK  5 active torsions:
REMARK  status: ('A' for Active; 'I' for Inactive)
REMARK    1  A    between atoms: C_6  and  C_10
REMARK    2  A    between atoms: C_14  and  O_18
REMARK    3  A    between atoms: N_17  and  C_21
REMARK    4  A    between atoms: C_21  and  C_24
REMARK    5  A    between atoms: C_24  and  C_27
REMARK                            x       y       z     vdW  Elec       q    Type
REMARK                         _______ _______ _______ _____ _____    ______ ____
ROOT
ATOM      1  C   UNL     1     -11.562  55.822  48.793  0.00  0.00    +0.000 A 
ATOM      2  C   UNL     1     -10.574  55.152  49.682  0.00  0.00    +0.000 A 
ATOM      3  C   UNL     1     -11.625  55.500  47.492  0.00  0.00    +0.000 A 
ATOM      4  O   UNL     1     -10.558  55.519  50.860  0.00  0.00    +0.000 OA
ATOM      5  N   UNL     1      -9.751  54.152  49.174  0.00  0.00    +0.000 N 
ATOM      6  C   UNL     1     -10.748  54.454  46.946  0.00  0.00    +0.000 A 
ATOM      7  C   UNL     1      -9.809  53.806  47.777  0.00  0.00    +0.000 A 
ATOM      8  C   UNL     1     -10.853  54.090  45.589  0.00  0.00    +0.000 A 
ATOM      9  C   UNL     1      -8.980  52.829  47.199  0.00  0.00    +0.000 A 
ATOM     10  C   UNL     1     -10.047  53.093  45.048  0.00  0.00    +0.000 A 
ATOM     11  C   UNL     1      -9.109  52.466  45.853  0.00  0.00    +0.000 A 
ENDROOT
BRANCH   1  17
ATOM     12  S   UNL     1     -13.526  59.168  49.429  0.00  0.00    +0.000 S 
ATOM     13  O   UNL     1     -14.667  59.341  48.550  0.00  0.00    +0.000 OA
ATOM     14  O   UNL     1     -12.663  60.297  49.734  0.00  0.00    +0.000 OA
ATOM     15  N   UNL     1     -12.602  57.989  48.815  0.00  0.00    +0.000 N 
ATOM     16  C   UNL     1     -14.175  58.630  50.969  0.00  0.00    +0.000 A 
ATOM     17  C   UNL     1     -12.515  56.834  49.406  0.00  0.00    +0.000 C 
ATOM     18  C   UNL     1     -13.918  57.327  51.357  0.00  0.00    +0.000 A 
ATOM     19  C   UNL     1     -14.913  59.508  51.769  0.00  0.00    +0.000 A 
ATOM     20  N   UNL     1     -13.201  56.455  50.542  0.00  0.00    +0.000 N 
ATOM     21  C   UNL     1     -14.479  56.869  52.555  0.00  0.00    +0.000 A 
ATOM     22  C   UNL     1     -15.437  59.051  52.976  0.00  0.00    +0.000 A 
ATOM     23  C   UNL     1     -15.227  57.729  53.365  0.00  0.00    +0.000 A 
ATOM     24  H   UNL     1     -12.101  58.146  47.982  0.00  0.00    +0.000 HD
ATOM     25  H   UNL     1     -13.182  55.504  50.795  0.00  0.00    +0.000 HD
ENDBRANCH   1  17
BRANCH   3  26
ATOM     26  O   UNL     1     -12.500  56.078  46.589  0.00  0.00    +0.000 OA
ATOM     27  H   UNL     1     -12.509  55.791  45.697  0.00  0.00    +0.000 HD
ENDBRANCH   3  26
BRANCH   5  28
ATOM     28  C   UNL     1      -8.709  53.576  50.056  0.00  0.00    +0.000 C 
BRANCH  28  29
ATOM     29  C   UNL     1      -7.550  54.512  50.448  0.00  0.00    +0.000 C 
BRANCH  29  30
ATOM     30  C   UNL     1      -6.789  55.049  49.270  0.00  0.00    +0.000 C 
ATOM     31  C   UNL     1      -5.869  54.206  48.426  0.00  0.00    +0.000 C 
ATOM     32  C   UNL     1      -5.293  55.196  49.397  0.00  0.00    +0.000 C 
ENDBRANCH  29  30
ENDBRANCH  28  29
ENDBRANCH   5  28
TORSDOF 5
ENDMDL
MODEL 7
REMARK VINA RESULT:      -7.7      1.956      2.522
REMARK  Name = 338298
REMARK  5 active torsions:
REMARK  status: ('A' for Active; 'I' for Inactive)
REMARK    1  A    between atoms: C_6  and  C_10
REMARK    2  A    between atoms: C_14  and  O_18
REMARK    3  A    between atoms: N_17  and  C_21
REMARK    4  A    between atoms: C_21  and  C_24
REMARK    5  A    between atoms: C_24  and  C_27
REMARK                            x       y       z     vdW  Elec       q    Type
REMARK                         _______ _______ _______ _____ _____    ______ ____
ROOT
ATOM      1  C   UNL     1     -11.204  54.540  50.896  0.00  0.00    +0.000 A 
ATOM      2  C   UNL     1      -9.783  54.927  50.674  0.00  0.00    +0.000 A 
ATOM      3  C   UNL     1     -11.514  53.279  51.233  0.00  0.00    +0.000 A 
ATOM      4  O   UNL     1      -9.579  56.098  50.342  0.00  0.00    +0.000 OA
ATOM      5  N   UNL     1      -8.773  53.992  50.869  0.00  0.00    +0.000 N 
ATOM      6  C   UNL     1     -10.451  52.283  51.426  0.00  0.00    +0.000 A 
ATOM      7  C   UNL     1      -9.100  52.635  51.224  0.00  0.00    +0.000 A 
ATOM      8  C   UNL     1     -10.783  50.973  51.825  0.00  0.00    +0.000 A 
ATOM      9  C   UNL     1      -8.124  51.638  51.401  0.00  0.00    +0.000 A 
ATOM     10  C   UNL     1      -9.797  50.013  52.031  0.00  0.00    +0.000 A 
ATOM     11  C   UNL     1      -8.469  50.346  51.815  0.00  0.00    +0.000 A 
ENDROOT
BRANCH   1  17
ATOM     12  S   UNL     1     -13.516  57.329  49.367  0.00  0.00    +0.000 S 
ATOM     13  O   UNL     1     -14.645  56.797  48.627  0.00  0.00    +0.000 OA
ATOM     14  O   UNL     1     -12.782  58.473  48.854  0.00  0.00    +0.000 OA
ATOM     15  N   UNL     1     -12.460  56.122  49.593  0.00  0.00    +0.000 N 
ATOM     16  C   UNL     1     -14.147  57.824  50.928  0.00  0.00    +0.000 A 
ATOM     17  C   UNL     1     -12.271  55.615  50.776  0.00  0.00    +0.000 C 
ATOM     18  C   UNL     1     -13.769  57.090  52.039  0.00  0.00    +0.000 A 
ATOM     19  C   UNL     1     -14.992  58.934  51.027  0.00  0.00    +0.000 A 
ATOM     20  N   UNL     1     -12.945  55.974  51.925  0.00  0.00    +0.000 N 
ATOM     21  C   UNL     1     -14.312  57.440  53.281  0.00  0.00    +0.000 A 
ATOM     22  C   UNL     1     -15.499  59.293  52.275  0.00  0.00    +0.000 A 
ATOM     23  C   UNL     1     -15.166  58.541  53.400  0.00  0.00    +0.000 A 
ATOM     24  H   UNL     1     -11.956  55.766  48.827  0.00  0.00    +0.000 HD
ATOM     25  H   UNL     1     -12.836  55.403  52.720  0.00  0.00    +0.000 HD
ENDBRANCH   1  17
BRANCH   3  26
ATOM     26  O   UNL     1     -12.805  52.826  51.446  0.00  0.00    +0.000 OA
ATOM     27  H   UNL     1     -13.505  53.439  51.550  0.00  0.00    +0.000 HD
ENDBRANCH   3  26
BRANCH   5  28
ATOM     28  C   UNL     1      -7.379  54.376  50.542  0.00  0.00    +0.000 C 
BRANCH  28  29
ATOM     29  C   UNL     1      -6.613  55.157  51.627  0.00  0.00    +0.000 C 
BRANCH  29  30
ATOM     30  C   UNL     1      -6.816  54.615  53.012  0.00  0.00    +0.000 C 
ATOM     31  C   UNL     1      -7.597  55.338  54.077  0.00  0.00    +0.000 C 
ATOM     32  C   UNL     1      -6.098  55.292  54.153  0.00  0.00    +0.000 C 
ENDBRANCH  29  30
ENDBRANCH  28  29
ENDBRANCH   5  28
TORSDOF 5
ENDMDL
MODEL 8
REMARK VINA RESULT:      -7.7      4.338      8.009
REMARK  Name = 338298
REMARK  5 active torsions:
REMARK  status: ('A' for Active; 'I' for Inactive)
REMARK    1  A    between atoms: C_6  and  C_10
REMARK    2  A    between atoms: C_14  and  O_18
REMARK    3  A    between atoms: N_17  and  C_21
REMARK    4  A    between atoms: C_21  and  C_24
REMARK    5  A    between atoms: C_24  and  C_27
REMARK                            x       y       z     vdW  Elec       q    Type
REMARK                         _______ _______ _______ _____ _____    ______ ____
ROOT
ATOM      1  C   UNL     1     -10.842  54.880  47.910  0.00  0.00    +0.000 A 
ATOM      2  C   UNL     1     -12.112  55.576  47.563  0.00  0.00    +0.000 A 
ATOM      3  C   UNL     1     -10.456  54.783  49.191  0.00  0.00    +0.000 A 
ATOM      4  O   UNL     1     -12.389  55.647  46.362  0.00  0.00    +0.000 OA
ATOM      5  N   UNL     1     -12.925  56.079  48.573  0.00  0.00    +0.000 N 
ATOM      6  C   UNL     1     -11.304  55.327  50.262  0.00  0.00    +0.000 A 
ATOM      7  C   UNL     1     -12.512  55.984  49.950  0.00  0.00    +0.000 A 
ATOM      8  C   UNL     1     -10.913  55.179  51.608  0.00  0.00    +0.000 A 
ATOM      9  C   UNL     1     -13.274  56.505  51.011  0.00  0.00    +0.000 A 
ATOM     10  C   UNL     1     -11.702  55.669  52.644  0.00  0.00    +0.000 A 
ATOM     11  C   UNL     1     -12.880  56.335  52.343  0.00  0.00    +0.000 A 
ENDROOT
BRANCH   1  17
ATOM     12  S   UNL     1      -7.893  54.138  45.418  0.00  0.00    +0.000 S 
ATOM     13  O   UNL     1      -6.853  53.303  45.991  0.00  0.00    +0.000 OA
ATOM     14  O   UNL     1      -7.539  55.274  44.584  0.00  0.00    +0.000 OA
ATOM     15  N   UNL     1      -8.817  54.681  46.633  0.00  0.00    +0.000 N 
ATOM     16  C   UNL     1      -8.862  53.081  44.405  0.00  0.00    +0.000 A 
ATOM     17  C   UNL     1     -10.034  54.251  46.788  0.00  0.00    +0.000 C 
ATOM     18  C   UNL     1     -10.150  52.791  44.821  0.00  0.00    +0.000 A 
ATOM     19  C   UNL     1      -8.336  52.571  43.214  0.00  0.00    +0.000 A 
ATOM     20  N   UNL     1     -10.654  53.288  46.019  0.00  0.00    +0.000 N 
ATOM     21  C   UNL     1     -10.911  51.904  44.050  0.00  0.00    +0.000 A 
ATOM     22  C   UNL     1      -9.117  51.715  42.438  0.00  0.00    +0.000 A 
ATOM     23  C   UNL     1     -10.401  51.375  42.861  0.00  0.00    +0.000 A 
ATOM     24  H   UNL     1      -8.452  55.343  47.263  0.00  0.00    +0.000 HD
ATOM     25  H   UNL     1     -11.513  52.927  46.339  0.00  0.00    +0.000 HD
ENDBRANCH   1  17
BRANCH   3  26
ATOM     26  O   UNL     1      -9.288  54.168  49.607  0.00  0.00    +0.000 OA
ATOM     27  H   UNL     1      -8.489  54.317  49.142  0.00  0.00    +0.000 HD
ENDBRANCH   3  26
BRANCH   5  28
ATOM     28  C   UNL     1     -14.129  56.855  48.193  0.00  0.00    +0.000 C 
BRANCH  28  29
ATOM     29  C   UNL     1     -13.936  58.374  48.015  0.00  0.00    +0.000 C 
BRANCH  29  30
ATOM     30  C   UNL     1     -14.321  59.172  49.227  0.00  0.00    +0.000 C 
ATOM     31  C   UNL     1     -14.601  60.652  49.188  0.00  0.00    +0.000 C 
ATOM     32  C   UNL     1     -13.316  60.150  49.783  0.00  0.00    +0.000 C 
ENDBRANCH  29  30
ENDBRANCH  28  29
ENDBRANCH   5  28
TORSDOF 5
ENDMDL
MODEL 9
REMARK VINA RESULT:      -7.6      3.430      4.323
REMARK  Name = 338298
REMARK  5 active torsions:
REMARK  status: ('A' for Active; 'I' for Inactive)
REMARK    1  A    between atoms: C_6  and  C_10
REMARK    2  A    between atoms: C_14  and  O_18
REMARK    3  A    between atoms: N_17  and  C_21
REMARK    4  A    between atoms: C_21  and  C_24
REMARK    5  A    between atoms: C_24  and  C_27
REMARK                            x       y       z     vdW  Elec       q    Type
REMARK                         _______ _______ _______ _____ _____    ______ ____
ROOT
ATOM      1  C   UNL     1     -11.991  54.371  50.107  0.00  0.00    +0.000 A 
ATOM      2  C   UNL     1     -10.981  54.528  49.024  0.00  0.00    +0.000 A 
ATOM      3  C   UNL     1     -12.022  53.249  50.841  0.00  0.00    +0.000 A 
ATOM      4  O   UNL     1     -11.030  55.577  48.376  0.00  0.00    +0.000 OA
ATOM      5  N   UNL     1     -10.035  53.531  48.809  0.00  0.00    +0.000 N 
ATOM      6  C   UNL     1     -11.034  52.185  50.609  0.00  0.00    +0.000 A 
ATOM      7  C   UNL     1     -10.068  52.321  49.590  0.00  0.00    +0.000 A 
ATOM      8  C   UNL     1     -11.046  51.030  51.415  0.00  0.00    +0.000 A 
ATOM      9  C   UNL     1      -9.161  51.264  49.395  0.00  0.00    +0.000 A 
ATOM     10  C   UNL     1     -10.114  50.014  51.230  0.00  0.00    +0.000 A 
ATOM     11  C   UNL     1      -9.174  50.131  50.217  0.00  0.00    +0.000 A 
ENDROOT
BRANCH   1  17
ATOM     12  S   UNL     1     -15.225  56.363  51.121  0.00  0.00    +0.000 S 
ATOM     13  O   UNL     1     -15.373  56.526  52.555  0.00  0.00    +0.000 OA
ATOM     14  O   UNL     1     -16.381  56.047  50.300  0.00  0.00    +0.000 OA
ATOM     15  N   UNL     1     -14.107  55.220  50.867  0.00  0.00    +0.000 N 
ATOM     16  C   UNL     1     -14.612  57.893  50.518  0.00  0.00    +0.000 A 
ATOM     17  C   UNL     1     -12.940  55.525  50.381  0.00  0.00    +0.000 C 
ATOM     18  C   UNL     1     -13.309  57.927  50.050  0.00  0.00    +0.000 A 
ATOM     19  C   UNL     1     -15.431  59.026  50.507  0.00  0.00    +0.000 A 
ATOM     20  N   UNL     1     -12.496  56.798  50.086  0.00  0.00    +0.000 N 
ATOM     21  C   UNL     1     -12.791  59.154  49.620  0.00  0.00    +0.000 A 
ATOM     22  C   UNL     1     -14.914  60.235  50.044  0.00  0.00    +0.000 A 
ATOM     23  C   UNL     1     -13.591  60.301  49.610  0.00  0.00    +0.000 A 
ATOM     24  H   UNL     1     -14.312  54.282  51.083  0.00  0.00    +0.000 HD
ATOM     25  H   UNL     1     -11.539  56.916  49.887  0.00  0.00    +0.000 HD
ENDBRANCH   1  17
BRANCH   3  26
ATOM     26  O   UNL     1     -12.931  53.009  51.858  0.00  0.00    +0.000 OA
ATOM     27  H   UNL     1     -13.563  52.323  51.768  0.00  0.00    +0.000 HD
ENDBRANCH   3  26
BRANCH   5  28
ATOM     28  C   UNL     1      -9.110  53.668  47.660  0.00  0.00    +0.000 C 
BRANCH  28  29
ATOM     29  C   UNL     1      -9.489  52.898  46.381  0.00  0.00    +0.000 C 
BRANCH  29  30
ATOM     30  C   UNL     1     -10.193  53.743  45.360  0.00  0.00    +0.000 C 
ATOM     31  C   UNL     1     -11.683  53.962  45.352  0.00  0.00    +0.000 C 
ATOM     32  C   UNL     1     -11.058  53.050  44.336  0.00  0.00    +0.000 C 
ENDBRANCH  29  30
ENDBRANCH  28  29
ENDBRANCH   5  28
TORSDOF 5
ENDMDL
