MODEL 1
REMARK VINA RESULT:      -8.6      0.000      0.000
REMARK  Name = 338624
REMARK  4 active torsions:
REMARK  status: ('A' for Active; 'I' for Inactive)
REMARK    1  A    between atoms: C_6  and  C_10
REMARK    2  A    between atoms: C_14  and  O_18
REMARK    3  A    between atoms: N_17  and  C_21
REMARK    4  A    between atoms: C_21  and  C_24
REMARK                            x       y       z     vdW  Elec       q    Type
REMARK                         _______ _______ _______ _____ _____    ______ ____
ROOT
ATOM      1  C   UNL     1     -10.063  54.305  52.309  0.00  0.00    +0.000 A 
ATOM      2  C   UNL     1      -8.645  54.792  52.268  0.00  0.00    +0.000 A 
ATOM      3  C   UNL     1     -10.381  53.214  53.005  0.00  0.00    +0.000 A 
ATOM      4  O   UNL     1      -8.427  55.874  51.721  0.00  0.00    +0.000 OA
ATOM      5  N   UNL     1      -7.640  54.021  52.861  0.00  0.00    +0.000 N 
ATOM      6  C   UNL     1      -9.353  52.489  53.764  0.00  0.00    +0.000 A 
ATOM      7  C   UNL     1      -8.003  52.894  53.686  0.00  0.00    +0.000 A 
ATOM      8  C   UNL     1      -9.724  51.443  54.635  0.00  0.00    +0.000 A 
ATOM      9  C   UNL     1      -7.067  52.219  54.486  0.00  0.00    +0.000 A 
ATOM     10  C   UNL     1      -8.781  50.812  55.441  0.00  0.00    +0.000 A 
ATOM     11  C   UNL     1      -7.452  51.199  55.363  0.00  0.00    +0.000 A 
ENDROOT
BRANCH   1  17
ATOM     12  S   UNL     1     -12.190  55.799  49.379  0.00  0.00    +0.000 S 
ATOM     13  O   UNL     1     -12.849  54.757  48.620  0.00  0.00    +0.000 OA
ATOM     14  O   UNL     1     -11.595  56.923  48.691  0.00  0.00    +0.000 OA
ATOM     15  N   UNL     1     -11.049  55.111  50.290  0.00  0.00    +0.000 N 
ATOM     16  C   UNL     1     -13.423  56.470  50.435  0.00  0.00    +0.000 A 
ATOM     17  C   UNL     1     -11.128  55.114  51.586  0.00  0.00    +0.000 C 
ATOM     18  C   UNL     1     -13.242  56.339  51.802  0.00  0.00    +0.000 A 
ATOM     19  C   UNL     1     -14.555  57.088  49.888  0.00  0.00    +0.000 A 
ATOM     20  N   UNL     1     -12.094  55.749  52.333  0.00  0.00    +0.000 N 
ATOM     21  C   UNL     1     -14.221  56.879  52.645  0.00  0.00    +0.000 A 
ATOM     22  C   UNL     1     -15.527  57.605  50.739  0.00  0.00    +0.000 A 
ATOM     23  C   UNL     1     -15.362  57.501  52.119  0.00  0.00    +0.000 A 
ATOM     24  H   UNL     1     -10.279  54.680  49.855  0.00  0.00    +0.000 HD
ATOM     25  H   UNL     1     -11.965  55.792  53.307  0.00  0.00    +0.000 HD
ENDBRANCH   1  17
BRANCH   3  26
ATOM     26  O   UNL     1     -11.669  52.698  53.118  0.00  0.00    +0.000 OA
ATOM     27  H   UNL     1     -11.801  51.836  53.462  0.00  0.00    +0.000 HD
ENDBRANCH   3  26
BRANCH   5  28
ATOM     28  C   UNL     1      -6.318  54.665  52.995  0.00  0.00    +0.000 C 
BRANCH  28  29
ATOM     29  C   UNL     1      -5.086  54.270  52.123  0.00  0.00    +0.000 C 
ATOM     30  C   UNL     1      -5.308  53.442  50.851  0.00  0.00    +0.000 C 
ATOM     31  C   UNL     1      -3.847  53.778  52.874  0.00  0.00    +0.000 C 
ATOM     32  C   UNL     1      -5.208  51.928  51.012  0.00  0.00    +0.000 C 
ATOM     33  C   UNL     1      -3.853  52.285  53.163  0.00  0.00    +0.000 C 
ATOM     34  C   UNL     1      -4.077  51.441  51.915  0.00  0.00    +0.000 C 
ENDBRANCH  28  29
ENDBRANCH   5  28
TORSDOF 4
ENDMDL
MODEL 2
REMARK VINA RESULT:      -8.5      3.337      4.789
REMARK  Name = 338624
REMARK  4 active torsions:
REMARK  status: ('A' for Active; 'I' for Inactive)
REMARK    1  A    between atoms: C_6  and  C_10
REMARK    2  A    between atoms: C_14  and  O_18
REMARK    3  A    between atoms: N_17  and  C_21
REMARK    4  A    between atoms: C_21  and  C_24
REMARK                            x       y       z     vdW  Elec       q    Type
REMARK                         _______ _______ _______ _____ _____    ______ ____
ROOT
ATOM      1  C   UNL     1     -12.051  54.409  50.727  0.00  0.00    +0.000 A 
ATOM      2  C   UNL     1     -11.862  53.546  49.515  0.00  0.00    +0.000 A 
ATOM      3  C   UNL     1     -11.317  54.206  51.821  0.00  0.00    +0.000 A 
ATOM      4  O   UNL     1     -12.469  53.858  48.490  0.00  0.00    +0.000 OA
ATOM      5  N   UNL     1     -10.998  52.448  49.586  0.00  0.00    +0.000 N 
ATOM      6  C   UNL     1     -10.293  53.153  51.845  0.00  0.00    +0.000 A 
ATOM      7  C   UNL     1     -10.144  52.290  50.738  0.00  0.00    +0.000 A 
ATOM      8  C   UNL     1      -9.404  53.056  52.936  0.00  0.00    +0.000 A 
ATOM      9  C   UNL     1      -9.104  51.347  50.775  0.00  0.00    +0.000 A 
ATOM     10  C   UNL     1      -8.362  52.134  52.934  0.00  0.00    +0.000 A 
ATOM     11  C   UNL     1      -8.215  51.278  51.853  0.00  0.00    +0.000 A 
ENDROOT
BRANCH   1  17
ATOM     12  S   UNL     1     -15.308  56.485  51.376  0.00  0.00    +0.000 S 
ATOM     13  O   UNL     1     -15.469  56.789  52.782  0.00  0.00    +0.000 OA
ATOM     14  O   UNL     1     -16.457  56.100  50.587  0.00  0.00    +0.000 OA
ATOM     15  N   UNL     1     -14.195  55.324  51.238  0.00  0.00    +0.000 N 
ATOM     16  C   UNL     1     -14.681  57.954  50.642  0.00  0.00    +0.000 A 
ATOM     17  C   UNL     1     -13.057  55.547  50.656  0.00  0.00    +0.000 C 
ATOM     18  C   UNL     1     -13.420  57.902  50.073  0.00  0.00    +0.000 A 
ATOM     19  C   UNL     1     -15.441  59.130  50.669  0.00  0.00    +0.000 A 
ATOM     20  N   UNL     1     -12.689  56.714  50.025  0.00  0.00    +0.000 N 
ATOM     21  C   UNL     1     -12.922  59.069  49.483  0.00  0.00    +0.000 A 
ATOM     22  C   UNL     1     -14.925  60.287  50.092  0.00  0.00    +0.000 A 
ATOM     23  C   UNL     1     -13.664  60.258  49.498  0.00  0.00    +0.000 A 
ATOM     24  H   UNL     1     -14.384  54.429  51.602  0.00  0.00    +0.000 HD
ATOM     25  H   UNL     1     -11.854  56.709  49.504  0.00  0.00    +0.000 HD
ENDBRANCH   1  17
BRANCH   3  26
ATOM     26  O   UNL     1     -11.408  54.965  52.984  0.00  0.00    +0.000 OA
ATOM     27  H   UNL     1     -11.819  55.808  52.963  0.00  0.00    +0.000 HD
ENDBRANCH   3  26
BRANCH   5  28
ATOM     28  C   UNL     1     -10.674  51.790  48.305  0.00  0.00    +0.000 C 
BRANCH  28  29
ATOM     29  C   UNL     1      -9.576  52.318  47.330  0.00  0.00    +0.000 C 
ATOM     30  C   UNL     1      -8.496  53.264  47.867  0.00  0.00    +0.000 C 
ATOM     31  C   UNL     1     -10.051  52.774  45.949  0.00  0.00    +0.000 C 
ATOM     32  C   UNL     1      -8.792  54.756  47.745  0.00  0.00    +0.000 C 
ATOM     33  C   UNL     1     -10.494  54.227  45.897  0.00  0.00    +0.000 C 
ATOM     34  C   UNL     1      -9.439  55.188  46.431  0.00  0.00    +0.000 C 
ENDBRANCH  28  29
ENDBRANCH   5  28
TORSDOF 4
ENDMDL
MODEL 3
REMARK VINA RESULT:      -8.3      3.259      7.364
REMARK  Name = 338624
REMARK  4 active torsions:
REMARK  status: ('A' for Active; 'I' for Inactive)
REMARK    1  A    between atoms: C_6  and  C_10
REMARK    2  A    between atoms: C_14  and  O_18
REMARK    3  A    between atoms: N_17  and  C_21
REMARK    4  A    between atoms: C_21  and  C_24
REMARK                            x       y       z     vdW  Elec       q    Type
REMARK                         _______ _______ _______ _____ _____    ______ ____
ROOT
ATOM      1  C   UNL     1     -10.202  55.142  50.752  0.00  0.00    +0.000 A 
ATOM      2  C   UNL     1      -9.953  55.187  49.274  0.00  0.00    +0.000 A 
ATOM      3  C   UNL     1     -11.360  55.571  51.254  0.00  0.00    +0.000 A 
ATOM      4  O   UNL     1      -8.923  54.660  48.850  0.00  0.00    +0.000 OA
ATOM      5  N   UNL     1     -10.895  55.799  48.441  0.00  0.00    +0.000 N 
ATOM      6  C   UNL     1     -12.418  56.067  50.365  0.00  0.00    +0.000 A 
ATOM      7  C   UNL     1     -12.179  56.177  48.978  0.00  0.00    +0.000 A 
ATOM      8  C   UNL     1     -13.698  56.355  50.883  0.00  0.00    +0.000 A 
ATOM      9  C   UNL     1     -13.244  56.586  48.159  0.00  0.00    +0.000 A 
ATOM     10  C   UNL     1     -14.745  56.727  50.045  0.00  0.00    +0.000 A 
ATOM     11  C   UNL     1     -14.515  56.844  48.682  0.00  0.00    +0.000 A 
ENDROOT
BRANCH   1  17
ATOM     12  S   UNL     1      -6.883  54.837  52.810  0.00  0.00    +0.000 S 
ATOM     13  O   UNL     1      -6.808  55.849  53.843  0.00  0.00    +0.000 OA
ATOM     14  O   UNL     1      -5.705  54.504  52.041  0.00  0.00    +0.000 OA
ATOM     15  N   UNL     1      -8.050  55.260  51.778  0.00  0.00    +0.000 N 
ATOM     16  C   UNL     1      -7.366  53.359  53.628  0.00  0.00    +0.000 A 
ATOM     17  C   UNL     1      -9.127  54.549  51.650  0.00  0.00    +0.000 C 
ATOM     18  C   UNL     1      -8.584  52.798  53.280  0.00  0.00    +0.000 A 
ATOM     19  C   UNL     1      -6.542  52.802  54.614  0.00  0.00    +0.000 A 
ATOM     20  N   UNL     1      -9.378  53.347  52.272  0.00  0.00    +0.000 N 
ATOM     21  C   UNL     1      -8.967  51.617  53.926  0.00  0.00    +0.000 A 
ATOM     22  C   UNL     1      -6.945  51.636  55.259  0.00  0.00    +0.000 A 
ATOM     23  C   UNL     1      -8.158  51.042  54.916  0.00  0.00    +0.000 A 
ATOM     24  H   UNL     1      -7.941  56.074  51.235  0.00  0.00    +0.000 HD
ATOM     25  H   UNL     1     -10.172  52.839  51.986  0.00  0.00    +0.000 HD
ENDBRANCH   1  17
BRANCH   3  26
ATOM     26  O   UNL     1     -11.688  55.550  52.607  0.00  0.00    +0.000 OA
ATOM     27  H   UNL     1     -12.190  56.250  52.979  0.00  0.00    +0.000 HD
ENDBRANCH   3  26
BRANCH   5  28
ATOM     28  C   UNL     1     -10.709  55.600  46.989  0.00  0.00    +0.000 C 
BRANCH  28  29
ATOM     29  C   UNL     1     -11.173  54.311  46.241  0.00  0.00    +0.000 C 
ATOM     30  C   UNL     1     -11.895  53.211  47.028  0.00  0.00    +0.000 C 
ATOM     31  C   UNL     1     -10.178  53.699  45.254  0.00  0.00    +0.000 C 
ATOM     32  C   UNL     1     -11.010  52.108  47.601  0.00  0.00    +0.000 C 
ATOM     33  C   UNL     1      -9.200  52.722  45.887  0.00  0.00    +0.000 C 
ATOM     34  C   UNL     1      -9.893  51.622  46.680  0.00  0.00    +0.000 C 
ENDBRANCH  28  29
ENDBRANCH   5  28
TORSDOF 4
ENDMDL
MODEL 4
REMARK VINA RESULT:      -8.3      3.403      7.390
REMARK  Name = 338624
REMARK  4 active torsions:
REMARK  status: ('A' for Active; 'I' for Inactive)
REMARK    1  A    between atoms: C_6  and  C_10
REMARK    2  A    between atoms: C_14  and  O_18
REMARK    3  A    between atoms: N_17  and  C_21
REMARK    4  A    between atoms: C_21  and  C_24
REMARK                            x       y       z     vdW  Elec       q    Type
REMARK                         _______ _______ _______ _____ _____    ______ ____
ROOT
ATOM      1  C   UNL     1     -10.545  55.066  50.658  0.00  0.00    +0.000 A 
ATOM      2  C   UNL     1     -10.019  55.034  49.255  0.00  0.00    +0.000 A 
ATOM      3  C   UNL     1     -11.731  55.615  50.921  0.00  0.00    +0.000 A 
ATOM      4  O   UNL     1      -8.983  54.401  49.046  0.00  0.00    +0.000 OA
ATOM      5  N   UNL     1     -10.724  55.696  48.244  0.00  0.00    +0.000 N 
ATOM      6  C   UNL     1     -12.551  56.171  49.836  0.00  0.00    +0.000 A 
ATOM      7  C   UNL     1     -12.045  56.207  48.519  0.00  0.00    +0.000 A 
ATOM      8  C   UNL     1     -13.873  56.591  50.093  0.00  0.00    +0.000 A 
ATOM      9  C   UNL     1     -12.892  56.678  47.503  0.00  0.00    +0.000 A 
ATOM     10  C   UNL     1     -14.702  57.023  49.063  0.00  0.00    +0.000 A 
ATOM     11  C   UNL     1     -14.209  57.068  47.768  0.00  0.00    +0.000 A 
ENDROOT
BRANCH   1  17
ATOM     12  S   UNL     1      -9.148  52.308  53.062  0.00  0.00    +0.000 S 
ATOM     13  O   UNL     1      -8.522  51.232  52.324  0.00  0.00    +0.000 OA
ATOM     14  O   UNL     1      -9.975  52.008  54.209  0.00  0.00    +0.000 OA
ATOM     15  N   UNL     1     -10.026  53.182  52.028  0.00  0.00    +0.000 N 
ATOM     16  C   UNL     1      -7.829  53.304  53.659  0.00  0.00    +0.000 A 
ATOM     17  C   UNL     1      -9.721  54.413  51.757  0.00  0.00    +0.000 C 
ATOM     18  C   UNL     1      -7.750  54.610  53.204  0.00  0.00    +0.000 A 
ATOM     19  C   UNL     1      -6.887  52.764  54.545  0.00  0.00    +0.000 A 
ATOM     20  N   UNL     1      -8.714  55.143  52.348  0.00  0.00    +0.000 N 
ATOM     21  C   UNL     1      -6.703  55.406  53.684  0.00  0.00    +0.000 A 
ATOM     22  C   UNL     1      -5.844  53.564  55.000  0.00  0.00    +0.000 A 
ATOM     23  C   UNL     1      -5.750  54.886  54.570  0.00  0.00    +0.000 A 
ATOM     24  H   UNL     1     -10.809  52.772  51.595  0.00  0.00    +0.000 HD
ATOM     25  H   UNL     1      -8.673  56.107  52.154  0.00  0.00    +0.000 HD
ENDBRANCH   1  17
BRANCH   3  26
ATOM     26  O   UNL     1     -12.309  55.675  52.186  0.00  0.00    +0.000 OA
ATOM     27  H   UNL     1     -13.230  55.829  52.274  0.00  0.00    +0.000 HD
ENDBRANCH   3  26
BRANCH   5  28
ATOM     28  C   UNL     1     -10.287  55.426  46.860  0.00  0.00    +0.000 C 
BRANCH  28  29
ATOM     29  C   UNL     1     -10.775  54.192  46.039  0.00  0.00    +0.000 C 
ATOM     30  C   UNL     1     -11.748  53.201  46.689  0.00  0.00    +0.000 C 
ATOM     31  C   UNL     1      -9.712  53.447  45.229  0.00  0.00    +0.000 C 
ATOM     32  C   UNL     1     -11.114  52.008  47.397  0.00  0.00    +0.000 C 
ATOM     33  C   UNL     1      -8.982  52.369  46.013  0.00  0.00    +0.000 C 
ATOM     34  C   UNL     1      -9.927  51.374  46.674  0.00  0.00    +0.000 C 
ENDBRANCH  28  29
ENDBRANCH   5  28
TORSDOF 4
ENDMDL
MODEL 5
REMARK VINA RESULT:      -8.2      2.857      8.250
REMARK  Name = 338624
REMARK  4 active torsions:
REMARK  status: ('A' for Active; 'I' for Inactive)
REMARK    1  A    between atoms: C_6  and  C_10
REMARK    2  A    between atoms: C_14  and  O_18
REMARK    3  A    between atoms: N_17  and  C_21
REMARK    4  A    between atoms: C_21  and  C_24
REMARK                            x       y       z     vdW  Elec       q    Type
REMARK                         _______ _______ _______ _____ _____    ______ ____
ROOT
ATOM      1  C   UNL     1      -9.782  53.821  50.543  0.00  0.00    +0.000 A 
ATOM      2  C   UNL     1     -10.684  54.943  50.963  0.00  0.00    +0.000 A 
ATOM      3  C   UNL     1      -9.737  53.433  49.269  0.00  0.00    +0.000 A 
ATOM      4  O   UNL     1     -10.592  55.349  52.123  0.00  0.00    +0.000 OA
ATOM      5  N   UNL     1     -11.570  55.493  50.031  0.00  0.00    +0.000 N 
ATOM      6  C   UNL     1     -10.549  54.116  48.254  0.00  0.00    +0.000 A 
ATOM      7  C   UNL     1     -11.452  55.131  48.639  0.00  0.00    +0.000 A 
ATOM      8  C   UNL     1     -10.369  53.819  46.887  0.00  0.00    +0.000 A 
ATOM      9  C   UNL     1     -12.152  55.807  47.627  0.00  0.00    +0.000 A 
ATOM     10  C   UNL     1     -11.051  54.526  45.902  0.00  0.00    +0.000 A 
ATOM     11  C   UNL     1     -11.945  55.518  46.274  0.00  0.00    +0.000 A 
ENDROOT
BRANCH   1  17
ATOM     12  S   UNL     1      -6.580  53.008  52.646  0.00  0.00    +0.000 S 
ATOM     13  O   UNL     1      -6.086  54.183  53.333  0.00  0.00    +0.000 OA
ATOM     14  O   UNL     1      -5.649  52.091  52.029  0.00  0.00    +0.000 OA
ATOM     15  N   UNL     1      -7.629  53.489  51.519  0.00  0.00    +0.000 N 
ATOM     16  C   UNL     1      -7.447  52.079  53.861  0.00  0.00    +0.000 A 
ATOM     17  C   UNL     1      -8.887  53.180  51.593  0.00  0.00    +0.000 C 
ATOM     18  C   UNL     1      -8.807  51.890  53.677  0.00  0.00    +0.000 A 
ATOM     19  C   UNL     1      -6.768  51.580  54.980  0.00  0.00    +0.000 A 
ATOM     20  N   UNL     1      -9.463  52.365  52.540  0.00  0.00    +0.000 N 
ATOM     21  C   UNL     1      -9.498  51.145  54.640  0.00  0.00    +0.000 A 
ATOM     22  C   UNL     1      -7.472  50.855  55.936  0.00  0.00    +0.000 A 
ATOM     23  C   UNL     1      -8.839  50.637  55.768  0.00  0.00    +0.000 A 
ATOM     24  H   UNL     1      -7.308  54.027  50.760  0.00  0.00    +0.000 HD
ATOM     25  H   UNL     1     -10.401  52.098  52.407  0.00  0.00    +0.000 HD
ENDBRANCH   1  17
BRANCH   3  26
ATOM     26  O   UNL     1      -8.919  52.417  48.783  0.00  0.00    +0.000 OA
ATOM     27  H   UNL     1      -9.258  51.548  48.685  0.00  0.00    +0.000 HD
ENDBRANCH   3  26
BRANCH   5  28
ATOM     28  C   UNL     1     -12.251  56.739  50.435  0.00  0.00    +0.000 C 
BRANCH  28  29
ATOM     29  C   UNL     1     -13.783  56.818  50.722  0.00  0.00    +0.000 C 
ATOM     30  C   UNL     1     -14.600  57.960  50.106  0.00  0.00    +0.000 C 
ATOM     31  C   UNL     1     -14.221  56.563  52.166  0.00  0.00    +0.000 C 
ATOM     32  C   UNL     1     -14.755  59.211  50.965  0.00  0.00    +0.000 C 
ATOM     33  C   UNL     1     -14.210  57.805  53.043  0.00  0.00    +0.000 C 
ATOM     34  C   UNL     1     -15.010  58.957  52.449  0.00  0.00    +0.000 C 
ENDBRANCH  28  29
ENDBRANCH   5  28
TORSDOF 4
ENDMDL
MODEL 6
REMARK VINA RESULT:      -8.1      3.385      5.129
REMARK  Name = 338624
REMARK  4 active torsions:
REMARK  status: ('A' for Active; 'I' for Inactive)
REMARK    1  A    between atoms: C_6  and  C_10
REMARK    2  A    between atoms: C_14  and  O_18
REMARK    3  A    between atoms: N_17  and  C_21
REMARK    4  A    between atoms: C_21  and  C_24
REMARK                            x       y       z     vdW  Elec       q    Type
REMARK                         _______ _______ _______ _____ _____    ______ ____
ROOT
ATOM      1  C   UNL     1     -10.708  55.864  48.519  0.00  0.00    +0.000 A 
ATOM      2  C   UNL     1      -9.352  55.904  49.158  0.00  0.00    +0.000 A 
ATOM      3  C   UNL     1     -10.870  55.315  47.315  0.00  0.00    +0.000 A 
ATOM      4  O   UNL     1      -9.278  56.301  50.322  0.00  0.00    +0.000 OA
ATOM      5  N   UNL     1      -8.239  55.476  48.426  0.00  0.00    +0.000 N 
ATOM      6  C   UNL     1      -9.729  54.718  46.609  0.00  0.00    +0.000 A 
ATOM      7  C   UNL     1      -8.434  54.803  47.165  0.00  0.00    +0.000 A 
ATOM      8  C   UNL     1      -9.937  53.989  45.420  0.00  0.00    +0.000 A 
ATOM      9  C   UNL     1      -7.387  54.154  46.492  0.00  0.00    +0.000 A 
ATOM     10  C   UNL     1      -8.887  53.327  44.791  0.00  0.00    +0.000 A 
ATOM     11  C   UNL     1      -7.611  53.413  45.327  0.00  0.00    +0.000 A 
ENDROOT
BRANCH   1  17
ATOM     12  S   UNL     1     -13.379  56.258  51.356  0.00  0.00    +0.000 S 
ATOM     13  O   UNL     1     -12.756  56.531  52.634  0.00  0.00    +0.000 OA
ATOM     14  O   UNL     1     -14.501  55.351  51.282  0.00  0.00    +0.000 OA
ATOM     15  N   UNL     1     -12.239  55.727  50.345  0.00  0.00    +0.000 N 
ATOM     16  C   UNL     1     -13.966  57.809  50.775  0.00  0.00    +0.000 A 
ATOM     17  C   UNL     1     -11.892  56.413  49.299  0.00  0.00    +0.000 C 
ATOM     18  C   UNL     1     -13.419  58.308  49.604  0.00  0.00    +0.000 A 
ATOM     19  C   UNL     1     -14.936  58.510  51.503  0.00  0.00    +0.000 A 
ATOM     20  N   UNL     1     -12.477  57.583  48.872  0.00  0.00    +0.000 N 
ATOM     21  C   UNL     1     -13.891  59.540  49.136  0.00  0.00    +0.000 A 
ATOM     22  C   UNL     1     -15.383  59.741  51.033  0.00  0.00    +0.000 A 
ATOM     23  C   UNL     1     -14.860  60.259  49.849  0.00  0.00    +0.000 A 
ATOM     24  H   UNL     1     -11.798  54.866  50.525  0.00  0.00    +0.000 HD
ATOM     25  H   UNL     1     -12.215  57.931  47.990  0.00  0.00    +0.000 HD
ENDBRANCH   1  17
BRANCH   3  26
ATOM     26  O   UNL     1     -12.090  55.216  46.652  0.00  0.00    +0.000 OA
ATOM     27  H   UNL     1     -12.547  55.992  46.391  0.00  0.00    +0.000 HD
ENDBRANCH   3  26
BRANCH   5  28
ATOM     28  C   UNL     1      -6.982  55.315  49.185  0.00  0.00    +0.000 C 
BRANCH  28  29
ATOM     29  C   UNL     1      -6.777  54.211  50.268  0.00  0.00    +0.000 C 
ATOM     30  C   UNL     1      -5.590  54.322  51.232  0.00  0.00    +0.000 C 
ATOM     31  C   UNL     1      -6.962  52.763  49.810  0.00  0.00    +0.000 C 
ATOM     32  C   UNL     1      -4.310  53.612  50.802  0.00  0.00    +0.000 C 
ATOM     33  C   UNL     1      -5.705  52.132  49.235  0.00  0.00    +0.000 C 
ATOM     34  C   UNL     1      -4.508  52.235  50.172  0.00  0.00    +0.000 C 
ENDBRANCH  28  29
ENDBRANCH   5  28
TORSDOF 4
ENDMDL
MODEL 7
REMARK VINA RESULT:      -8.0      3.952      5.701
REMARK  Name = 338624
REMARK  4 active torsions:
REMARK  status: ('A' for Active; 'I' for Inactive)
REMARK    1  A    between atoms: C_6  and  C_10
REMARK    2  A    between atoms: C_14  and  O_18
REMARK    3  A    between atoms: N_17  and  C_21
REMARK    4  A    between atoms: C_21  and  C_24
REMARK                            x       y       z     vdW  Elec       q    Type
REMARK                         _______ _______ _______ _____ _____    ______ ____
ROOT
ATOM      1  C   UNL     1     -10.886  55.473  47.989  0.00  0.00    +0.000 A 
ATOM      2  C   UNL     1      -9.441  55.481  48.390  0.00  0.00    +0.000 A 
ATOM      3  C   UNL     1     -11.261  54.929  46.831  0.00  0.00    +0.000 A 
ATOM      4  O   UNL     1      -9.164  55.876  49.524  0.00  0.00    +0.000 OA
ATOM      5  N   UNL     1      -8.477  55.029  47.483  0.00  0.00    +0.000 N 
ATOM      6  C   UNL     1     -10.269  54.307  45.945  0.00  0.00    +0.000 A 
ATOM      7  C   UNL     1      -8.897  54.362  46.275  0.00  0.00    +0.000 A 
ATOM      8  C   UNL     1     -10.690  53.583  44.810  0.00  0.00    +0.000 A 
ATOM      9  C   UNL     1      -7.993  53.690  45.437  0.00  0.00    +0.000 A 
ATOM     10  C   UNL     1      -9.777  52.899  44.015  0.00  0.00    +0.000 A 
ATOM     11  C   UNL     1      -8.427  52.955  44.328  0.00  0.00    +0.000 A 
ENDROOT
BRANCH   1  17
ATOM     12  S   UNL     1     -13.052  55.908  51.223  0.00  0.00    +0.000 S 
ATOM     13  O   UNL     1     -12.222  56.138  52.388  0.00  0.00    +0.000 OA
ATOM     14  O   UNL     1     -14.203  55.040  51.320  0.00  0.00    +0.000 OA
ATOM     15  N   UNL     1     -12.108  55.357  50.036  0.00  0.00    +0.000 N 
ATOM     16  C   UNL     1     -13.669  57.488  50.762  0.00  0.00    +0.000 A 
ATOM     17  C   UNL     1     -11.909  56.048  48.956  0.00  0.00    +0.000 C 
ATOM     18  C   UNL     1     -13.299  57.988  49.524  0.00  0.00    +0.000 A 
ATOM     19  C   UNL     1     -14.484  58.208  51.645  0.00  0.00    +0.000 A 
ATOM     20  N   UNL     1     -12.513  57.244  48.642  0.00  0.00    +0.000 N 
ATOM     21  C   UNL     1     -13.795  59.243  49.152  0.00  0.00    +0.000 A 
ATOM     22  C   UNL     1     -14.955  59.462  51.267  0.00  0.00    +0.000 A 
ATOM     23  C   UNL     1     -14.611  59.981  50.020  0.00  0.00    +0.000 A 
ATOM     24  H   UNL     1     -11.675  54.478  50.133  0.00  0.00    +0.000 HD
ATOM     25  H   UNL     1     -12.383  57.598  47.733  0.00  0.00    +0.000 HD
ENDBRANCH   1  17
BRANCH   3  26
ATOM     26  O   UNL     1     -12.578  54.858  46.384  0.00  0.00    +0.000 OA
ATOM     27  H   UNL     1     -12.980  55.607  45.987  0.00  0.00    +0.000 HD
ENDBRANCH   3  26
BRANCH   5  28
ATOM     28  C   UNL     1      -7.115  54.839  48.020  0.00  0.00    +0.000 C 
BRANCH  28  29
ATOM     29  C   UNL     1      -6.682  53.566  48.812  0.00  0.00    +0.000 C 
ATOM     30  C   UNL     1      -5.585  52.665  48.233  0.00  0.00    +0.000 C 
ATOM     31  C   UNL     1      -7.806  52.722  49.415  0.00  0.00    +0.000 C 
ATOM     32  C   UNL     1      -6.060  51.506  47.363  0.00  0.00    +0.000 C 
ATOM     33  C   UNL     1      -8.373  51.678  48.465  0.00  0.00    +0.000 C 
ATOM     34  C   UNL     1      -7.301  50.773  47.872  0.00  0.00    +0.000 C 
ENDBRANCH  28  29
ENDBRANCH   5  28
TORSDOF 4
ENDMDL
MODEL 8
REMARK VINA RESULT:      -8.0      4.554      7.782
REMARK  Name = 338624
REMARK  4 active torsions:
REMARK  status: ('A' for Active; 'I' for Inactive)
REMARK    1  A    between atoms: C_6  and  C_10
REMARK    2  A    between atoms: C_14  and  O_18
REMARK    3  A    between atoms: N_17  and  C_21
REMARK    4  A    between atoms: C_21  and  C_24
REMARK                            x       y       z     vdW  Elec       q    Type
REMARK                         _______ _______ _______ _____ _____    ______ ____
ROOT
ATOM      1  C   UNL     1     -10.076  53.304  48.835  0.00  0.00    +0.000 A 
ATOM      2  C   UNL     1     -11.359  53.900  49.330  0.00  0.00    +0.000 A 
ATOM      3  C   UNL     1      -8.986  53.316  49.603  0.00  0.00    +0.000 A 
ATOM      4  O   UNL     1     -12.366  53.746  48.638  0.00  0.00    +0.000 OA
ATOM      5  N   UNL     1     -11.370  54.582  50.552  0.00  0.00    +0.000 N 
ATOM      6  C   UNL     1      -9.034  53.889  50.954  0.00  0.00    +0.000 A 
ATOM      7  C   UNL     1     -10.215  54.513  51.413  0.00  0.00    +0.000 A 
ATOM      8  C   UNL     1      -7.933  53.745  51.824  0.00  0.00    +0.000 A 
ATOM      9  C   UNL     1     -10.239  54.980  52.738  0.00  0.00    +0.000 A 
ATOM     10  C   UNL     1      -7.995  54.187  53.141  0.00  0.00    +0.000 A 
ATOM     11  C   UNL     1      -9.148  54.807  53.596  0.00  0.00    +0.000 A 
ENDROOT
BRANCH   1  17
ATOM     12  S   UNL     1     -11.050  50.888  45.910  0.00  0.00    +0.000 S 
ATOM     13  O   UNL     1     -12.430  51.069  45.513  0.00  0.00    +0.000 OA
ATOM     14  O   UNL     1     -10.493  49.557  45.994  0.00  0.00    +0.000 OA
ATOM     15  N   UNL     1     -10.840  51.609  47.339  0.00  0.00    +0.000 N 
ATOM     16  C   UNL     1     -10.095  51.742  44.706  0.00  0.00    +0.000 A 
ATOM     17  C   UNL     1     -10.065  52.641  47.466  0.00  0.00    +0.000 C 
ATOM     18  C   UNL     1      -9.337  52.820  45.131  0.00  0.00    +0.000 A 
ATOM     19  C   UNL     1     -10.137  51.340  43.365  0.00  0.00    +0.000 A 
ATOM     20  N   UNL     1      -9.280  53.188  46.476  0.00  0.00    +0.000 N 
ATOM     21  C   UNL     1      -8.571  53.497  44.174  0.00  0.00    +0.000 A 
ATOM     22  C   UNL     1      -9.382  52.033  42.423  0.00  0.00    +0.000 A 
ATOM     23  C   UNL     1      -8.598  53.113  42.826  0.00  0.00    +0.000 A 
ATOM     24  H   UNL     1     -11.309  51.257  48.130  0.00  0.00    +0.000 HD
ATOM     25  H   UNL     1      -8.634  53.884  46.735  0.00  0.00    +0.000 HD
ENDBRANCH   1  17
BRANCH   3  26
ATOM     26  O   UNL     1      -7.758  52.772  49.238  0.00  0.00    +0.000 OA
ATOM     27  H   UNL     1      -7.079  53.326  48.904  0.00  0.00    +0.000 HD
ENDBRANCH   3  26
BRANCH   5  28
ATOM     28  C   UNL     1     -12.699  54.932  51.091  0.00  0.00    +0.000 C 
BRANCH  28  29
ATOM     29  C   UNL     1     -13.328  56.353  50.949  0.00  0.00    +0.000 C 
ATOM     30  C   UNL     1     -13.735  57.118  52.214  0.00  0.00    +0.000 C 
ATOM     31  C   UNL     1     -14.382  56.528  49.854  0.00  0.00    +0.000 C 
ATOM     32  C   UNL     1     -15.179  56.934  52.671  0.00  0.00    +0.000 C 
ATOM     33  C   UNL     1     -15.794  56.180  50.295  0.00  0.00    +0.000 C 
ATOM     34  C   UNL     1     -16.221  56.924  51.555  0.00  0.00    +0.000 C 
ENDBRANCH  28  29
ENDBRANCH   5  28
TORSDOF 4
ENDMDL
MODEL 9
REMARK VINA RESULT:      -7.9      4.589      7.375
REMARK  Name = 338624
REMARK  4 active torsions:
REMARK  status: ('A' for Active; 'I' for Inactive)
REMARK    1  A    between atoms: C_6  and  C_10
REMARK    2  A    between atoms: C_14  and  O_18
REMARK    3  A    between atoms: N_17  and  C_21
REMARK    4  A    between atoms: C_21  and  C_24
REMARK                            x       y       z     vdW  Elec       q    Type
REMARK                         _______ _______ _______ _____ _____    ______ ____
ROOT
ATOM      1  C   UNL     1     -11.420  54.453  47.897  0.00  0.00    +0.000 A 
ATOM      2  C   UNL     1     -11.339  53.682  49.180  0.00  0.00    +0.000 A 
ATOM      3  C   UNL     1     -12.233  55.504  47.792  0.00  0.00    +0.000 A 
ATOM      4  O   UNL     1     -10.478  52.804  49.267  0.00  0.00    +0.000 OA
ATOM      5  N   UNL     1     -12.217  53.995  50.223  0.00  0.00    +0.000 N 
ATOM      6  C   UNL     1     -13.041  55.937  48.940  0.00  0.00    +0.000 A 
ATOM      7  C   UNL     1     -13.027  55.185  50.135  0.00  0.00    +0.000 A 
ATOM      8  C   UNL     1     -13.765  57.146  48.879  0.00  0.00    +0.000 A 
ATOM      9  C   UNL     1     -13.757  55.678  51.229  0.00  0.00    +0.000 A 
ATOM     10  C   UNL     1     -14.453  57.628  49.988  0.00  0.00    +0.000 A 
ATOM     11  C   UNL     1     -14.450  56.891  51.163  0.00  0.00    +0.000 A 
ENDROOT
BRANCH   1  17
ATOM     12  S   UNL     1      -8.162  53.911  45.791  0.00  0.00    +0.000 S 
ATOM     13  O   UNL     1      -7.225  53.050  46.480  0.00  0.00    +0.000 OA
ATOM     14  O   UNL     1      -7.682  55.075  45.080  0.00  0.00    +0.000 OA
ATOM     15  N   UNL     1      -9.273  54.399  46.856  0.00  0.00    +0.000 N 
ATOM     16  C   UNL     1      -8.945  52.894  44.590  0.00  0.00    +0.000 A 
ATOM     17  C   UNL     1     -10.515  54.042  46.746  0.00  0.00    +0.000 C 
ATOM     18  C   UNL     1     -10.310  52.689  44.710  0.00  0.00    +0.000 A 
ATOM     19  C   UNL     1      -8.188  52.302  43.571  0.00  0.00    +0.000 A 
ATOM     20  N   UNL     1     -11.056  53.312  45.712  0.00  0.00    +0.000 N 
ATOM     21  C   UNL     1     -10.936  51.884  43.751  0.00  0.00    +0.000 A 
ATOM     22  C   UNL     1      -8.823  51.492  42.634  0.00  0.00    +0.000 A 
ATOM     23  C   UNL     1     -10.198  51.281  42.723  0.00  0.00    +0.000 A 
ATOM     24  H   UNL     1      -9.001  54.979  47.603  0.00  0.00    +0.000 HD
ATOM     25  H   UNL     1     -12.035  53.225  45.675  0.00  0.00    +0.000 HD
ENDBRANCH   1  17
BRANCH   3  26
ATOM     26  O   UNL     1     -12.361  56.292  46.652  0.00  0.00    +0.000 OA
ATOM     27  H   UNL     1     -12.285  57.224  46.714  0.00  0.00    +0.000 HD
ENDBRANCH   3  26
BRANCH   5  28
ATOM     28  C   UNL     1     -11.928  53.368  51.529  0.00  0.00    +0.000 C 
BRANCH  28  29
ATOM     29  C   UNL     1     -10.878  53.937  52.532  0.00  0.00    +0.000 C 
ATOM     30  C   UNL     1     -10.207  55.282  52.228  0.00  0.00    +0.000 C 
ATOM     31  C   UNL     1      -9.857  52.942  53.088  0.00  0.00    +0.000 C 
ATOM     32  C   UNL     1      -8.888  55.214  51.464  0.00  0.00    +0.000 C 
ATOM     33  C   UNL     1      -8.621  52.775  52.219  0.00  0.00    +0.000 C 
ATOM     34  C   UNL     1      -7.939  54.099  51.897  0.00  0.00    +0.000 C 
ENDBRANCH  28  29
ENDBRANCH   5  28
TORSDOF 4
ENDMDL
