MODEL 1
REMARK VINA RESULT:      -8.3      0.000      0.000
REMARK  Name = 338598
REMARK  10 active torsions:
REMARK  status: ('A' for Active; 'I' for Inactive)
REMARK    1  A    between atoms: C_6  and  C_10
REMARK    2  A    between atoms: C_14  and  O_18
REMARK    3  A    between atoms: N_17  and  C_21
REMARK    4  A    between atoms: C_21  and  C_24
REMARK    5  A    between atoms: C_24  and  C_27
REMARK    6  A    between atoms: C_25  and  N_28
REMARK    7  A    between atoms: C_27  and  C_29
REMARK    8  A    between atoms: C_27  and  C_30
REMARK    9  A    between atoms: N_28  and  C_31
REMARK   10  A    between atoms: C_31  and  C_32
REMARK                            x       y       z     vdW  Elec       q    Type
REMARK                         _______ _______ _______ _____ _____    ______ ____
ROOT
ATOM      1  C   UNL     1     -10.746  54.283  48.612  0.00  0.00    +0.000 A 
ATOM      2  C   UNL     1     -10.228  53.910  49.963  0.00  0.00    +0.000 A 
ATOM      3  C   UNL     1     -11.804  55.108  48.502  0.00  0.00    +0.000 A 
ATOM      4  O   UNL     1      -9.185  53.253  50.024  0.00  0.00    +0.000 OA
ATOM      5  N   UNL     1     -10.927  54.334  51.090  0.00  0.00    +0.000 N 
ATOM      6  C   UNL     1     -12.441  55.665  49.704  0.00  0.00    +0.000 A 
ATOM      7  C   UNL     1     -11.993  55.281  50.977  0.00  0.00    +0.000 A 
ATOM      8  C   UNL     1     -13.476  56.616  49.590  0.00  0.00    +0.000 A 
ATOM      9  C   UNL     1     -12.579  55.889  52.095  0.00  0.00    +0.000 A 
ATOM     10  C   UNL     1     -14.096  57.186  50.709  0.00  0.00    +0.000 A 
ATOM     11  C   UNL     1     -13.610  56.829  51.964  0.00  0.00    +0.000 A 
ENDROOT
BRANCH   1  17
ATOM     12  S   UNL     1      -7.925  53.793  45.915  0.00  0.00    +0.000 S 
ATOM     13  O   UNL     1      -6.896  52.862  46.336  0.00  0.00    +0.000 OA
ATOM     14  O   UNL     1      -7.568  55.014  45.217  0.00  0.00    +0.000 OA
ATOM     15  N   UNL     1      -8.789  54.204  47.226  0.00  0.00    +0.000 N 
ATOM     16  C   UNL     1      -8.965  52.898  44.818  0.00  0.00    +0.000 A 
ATOM     17  C   UNL     1     -10.011  53.790  47.378  0.00  0.00    +0.000 C 
ATOM     18  C   UNL     1     -10.242  52.581  45.251  0.00  0.00    +0.000 A 
ATOM     19  C   UNL     1      -8.505  52.539  43.549  0.00  0.00    +0.000 A 
ATOM     20  N   UNL     1     -10.685  52.946  46.523  0.00  0.00    +0.000 N 
ATOM     21  C   UNL     1     -11.057  51.816  44.412  0.00  0.00    +0.000 A 
ATOM     22  C   UNL     1      -9.341  51.810  42.706  0.00  0.00    +0.000 A 
ATOM     23  C   UNL     1     -10.612  51.439  43.141  0.00  0.00    +0.000 A 
ATOM     24  H   UNL     1      -8.380  54.776  47.915  0.00  0.00    +0.000 HD
ATOM     25  H   UNL     1     -11.543  52.574  46.832  0.00  0.00    +0.000 HD
ENDBRANCH   1  17
BRANCH   3  26
ATOM     26  O   UNL     1     -12.342  55.532  47.300  0.00  0.00    +0.000 OA
ATOM     27  H   UNL     1     -12.018  55.186  46.492  0.00  0.00    +0.000 HD
ENDBRANCH   3  26
BRANCH  10  28
ATOM     28  N   UNL     1     -15.067  58.189  50.512  0.00  0.00    +0.000 N 
ATOM     29  H   UNL     1     -15.939  57.997  50.097  0.00  0.00    +0.000 HD
BRANCH  28  30
ATOM     30  C   UNL     1     -14.693  59.543  50.967  0.00  0.00    +0.000 C 
BRANCH  30  31
ATOM     31  C   UNL     1     -13.958  60.264  49.841  0.00  0.00    +0.000 C 
ATOM     32  O   UNL     1     -12.744  60.381  49.764  0.00  0.00    +0.000 OA
ATOM     33  O   UNL     1     -14.811  60.789  48.923  0.00  0.00    +0.000 OA
ENDBRANCH  30  31
ENDBRANCH  28  30
ENDBRANCH  10  28
BRANCH   5  34
ATOM     34  C   UNL     1     -10.424  53.907  52.402  0.00  0.00    +0.000 C 
BRANCH  34  35
ATOM     35  C   UNL     1      -9.594  54.944  53.175  0.00  0.00    +0.000 C 
BRANCH  35  36
ATOM     36  C   UNL     1      -8.082  54.969  52.892  0.00  0.00    +0.000 C 
ATOM     37  C   UNL     1      -7.705  55.966  51.799  0.00  0.00    +0.000 C 
ATOM     38  C   UNL     1      -7.346  55.326  54.191  0.00  0.00    +0.000 C 
ENDBRANCH  35  36
ENDBRANCH  34  35
ENDBRANCH   5  34
TORSDOF 8
ENDMDL
MODEL 2
REMARK VINA RESULT:      -8.1      3.005      6.686
REMARK  Name = 338598
REMARK  10 active torsions:
REMARK  status: ('A' for Active; 'I' for Inactive)
REMARK    1  A    between atoms: C_6  and  C_10
REMARK    2  A    between atoms: C_14  and  O_18
REMARK    3  A    between atoms: N_17  and  C_21
REMARK    4  A    between atoms: C_21  and  C_24
REMARK    5  A    between atoms: C_24  and  C_27
REMARK    6  A    between atoms: C_25  and  N_28
REMARK    7  A    between atoms: C_27  and  C_29
REMARK    8  A    between atoms: C_27  and  C_30
REMARK    9  A    between atoms: N_28  and  C_31
REMARK   10  A    between atoms: C_31  and  C_32
REMARK                            x       y       z     vdW  Elec       q    Type
REMARK                         _______ _______ _______ _____ _____    ______ ____
ROOT
ATOM      1  C   UNL     1      -9.340  54.742  50.455  0.00  0.00    +0.000 A 
ATOM      2  C   UNL     1      -8.862  54.465  49.067  0.00  0.00    +0.000 A 
ATOM      3  C   UNL     1     -10.519  55.362  50.649  0.00  0.00    +0.000 A 
ATOM      4  O   UNL     1      -7.839  53.787  48.930  0.00  0.00    +0.000 OA
ATOM      5  N   UNL     1      -9.596  54.960  47.993  0.00  0.00    +0.000 N 
ATOM      6  C   UNL     1     -11.353  55.748  49.501  0.00  0.00    +0.000 A 
ATOM      7  C   UNL     1     -10.889  55.536  48.194  0.00  0.00    +0.000 A 
ATOM      8  C   UNL     1     -12.637  56.295  49.702  0.00  0.00    +0.000 A 
ATOM      9  C   UNL     1     -11.744  55.854  47.130  0.00  0.00    +0.000 A 
ATOM     10  C   UNL     1     -13.472  56.658  48.637  0.00  0.00    +0.000 A 
ATOM     11  C   UNL     1     -13.015  56.401  47.347  0.00  0.00    +0.000 A 
ENDROOT
BRANCH   1  17
ATOM     12  S   UNL     1      -6.331  54.205  52.932  0.00  0.00    +0.000 S 
ATOM     13  O   UNL     1      -6.182  55.288  53.883  0.00  0.00    +0.000 OA
ATOM     14  O   UNL     1      -5.164  53.610  52.308  0.00  0.00    +0.000 OA
ATOM     15  N   UNL     1      -7.319  54.715  51.750  0.00  0.00    +0.000 N 
ATOM     16  C   UNL     1      -7.127  52.904  53.803  0.00  0.00    +0.000 A 
ATOM     17  C   UNL     1      -8.522  54.239  51.632  0.00  0.00    +0.000 C 
ATOM     18  C   UNL     1      -8.437  52.607  53.467  0.00  0.00    +0.000 A 
ATOM     19  C   UNL     1      -6.437  52.194  54.789  0.00  0.00    +0.000 A 
ATOM     20  N   UNL     1      -9.112  53.327  52.480  0.00  0.00    +0.000 N 
ATOM     21  C   UNL     1      -9.101  51.615  54.195  0.00  0.00    +0.000 A 
ATOM     22  C   UNL     1      -7.098  51.181  55.481  0.00  0.00    +0.000 A 
ATOM     23  C   UNL     1      -8.432  50.899  55.192  0.00  0.00    +0.000 A 
ATOM     24  H   UNL     1      -7.001  55.396  51.113  0.00  0.00    +0.000 HD
ATOM     25  H   UNL     1     -10.079  53.171  52.382  0.00  0.00    +0.000 HD
ENDBRANCH   1  17
BRANCH   3  26
ATOM     26  O   UNL     1     -11.061  55.641  51.890  0.00  0.00    +0.000 OA
ATOM     27  H   UNL     1     -11.282  54.942  52.474  0.00  0.00    +0.000 HD
ENDBRANCH   3  26
BRANCH  10  28
ATOM     28  N   UNL     1     -14.772  57.124  48.920  0.00  0.00    +0.000 N 
ATOM     29  H   UNL     1     -15.491  57.107  48.248  0.00  0.00    +0.000 HD
BRANCH  28  30
ATOM     30  C   UNL     1     -14.986  57.637  50.288  0.00  0.00    +0.000 C 
BRANCH  30  31
ATOM     31  C   UNL     1     -15.982  56.736  51.011  0.00  0.00    +0.000 C 
ATOM     32  O   UNL     1     -16.795  56.010  50.457  0.00  0.00    +0.000 OA
ATOM     33  O   UNL     1     -15.882  56.838  52.362  0.00  0.00    +0.000 OA
ENDBRANCH  30  31
ENDBRANCH  28  30
ENDBRANCH  10  28
BRANCH   5  34
ATOM     34  C   UNL     1      -9.072  54.718  46.643  0.00  0.00    +0.000 C 
BRANCH  34  35
ATOM     35  C   UNL     1      -9.457  53.374  46.003  0.00  0.00    +0.000 C 
BRANCH  35  36
ATOM     36  C   UNL     1     -10.343  53.436  44.746  0.00  0.00    +0.000 C 
ATOM     37  C   UNL     1      -9.723  52.710  43.555  0.00  0.00    +0.000 C 
ATOM     38  C   UNL     1     -11.707  52.813  45.077  0.00  0.00    +0.000 C 
ENDBRANCH  35  36
ENDBRANCH  34  35
ENDBRANCH   5  34
TORSDOF 8
ENDMDL
MODEL 3
REMARK VINA RESULT:      -8.1      2.729      8.147
REMARK  Name = 338598
REMARK  10 active torsions:
REMARK  status: ('A' for Active; 'I' for Inactive)
REMARK    1  A    between atoms: C_6  and  C_10
REMARK    2  A    between atoms: C_14  and  O_18
REMARK    3  A    between atoms: N_17  and  C_21
REMARK    4  A    between atoms: C_21  and  C_24
REMARK    5  A    between atoms: C_24  and  C_27
REMARK    6  A    between atoms: C_25  and  N_28
REMARK    7  A    between atoms: C_27  and  C_29
REMARK    8  A    between atoms: C_27  and  C_30
REMARK    9  A    between atoms: N_28  and  C_31
REMARK   10  A    between atoms: C_31  and  C_32
REMARK                            x       y       z     vdW  Elec       q    Type
REMARK                         _______ _______ _______ _____ _____    ______ ____
ROOT
ATOM      1  C   UNL     1     -11.413  56.130  48.664  0.00  0.00    +0.000 A 
ATOM      2  C   UNL     1     -10.232  55.650  49.444  0.00  0.00    +0.000 A 
ATOM      3  C   UNL     1     -11.615  55.687  47.409  0.00  0.00    +0.000 A 
ATOM      4  O   UNL     1     -10.147  55.982  50.630  0.00  0.00    +0.000 OA
ATOM      5  N   UNL     1      -9.294  54.839  48.811  0.00  0.00    +0.000 N 
ATOM      6  C   UNL     1     -10.691  54.713  46.807  0.00  0.00    +0.000 A 
ATOM      7  C   UNL     1      -9.554  54.297  47.514  0.00  0.00    +0.000 A 
ATOM      8  C   UNL     1     -10.961  54.163  45.537  0.00  0.00    +0.000 A 
ATOM      9  C   UNL     1      -8.738  53.316  46.933  0.00  0.00    +0.000 A 
ATOM     10  C   UNL     1     -10.119  53.219  44.936  0.00  0.00    +0.000 A 
ATOM     11  C   UNL     1      -9.018  52.782  45.668  0.00  0.00    +0.000 A 
ENDROOT
BRANCH   1  17
ATOM     12  S   UNL     1     -13.610  59.297  49.449  0.00  0.00    +0.000 S 
ATOM     13  O   UNL     1     -14.779  59.399  48.597  0.00  0.00    +0.000 OA
ATOM     14  O   UNL     1     -12.833  60.479  49.774  0.00  0.00    +0.000 OA
ATOM     15  N   UNL     1     -12.606  58.209  48.785  0.00  0.00    +0.000 N 
ATOM     16  C   UNL     1     -14.186  58.664  50.983  0.00  0.00    +0.000 A 
ATOM     17  C   UNL     1     -12.419  57.048  49.337  0.00  0.00    +0.000 C 
ATOM     18  C   UNL     1     -13.830  57.369  51.323  0.00  0.00    +0.000 A 
ATOM     19  C   UNL     1     -14.963  59.462  51.826  0.00  0.00    +0.000 A 
ATOM     20  N   UNL     1     -13.054  56.584  50.468  0.00  0.00    +0.000 N 
ATOM     21  C   UNL     1     -14.333  56.832  52.511  0.00  0.00    +0.000 A 
ATOM     22  C   UNL     1     -15.426  58.928  53.027  0.00  0.00    +0.000 A 
ATOM     23  C   UNL     1     -15.120  57.611  53.365  0.00  0.00    +0.000 A 
ATOM     24  H   UNL     1     -12.132  58.433  47.951  0.00  0.00    +0.000 HD
ATOM     25  H   UNL     1     -12.952  55.630  50.691  0.00  0.00    +0.000 HD
ENDBRANCH   1  17
BRANCH   3  26
ATOM     26  O   UNL     1     -12.688  56.049  46.615  0.00  0.00    +0.000 OA
ATOM     27  H   UNL     1     -13.564  55.922  46.923  0.00  0.00    +0.000 HD
ENDBRANCH   3  26
BRANCH  10  28
ATOM     28  N   UNL     1     -10.499  52.656  43.700  0.00  0.00    +0.000 N 
ATOM     29  H   UNL     1     -11.361  52.198  43.578  0.00  0.00    +0.000 HD
BRANCH  28  30
ATOM     30  C   UNL     1      -9.521  52.799  42.603  0.00  0.00    +0.000 C 
BRANCH  30  31
ATOM     31  C   UNL     1      -8.923  51.432  42.284  0.00  0.00    +0.000 C 
ATOM     32  O   UNL     1      -7.729  51.209  42.150  0.00  0.00    +0.000 OA
ATOM     33  O   UNL     1      -9.874  50.473  42.145  0.00  0.00    +0.000 OA
ENDBRANCH  30  31
ENDBRANCH  28  30
ENDBRANCH  10  28
BRANCH   5  34
ATOM     34  C   UNL     1      -8.118  54.429  49.587  0.00  0.00    +0.000 C 
BRANCH  34  35
ATOM     35  C   UNL     1      -6.976  55.455  49.673  0.00  0.00    +0.000 C 
BRANCH  35  36
ATOM     36  C   UNL     1      -5.547  54.892  49.759  0.00  0.00    +0.000 C 
ATOM     37  C   UNL     1      -5.293  54.131  51.057  0.00  0.00    +0.000 C 
ATOM     38  C   UNL     1      -5.313  53.961  48.561  0.00  0.00    +0.000 C 
ENDBRANCH  35  36
ENDBRANCH  34  35
ENDBRANCH   5  34
TORSDOF 8
ENDMDL
MODEL 4
REMARK VINA RESULT:      -8.1      2.100      6.350
REMARK  Name = 338598
REMARK  10 active torsions:
REMARK  status: ('A' for Active; 'I' for Inactive)
REMARK    1  A    between atoms: C_6  and  C_10
REMARK    2  A    between atoms: C_14  and  O_18
REMARK    3  A    between atoms: N_17  and  C_21
REMARK    4  A    between atoms: C_21  and  C_24
REMARK    5  A    between atoms: C_24  and  C_27
REMARK    6  A    between atoms: C_25  and  N_28
REMARK    7  A    between atoms: C_27  and  C_29
REMARK    8  A    between atoms: C_27  and  C_30
REMARK    9  A    between atoms: N_28  and  C_31
REMARK   10  A    between atoms: C_31  and  C_32
REMARK                            x       y       z     vdW  Elec       q    Type
REMARK                         _______ _______ _______ _____ _____    ______ ____
ROOT
ATOM      1  C   UNL     1     -10.048  54.602  50.026  0.00  0.00    +0.000 A 
ATOM      2  C   UNL     1      -9.986  54.370  48.551  0.00  0.00    +0.000 A 
ATOM      3  C   UNL     1     -10.989  55.416  50.539  0.00  0.00    +0.000 A 
ATOM      4  O   UNL     1      -9.191  53.525  48.130  0.00  0.00    +0.000 OA
ATOM      5  N   UNL     1     -10.835  55.097  47.720  0.00  0.00    +0.000 N 
ATOM      6  C   UNL     1     -11.974  56.062  49.658  0.00  0.00    +0.000 A 
ATOM      7  C   UNL     1     -11.892  55.889  48.269  0.00  0.00    +0.000 A 
ATOM      8  C   UNL     1     -13.028  56.824  50.202  0.00  0.00    +0.000 A 
ATOM      9  C   UNL     1     -12.891  56.464  47.471  0.00  0.00    +0.000 A 
ATOM     10  C   UNL     1     -13.999  57.440  49.401  0.00  0.00    +0.000 A 
ATOM     11  C   UNL     1     -13.929  57.223  48.027  0.00  0.00    +0.000 A 
ENDROOT
BRANCH   1  17
ATOM     12  S   UNL     1      -8.118  51.630  51.732  0.00  0.00    +0.000 S 
ATOM     13  O   UNL     1      -7.015  51.138  50.930  0.00  0.00    +0.000 OA
ATOM     14  O   UNL     1      -8.983  50.703  52.438  0.00  0.00    +0.000 OA
ATOM     15  N   UNL     1      -9.052  52.553  50.779  0.00  0.00    +0.000 N 
ATOM     16  C   UNL     1      -7.398  52.651  52.968  0.00  0.00    +0.000 A 
ATOM     17  C   UNL     1      -9.097  53.842  50.933  0.00  0.00    +0.000 C 
ATOM     18  C   UNL     1      -7.610  54.017  52.882  0.00  0.00    +0.000 A 
ATOM     19  C   UNL     1      -6.653  52.082  54.003  0.00  0.00    +0.000 A 
ATOM     20  N   UNL     1      -8.356  54.569  51.840  0.00  0.00    +0.000 N 
ATOM     21  C   UNL     1      -6.991  54.845  53.823  0.00  0.00    +0.000 A 
ATOM     22  C   UNL     1      -6.073  52.915  54.958  0.00  0.00    +0.000 A 
ATOM     23  C   UNL     1      -6.233  54.297  54.862  0.00  0.00    +0.000 A 
ATOM     24  H   UNL     1      -9.592  52.129  50.073  0.00  0.00    +0.000 HD
ATOM     25  H   UNL     1      -8.355  55.549  51.747  0.00  0.00    +0.000 HD
ENDBRANCH   1  17
BRANCH   3  26
ATOM     26  O   UNL     1     -11.147  55.676  51.888  0.00  0.00    +0.000 OA
ATOM     27  H   UNL     1     -11.416  56.527  52.173  0.00  0.00    +0.000 HD
ENDBRANCH   3  26
BRANCH  10  28
ATOM     28  N   UNL     1     -15.066  58.118  50.024  0.00  0.00    +0.000 N 
ATOM     29  H   UNL     1     -15.987  57.771  50.008  0.00  0.00    +0.000 HD
BRANCH  28  30
ATOM     30  C   UNL     1     -14.714  59.382  50.702  0.00  0.00    +0.000 C 
BRANCH  30  31
ATOM     31  C   UNL     1     -14.193  60.377  49.668  0.00  0.00    +0.000 C 
ATOM     32  O   UNL     1     -14.860  60.851  48.760  0.00  0.00    +0.000 OA
ATOM     33  O   UNL     1     -12.881  60.674  49.854  0.00  0.00    +0.000 OA
ENDBRANCH  30  31
ENDBRANCH  28  30
ENDBRANCH  10  28
BRANCH   5  34
ATOM     34  C   UNL     1     -10.713  54.886  46.273  0.00  0.00    +0.000 C 
BRANCH  34  35
ATOM     35  C   UNL     1     -11.627  53.808  45.670  0.00  0.00    +0.000 C 
BRANCH  35  36
ATOM     36  C   UNL     1     -11.064  53.009  44.482  0.00  0.00    +0.000 C 
ATOM     37  C   UNL     1      -9.540  53.066  44.407  0.00  0.00    +0.000 C 
ATOM     38  C   UNL     1     -11.519  51.549  44.613  0.00  0.00    +0.000 C 
ENDBRANCH  35  36
ENDBRANCH  34  35
ENDBRANCH   5  34
TORSDOF 8
ENDMDL
MODEL 5
REMARK VINA RESULT:      -7.7      2.989      7.911
REMARK  Name = 338598
REMARK  10 active torsions:
REMARK  status: ('A' for Active; 'I' for Inactive)
REMARK    1  A    between atoms: C_6  and  C_10
REMARK    2  A    between atoms: C_14  and  O_18
REMARK    3  A    between atoms: N_17  and  C_21
REMARK    4  A    between atoms: C_21  and  C_24
REMARK    5  A    between atoms: C_24  and  C_27
REMARK    6  A    between atoms: C_25  and  N_28
REMARK    7  A    between atoms: C_27  and  C_29
REMARK    8  A    between atoms: C_27  and  C_30
REMARK    9  A    between atoms: N_28  and  C_31
REMARK   10  A    between atoms: C_31  and  C_32
REMARK                            x       y       z     vdW  Elec       q    Type
REMARK                         _______ _______ _______ _____ _____    ______ ____
ROOT
ATOM      1  C   UNL     1     -10.787  55.650  48.848  0.00  0.00    +0.000 A 
ATOM      2  C   UNL     1      -9.548  55.209  49.559  0.00  0.00    +0.000 A 
ATOM      3  C   UNL     1     -10.973  55.322  47.557  0.00  0.00    +0.000 A 
ATOM      4  O   UNL     1      -9.469  55.422  50.772  0.00  0.00    +0.000 OA
ATOM      5  N   UNL     1      -8.552  54.564  48.833  0.00  0.00    +0.000 N 
ATOM      6  C   UNL     1      -9.975  54.511  46.844  0.00  0.00    +0.000 A 
ATOM      7  C   UNL     1      -8.787  54.136  47.489  0.00  0.00    +0.000 A 
ATOM      8  C   UNL     1     -10.219  54.072  45.527  0.00  0.00    +0.000 A 
ATOM      9  C   UNL     1      -7.894  53.305  46.798  0.00  0.00    +0.000 A 
ATOM     10  C   UNL     1      -9.304  53.281  44.819  0.00  0.00    +0.000 A 
ATOM     11  C   UNL     1      -8.150  52.881  45.487  0.00  0.00    +0.000 A 
ENDROOT
BRANCH   1  17
ATOM     12  S   UNL     1     -13.600  56.420  51.488  0.00  0.00    +0.000 S 
ATOM     13  O   UNL     1     -13.072  56.749  52.797  0.00  0.00    +0.000 OA
ATOM     14  O   UNL     1     -14.767  55.567  51.361  0.00  0.00    +0.000 OA
ATOM     15  N   UNL     1     -12.401  55.753  50.622  0.00  0.00    +0.000 N 
ATOM     16  C   UNL     1     -14.041  57.951  50.747  0.00  0.00    +0.000 A 
ATOM     17  C   UNL     1     -11.860  56.391  49.627  0.00  0.00    +0.000 C 
ATOM     18  C   UNL     1     -13.274  58.400  49.685  0.00  0.00    +0.000 A 
ATOM     19  C   UNL     1     -15.143  58.669  51.218  0.00  0.00    +0.000 A 
ATOM     20  N   UNL     1     -12.175  57.671  49.227  0.00  0.00    +0.000 N 
ATOM     21  C   UNL     1     -13.576  59.646  49.127  0.00  0.00    +0.000 A 
ATOM     22  C   UNL     1     -15.458  59.891  50.628  0.00  0.00    +0.000 A 
ATOM     23  C   UNL     1     -14.669  60.385  49.590  0.00  0.00    +0.000 A 
ATOM     24  H   UNL     1     -12.078  54.853  50.855  0.00  0.00    +0.000 HD
ATOM     25  H   UNL     1     -11.583  58.102  48.569  0.00  0.00    +0.000 HD
ENDBRANCH   1  17
BRANCH   3  26
ATOM     26  O   UNL     1     -12.093  55.658  46.818  0.00  0.00    +0.000 OA
ATOM     27  H   UNL     1     -12.386  56.548  46.789  0.00  0.00    +0.000 HD
ENDBRANCH   3  26
BRANCH  10  28
ATOM     28  N   UNL     1      -9.656  52.816  43.535  0.00  0.00    +0.000 N 
ATOM     29  H   UNL     1      -9.957  53.425  42.823  0.00  0.00    +0.000 HD
BRANCH  28  30
ATOM     30  C   UNL     1      -9.544  51.358  43.329  0.00  0.00    +0.000 C 
BRANCH  30  31
ATOM     31  C   UNL     1     -10.602  50.651  44.171  0.00  0.00    +0.000 C 
ATOM     32  O   UNL     1     -11.779  50.974  44.226  0.00  0.00    +0.000 OA
ATOM     33  O   UNL     1     -10.087  49.614  44.880  0.00  0.00    +0.000 OA
ENDBRANCH  30  31
ENDBRANCH  28  30
ENDBRANCH  10  28
BRANCH   5  34
ATOM     34  C   UNL     1      -7.324  54.191  49.547  0.00  0.00    +0.000 C 
BRANCH  34  35
ATOM     35  C   UNL     1      -6.187  55.225  49.515  0.00  0.00    +0.000 C 
BRANCH  35  36
ATOM     36  C   UNL     1      -4.751  54.674  49.552  0.00  0.00    +0.000 C 
ATOM     37  C   UNL     1      -4.445  53.919  50.843  0.00  0.00    +0.000 C 
ATOM     38  C   UNL     1      -4.553  53.741  48.349  0.00  0.00    +0.000 C 
ENDBRANCH  35  36
ENDBRANCH  34  35
ENDBRANCH   5  34
TORSDOF 8
ENDMDL
MODEL 6
REMARK VINA RESULT:      -7.7      2.907      7.693
REMARK  Name = 338598
REMARK  10 active torsions:
REMARK  status: ('A' for Active; 'I' for Inactive)
REMARK    1  A    between atoms: C_6  and  C_10
REMARK    2  A    between atoms: C_14  and  O_18
REMARK    3  A    between atoms: N_17  and  C_21
REMARK    4  A    between atoms: C_21  and  C_24
REMARK    5  A    between atoms: C_24  and  C_27
REMARK    6  A    between atoms: C_25  and  N_28
REMARK    7  A    between atoms: C_27  and  C_29
REMARK    8  A    between atoms: C_27  and  C_30
REMARK    9  A    between atoms: N_28  and  C_31
REMARK   10  A    between atoms: C_31  and  C_32
REMARK                            x       y       z     vdW  Elec       q    Type
REMARK                         _______ _______ _______ _____ _____    ______ ____
ROOT
ATOM      1  C   UNL     1     -12.336  54.283  49.584  0.00  0.00    +0.000 A 
ATOM      2  C   UNL     1     -11.968  53.237  50.585  0.00  0.00    +0.000 A 
ATOM      3  C   UNL     1     -11.993  54.126  48.292  0.00  0.00    +0.000 A 
ATOM      4  O   UNL     1     -12.405  53.355  51.734  0.00  0.00    +0.000 OA
ATOM      5  N   UNL     1     -11.172  52.169  50.180  0.00  0.00    +0.000 N 
ATOM      6  C   UNL     1     -11.278  52.918  47.854  0.00  0.00    +0.000 A 
ATOM      7  C   UNL     1     -10.886  51.955  48.795  0.00  0.00    +0.000 A 
ATOM      8  C   UNL     1     -11.018  52.699  46.486  0.00  0.00    +0.000 A 
ATOM      9  C   UNL     1     -10.270  50.786  48.328  0.00  0.00    +0.000 A 
ATOM     10  C   UNL     1     -10.357  51.552  46.023  0.00  0.00    +0.000 A 
ATOM     11  C   UNL     1     -10.014  50.586  46.965  0.00  0.00    +0.000 A 
ENDROOT
BRANCH   1  17
ATOM     12  S   UNL     1     -15.274  56.386  51.138  0.00  0.00    +0.000 S 
ATOM     13  O   UNL     1     -15.196  56.485  52.583  0.00  0.00    +0.000 OA
ATOM     14  O   UNL     1     -16.552  56.172  50.486  0.00  0.00    +0.000 OA
ATOM     15  N   UNL     1     -14.271  55.201  50.667  0.00  0.00    +0.000 N 
ATOM     16  C   UNL     1     -14.667  57.913  50.517  0.00  0.00    +0.000 A 
ATOM     17  C   UNL     1     -13.171  55.471  50.030  0.00  0.00    +0.000 C 
ATOM     18  C   UNL     1     -13.441  57.908  49.872  0.00  0.00    +0.000 A 
ATOM     19  C   UNL     1     -15.418  59.081  50.667  0.00  0.00    +0.000 A 
ATOM     20  N   UNL     1     -12.703  56.732  49.733  0.00  0.00    +0.000 N 
ATOM     21  C   UNL     1     -12.919  59.126  49.428  0.00  0.00    +0.000 A 
ATOM     22  C   UNL     1     -14.905  60.284  50.185  0.00  0.00    +0.000 A 
ATOM     23  C   UNL     1     -13.651  60.309  49.576  0.00  0.00    +0.000 A 
ATOM     24  H   UNL     1     -14.500  54.265  50.867  0.00  0.00    +0.000 HD
ATOM     25  H   UNL     1     -11.781  56.809  49.396  0.00  0.00    +0.000 HD
ENDBRANCH   1  17
BRANCH   3  26
ATOM     26  O   UNL     1     -12.307  55.021  47.285  0.00  0.00    +0.000 OA
ATOM     27  H   UNL     1     -12.733  54.721  46.506  0.00  0.00    +0.000 HD
ENDBRANCH   3  26
BRANCH  10  28
ATOM     28  N   UNL     1     -10.205  51.368  44.634  0.00  0.00    +0.000 N 
ATOM     29  H   UNL     1     -10.036  50.482  44.239  0.00  0.00    +0.000 HD
BRANCH  28  30
ATOM     30  C   UNL     1     -10.315  52.588  43.810  0.00  0.00    +0.000 C 
BRANCH  30  31
ATOM     31  C   UNL     1      -8.923  53.005  43.344  0.00  0.00    +0.000 C 
ATOM     32  O   UNL     1      -8.384  52.611  42.320  0.00  0.00    +0.000 OA
ATOM     33  O   UNL     1      -8.326  53.864  44.210  0.00  0.00    +0.000 OA
ENDBRANCH  30  31
ENDBRANCH  28  30
ENDBRANCH  10  28
BRANCH   5  34
ATOM     34  C   UNL     1     -10.783  51.187  51.199  0.00  0.00    +0.000 C 
BRANCH  34  35
ATOM     35  C   UNL     1      -9.488  51.492  51.968  0.00  0.00    +0.000 C 
BRANCH  35  36
ATOM     36  C   UNL     1      -9.645  52.095  53.374  0.00  0.00    +0.000 C 
ATOM     37  C   UNL     1      -9.083  51.190  54.468  0.00  0.00    +0.000 C 
ATOM     38  C   UNL     1      -8.927  53.452  53.409  0.00  0.00    +0.000 C 
ENDBRANCH  35  36
ENDBRANCH  34  35
ENDBRANCH   5  34
TORSDOF 8
ENDMDL
MODEL 7
REMARK VINA RESULT:      -7.6      2.374      7.820
REMARK  Name = 338598
REMARK  10 active torsions:
REMARK  status: ('A' for Active; 'I' for Inactive)
REMARK    1  A    between atoms: C_6  and  C_10
REMARK    2  A    between atoms: C_14  and  O_18
REMARK    3  A    between atoms: N_17  and  C_21
REMARK    4  A    between atoms: C_21  and  C_24
REMARK    5  A    between atoms: C_24  and  C_27
REMARK    6  A    between atoms: C_25  and  N_28
REMARK    7  A    between atoms: C_27  and  C_29
REMARK    8  A    between atoms: C_27  and  C_30
REMARK    9  A    between atoms: N_28  and  C_31
REMARK   10  A    between atoms: C_31  and  C_32
REMARK                            x       y       z     vdW  Elec       q    Type
REMARK                         _______ _______ _______ _____ _____    ______ ____
ROOT
ATOM      1  C   UNL     1     -11.297  55.703  49.144  0.00  0.00    +0.000 A 
ATOM      2  C   UNL     1     -10.243  55.221  50.087  0.00  0.00    +0.000 A 
ATOM      3  C   UNL     1     -11.385  55.176  47.909  0.00  0.00    +0.000 A 
ATOM      4  O   UNL     1     -10.270  55.638  51.249  0.00  0.00    +0.000 OA
ATOM      5  N   UNL     1      -9.294  54.312  49.627  0.00  0.00    +0.000 N 
ATOM      6  C   UNL     1     -10.465  54.109  47.488  0.00  0.00    +0.000 A 
ATOM      7  C   UNL     1      -9.442  53.686  48.349  0.00  0.00    +0.000 A 
ATOM      8  C   UNL     1     -10.626  53.478  46.238  0.00  0.00    +0.000 A 
ATOM      9  C   UNL     1      -8.631  52.619  47.938  0.00  0.00    +0.000 A 
ATOM     10  C   UNL     1      -9.784  52.445  45.806  0.00  0.00    +0.000 A 
ATOM     11  C   UNL     1      -8.802  52.006  46.690  0.00  0.00    +0.000 A 
ENDROOT
BRANCH   1  17
ATOM     12  S   UNL     1     -13.415  59.009  49.394  0.00  0.00    +0.000 S 
ATOM     13  O   UNL     1     -14.515  59.048  48.450  0.00  0.00    +0.000 OA
ATOM     14  O   UNL     1     -12.616  60.195  49.639  0.00  0.00    +0.000 OA
ATOM     15  N   UNL     1     -12.411  57.819  48.936  0.00  0.00    +0.000 N 
ATOM     16  C   UNL     1     -14.124  58.578  50.942  0.00  0.00    +0.000 A 
ATOM     17  C   UNL     1     -12.310  56.725  49.630  0.00  0.00    +0.000 C 
ATOM     18  C   UNL     1     -13.846  57.320  51.453  0.00  0.00    +0.000 A 
ATOM     19  C   UNL     1     -14.926  59.493  51.627  0.00  0.00    +0.000 A 
ATOM     20  N   UNL     1     -13.043  56.417  50.755  0.00  0.00    +0.000 N 
ATOM     21  C   UNL     1     -14.453  56.943  52.654  0.00  0.00    +0.000 A 
ATOM     22  C   UNL     1     -15.495  59.119  52.843  0.00  0.00    +0.000 A 
ATOM     23  C   UNL     1     -15.268  57.841  53.351  0.00  0.00    +0.000 A 
ATOM     24  H   UNL     1     -11.870  57.929  48.121  0.00  0.00    +0.000 HD
ATOM     25  H   UNL     1     -12.995  55.493  51.093  0.00  0.00    +0.000 HD
ENDBRANCH   1  17
BRANCH   3  26
ATOM     26  O   UNL     1     -12.338  55.535  46.972  0.00  0.00    +0.000 OA
ATOM     27  H   UNL     1     -13.190  55.809  47.251  0.00  0.00    +0.000 HD
ENDBRANCH   3  26
BRANCH  10  28
ATOM     28  N   UNL     1     -10.060  51.811  44.578  0.00  0.00    +0.000 N 
ATOM     29  H   UNL     1     -10.240  50.845  44.517  0.00  0.00    +0.000 HD
BRANCH  28  30
ATOM     30  C   UNL     1     -10.061  52.687  43.390  0.00  0.00    +0.000 C 
BRANCH  30  31
ATOM     31  C   UNL     1      -8.676  52.664  42.749  0.00  0.00    +0.000 C 
ATOM     32  O   UNL     1      -8.172  53.600  42.146  0.00  0.00    +0.000 OA
ATOM     33  O   UNL     1      -8.056  51.466  42.906  0.00  0.00    +0.000 OA
ENDBRANCH  30  31
ENDBRANCH  28  30
ENDBRANCH  10  28
BRANCH   5  34
ATOM     34  C   UNL     1      -8.240  53.898  50.561  0.00  0.00    +0.000 C 
BRANCH  34  35
ATOM     35  C   UNL     1      -8.614  52.778  51.544  0.00  0.00    +0.000 C 
BRANCH  35  36
ATOM     36  C   UNL     1      -8.678  53.158  53.033  0.00  0.00    +0.000 C 
ATOM     37  C   UNL     1     -10.072  52.968  53.628  0.00  0.00    +0.000 C 
ATOM     38  C   UNL     1      -7.667  52.297  53.803  0.00  0.00    +0.000 C 
ENDBRANCH  35  36
ENDBRANCH  34  35
ENDBRANCH   5  34
TORSDOF 8
ENDMDL
MODEL 8
REMARK VINA RESULT:      -7.6      2.921      7.737
REMARK  Name = 338598
REMARK  10 active torsions:
REMARK  status: ('A' for Active; 'I' for Inactive)
REMARK    1  A    between atoms: C_6  and  C_10
REMARK    2  A    between atoms: C_14  and  O_18
REMARK    3  A    between atoms: N_17  and  C_21
REMARK    4  A    between atoms: C_21  and  C_24
REMARK    5  A    between atoms: C_24  and  C_27
REMARK    6  A    between atoms: C_25  and  N_28
REMARK    7  A    between atoms: C_27  and  C_29
REMARK    8  A    between atoms: C_27  and  C_30
REMARK    9  A    between atoms: N_28  and  C_31
REMARK   10  A    between atoms: C_31  and  C_32
REMARK                            x       y       z     vdW  Elec       q    Type
REMARK                         _______ _______ _______ _____ _____    ______ ____
ROOT
ATOM      1  C   UNL     1      -9.826  53.920  50.881  0.00  0.00    +0.000 A 
ATOM      2  C   UNL     1     -10.839  54.986  51.144  0.00  0.00    +0.000 A 
ATOM      3  C   UNL     1      -9.660  53.444  49.633  0.00  0.00    +0.000 A 
ATOM      4  O   UNL     1     -10.878  55.484  52.273  0.00  0.00    +0.000 OA
ATOM      5  N   UNL     1     -11.679  55.385  50.108  0.00  0.00    +0.000 N 
ATOM      6  C   UNL     1     -10.455  53.983  48.520  0.00  0.00    +0.000 A 
ATOM      7  C   UNL     1     -11.444  54.947  48.767  0.00  0.00    +0.000 A 
ATOM      8  C   UNL     1     -10.206  53.566  47.197  0.00  0.00    +0.000 A 
ATOM      9  C   UNL     1     -12.130  55.485  47.670  0.00  0.00    +0.000 A 
ATOM     10  C   UNL     1     -10.927  54.069  46.105  0.00  0.00    +0.000 A 
ATOM     11  C   UNL     1     -11.873  55.057  46.361  0.00  0.00    +0.000 A 
ENDROOT
BRANCH   1  17
ATOM     12  S   UNL     1      -6.627  53.322  53.091  0.00  0.00    +0.000 S 
ATOM     13  O   UNL     1      -6.277  54.472  53.901  0.00  0.00    +0.000 OA
ATOM     14  O   UNL     1      -5.594  52.553  52.424  0.00  0.00    +0.000 OA
ATOM     15  N   UNL     1      -7.687  53.813  51.965  0.00  0.00    +0.000 N 
ATOM     16  C   UNL     1      -7.439  52.201  54.172  0.00  0.00    +0.000 A 
ATOM     17  C   UNL     1      -8.934  53.453  52.018  0.00  0.00    +0.000 C 
ATOM     18  C   UNL     1      -8.800  52.008  54.002  0.00  0.00    +0.000 A 
ATOM     19  C   UNL     1      -6.714  51.524  55.156  0.00  0.00    +0.000 A 
ATOM     20  N   UNL     1      -9.509  52.694  53.014  0.00  0.00    +0.000 N 
ATOM     21  C   UNL     1      -9.469  51.166  54.894  0.00  0.00    +0.000 A 
ATOM     22  C   UNL     1      -7.386  50.656  56.016  0.00  0.00    +0.000 A 
ATOM     23  C   UNL     1      -8.764  50.485  55.892  0.00  0.00    +0.000 A 
ATOM     24  H   UNL     1      -7.379  54.392  51.230  0.00  0.00    +0.000 HD
ATOM     25  H   UNL     1     -10.491  52.629  53.029  0.00  0.00    +0.000 HD
ENDBRANCH   1  17
BRANCH   3  26
ATOM     26  O   UNL     1      -8.734  52.479  49.282  0.00  0.00    +0.000 OA
ATOM     27  H   UNL     1      -8.910  51.575  49.454  0.00  0.00    +0.000 HD
ENDBRANCH   3  26
BRANCH  10  28
ATOM     28  N   UNL     1     -10.564  53.662  44.805  0.00  0.00    +0.000 N 
ATOM     29  H   UNL     1     -10.603  54.275  44.035  0.00  0.00    +0.000 HD
BRANCH  28  30
ATOM     30  C   UNL     1     -10.123  52.259  44.671  0.00  0.00    +0.000 C 
BRANCH  30  31
ATOM     31  C   UNL     1      -9.150  52.149  43.501  0.00  0.00    +0.000 C 
ATOM     32  O   UNL     1      -8.068  51.583  43.545  0.00  0.00    +0.000 OA
ATOM     33  O   UNL     1      -9.612  52.773  42.387  0.00  0.00    +0.000 OA
ENDBRANCH  30  31
ENDBRANCH  28  30
ENDBRANCH  10  28
BRANCH   5  34
ATOM     34  C   UNL     1     -12.700  56.395  50.411  0.00  0.00    +0.000 C 
BRANCH  34  35
ATOM     35  C   UNL     1     -13.961  55.884  51.127  0.00  0.00    +0.000 C 
BRANCH  35  36
ATOM     36  C   UNL     1     -14.798  56.929  51.883  0.00  0.00    +0.000 C 
ATOM     37  C   UNL     1     -14.024  57.590  53.021  0.00  0.00    +0.000 C 
ATOM     38  C   UNL     1     -15.262  58.000  50.886  0.00  0.00    +0.000 C 
ENDBRANCH  35  36
ENDBRANCH  34  35
ENDBRANCH   5  34
TORSDOF 8
ENDMDL
MODEL 9
REMARK VINA RESULT:      -7.4      2.618      5.698
REMARK  Name = 338598
REMARK  10 active torsions:
REMARK  status: ('A' for Active; 'I' for Inactive)
REMARK    1  A    between atoms: C_6  and  C_10
REMARK    2  A    between atoms: C_14  and  O_18
REMARK    3  A    between atoms: N_17  and  C_21
REMARK    4  A    between atoms: C_21  and  C_24
REMARK    5  A    between atoms: C_24  and  C_27
REMARK    6  A    between atoms: C_25  and  N_28
REMARK    7  A    between atoms: C_27  and  C_29
REMARK    8  A    between atoms: C_27  and  C_30
REMARK    9  A    between atoms: N_28  and  C_31
REMARK   10  A    between atoms: C_31  and  C_32
REMARK                            x       y       z     vdW  Elec       q    Type
REMARK                         _______ _______ _______ _____ _____    ______ ____
ROOT
ATOM      1  C   UNL     1     -10.362  53.282  48.358  0.00  0.00    +0.000 A 
ATOM      2  C   UNL     1     -11.346  54.383  48.585  0.00  0.00    +0.000 A 
ATOM      3  C   UNL     1      -9.577  52.864  49.368  0.00  0.00    +0.000 A 
ATOM      4  O   UNL     1     -12.132  54.655  47.673  0.00  0.00    +0.000 OA
ATOM      5  N   UNL     1     -11.350  55.039  49.813  0.00  0.00    +0.000 N 
ATOM      6  C   UNL     1      -9.697  53.470  50.703  0.00  0.00    +0.000 A 
ATOM      7  C   UNL     1     -10.583  54.538  50.911  0.00  0.00    +0.000 A 
ATOM      8  C   UNL     1      -8.957  52.959  51.789  0.00  0.00    +0.000 A 
ATOM      9  C   UNL     1     -10.719  55.039  52.213  0.00  0.00    +0.000 A 
ATOM     10  C   UNL     1      -9.056  53.494  53.080  0.00  0.00    +0.000 A 
ATOM     11  C   UNL     1      -9.972  54.523  53.280  0.00  0.00    +0.000 A 
ENDROOT
BRANCH   1  17
ATOM     12  S   UNL     1     -10.794  50.534  45.577  0.00  0.00    +0.000 S 
ATOM     13  O   UNL     1     -12.149  50.453  45.068  0.00  0.00    +0.000 OA
ATOM     14  O   UNL     1     -10.031  49.325  45.829  0.00  0.00    +0.000 OA
ATOM     15  N   UNL     1     -10.831  51.394  46.952  0.00  0.00    +0.000 N 
ATOM     16  C   UNL     1      -9.881  51.436  44.377  0.00  0.00    +0.000 A 
ATOM     17  C   UNL     1     -10.327  52.590  47.006  0.00  0.00    +0.000 C 
ATOM     18  C   UNL     1      -9.465  52.715  44.709  0.00  0.00    +0.000 A 
ATOM     19  C   UNL     1      -9.583  50.859  43.141  0.00  0.00    +0.000 A 
ATOM     20  N   UNL     1      -9.772  53.277  45.948  0.00  0.00    +0.000 N 
ATOM     21  C   UNL     1      -8.792  53.466  43.741  0.00  0.00    +0.000 A 
ATOM     22  C   UNL     1      -8.878  51.604  42.198  0.00  0.00    +0.000 A 
ATOM     23  C   UNL     1      -8.491  52.911  42.493  0.00  0.00    +0.000 A 
ATOM     24  H   UNL     1     -11.241  51.003  47.757  0.00  0.00    +0.000 HD
ATOM     25  H   UNL     1      -9.578  54.234  46.077  0.00  0.00    +0.000 HD
ENDBRANCH   1  17
BRANCH   3  26
ATOM     26  O   UNL     1      -8.655  51.838  49.269  0.00  0.00    +0.000 OA
ATOM     27  H   UNL     1      -8.647  51.286  48.512  0.00  0.00    +0.000 HD
ENDBRANCH   3  26
BRANCH  10  28
ATOM     28  N   UNL     1      -8.344  52.877  54.129  0.00  0.00    +0.000 N 
ATOM     29  H   UNL     1      -8.780  52.606  54.969  0.00  0.00    +0.000 HD
BRANCH  28  30
ATOM     30  C   UNL     1      -6.903  52.663  53.886  0.00  0.00    +0.000 C 
BRANCH  30  31
ATOM     31  C   UNL     1      -6.159  53.978  54.097  0.00  0.00    +0.000 C 
ATOM     32  O   UNL     1      -6.056  54.555  55.170  0.00  0.00    +0.000 OA
ATOM     33  O   UNL     1      -5.626  54.459  52.945  0.00  0.00    +0.000 OA
ENDBRANCH  30  31
ENDBRANCH  28  30
ENDBRANCH  10  28
BRANCH   5  34
ATOM     34  C   UNL     1     -12.291  56.152  49.986  0.00  0.00    +0.000 C 
BRANCH  34  35
ATOM     35  C   UNL     1     -13.709  55.770  50.438  0.00  0.00    +0.000 C 
BRANCH  35  36
ATOM     36  C   UNL     1     -14.590  56.906  50.985  0.00  0.00    +0.000 C 
ATOM     37  C   UNL     1     -16.075  56.552  50.980  0.00  0.00    +0.000 C 
ATOM     38  C   UNL     1     -14.142  57.228  52.418  0.00  0.00    +0.000 C 
ENDBRANCH  35  36
ENDBRANCH  34  35
ENDBRANCH   5  34
TORSDOF 8
ENDMDL
