MODEL 1
REMARK VINA RESULT:      -8.6      0.000      0.000
REMARK  Name = 338168
REMARK  5 active torsions:
REMARK  status: ('A' for Active; 'I' for Inactive)
REMARK    1  A    between atoms: C_6  and  C_10
REMARK    2  A    between atoms: C_14  and  O_18
REMARK    3  A    between atoms: N_17  and  C_21
REMARK    4  A    between atoms: C_21  and  C_24
REMARK    5  A    between atoms: C_24  and  C_27
REMARK                            x       y       z     vdW  Elec       q    Type
REMARK                         _______ _______ _______ _____ _____    ______ ____
ROOT
ATOM      1  C   UNL     1      -9.985  54.545  52.371  0.00  0.00    +0.000 A 
ATOM      2  C   UNL     1      -8.590  55.048  52.257  0.00  0.00    +0.000 A 
ATOM      3  C   UNL     1     -10.241  53.415  53.053  0.00  0.00    +0.000 A 
ATOM      4  O   UNL     1      -8.389  55.987  51.484  0.00  0.00    +0.000 OA
ATOM      5  N   UNL     1      -7.596  54.469  53.047  0.00  0.00    +0.000 N 
ATOM      6  C   UNL     1      -9.162  52.703  53.744  0.00  0.00    +0.000 A 
ATOM      7  C   UNL     1      -7.858  53.242  53.758  0.00  0.00    +0.000 A 
ATOM      8  C   UNL     1      -9.442  51.508  54.432  0.00  0.00    +0.000 A 
ATOM      9  C   UNL     1      -6.865  52.548  54.476  0.00  0.00    +0.000 A 
ATOM     10  C   UNL     1      -8.449  50.865  55.151  0.00  0.00    +0.000 A 
ATOM     11  C   UNL     1      -7.164  51.375  55.181  0.00  0.00    +0.000 A 
ATOM     12  F   UNL     1      -8.737  49.746  55.828  0.00  0.00    +0.000 F 
ENDROOT
BRANCH   1  18
ATOM     13  S   UNL     1     -12.372  55.790  49.433  0.00  0.00    +0.000 S 
ATOM     14  O   UNL     1     -13.044  54.545  49.142  0.00  0.00    +0.000 OA
ATOM     15  O   UNL     1     -11.932  56.685  48.387  0.00  0.00    +0.000 OA
ATOM     16  N   UNL     1     -11.047  55.456  50.362  0.00  0.00    +0.000 N 
ATOM     17  C   UNL     1     -13.361  56.693  50.542  0.00  0.00    +0.000 A 
ATOM     18  C   UNL     1     -11.122  55.276  51.740  0.00  0.00    +0.000 C 
ATOM     19  C   UNL     1     -13.097  56.549  51.902  0.00  0.00    +0.000 A 
ATOM     20  C   UNL     1     -14.355  57.548  50.060  0.00  0.00    +0.000 A 
ATOM     21  N   UNL     1     -12.110  55.720  52.452  0.00  0.00    +0.000 N 
ATOM     22  C   UNL     1     -13.861  57.313  52.794  0.00  0.00    +0.000 A 
ATOM     23  C   UNL     1     -15.112  58.288  50.965  0.00  0.00    +0.000 A 
ATOM     24  C   UNL     1     -14.858  58.175  52.332  0.00  0.00    +0.000 A 
ATOM     25  H   UNL     1     -10.169  55.381  49.924  0.00  0.00    +0.000 HD
ATOM     26  H   UNL     1     -12.169  55.469  53.403  0.00  0.00    +0.000 HD
ENDBRANCH   1  18
BRANCH   3  27
ATOM     27  O   UNL     1     -11.497  52.847  53.194  0.00  0.00    +0.000 OA
ATOM     28  H   UNL     1     -11.654  52.216  53.869  0.00  0.00    +0.000 HD
ENDBRANCH   3  27
BRANCH   5  29
ATOM     29  C   UNL     1      -6.220  55.010  52.977  0.00  0.00    +0.000 C 
BRANCH  29  30
ATOM     30  C   UNL     1      -5.216  54.223  52.113  0.00  0.00    +0.000 C 
BRANCH  30  31
ATOM     31  C   UNL     1      -5.340  54.514  50.644  0.00  0.00    +0.000 C 
ATOM     32  C   UNL     1      -6.130  53.654  49.692  0.00  0.00    +0.000 C 
ATOM     33  C   UNL     1      -4.629  53.605  49.674  0.00  0.00    +0.000 C 
ENDBRANCH  30  31
ENDBRANCH  29  30
ENDBRANCH   5  29
TORSDOF 5
ENDMDL
MODEL 2
REMARK VINA RESULT:      -8.3      3.873      7.420
REMARK  Name = 338168
REMARK  5 active torsions:
REMARK  status: ('A' for Active; 'I' for Inactive)
REMARK    1  A    between atoms: C_6  and  C_10
REMARK    2  A    between atoms: C_14  and  O_18
REMARK    3  A    between atoms: N_17  and  C_21
REMARK    4  A    between atoms: C_21  and  C_24
REMARK    5  A    between atoms: C_24  and  C_27
REMARK                            x       y       z     vdW  Elec       q    Type
REMARK                         _______ _______ _______ _____ _____    ______ ____
ROOT
ATOM      1  C   UNL     1     -10.122  55.090  50.787  0.00  0.00    +0.000 A 
ATOM      2  C   UNL     1      -9.722  55.182  49.357  0.00  0.00    +0.000 A 
ATOM      3  C   UNL     1     -11.335  55.520  51.176  0.00  0.00    +0.000 A 
ATOM      4  O   UNL     1      -8.546  54.934  49.083  0.00  0.00    +0.000 OA
ATOM      5  N   UNL     1     -10.689  55.502  48.404  0.00  0.00    +0.000 N 
ATOM      6  C   UNL     1     -12.297  56.023  50.191  0.00  0.00    +0.000 A 
ATOM      7  C   UNL     1     -11.982  55.990  48.817  0.00  0.00    +0.000 A 
ATOM      8  C   UNL     1     -13.552  56.494  50.619  0.00  0.00    +0.000 A 
ATOM      9  C   UNL     1     -12.956  56.439  47.905  0.00  0.00    +0.000 A 
ATOM     10  C   UNL     1     -14.498  56.903  49.694  0.00  0.00    +0.000 A 
ATOM     11  C   UNL     1     -14.212  56.877  48.342  0.00  0.00    +0.000 A 
ATOM     12  F   UNL     1     -15.701  57.317  50.113  0.00  0.00    +0.000 F 
ENDROOT
BRANCH   1  18
ATOM     13  S   UNL     1      -6.889  54.885  53.107  0.00  0.00    +0.000 S 
ATOM     14  O   UNL     1      -7.194  55.965  54.018  0.00  0.00    +0.000 OA
ATOM     15  O   UNL     1      -5.557  54.677  52.586  0.00  0.00    +0.000 OA
ATOM     16  N   UNL     1      -7.896  55.011  51.804  0.00  0.00    +0.000 N 
ATOM     17  C   UNL     1      -7.431  53.399  53.829  0.00  0.00    +0.000 A 
ATOM     18  C   UNL     1      -9.200  54.521  51.811  0.00  0.00    +0.000 C 
ATOM     19  C   UNL     1      -8.707  52.952  53.499  0.00  0.00    +0.000 A 
ATOM     20  C   UNL     1      -6.584  52.683  54.679  0.00  0.00    +0.000 A 
ATOM     21  N   UNL     1      -9.602  53.614  52.645  0.00  0.00    +0.000 N 
ATOM     22  C   UNL     1      -9.126  51.731  54.041  0.00  0.00    +0.000 A 
ATOM     23  C   UNL     1      -7.026  51.477  55.218  0.00  0.00    +0.000 A 
ATOM     24  C   UNL     1      -8.295  50.998  54.891  0.00  0.00    +0.000 A 
ATOM     25  H   UNL     1      -7.563  55.451  50.989  0.00  0.00    +0.000 HD
ATOM     26  H   UNL     1     -10.559  53.383  52.681  0.00  0.00    +0.000 HD
ENDBRANCH   1  18
BRANCH   3  27
ATOM     27  O   UNL     1     -11.793  55.506  52.484  0.00  0.00    +0.000 OA
ATOM     28  H   UNL     1     -12.223  56.260  52.839  0.00  0.00    +0.000 HD
ENDBRANCH   3  27
BRANCH   5  29
ATOM     29  C   UNL     1     -10.302  55.535  46.975  0.00  0.00    +0.000 C 
BRANCH  29  30
ATOM     30  C   UNL     1     -10.181  54.173  46.265  0.00  0.00    +0.000 C 
BRANCH  30  31
ATOM     31  C   UNL     1     -11.320  53.888  45.326  0.00  0.00    +0.000 C 
ATOM     32  C   UNL     1     -12.052  52.572  45.287  0.00  0.00    +0.000 C 
ATOM     33  C   UNL     1     -11.085  52.923  44.192  0.00  0.00    +0.000 C 
ENDBRANCH  30  31
ENDBRANCH  29  30
ENDBRANCH   5  29
TORSDOF 5
ENDMDL
MODEL 3
REMARK VINA RESULT:      -8.2      3.877      5.466
REMARK  Name = 338168
REMARK  5 active torsions:
REMARK  status: ('A' for Active; 'I' for Inactive)
REMARK    1  A    between atoms: C_6  and  C_10
REMARK    2  A    between atoms: C_14  and  O_18
REMARK    3  A    between atoms: N_17  and  C_21
REMARK    4  A    between atoms: C_21  and  C_24
REMARK    5  A    between atoms: C_24  and  C_27
REMARK                            x       y       z     vdW  Elec       q    Type
REMARK                         _______ _______ _______ _____ _____    ______ ____
ROOT
ATOM      1  C   UNL     1     -11.556  55.747  48.937  0.00  0.00    +0.000 A 
ATOM      2  C   UNL     1     -10.482  55.040  49.685  0.00  0.00    +0.000 A 
ATOM      3  C   UNL     1     -11.738  55.503  47.627  0.00  0.00    +0.000 A 
ATOM      4  O   UNL     1     -10.248  55.423  50.833  0.00  0.00    +0.000 OA
ATOM      5  N   UNL     1      -9.826  53.970  49.076  0.00  0.00    +0.000 N 
ATOM      6  C   UNL     1     -10.925  54.495  46.939  0.00  0.00    +0.000 A 
ATOM      7  C   UNL     1      -9.996  53.722  47.666  0.00  0.00    +0.000 A 
ATOM      8  C   UNL     1     -11.111  54.271  45.562  0.00  0.00    +0.000 A 
ATOM      9  C   UNL     1      -9.274  52.733  46.971  0.00  0.00    +0.000 A 
ATOM     10  C   UNL     1     -10.404  53.271  44.915  0.00  0.00    +0.000 A 
ATOM     11  C   UNL     1      -9.489  52.500  45.607  0.00  0.00    +0.000 A 
ATOM     12  F   UNL     1     -10.614  53.046  43.612  0.00  0.00    +0.000 F 
ENDROOT
BRANCH   1  18
ATOM     13  S   UNL     1     -13.522  59.174  49.455  0.00  0.00    +0.000 S 
ATOM     14  O   UNL     1     -14.513  59.028  48.415  0.00  0.00    +0.000 OA
ATOM     15  O   UNL     1     -12.858  60.433  49.706  0.00  0.00    +0.000 OA
ATOM     16  N   UNL     1     -12.336  58.053  49.198  0.00  0.00    +0.000 N 
ATOM     17  C   UNL     1     -14.217  58.616  50.948  0.00  0.00    +0.000 A 
ATOM     18  C   UNL     1     -12.450  56.729  49.614  0.00  0.00    +0.000 C 
ATOM     19  C   UNL     1     -13.996  57.288  51.303  0.00  0.00    +0.000 A 
ATOM     20  C   UNL     1     -14.938  59.496  51.758  0.00  0.00    +0.000 A 
ATOM     21  N   UNL     1     -13.273  56.356  50.544  0.00  0.00    +0.000 N 
ATOM     22  C   UNL     1     -14.513  56.851  52.528  0.00  0.00    +0.000 A 
ATOM     23  C   UNL     1     -15.456  59.037  52.966  0.00  0.00    +0.000 A 
ATOM     24  C   UNL     1     -15.236  57.715  53.354  0.00  0.00    +0.000 A 
ATOM     25  H   UNL     1     -11.515  58.331  48.731  0.00  0.00    +0.000 HD
ATOM     26  H   UNL     1     -13.394  55.395  50.723  0.00  0.00    +0.000 HD
ENDBRANCH   1  18
BRANCH   3  27
ATOM     27  O   UNL     1     -12.688  56.127  46.834  0.00  0.00    +0.000 OA
ATOM     28  H   UNL     1     -12.662  57.056  46.715  0.00  0.00    +0.000 HD
ENDBRANCH   3  27
BRANCH   5  29
ATOM     29  C   UNL     1      -8.798  53.230  49.844  0.00  0.00    +0.000 C 
BRANCH  29  30
ATOM     30  C   UNL     1      -7.571  54.038  50.304  0.00  0.00    +0.000 C 
BRANCH  30  31
ATOM     31  C   UNL     1      -6.905  54.794  49.189  0.00  0.00    +0.000 C 
ATOM     32  C   UNL     1      -6.016  54.143  48.161  0.00  0.00    +0.000 C 
ATOM     33  C   UNL     1      -5.410  54.985  49.248  0.00  0.00    +0.000 C 
ENDBRANCH  30  31
ENDBRANCH  29  30
ENDBRANCH   5  29
TORSDOF 5
ENDMDL
MODEL 4
REMARK VINA RESULT:      -8.2      3.681      7.279
REMARK  Name = 338168
REMARK  5 active torsions:
REMARK  status: ('A' for Active; 'I' for Inactive)
REMARK    1  A    between atoms: C_6  and  C_10
REMARK    2  A    between atoms: C_14  and  O_18
REMARK    3  A    between atoms: N_17  and  C_21
REMARK    4  A    between atoms: C_21  and  C_24
REMARK    5  A    between atoms: C_24  and  C_27
REMARK                            x       y       z     vdW  Elec       q    Type
REMARK                         _______ _______ _______ _____ _____    ______ ____
ROOT
ATOM      1  C   UNL     1     -10.183  55.428  50.472  0.00  0.00    +0.000 A 
ATOM      2  C   UNL     1     -10.348  55.681  49.015  0.00  0.00    +0.000 A 
ATOM      3  C   UNL     1     -11.220  55.608  51.309  0.00  0.00    +0.000 A 
ATOM      4  O   UNL     1      -9.330  55.667  48.321  0.00  0.00    +0.000 OA
ATOM      5  N   UNL     1     -11.631  55.884  48.506  0.00  0.00    +0.000 N 
ATOM      6  C   UNL     1     -12.536  55.993  50.791  0.00  0.00    +0.000 A 
ATOM      7  C   UNL     1     -12.741  56.105  49.400  0.00  0.00    +0.000 A 
ATOM      8  C   UNL     1     -13.603  56.203  51.684  0.00  0.00    +0.000 A 
ATOM      9  C   UNL     1     -14.034  56.430  48.947  0.00  0.00    +0.000 A 
ATOM     10  C   UNL     1     -14.869  56.494  51.205  0.00  0.00    +0.000 A 
ATOM     11  C   UNL     1     -15.094  56.607  49.845  0.00  0.00    +0.000 A 
ATOM     12  F   UNL     1     -15.883  56.658  52.063  0.00  0.00    +0.000 F 
ENDROOT
BRANCH   1  18
ATOM     13  S   UNL     1      -6.598  53.689  50.477  0.00  0.00    +0.000 S 
ATOM     14  O   UNL     1      -5.883  54.639  49.658  0.00  0.00    +0.000 OA
ATOM     15  O   UNL     1      -6.414  52.262  50.332  0.00  0.00    +0.000 OA
ATOM     16  N   UNL     1      -8.216  53.979  50.311  0.00  0.00    +0.000 N 
ATOM     17  C   UNL     1      -6.335  54.106  52.145  0.00  0.00    +0.000 A 
ATOM     18  C   UNL     1      -8.879  54.968  51.032  0.00  0.00    +0.000 C 
ATOM     19  C   UNL     1      -7.276  54.928  52.758  0.00  0.00    +0.000 A 
ATOM     20  C   UNL     1      -5.230  53.594  52.830  0.00  0.00    +0.000 A 
ATOM     21  N   UNL     1      -8.412  55.465  52.134  0.00  0.00    +0.000 N 
ATOM     22  C   UNL     1      -7.092  55.224  54.114  0.00  0.00    +0.000 A 
ATOM     23  C   UNL     1      -5.058  53.913  54.174  0.00  0.00    +0.000 A 
ATOM     24  C   UNL     1      -5.995  54.722  54.817  0.00  0.00    +0.000 A 
ATOM     25  H   UNL     1      -8.732  53.432  49.676  0.00  0.00    +0.000 HD
ATOM     26  H   UNL     1      -8.864  56.238  52.544  0.00  0.00    +0.000 HD
ENDBRANCH   1  18
BRANCH   3  27
ATOM     27  O   UNL     1     -11.164  55.428  52.682  0.00  0.00    +0.000 OA
ATOM     28  H   UNL     1     -11.355  54.589  53.053  0.00  0.00    +0.000 HD
ENDBRANCH   3  27
BRANCH   5  29
ATOM     29  C   UNL     1     -11.800  56.077  47.047  0.00  0.00    +0.000 C 
BRANCH  29  30
ATOM     30  C   UNL     1     -12.093  54.814  46.217  0.00  0.00    +0.000 C 
BRANCH  30  31
ATOM     31  C   UNL     1     -10.869  54.229  45.570  0.00  0.00    +0.000 C 
ATOM     32  C   UNL     1     -10.917  53.107  44.566  0.00  0.00    +0.000 C 
ATOM     33  C   UNL     1     -10.447  52.837  45.968  0.00  0.00    +0.000 C 
ENDBRANCH  30  31
ENDBRANCH  29  30
ENDBRANCH   5  29
TORSDOF 5
ENDMDL
MODEL 5
REMARK VINA RESULT:      -8.0      3.554      7.937
REMARK  Name = 338168
REMARK  5 active torsions:
REMARK  status: ('A' for Active; 'I' for Inactive)
REMARK    1  A    between atoms: C_6  and  C_10
REMARK    2  A    between atoms: C_14  and  O_18
REMARK    3  A    between atoms: N_17  and  C_21
REMARK    4  A    between atoms: C_21  and  C_24
REMARK    5  A    between atoms: C_24  and  C_27
REMARK                            x       y       z     vdW  Elec       q    Type
REMARK                         _______ _______ _______ _____ _____    ______ ____
ROOT
ATOM      1  C   UNL     1      -9.976  54.416  50.638  0.00  0.00    +0.000 A 
ATOM      2  C   UNL     1     -11.082  55.379  50.889  0.00  0.00    +0.000 A 
ATOM      3  C   UNL     1      -9.770  53.933  49.401  0.00  0.00    +0.000 A 
ATOM      4  O   UNL     1     -11.334  55.658  52.063  0.00  0.00    +0.000 OA
ATOM      5  N   UNL     1     -11.748  55.941  49.799  0.00  0.00    +0.000 N 
ATOM      6  C   UNL     1     -10.589  54.394  48.276  0.00  0.00    +0.000 A 
ATOM      7  C   UNL     1     -11.552  55.406  48.474  0.00  0.00    +0.000 A 
ATOM      8  C   UNL     1     -10.378  53.858  46.993  0.00  0.00    +0.000 A 
ATOM      9  C   UNL     1     -12.281  55.852  47.355  0.00  0.00    +0.000 A 
ATOM     10  C   UNL     1     -11.092  54.338  45.908  0.00  0.00    +0.000 A 
ATOM     11  C   UNL     1     -12.039  55.331  46.077  0.00  0.00    +0.000 A 
ATOM     12  F   UNL     1     -10.858  53.843  44.686  0.00  0.00    +0.000 F 
ENDROOT
BRANCH   1  18
ATOM     13  S   UNL     1      -6.787  54.483  53.026  0.00  0.00    +0.000 S 
ATOM     14  O   UNL     1      -7.101  55.667  53.793  0.00  0.00    +0.000 OA
ATOM     15  O   UNL     1      -5.447  54.207  52.560  0.00  0.00    +0.000 OA
ATOM     16  N   UNL     1      -7.769  54.453  51.698  0.00  0.00    +0.000 N 
ATOM     17  C   UNL     1      -7.351  53.099  53.914  0.00  0.00    +0.000 A 
ATOM     18  C   UNL     1      -9.075  53.973  51.741  0.00  0.00    +0.000 C 
ATOM     19  C   UNL     1      -8.624  52.620  53.617  0.00  0.00    +0.000 A 
ATOM     20  C   UNL     1      -6.525  52.488  54.861  0.00  0.00    +0.000 A 
ATOM     21  N   UNL     1      -9.499  53.176  52.672  0.00  0.00    +0.000 N 
ATOM     22  C   UNL     1      -9.060  51.475  54.296  0.00  0.00    +0.000 A 
ATOM     23  C   UNL     1      -6.983  51.359  55.534  0.00  0.00    +0.000 A 
ATOM     24  C   UNL     1      -8.249  50.849  55.245  0.00  0.00    +0.000 A 
ATOM     25  H   UNL     1      -7.418  54.788  50.843  0.00  0.00    +0.000 HD
ATOM     26  H   UNL     1     -10.458  52.955  52.717  0.00  0.00    +0.000 HD
ENDBRANCH   1  18
BRANCH   3  27
ATOM     27  O   UNL     1      -8.789  53.012  49.068  0.00  0.00    +0.000 OA
ATOM     28  H   UNL     1      -8.674  52.241  49.588  0.00  0.00    +0.000 HD
ENDBRANCH   3  27
BRANCH   5  29
ATOM     29  C   UNL     1     -12.810  56.943  50.048  0.00  0.00    +0.000 C 
BRANCH  29  30
ATOM     30  C   UNL     1     -14.195  56.394  50.437  0.00  0.00    +0.000 C 
BRANCH  30  31
ATOM     31  C   UNL     1     -15.025  57.372  51.219  0.00  0.00    +0.000 C 
ATOM     32  C   UNL     1     -14.566  58.006  52.507  0.00  0.00    +0.000 C 
ATOM     33  C   UNL     1     -15.608  56.923  52.535  0.00  0.00    +0.000 C 
ENDBRANCH  30  31
ENDBRANCH  29  30
ENDBRANCH   5  29
TORSDOF 5
ENDMDL
MODEL 6
REMARK VINA RESULT:      -8.0      3.257      4.335
REMARK  Name = 338168
REMARK  5 active torsions:
REMARK  status: ('A' for Active; 'I' for Inactive)
REMARK    1  A    between atoms: C_6  and  C_10
REMARK    2  A    between atoms: C_14  and  O_18
REMARK    3  A    between atoms: N_17  and  C_21
REMARK    4  A    between atoms: C_21  and  C_24
REMARK    5  A    between atoms: C_24  and  C_27
REMARK                            x       y       z     vdW  Elec       q    Type
REMARK                         _______ _______ _______ _____ _____    ______ ____
ROOT
ATOM      1  C   UNL     1     -12.139  54.370  50.296  0.00  0.00    +0.000 A 
ATOM      2  C   UNL     1     -11.943  53.869  48.909  0.00  0.00    +0.000 A 
ATOM      3  C   UNL     1     -11.633  53.686  51.337  0.00  0.00    +0.000 A 
ATOM      4  O   UNL     1     -12.567  54.436  48.010  0.00  0.00    +0.000 OA
ATOM      5  N   UNL     1     -11.047  52.822  48.689  0.00  0.00    +0.000 N 
ATOM      6  C   UNL     1     -10.832  52.479  51.116  0.00  0.00    +0.000 A 
ATOM      7  C   UNL     1     -10.525  52.068  49.802  0.00  0.00    +0.000 A 
ATOM      8  C   UNL     1     -10.332  51.761  52.218  0.00  0.00    +0.000 A 
ATOM      9  C   UNL     1      -9.712  50.930  49.639  0.00  0.00    +0.000 A 
ATOM     10  C   UNL     1      -9.512  50.662  52.024  0.00  0.00    +0.000 A 
ATOM     11  C   UNL     1      -9.196  50.242  50.745  0.00  0.00    +0.000 A 
ATOM     12  F   UNL     1      -9.016  50.008  53.081  0.00  0.00    +0.000 F 
ENDROOT
BRANCH   1  18
ATOM     13  S   UNL     1     -14.437  56.918  52.321  0.00  0.00    +0.000 S 
ATOM     14  O   UNL     1     -13.510  57.280  53.368  0.00  0.00    +0.000 OA
ATOM     15  O   UNL     1     -15.837  56.674  52.590  0.00  0.00    +0.000 OA
ATOM     16  N   UNL     1     -13.857  55.571  51.561  0.00  0.00    +0.000 N 
ATOM     17  C   UNL     1     -14.324  58.111  51.062  0.00  0.00    +0.000 A 
ATOM     18  C   UNL     1     -12.889  55.631  50.561  0.00  0.00    +0.000 C 
ATOM     19  C   UNL     1     -13.455  57.850  50.005  0.00  0.00    +0.000 A 
ATOM     20  C   UNL     1     -15.110  59.265  51.115  0.00  0.00    +0.000 A 
ATOM     21  N   UNL     1     -12.648  56.709  49.883  0.00  0.00    +0.000 N 
ATOM     22  C   UNL     1     -13.399  58.786  48.966  0.00  0.00    +0.000 A 
ATOM     23  C   UNL     1     -15.029  60.190  50.078  0.00  0.00    +0.000 A 
ATOM     24  C   UNL     1     -14.178  59.945  48.999  0.00  0.00    +0.000 A 
ATOM     25  H   UNL     1     -14.209  54.691  51.824  0.00  0.00    +0.000 HD
ATOM     26  H   UNL     1     -11.880  56.729  49.267  0.00  0.00    +0.000 HD
ENDBRANCH   1  18
BRANCH   3  27
ATOM     27  O   UNL     1     -11.783  54.051  52.666  0.00  0.00    +0.000 OA
ATOM     28  H   UNL     1     -12.209  54.856  52.886  0.00  0.00    +0.000 HD
ENDBRANCH   3  27
BRANCH   5  29
ATOM     29  C   UNL     1     -10.809  52.363  47.301  0.00  0.00    +0.000 C 
BRANCH  29  30
ATOM     30  C   UNL     1      -9.467  52.769  46.665  0.00  0.00    +0.000 C 
BRANCH  30  31
ATOM     31  C   UNL     1      -9.463  54.173  46.128  0.00  0.00    +0.000 C 
ATOM     32  C   UNL     1      -8.219  54.871  45.641  0.00  0.00    +0.000 C 
ATOM     33  C   UNL     1      -8.824  55.255  46.962  0.00  0.00    +0.000 C 
ENDBRANCH  30  31
ENDBRANCH  29  30
ENDBRANCH   5  29
TORSDOF 5
ENDMDL
MODEL 7
REMARK VINA RESULT:      -7.9      3.595      7.537
REMARK  Name = 338168
REMARK  5 active torsions:
REMARK  status: ('A' for Active; 'I' for Inactive)
REMARK    1  A    between atoms: C_6  and  C_10
REMARK    2  A    between atoms: C_14  and  O_18
REMARK    3  A    between atoms: N_17  and  C_21
REMARK    4  A    between atoms: C_21  and  C_24
REMARK    5  A    between atoms: C_24  and  C_27
REMARK                            x       y       z     vdW  Elec       q    Type
REMARK                         _______ _______ _______ _____ _____    ______ ____
ROOT
ATOM      1  C   UNL     1     -10.010  55.463  50.441  0.00  0.00    +0.000 A 
ATOM      2  C   UNL     1     -10.214  55.717  48.989  0.00  0.00    +0.000 A 
ATOM      3  C   UNL     1     -11.032  55.615  51.301  0.00  0.00    +0.000 A 
ATOM      4  O   UNL     1      -9.211  55.731  48.272  0.00  0.00    +0.000 OA
ATOM      5  N   UNL     1     -11.513  55.888  48.508  0.00  0.00    +0.000 N 
ATOM      6  C   UNL     1     -12.369  55.968  50.813  0.00  0.00    +0.000 A 
ATOM      7  C   UNL     1     -12.607  56.079  49.427  0.00  0.00    +0.000 A 
ATOM      8  C   UNL     1     -13.421  56.148  51.730  0.00  0.00    +0.000 A 
ATOM      9  C   UNL     1     -13.918  56.372  49.004  0.00  0.00    +0.000 A 
ATOM     10  C   UNL     1     -14.705  56.408  51.279  0.00  0.00    +0.000 A 
ATOM     11  C   UNL     1     -14.962  56.519  49.926  0.00  0.00    +0.000 A 
ATOM     12  F   UNL     1     -15.704  56.544  52.160  0.00  0.00    +0.000 F 
ENDROOT
BRANCH   1  18
ATOM     13  S   UNL     1      -7.123  54.962  53.140  0.00  0.00    +0.000 S 
ATOM     14  O   UNL     1      -7.747  53.946  53.956  0.00  0.00    +0.000 OA
ATOM     15  O   UNL     1      -6.386  56.063  53.720  0.00  0.00    +0.000 OA
ATOM     16  N   UNL     1      -8.281  55.625  52.166  0.00  0.00    +0.000 N 
ATOM     17  C   UNL     1      -6.098  54.171  51.981  0.00  0.00    +0.000 A 
ATOM     18  C   UNL     1      -8.683  55.036  50.970  0.00  0.00    +0.000 C 
ATOM     19  C   UNL     1      -6.640  53.888  50.730  0.00  0.00    +0.000 A 
ATOM     20  C   UNL     1      -4.772  53.870  52.306  0.00  0.00    +0.000 A 
ATOM     21  N   UNL     1      -7.955  54.173  50.334  0.00  0.00    +0.000 N 
ATOM     22  C   UNL     1      -5.801  53.295  49.779  0.00  0.00    +0.000 A 
ATOM     23  C   UNL     1      -3.959  53.267  51.350  0.00  0.00    +0.000 A 
ATOM     24  C   UNL     1      -4.472  52.988  50.083  0.00  0.00    +0.000 A 
ATOM     25  H   UNL     1      -8.704  56.470  52.441  0.00  0.00    +0.000 HD
ATOM     26  H   UNL     1      -8.333  53.706  49.554  0.00  0.00    +0.000 HD
ENDBRANCH   1  18
BRANCH   3  27
ATOM     27  O   UNL     1     -10.942  55.432  52.672  0.00  0.00    +0.000 OA
ATOM     28  H   UNL     1     -11.063  56.159  53.251  0.00  0.00    +0.000 HD
ENDBRANCH   3  27
BRANCH   5  29
ATOM     29  C   UNL     1     -11.718  56.082  47.054  0.00  0.00    +0.000 C 
BRANCH  29  30
ATOM     30  C   UNL     1     -12.015  54.816  46.229  0.00  0.00    +0.000 C 
BRANCH  30  31
ATOM     31  C   UNL     1     -10.789  54.214  45.600  0.00  0.00    +0.000 C 
ATOM     32  C   UNL     1     -10.839  53.107  44.579  0.00  0.00    +0.000 C 
ATOM     33  C   UNL     1     -10.405  52.808  45.987  0.00  0.00    +0.000 C 
ENDBRANCH  30  31
ENDBRANCH  29  30
ENDBRANCH   5  29
TORSDOF 5
ENDMDL
MODEL 8
REMARK VINA RESULT:      -7.9      3.733      8.193
REMARK  Name = 338168
REMARK  5 active torsions:
REMARK  status: ('A' for Active; 'I' for Inactive)
REMARK    1  A    between atoms: C_6  and  C_10
REMARK    2  A    between atoms: C_14  and  O_18
REMARK    3  A    between atoms: N_17  and  C_21
REMARK    4  A    between atoms: C_21  and  C_24
REMARK    5  A    between atoms: C_24  and  C_27
REMARK                            x       y       z     vdW  Elec       q    Type
REMARK                         _______ _______ _______ _____ _____    ______ ____
ROOT
ATOM      1  C   UNL     1      -9.129  54.844  50.080  0.00  0.00    +0.000 A 
ATOM      2  C   UNL     1     -10.475  55.405  50.374  0.00  0.00    +0.000 A 
ATOM      3  C   UNL     1      -8.860  54.343  48.862  0.00  0.00    +0.000 A 
ATOM      4  O   UNL     1     -10.723  55.693  51.547  0.00  0.00    +0.000 OA
ATOM      5  N   UNL     1     -11.367  55.609  49.321  0.00  0.00    +0.000 N 
ATOM      6  C   UNL     1      -9.864  54.399  47.795  0.00  0.00    +0.000 A 
ATOM      7  C   UNL     1     -11.095  55.049  48.020  0.00  0.00    +0.000 A 
ATOM      8  C   UNL     1      -9.574  53.846  46.534  0.00  0.00    +0.000 A 
ATOM      9  C   UNL     1     -12.009  55.120  46.951  0.00  0.00    +0.000 A 
ATOM     10  C   UNL     1     -10.483  53.958  45.496  0.00  0.00    +0.000 A 
ATOM     11  C   UNL     1     -11.696  54.592  45.692  0.00  0.00    +0.000 A 
ATOM     12  F   UNL     1     -10.182  53.457  44.291  0.00  0.00    +0.000 F 
ENDROOT
BRANCH   1  18
ATOM     13  S   UNL     1      -7.176  55.987  53.359  0.00  0.00    +0.000 S 
ATOM     14  O   UNL     1      -8.110  55.518  54.356  0.00  0.00    +0.000 OA
ATOM     15  O   UNL     1      -6.512  57.266  53.476  0.00  0.00    +0.000 OA
ATOM     16  N   UNL     1      -7.938  55.978  51.894  0.00  0.00    +0.000 N 
ATOM     17  C   UNL     1      -5.964  54.762  53.134  0.00  0.00    +0.000 A 
ATOM     18  C   UNL     1      -8.056  54.829  51.115  0.00  0.00    +0.000 C 
ATOM     19  C   UNL     1      -6.166  53.838  52.113  0.00  0.00    +0.000 A 
ATOM     20  C   UNL     1      -4.822  54.748  53.939  0.00  0.00    +0.000 A 
ATOM     21  N   UNL     1      -7.280  53.802  51.261  0.00  0.00    +0.000 N 
ATOM     22  C   UNL     1      -5.167  52.880  51.898  0.00  0.00    +0.000 A 
ATOM     23  C   UNL     1      -3.847  53.778  53.718  0.00  0.00    +0.000 A 
ATOM     24  C   UNL     1      -4.018  52.850  52.691  0.00  0.00    +0.000 A 
ATOM     25  H   UNL     1      -8.325  56.818  51.556  0.00  0.00    +0.000 HD
ATOM     26  H   UNL     1      -7.477  52.975  50.763  0.00  0.00    +0.000 HD
ENDBRANCH   1  18
BRANCH   3  27
ATOM     27  O   UNL     1      -7.651  53.773  48.494  0.00  0.00    +0.000 OA
ATOM     28  H   UNL     1      -7.004  53.585  49.146  0.00  0.00    +0.000 HD
ENDBRANCH   3  27
BRANCH   5  29
ATOM     29  C   UNL     1     -12.685  56.222  49.608  0.00  0.00    +0.000 C 
BRANCH  29  30
ATOM     30  C   UNL     1     -12.766  57.756  49.499  0.00  0.00    +0.000 C 
BRANCH  30  31
ATOM     31  C   UNL     1     -14.125  58.305  49.833  0.00  0.00    +0.000 C 
ATOM     32  C   UNL     1     -14.461  59.773  49.787  0.00  0.00    +0.000 C 
ATOM     33  C   UNL     1     -14.285  59.086  51.112  0.00  0.00    +0.000 C 
ENDBRANCH  30  31
ENDBRANCH  29  30
ENDBRANCH   5  29
TORSDOF 5
ENDMDL
MODEL 9
REMARK VINA RESULT:      -7.9      3.886      7.461
REMARK  Name = 338168
REMARK  5 active torsions:
REMARK  status: ('A' for Active; 'I' for Inactive)
REMARK    1  A    between atoms: C_6  and  C_10
REMARK    2  A    between atoms: C_14  and  O_18
REMARK    3  A    between atoms: N_17  and  C_21
REMARK    4  A    between atoms: C_21  and  C_24
REMARK    5  A    between atoms: C_24  and  C_27
REMARK                            x       y       z     vdW  Elec       q    Type
REMARK                         _______ _______ _______ _____ _____    ______ ____
ROOT
ATOM      1  C   UNL     1     -10.444  55.102  50.705  0.00  0.00    +0.000 A 
ATOM      2  C   UNL     1     -10.154  55.154  49.247  0.00  0.00    +0.000 A 
ATOM      3  C   UNL     1     -11.555  55.681  51.193  0.00  0.00    +0.000 A 
ATOM      4  O   UNL     1      -9.046  54.760  48.877  0.00  0.00    +0.000 OA
ATOM      5  N   UNL     1     -11.147  55.605  48.377  0.00  0.00    +0.000 N 
ATOM      6  C   UNL     1     -12.521  56.313  50.290  0.00  0.00    +0.000 A 
ATOM      7  C   UNL     1     -12.327  56.253  48.895  0.00  0.00    +0.000 A 
ATOM      8  C   UNL     1     -13.665  56.938  50.820  0.00  0.00    +0.000 A 
ATOM      9  C   UNL     1     -13.307  56.832  48.066  0.00  0.00    +0.000 A 
ATOM     10  C   UNL     1     -14.624  57.473  49.976  0.00  0.00    +0.000 A 
ATOM     11  C   UNL     1     -14.456  57.424  48.605  0.00  0.00    +0.000 A 
ATOM     12  F   UNL     1     -15.724  58.035  50.492  0.00  0.00    +0.000 F 
ENDROOT
BRANCH   1  18
ATOM     13  S   UNL     1      -8.963  52.079  52.838  0.00  0.00    +0.000 S 
ATOM     14  O   UNL     1      -8.413  51.288  51.761  0.00  0.00    +0.000 OA
ATOM     15  O   UNL     1      -9.668  51.477  53.947  0.00  0.00    +0.000 OA
ATOM     16  N   UNL     1      -9.978  53.206  52.183  0.00  0.00    +0.000 N 
ATOM     17  C   UNL     1      -7.692  53.079  53.479  0.00  0.00    +0.000 A 
ATOM     18  C   UNL     1      -9.521  54.409  51.650  0.00  0.00    +0.000 C 
ATOM     19  C   UNL     1      -7.566  54.366  52.964  0.00  0.00    +0.000 A 
ATOM     20  C   UNL     1      -6.864  52.595  54.495  0.00  0.00    +0.000 A 
ATOM     21  N   UNL     1      -8.368  54.918  51.955  0.00  0.00    +0.000 N 
ATOM     22  C   UNL     1      -6.575  55.189  53.513  0.00  0.00    +0.000 A 
ATOM     23  C   UNL     1      -5.876  53.425  55.018  0.00  0.00    +0.000 A 
ATOM     24  C   UNL     1      -5.738  54.725  54.531  0.00  0.00    +0.000 A 
ATOM     25  H   UNL     1     -10.944  53.021  52.169  0.00  0.00    +0.000 HD
ATOM     26  H   UNL     1      -8.048  55.711  51.466  0.00  0.00    +0.000 HD
ENDBRANCH   1  18
BRANCH   3  27
ATOM     27  O   UNL     1     -11.902  55.714  52.534  0.00  0.00    +0.000 OA
ATOM     28  H   UNL     1     -12.727  56.073  52.797  0.00  0.00    +0.000 HD
ENDBRANCH   3  27
BRANCH   5  29
ATOM     29  C   UNL     1     -10.878  55.602  46.920  0.00  0.00    +0.000 C 
BRANCH  29  30
ATOM     30  C   UNL     1     -11.643  54.559  46.084  0.00  0.00    +0.000 C 
BRANCH  30  31
ATOM     31  C   UNL     1     -10.787  53.406  45.642  0.00  0.00    +0.000 C 
ATOM     32  C   UNL     1     -10.670  52.961  44.207  0.00  0.00    +0.000 C 
ATOM     33  C   UNL     1     -11.471  52.144  45.181  0.00  0.00    +0.000 C 
ENDBRANCH  30  31
ENDBRANCH  29  30
ENDBRANCH   5  29
TORSDOF 5
ENDMDL
