MODEL 1
REMARK VINA RESULT:      -8.0      0.000      0.000
REMARK  Name = 338167
REMARK  11 active torsions:
REMARK  status: ('A' for Active; 'I' for Inactive)
REMARK    1  A    between atoms: C_6  and  C_10
REMARK    2  A    between atoms: C_14  and  O_18
REMARK    3  A    between atoms: N_17  and  C_21
REMARK    4  A    between atoms: C_21  and  C_24
REMARK    5  A    between atoms: C_24  and  C_27
REMARK    6  A    between atoms: C_25  and  C_28
REMARK    7  A    between atoms: C_27  and  C_29
REMARK    8  A    between atoms: C_27  and  C_30
REMARK    9  A    between atoms: C_28  and  O_32
REMARK   10  A    between atoms: O_32  and  C_33
REMARK   11  A    between atoms: C_33  and  C_34
REMARK                            x       y       z     vdW  Elec       q    Type
REMARK                         _______ _______ _______ _____ _____    ______ ____
ROOT
ATOM      1  C   UNL     1      -9.693  54.306  51.212  0.00  0.00    +0.000 A 
ATOM      2  C   UNL     1      -9.393  53.981  49.784  0.00  0.00    +0.000 A 
ATOM      3  C   UNL     1     -10.764  55.055  51.521  0.00  0.00    +0.000 A 
ATOM      4  O   UNL     1      -8.466  53.200  49.548  0.00  0.00    +0.000 OA
ATOM      5  N   UNL     1     -10.183  54.543  48.787  0.00  0.00    +0.000 N 
ATOM      6  C   UNL     1     -11.647  55.561  50.461  0.00  0.00    +0.000 A 
ATOM      7  C   UNL     1     -11.366  55.273  49.115  0.00  0.00    +0.000 A 
ATOM      8  C   UNL     1     -12.790  56.309  50.790  0.00  0.00    +0.000 A 
ATOM      9  C   UNL     1     -12.278  55.690  48.134  0.00  0.00    +0.000 A 
ATOM     10  C   UNL     1     -13.664  56.758  49.799  0.00  0.00    +0.000 A 
ATOM     11  C   UNL     1     -13.405  56.442  48.466  0.00  0.00    +0.000 A 
ENDROOT
BRANCH   1  17
ATOM     12  S   UNL     1      -6.505  53.408  53.328  0.00  0.00    +0.000 S 
ATOM     13  O   UNL     1      -6.106  54.470  54.228  0.00  0.00    +0.000 OA
ATOM     14  O   UNL     1      -5.507  52.661  52.585  0.00  0.00    +0.000 OA
ATOM     15  N   UNL     1      -7.555  54.028  52.264  0.00  0.00    +0.000 N 
ATOM     16  C   UNL     1      -7.354  52.227  54.314  0.00  0.00    +0.000 A 
ATOM     17  C   UNL     1      -8.819  53.719  52.304  0.00  0.00    +0.000 C 
ATOM     18  C   UNL     1      -8.723  52.105  54.142  0.00  0.00    +0.000 A 
ATOM     19  C   UNL     1      -6.647  51.438  55.224  0.00  0.00    +0.000 A 
ATOM     20  N   UNL     1      -9.417  52.903  53.236  0.00  0.00    +0.000 N 
ATOM     21  C   UNL     1      -9.413  51.207  54.961  0.00  0.00    +0.000 A 
ATOM     22  C   UNL     1      -7.343  50.521  56.008  0.00  0.00    +0.000 A 
ATOM     23  C   UNL     1      -8.727  50.412  55.883  0.00  0.00    +0.000 A 
ATOM     24  H   UNL     1      -7.232  54.650  51.574  0.00  0.00    +0.000 HD
ATOM     25  H   UNL     1     -10.401  52.882  53.266  0.00  0.00    +0.000 HD
ENDBRANCH   1  17
BRANCH   3  26
ATOM     26  O   UNL     1     -11.160  55.368  52.809  0.00  0.00    +0.000 OA
ATOM     27  H   UNL     1     -10.582  55.204  53.529  0.00  0.00    +0.000 HD
ENDBRANCH   3  26
BRANCH  10  28
ATOM     28  C   UNL     1     -14.897  57.468  50.222  0.00  0.00    +0.000 C 
ATOM     29  O   UNL     1     -15.824  56.927  50.797  0.00  0.00    +0.000 OA
BRANCH  28  30
ATOM     30  O   UNL     1     -14.874  58.740  49.754  0.00  0.00    +0.000 OA
BRANCH  30  31
ATOM     31  C   UNL     1     -14.246  59.688  50.624  0.00  0.00    +0.000 C 
ATOM     32  C   UNL     1     -13.203  60.436  49.812  0.00  0.00    +0.000 C 
ENDBRANCH  30  31
ENDBRANCH  28  30
ENDBRANCH  10  28
BRANCH   5  33
ATOM     33  C   UNL     1      -9.829  54.255  47.390  0.00  0.00    +0.000 C 
BRANCH  33  34
ATOM     34  C   UNL     1      -8.900  55.271  46.703  0.00  0.00    +0.000 C 
BRANCH  34  35
ATOM     35  C   UNL     1      -7.817  54.702  45.773  0.00  0.00    +0.000 C 
ATOM     36  C   UNL     1      -6.703  53.995  46.541  0.00  0.00    +0.000 C 
ATOM     37  C   UNL     1      -8.478  53.720  44.795  0.00  0.00    +0.000 C 
ENDBRANCH  34  35
ENDBRANCH  33  34
ENDBRANCH   5  33
TORSDOF 8
ENDMDL
MODEL 2
REMARK VINA RESULT:      -8.0      3.556      7.665
REMARK  Name = 338167
REMARK  11 active torsions:
REMARK  status: ('A' for Active; 'I' for Inactive)
REMARK    1  A    between atoms: C_6  and  C_10
REMARK    2  A    between atoms: C_14  and  O_18
REMARK    3  A    between atoms: N_17  and  C_21
REMARK    4  A    between atoms: C_21  and  C_24
REMARK    5  A    between atoms: C_24  and  C_27
REMARK    6  A    between atoms: C_25  and  C_28
REMARK    7  A    between atoms: C_27  and  C_29
REMARK    8  A    between atoms: C_27  and  C_30
REMARK    9  A    between atoms: C_28  and  O_32
REMARK   10  A    between atoms: O_32  and  C_33
REMARK   11  A    between atoms: C_33  and  C_34
REMARK                            x       y       z     vdW  Elec       q    Type
REMARK                         _______ _______ _______ _____ _____    ______ ____
ROOT
ATOM      1  C   UNL     1     -11.140  56.026  49.028  0.00  0.00    +0.000 A 
ATOM      2  C   UNL     1     -10.119  55.479  49.973  0.00  0.00    +0.000 A 
ATOM      3  C   UNL     1     -11.129  55.656  47.738  0.00  0.00    +0.000 A 
ATOM      4  O   UNL     1     -10.227  55.757  51.171  0.00  0.00    +0.000 OA
ATOM      5  N   UNL     1      -9.111  54.661  49.474  0.00  0.00    +0.000 N 
ATOM      6  C   UNL     1     -10.116  54.713  47.244  0.00  0.00    +0.000 A 
ATOM      7  C   UNL     1      -9.143  54.203  48.121  0.00  0.00    +0.000 A 
ATOM      8  C   UNL     1     -10.133  54.294  45.903  0.00  0.00    +0.000 A 
ATOM      9  C   UNL     1      -8.249  53.234  47.643  0.00  0.00    +0.000 A 
ATOM     10  C   UNL     1      -9.207  53.364  45.429  0.00  0.00    +0.000 A 
ATOM     11  C   UNL     1      -8.265  52.831  46.307  0.00  0.00    +0.000 A 
ENDROOT
BRANCH   1  17
ATOM     12  S   UNL     1     -13.487  59.153  49.428  0.00  0.00    +0.000 S 
ATOM     13  O   UNL     1     -14.597  59.150  48.500  0.00  0.00    +0.000 OA
ATOM     14  O   UNL     1     -12.770  60.384  49.712  0.00  0.00    +0.000 OA
ATOM     15  N   UNL     1     -12.409  58.059  48.919  0.00  0.00    +0.000 N 
ATOM     16  C   UNL     1     -14.136  58.610  50.968  0.00  0.00    +0.000 A 
ATOM     17  C   UNL     1     -12.225  56.941  49.561  0.00  0.00    +0.000 C 
ATOM     18  C   UNL     1     -13.763  57.355  51.421  0.00  0.00    +0.000 A 
ATOM     19  C   UNL     1     -14.988  59.440  51.700  0.00  0.00    +0.000 A 
ATOM     20  N   UNL     1     -12.918  56.534  50.678  0.00  0.00    +0.000 N 
ATOM     21  C   UNL     1     -14.318  56.893  52.617  0.00  0.00    +0.000 A 
ATOM     22  C   UNL     1     -15.505  58.980  52.909  0.00  0.00    +0.000 A 
ATOM     23  C   UNL     1     -15.177  57.704  53.363  0.00  0.00    +0.000 A 
ATOM     24  H   UNL     1     -11.883  58.241  48.107  0.00  0.00    +0.000 HD
ATOM     25  H   UNL     1     -12.810  55.601  50.971  0.00  0.00    +0.000 HD
ENDBRANCH   1  17
BRANCH   3  26
ATOM     26  O   UNL     1     -12.057  56.060  46.796  0.00  0.00    +0.000 OA
ATOM     27  H   UNL     1     -11.769  56.418  45.979  0.00  0.00    +0.000 HD
ENDBRANCH   3  26
BRANCH  10  28
ATOM     28  C   UNL     1      -9.335  52.901  44.025  0.00  0.00    +0.000 C 
ATOM     29  O   UNL     1      -8.488  53.092  43.170  0.00  0.00    +0.000 OA
BRANCH  28  30
ATOM     30  O   UNL     1     -10.567  52.370  43.830  0.00  0.00    +0.000 OA
BRANCH  30  31
ATOM     31  C   UNL     1     -10.655  50.960  44.057  0.00  0.00    +0.000 C 
ATOM     32  C   UNL     1     -11.788  50.723  45.040  0.00  0.00    +0.000 C 
ENDBRANCH  30  31
ENDBRANCH  28  30
ENDBRANCH  10  28
BRANCH   5  33
ATOM     33  C   UNL     1      -8.086  54.186  50.413  0.00  0.00    +0.000 C 
BRANCH  33  34
ATOM     34  C   UNL     1      -6.853  55.090  50.585  0.00  0.00    +0.000 C 
BRANCH  34  35
ATOM     35  C   UNL     1      -5.477  54.411  50.494  0.00  0.00    +0.000 C 
ATOM     36  C   UNL     1      -5.543  52.918  50.807  0.00  0.00    +0.000 C 
ATOM     37  C   UNL     1      -4.920  54.621  49.079  0.00  0.00    +0.000 C 
ENDBRANCH  34  35
ENDBRANCH  33  34
ENDBRANCH   5  33
TORSDOF 8
ENDMDL
MODEL 3
REMARK VINA RESULT:      -7.8      2.845      6.421
REMARK  Name = 338167
REMARK  11 active torsions:
REMARK  status: ('A' for Active; 'I' for Inactive)
REMARK    1  A    between atoms: C_6  and  C_10
REMARK    2  A    between atoms: C_14  and  O_18
REMARK    3  A    between atoms: N_17  and  C_21
REMARK    4  A    between atoms: C_21  and  C_24
REMARK    5  A    between atoms: C_24  and  C_27
REMARK    6  A    between atoms: C_25  and  C_28
REMARK    7  A    between atoms: C_27  and  C_29
REMARK    8  A    between atoms: C_27  and  C_30
REMARK    9  A    between atoms: C_28  and  O_32
REMARK   10  A    between atoms: O_32  and  C_33
REMARK   11  A    between atoms: C_33  and  C_34
REMARK                            x       y       z     vdW  Elec       q    Type
REMARK                         _______ _______ _______ _____ _____    ______ ____
ROOT
ATOM      1  C   UNL     1     -10.577  54.269  48.742  0.00  0.00    +0.000 A 
ATOM      2  C   UNL     1     -10.097  53.796  50.076  0.00  0.00    +0.000 A 
ATOM      3  C   UNL     1     -11.556  55.184  48.665  0.00  0.00    +0.000 A 
ATOM      4  O   UNL     1      -9.123  53.038  50.108  0.00  0.00    +0.000 OA
ATOM      5  N   UNL     1     -10.744  54.247  51.222  0.00  0.00    +0.000 N 
ATOM      6  C   UNL     1     -12.164  55.726  49.889  0.00  0.00    +0.000 A 
ATOM      7  C   UNL     1     -11.730  55.278  51.148  0.00  0.00    +0.000 A 
ATOM      8  C   UNL     1     -13.159  56.715  49.806  0.00  0.00    +0.000 A 
ATOM      9  C   UNL     1     -12.262  55.882  52.296  0.00  0.00    +0.000 A 
ATOM     10  C   UNL     1     -13.714  57.274  50.958  0.00  0.00    +0.000 A 
ATOM     11  C   UNL     1     -13.258  56.855  52.207  0.00  0.00    +0.000 A 
ENDROOT
BRANCH   1  17
ATOM     12  S   UNL     1      -7.845  53.716  45.971  0.00  0.00    +0.000 S 
ATOM     13  O   UNL     1      -6.849  52.736  46.347  0.00  0.00    +0.000 OA
ATOM     14  O   UNL     1      -7.455  54.936  45.290  0.00  0.00    +0.000 OA
ATOM     15  N   UNL     1      -8.661  54.132  47.305  0.00  0.00    +0.000 N 
ATOM     16  C   UNL     1      -8.953  52.892  44.884  0.00  0.00    +0.000 A 
ATOM     17  C   UNL     1      -9.895  53.759  47.487  0.00  0.00    +0.000 C 
ATOM     18  C   UNL     1     -10.230  52.619  45.347  0.00  0.00    +0.000 A 
ATOM     19  C   UNL     1      -8.542  52.548  43.595  0.00  0.00    +0.000 A 
ATOM     20  N   UNL     1     -10.626  52.962  46.637  0.00  0.00    +0.000 N 
ATOM     21  C   UNL     1     -11.100  51.915  44.509  0.00  0.00    +0.000 A 
ATOM     22  C   UNL     1      -9.431  51.879  42.757  0.00  0.00    +0.000 A 
ATOM     23  C   UNL     1     -10.707  51.555  43.218  0.00  0.00    +0.000 A 
ATOM     24  H   UNL     1      -8.215  54.677  47.993  0.00  0.00    +0.000 HD
ATOM     25  H   UNL     1     -11.486  52.608  46.963  0.00  0.00    +0.000 HD
ENDBRANCH   1  17
BRANCH   3  26
ATOM     26  O   UNL     1     -12.035  55.727  47.487  0.00  0.00    +0.000 OA
ATOM     27  H   UNL     1     -12.055  56.658  47.374  0.00  0.00    +0.000 HD
ENDBRANCH   3  26
BRANCH  10  28
ATOM     28  C   UNL     1     -14.698  58.373  50.800  0.00  0.00    +0.000 C 
ATOM     29  O   UNL     1     -15.515  58.677  51.652  0.00  0.00    +0.000 OA
BRANCH  28  30
ATOM     30  O   UNL     1     -14.626  58.872  49.542  0.00  0.00    +0.000 OA
BRANCH  30  31
ATOM     31  C   UNL     1     -14.493  60.295  49.467  0.00  0.00    +0.000 C 
ATOM     32  C   UNL     1     -13.025  60.630  49.661  0.00  0.00    +0.000 C 
ENDBRANCH  30  31
ENDBRANCH  28  30
ENDBRANCH  10  28
BRANCH   5  33
ATOM     33  C   UNL     1     -10.291  53.719  52.516  0.00  0.00    +0.000 C 
BRANCH  33  34
ATOM     34  C   UNL     1      -9.444  54.671  53.378  0.00  0.00    +0.000 C 
BRANCH  34  35
ATOM     35  C   UNL     1      -7.962  54.820  52.995  0.00  0.00    +0.000 C 
ATOM     36  C   UNL     1      -7.736  55.918  51.959  0.00  0.00    +0.000 C 
ATOM     37  C   UNL     1      -7.158  55.129  54.264  0.00  0.00    +0.000 C 
ENDBRANCH  34  35
ENDBRANCH  33  34
ENDBRANCH   5  33
TORSDOF 8
ENDMDL
MODEL 4
REMARK VINA RESULT:      -7.8      1.856      2.630
REMARK  Name = 338167
REMARK  11 active torsions:
REMARK  status: ('A' for Active; 'I' for Inactive)
REMARK    1  A    between atoms: C_6  and  C_10
REMARK    2  A    between atoms: C_14  and  O_18
REMARK    3  A    between atoms: N_17  and  C_21
REMARK    4  A    between atoms: C_21  and  C_24
REMARK    5  A    between atoms: C_24  and  C_27
REMARK    6  A    between atoms: C_25  and  C_28
REMARK    7  A    between atoms: C_27  and  C_29
REMARK    8  A    between atoms: C_27  and  C_30
REMARK    9  A    between atoms: C_28  and  O_32
REMARK   10  A    between atoms: O_32  and  C_33
REMARK   11  A    between atoms: C_33  and  C_34
REMARK                            x       y       z     vdW  Elec       q    Type
REMARK                         _______ _______ _______ _____ _____    ______ ____
ROOT
ATOM      1  C   UNL     1      -9.562  54.485  50.293  0.00  0.00    +0.000 A 
ATOM      2  C   UNL     1      -9.443  54.512  48.804  0.00  0.00    +0.000 A 
ATOM      3  C   UNL     1     -10.621  55.051  50.894  0.00  0.00    +0.000 A 
ATOM      4  O   UNL     1      -8.514  53.886  48.283  0.00  0.00    +0.000 OA
ATOM      5  N   UNL     1     -10.392  55.211  48.066  0.00  0.00    +0.000 N 
ATOM      6  C   UNL     1     -11.668  55.702  50.094  0.00  0.00    +0.000 A 
ATOM      7  C   UNL     1     -11.559  55.745  48.694  0.00  0.00    +0.000 A 
ATOM      8  C   UNL     1     -12.796  56.257  50.722  0.00  0.00    +0.000 A 
ATOM      9  C   UNL     1     -12.618  56.289  47.954  0.00  0.00    +0.000 A 
ATOM     10  C   UNL     1     -13.821  56.838  49.975  0.00  0.00    +0.000 A 
ATOM     11  C   UNL     1     -13.730  56.849  48.584  0.00  0.00    +0.000 A 
ENDROOT
BRANCH   1  17
ATOM     12  S   UNL     1      -7.942  51.991  52.863  0.00  0.00    +0.000 S 
ATOM     13  O   UNL     1      -7.804  50.649  52.339  0.00  0.00    +0.000 OA
ATOM     14  O   UNL     1      -8.377  52.204  54.231  0.00  0.00    +0.000 OA
ATOM     15  N   UNL     1      -8.949  52.803  51.890  0.00  0.00    +0.000 N 
ATOM     16  C   UNL     1      -6.351  52.726  52.744  0.00  0.00    +0.000 A 
ATOM     17  C   UNL     1      -8.515  53.748  51.106  0.00  0.00    +0.000 C 
ATOM     18  C   UNL     1      -6.170  53.730  51.807  0.00  0.00    +0.000 A 
ATOM     19  C   UNL     1      -5.321  52.306  53.590  0.00  0.00    +0.000 A 
ATOM     20  N   UNL     1      -7.203  54.135  50.966  0.00  0.00    +0.000 N 
ATOM     21  C   UNL     1      -4.893  54.282  51.669  0.00  0.00    +0.000 A 
ATOM     22  C   UNL     1      -4.063  52.891  53.465  0.00  0.00    +0.000 A 
ATOM     23  C   UNL     1      -3.847  53.872  52.499  0.00  0.00    +0.000 A 
ATOM     24  H   UNL     1      -9.906  52.578  51.891  0.00  0.00    +0.000 HD
ATOM     25  H   UNL     1      -6.978  54.739  50.221  0.00  0.00    +0.000 HD
ENDBRANCH   1  17
BRANCH   3  26
ATOM     26  O   UNL     1     -10.854  55.035  52.257  0.00  0.00    +0.000 OA
ATOM     27  H   UNL     1     -10.163  55.253  52.852  0.00  0.00    +0.000 HD
ENDBRANCH   3  26
BRANCH  10  28
ATOM     28  C   UNL     1     -15.022  57.328  50.696  0.00  0.00    +0.000 C 
ATOM     29  O   UNL     1     -15.758  56.609  51.349  0.00  0.00    +0.000 OA
BRANCH  28  30
ATOM     30  O   UNL     1     -15.230  58.634  50.402  0.00  0.00    +0.000 OA
BRANCH  30  31
ATOM     31  C   UNL     1     -14.293  59.539  50.996  0.00  0.00    +0.000 C 
ATOM     32  C   UNL     1     -13.648  60.334  49.874  0.00  0.00    +0.000 C 
ENDBRANCH  30  31
ENDBRANCH  28  30
ENDBRANCH  10  28
BRANCH   5  33
ATOM     33  C   UNL     1     -10.217  55.272  46.609  0.00  0.00    +0.000 C 
BRANCH  33  34
ATOM     34  C   UNL     1     -10.853  54.128  45.801  0.00  0.00    +0.000 C 
BRANCH  34  35
ATOM     35  C   UNL     1      -9.890  53.161  45.091  0.00  0.00    +0.000 C 
ATOM     36  C   UNL     1     -10.465  52.624  43.783  0.00  0.00    +0.000 C 
ATOM     37  C   UNL     1      -8.572  53.898  44.816  0.00  0.00    +0.000 C 
ENDBRANCH  34  35
ENDBRANCH  33  34
ENDBRANCH   5  33
TORSDOF 8
ENDMDL
MODEL 5
REMARK VINA RESULT:      -7.8      3.593      7.705
REMARK  Name = 338167
REMARK  11 active torsions:
REMARK  status: ('A' for Active; 'I' for Inactive)
REMARK    1  A    between atoms: C_6  and  C_10
REMARK    2  A    between atoms: C_14  and  O_18
REMARK    3  A    between atoms: N_17  and  C_21
REMARK    4  A    between atoms: C_21  and  C_24
REMARK    5  A    between atoms: C_24  and  C_27
REMARK    6  A    between atoms: C_25  and  C_28
REMARK    7  A    between atoms: C_27  and  C_29
REMARK    8  A    between atoms: C_27  and  C_30
REMARK    9  A    between atoms: C_28  and  O_32
REMARK   10  A    between atoms: O_32  and  C_33
REMARK   11  A    between atoms: C_33  and  C_34
REMARK                            x       y       z     vdW  Elec       q    Type
REMARK                         _______ _______ _______ _____ _____    ______ ____
ROOT
ATOM      1  C   UNL     1     -11.349  56.228  48.563  0.00  0.00    +0.000 A 
ATOM      2  C   UNL     1     -11.691  55.607  47.247  0.00  0.00    +0.000 A 
ATOM      3  C   UNL     1     -10.123  56.067  49.084  0.00  0.00    +0.000 A 
ATOM      4  O   UNL     1     -12.790  55.868  46.748  0.00  0.00    +0.000 OA
ATOM      5  N   UNL     1     -10.753  54.788  46.626  0.00  0.00    +0.000 N 
ATOM      6  C   UNL     1      -9.109  55.280  48.369  0.00  0.00    +0.000 A 
ATOM      7  C   UNL     1      -9.424  54.680  47.138  0.00  0.00    +0.000 A 
ATOM      8  C   UNL     1      -7.814  55.149  48.897  0.00  0.00    +0.000 A 
ATOM      9  C   UNL     1      -8.409  54.015  46.436  0.00  0.00    +0.000 A 
ATOM     10  C   UNL     1      -6.825  54.443  48.209  0.00  0.00    +0.000 A 
ATOM     11  C   UNL     1      -7.128  53.878  46.971  0.00  0.00    +0.000 A 
ENDROOT
BRANCH   1  17
ATOM     12  S   UNL     1     -13.594  59.333  49.440  0.00  0.00    +0.000 S 
ATOM     13  O   UNL     1     -14.762  59.445  48.592  0.00  0.00    +0.000 OA
ATOM     14  O   UNL     1     -12.833  60.515  49.802  0.00  0.00    +0.000 OA
ATOM     15  N   UNL     1     -12.577  58.281  48.749  0.00  0.00    +0.000 N 
ATOM     16  C   UNL     1     -14.156  58.641  50.954  0.00  0.00    +0.000 A 
ATOM     17  C   UNL     1     -12.377  57.100  49.258  0.00  0.00    +0.000 C 
ATOM     18  C   UNL     1     -13.783  57.340  51.249  0.00  0.00    +0.000 A 
ATOM     19  C   UNL     1     -14.940  59.403  51.824  0.00  0.00    +0.000 A 
ATOM     20  N   UNL     1     -13.006  56.588  50.370  0.00  0.00    +0.000 N 
ATOM     21  C   UNL     1     -14.270  56.763  52.425  0.00  0.00    +0.000 A 
ATOM     22  C   UNL     1     -15.389  58.827  53.010  0.00  0.00    +0.000 A 
ATOM     23  C   UNL     1     -15.062  57.504  53.306  0.00  0.00    +0.000 A 
ATOM     24  H   UNL     1     -12.100  58.539  47.928  0.00  0.00    +0.000 HD
ATOM     25  H   UNL     1     -12.901  55.627  50.557  0.00  0.00    +0.000 HD
ENDBRANCH   1  17
BRANCH   3  26
ATOM     26  O   UNL     1      -9.689  56.642  50.265  0.00  0.00    +0.000 OA
ATOM     27  H   UNL     1     -10.222  57.279  50.699  0.00  0.00    +0.000 HD
ENDBRANCH   3  26
BRANCH  10  28
ATOM     28  C   UNL     1      -5.457  54.416  48.782  0.00  0.00    +0.000 C 
ATOM     29  O   UNL     1      -4.516  53.846  48.257  0.00  0.00    +0.000 OA
BRANCH  28  30
ATOM     30  O   UNL     1      -5.463  54.993  50.007  0.00  0.00    +0.000 OA
BRANCH  30  31
ATOM     31  C   UNL     1      -4.813  54.233  51.031  0.00  0.00    +0.000 C 
ATOM     32  C   UNL     1      -5.847  53.303  51.640  0.00  0.00    +0.000 C 
ENDBRANCH  30  31
ENDBRANCH  28  30
ENDBRANCH  10  28
BRANCH   5  33
ATOM     33  C   UNL     1     -11.137  54.142  45.364  0.00  0.00    +0.000 C 
BRANCH  33  34
ATOM     34  C   UNL     1     -12.032  52.896  45.485  0.00  0.00    +0.000 C 
BRANCH  34  35
ATOM     35  C   UNL     1     -11.524  51.763  46.392  0.00  0.00    +0.000 C 
ATOM     36  C   UNL     1     -12.200  51.765  47.760  0.00  0.00    +0.000 C 
ATOM     37  C   UNL     1     -11.778  50.422  45.689  0.00  0.00    +0.000 C 
ENDBRANCH  34  35
ENDBRANCH  33  34
ENDBRANCH   5  33
TORSDOF 8
ENDMDL
MODEL 6
REMARK VINA RESULT:      -7.7      3.573      7.956
REMARK  Name = 338167
REMARK  11 active torsions:
REMARK  status: ('A' for Active; 'I' for Inactive)
REMARK    1  A    between atoms: C_6  and  C_10
REMARK    2  A    between atoms: C_14  and  O_18
REMARK    3  A    between atoms: N_17  and  C_21
REMARK    4  A    between atoms: C_21  and  C_24
REMARK    5  A    between atoms: C_24  and  C_27
REMARK    6  A    between atoms: C_25  and  C_28
REMARK    7  A    between atoms: C_27  and  C_29
REMARK    8  A    between atoms: C_27  and  C_30
REMARK    9  A    between atoms: C_28  and  O_32
REMARK   10  A    between atoms: O_32  and  C_33
REMARK   11  A    between atoms: C_33  and  C_34
REMARK                            x       y       z     vdW  Elec       q    Type
REMARK                         _______ _______ _______ _____ _____    ______ ____
ROOT
ATOM      1  C   UNL     1     -10.717  55.658  49.001  0.00  0.00    +0.000 A 
ATOM      2  C   UNL     1      -9.495  55.218  49.742  0.00  0.00    +0.000 A 
ATOM      3  C   UNL     1     -10.875  55.328  47.709  0.00  0.00    +0.000 A 
ATOM      4  O   UNL     1      -9.437  55.446  50.955  0.00  0.00    +0.000 OA
ATOM      5  N   UNL     1      -8.492  54.550  49.049  0.00  0.00    +0.000 N 
ATOM      6  C   UNL     1      -9.851  54.536  47.015  0.00  0.00    +0.000 A 
ATOM      7  C   UNL     1      -8.692  54.129  47.698  0.00  0.00    +0.000 A 
ATOM      8  C   UNL     1     -10.039  54.156  45.675  0.00  0.00    +0.000 A 
ATOM      9  C   UNL     1      -7.779  53.295  47.036  0.00  0.00    +0.000 A 
ATOM     10  C   UNL     1      -9.098  53.365  45.014  0.00  0.00    +0.000 A 
ATOM     11  C   UNL     1      -7.966  52.931  45.703  0.00  0.00    +0.000 A 
ENDROOT
BRANCH   1  17
ATOM     12  S   UNL     1     -13.597  56.450  51.556  0.00  0.00    +0.000 S 
ATOM     13  O   UNL     1     -13.106  56.796  52.873  0.00  0.00    +0.000 OA
ATOM     14  O   UNL     1     -14.757  55.590  51.407  0.00  0.00    +0.000 OA
ATOM     15  N   UNL     1     -12.376  55.783  50.729  0.00  0.00    +0.000 N 
ATOM     16  C   UNL     1     -14.021  57.968  50.779  0.00  0.00    +0.000 A 
ATOM     17  C   UNL     1     -11.802  56.412  49.745  0.00  0.00    +0.000 C 
ATOM     18  C   UNL     1     -13.223  58.406  49.735  0.00  0.00    +0.000 A 
ATOM     19  C   UNL     1     -15.141  58.684  51.208  0.00  0.00    +0.000 A 
ATOM     20  N   UNL     1     -12.105  57.685  49.321  0.00  0.00    +0.000 N 
ATOM     21  C   UNL     1     -13.521  59.639  49.148  0.00  0.00    +0.000 A 
ATOM     22  C   UNL     1     -15.447  59.894  50.589  0.00  0.00    +0.000 A 
ATOM     23  C   UNL     1     -14.632  60.375  49.566  0.00  0.00    +0.000 A 
ATOM     24  H   UNL     1     -12.060  54.884  50.976  0.00  0.00    +0.000 HD
ATOM     25  H   UNL     1     -11.491  58.117  48.684  0.00  0.00    +0.000 HD
ENDBRANCH   1  17
BRANCH   3  26
ATOM     26  O   UNL     1     -11.988  55.637  46.949  0.00  0.00    +0.000 OA
ATOM     27  H   UNL     1     -11.927  56.282  46.271  0.00  0.00    +0.000 HD
ENDBRANCH   3  26
BRANCH  10  28
ATOM     28  C   UNL     1      -9.399  52.929  43.628  0.00  0.00    +0.000 C 
ATOM     29  O   UNL     1     -10.513  52.618  43.245  0.00  0.00    +0.000 OA
BRANCH  28  30
ATOM     30  O   UNL     1      -8.246  52.808  42.926  0.00  0.00    +0.000 OA
BRANCH  30  31
ATOM     31  C   UNL     1      -8.141  51.614  42.145  0.00  0.00    +0.000 C 
ATOM     32  C   UNL     1      -7.787  50.478  43.089  0.00  0.00    +0.000 C 
ENDBRANCH  30  31
ENDBRANCH  28  30
ENDBRANCH  10  28
BRANCH   5  33
ATOM     33  C   UNL     1      -7.277  54.183  49.788  0.00  0.00    +0.000 C 
BRANCH  33  34
ATOM     34  C   UNL     1      -6.126  55.204  49.750  0.00  0.00    +0.000 C 
BRANCH  34  35
ATOM     35  C   UNL     1      -4.697  54.640  49.807  0.00  0.00    +0.000 C 
ATOM     36  C   UNL     1      -4.348  54.079  51.183  0.00  0.00    +0.000 C 
ATOM     37  C   UNL     1      -4.562  53.539  48.747  0.00  0.00    +0.000 C 
ENDBRANCH  34  35
ENDBRANCH  33  34
ENDBRANCH   5  33
TORSDOF 8
ENDMDL
MODEL 7
REMARK VINA RESULT:      -7.7      1.781      5.215
REMARK  Name = 338167
REMARK  11 active torsions:
REMARK  status: ('A' for Active; 'I' for Inactive)
REMARK    1  A    between atoms: C_6  and  C_10
REMARK    2  A    between atoms: C_14  and  O_18
REMARK    3  A    between atoms: N_17  and  C_21
REMARK    4  A    between atoms: C_21  and  C_24
REMARK    5  A    between atoms: C_24  and  C_27
REMARK    6  A    between atoms: C_25  and  C_28
REMARK    7  A    between atoms: C_27  and  C_29
REMARK    8  A    between atoms: C_27  and  C_30
REMARK    9  A    between atoms: C_28  and  O_32
REMARK   10  A    between atoms: O_32  and  C_33
REMARK   11  A    between atoms: C_33  and  C_34
REMARK                            x       y       z     vdW  Elec       q    Type
REMARK                         _______ _______ _______ _____ _____    ______ ____
ROOT
ATOM      1  C   UNL     1      -9.803  53.848  51.234  0.00  0.00    +0.000 A 
ATOM      2  C   UNL     1     -10.810  54.926  51.476  0.00  0.00    +0.000 A 
ATOM      3  C   UNL     1      -9.624  53.361  49.996  0.00  0.00    +0.000 A 
ATOM      4  O   UNL     1     -10.869  55.425  52.604  0.00  0.00    +0.000 OA
ATOM      5  N   UNL     1     -11.616  55.342  50.421  0.00  0.00    +0.000 N 
ATOM      6  C   UNL     1     -10.414  53.880  48.872  0.00  0.00    +0.000 A 
ATOM      7  C   UNL     1     -11.373  54.883  49.090  0.00  0.00    +0.000 A 
ATOM      8  C   UNL     1     -10.194  53.398  47.570  0.00  0.00    +0.000 A 
ATOM      9  C   UNL     1     -12.045  55.424  47.984  0.00  0.00    +0.000 A 
ATOM     10  C   UNL     1     -10.904  53.912  46.484  0.00  0.00    +0.000 A 
ATOM     11  C   UNL     1     -11.830  54.933  46.696  0.00  0.00    +0.000 A 
ENDROOT
BRANCH   1  17
ATOM     12  S   UNL     1      -6.664  53.287  53.531  0.00  0.00    +0.000 S 
ATOM     13  O   UNL     1      -6.400  54.405  54.412  0.00  0.00    +0.000 OA
ATOM     14  O   UNL     1      -5.571  52.604  52.863  0.00  0.00    +0.000 OA
ATOM     15  N   UNL     1      -7.706  53.783  52.397  0.00  0.00    +0.000 N 
ATOM     16  C   UNL     1      -7.461  52.069  54.515  0.00  0.00    +0.000 A 
ATOM     17  C   UNL     1      -8.941  53.370  52.386  0.00  0.00    +0.000 C 
ATOM     18  C   UNL     1      -8.805  51.826  54.281  0.00  0.00    +0.000 A 
ATOM     19  C   UNL     1      -6.739  51.369  55.485  0.00  0.00    +0.000 A 
ATOM     20  N   UNL     1      -9.516  52.535  53.316  0.00  0.00    +0.000 N 
ATOM     21  C   UNL     1      -9.460  50.899  55.096  0.00  0.00    +0.000 A 
ATOM     22  C   UNL     1      -7.396  50.422  56.265  0.00  0.00    +0.000 A 
ATOM     23  C   UNL     1      -8.759  50.193  56.077  0.00  0.00    +0.000 A 
ATOM     24  H   UNL     1      -7.401  54.409  51.702  0.00  0.00    +0.000 HD
ATOM     25  H   UNL     1     -10.495  52.432  53.299  0.00  0.00    +0.000 HD
ENDBRANCH   1  17
BRANCH   3  26
ATOM     26  O   UNL     1      -8.684  52.405  49.656  0.00  0.00    +0.000 OA
ATOM     27  H   UNL     1      -8.391  52.331  48.769  0.00  0.00    +0.000 HD
ENDBRANCH   3  26
BRANCH  10  28
ATOM     28  C   UNL     1     -10.562  53.419  45.127  0.00  0.00    +0.000 C 
ATOM     29  O   UNL     1     -11.374  53.304  44.226  0.00  0.00    +0.000 OA
BRANCH  28  30
ATOM     30  O   UNL     1      -9.272  53.006  45.103  0.00  0.00    +0.000 OA
BRANCH  30  31
ATOM     31  C   UNL     1      -8.409  53.782  44.265  0.00  0.00    +0.000 C 
ATOM     32  C   UNL     1      -7.671  54.768  45.153  0.00  0.00    +0.000 C 
ENDBRANCH  30  31
ENDBRANCH  28  30
ENDBRANCH  10  28
BRANCH   5  33
ATOM     33  C   UNL     1     -12.638  56.359  50.701  0.00  0.00    +0.000 C 
BRANCH  33  34
ATOM     34  C   UNL     1     -13.968  55.843  51.277  0.00  0.00    +0.000 C 
BRANCH  34  35
ATOM     35  C   UNL     1     -14.881  56.881  51.951  0.00  0.00    +0.000 C 
ATOM     36  C   UNL     1     -14.167  57.655  53.056  0.00  0.00    +0.000 C 
ATOM     37  C   UNL     1     -15.388  57.856  50.879  0.00  0.00    +0.000 C 
ENDBRANCH  34  35
ENDBRANCH  33  34
ENDBRANCH   5  33
TORSDOF 8
ENDMDL
MODEL 8
REMARK VINA RESULT:      -7.6      1.304      1.931
REMARK  Name = 338167
REMARK  11 active torsions:
REMARK  status: ('A' for Active; 'I' for Inactive)
REMARK    1  A    between atoms: C_6  and  C_10
REMARK    2  A    between atoms: C_14  and  O_18
REMARK    3  A    between atoms: N_17  and  C_21
REMARK    4  A    between atoms: C_21  and  C_24
REMARK    5  A    between atoms: C_24  and  C_27
REMARK    6  A    between atoms: C_25  and  C_28
REMARK    7  A    between atoms: C_27  and  C_29
REMARK    8  A    between atoms: C_27  and  C_30
REMARK    9  A    between atoms: C_28  and  O_32
REMARK   10  A    between atoms: O_32  and  C_33
REMARK   11  A    between atoms: C_33  and  C_34
REMARK                            x       y       z     vdW  Elec       q    Type
REMARK                         _______ _______ _______ _____ _____    ______ ____
ROOT
ATOM      1  C   UNL     1      -8.918  54.088  50.255  0.00  0.00    +0.000 A 
ATOM      2  C   UNL     1      -8.439  53.523  48.957  0.00  0.00    +0.000 A 
ATOM      3  C   UNL     1      -9.966  54.927  50.278  0.00  0.00    +0.000 A 
ATOM      4  O   UNL     1      -7.545  52.672  48.988  0.00  0.00    +0.000 OA
ATOM      5  N   UNL     1      -9.035  53.953  47.776  0.00  0.00    +0.000 N 
ATOM      6  C   UNL     1     -10.649  55.296  49.030  0.00  0.00    +0.000 A 
ATOM      7  C   UNL     1     -10.198  54.781  47.803  0.00  0.00    +0.000 A 
ATOM      8  C   UNL     1     -11.772  56.140  49.061  0.00  0.00    +0.000 A 
ATOM      9  C   UNL     1     -10.927  55.077  46.641  0.00  0.00    +0.000 A 
ATOM     10  C   UNL     1     -12.459  56.465  47.890  0.00  0.00    +0.000 A 
ATOM     11  C   UNL     1     -12.034  55.925  46.677  0.00  0.00    +0.000 A 
ENDROOT
BRANCH   1  17
ATOM     12  S   UNL     1      -6.177  53.545  53.018  0.00  0.00    +0.000 S 
ATOM     13  O   UNL     1      -5.997  54.700  53.872  0.00  0.00    +0.000 OA
ATOM     14  O   UNL     1      -5.028  52.789  52.554  0.00  0.00    +0.000 OA
ATOM     15  N   UNL     1      -7.019  54.014  51.718  0.00  0.00    +0.000 N 
ATOM     16  C   UNL     1      -7.161  52.412  53.932  0.00  0.00    +0.000 A 
ATOM     17  C   UNL     1      -8.255  53.644  51.545  0.00  0.00    +0.000 C 
ATOM     18  C   UNL     1      -8.465  52.204  53.513  0.00  0.00    +0.000 A 
ATOM     19  C   UNL     1      -6.619  51.742  55.031  0.00  0.00    +0.000 A 
ATOM     20  N   UNL     1      -8.995  52.883  52.419  0.00  0.00    +0.000 N 
ATOM     21  C   UNL     1      -9.271  51.346  54.266  0.00  0.00    +0.000 A 
ATOM     22  C   UNL     1      -7.423  50.862  55.751  0.00  0.00    +0.000 A 
ATOM     23  C   UNL     1      -8.752  50.671  55.374  0.00  0.00    +0.000 A 
ATOM     24  H   UNL     1      -6.589  54.590  51.047  0.00  0.00    +0.000 HD
ATOM     25  H   UNL     1      -9.965  52.813  52.262  0.00  0.00    +0.000 HD
ENDBRANCH   1  17
BRANCH   3  26
ATOM     26  O   UNL     1     -10.521  55.462  51.426  0.00  0.00    +0.000 OA
ATOM     27  H   UNL     1     -10.901  56.319  51.407  0.00  0.00    +0.000 HD
ENDBRANCH   3  26
BRANCH  10  28
ATOM     28  C   UNL     1     -13.687  57.291  48.005  0.00  0.00    +0.000 C 
ATOM     29  O   UNL     1     -14.327  57.686  47.047  0.00  0.00    +0.000 OA
BRANCH  28  30
ATOM     30  O   UNL     1     -13.887  57.633  49.301  0.00  0.00    +0.000 OA
BRANCH  30  31
ATOM     31  C   UNL     1     -13.967  59.041  49.544  0.00  0.00    +0.000 C 
ATOM     32  C   UNL     1     -14.269  59.236  51.020  0.00  0.00    +0.000 C 
ENDBRANCH  30  31
ENDBRANCH  28  30
ENDBRANCH  10  28
BRANCH   5  33
ATOM     33  C   UNL     1      -8.504  53.427  46.511  0.00  0.00    +0.000 C 
BRANCH  33  34
ATOM     34  C   UNL     1      -9.101  52.095  46.026  0.00  0.00    +0.000 C 
BRANCH  34  35
ATOM     35  C   UNL     1      -9.502  52.012  44.544  0.00  0.00    +0.000 C 
ATOM     36  C   UNL     1     -10.985  52.302  44.326  0.00  0.00    +0.000 C 
ATOM     37  C   UNL     1      -8.655  53.016  43.752  0.00  0.00    +0.000 C 
ENDBRANCH  34  35
ENDBRANCH  33  34
ENDBRANCH   5  33
TORSDOF 8
ENDMDL
MODEL 9
REMARK VINA RESULT:      -7.6      3.022      7.747
REMARK  Name = 338167
REMARK  11 active torsions:
REMARK  status: ('A' for Active; 'I' for Inactive)
REMARK    1  A    between atoms: C_6  and  C_10
REMARK    2  A    between atoms: C_14  and  O_18
REMARK    3  A    between atoms: N_17  and  C_21
REMARK    4  A    between atoms: C_21  and  C_24
REMARK    5  A    between atoms: C_24  and  C_27
REMARK    6  A    between atoms: C_25  and  C_28
REMARK    7  A    between atoms: C_27  and  C_29
REMARK    8  A    between atoms: C_27  and  C_30
REMARK    9  A    between atoms: C_28  and  O_32
REMARK   10  A    between atoms: O_32  and  C_33
REMARK   11  A    between atoms: C_33  and  C_34
REMARK                            x       y       z     vdW  Elec       q    Type
REMARK                         _______ _______ _______ _____ _____    ______ ____
ROOT
ATOM      1  C   UNL     1     -11.659  54.061  51.166  0.00  0.00    +0.000 A 
ATOM      2  C   UNL     1     -11.723  52.886  50.244  0.00  0.00    +0.000 A 
ATOM      3  C   UNL     1     -10.780  54.072  52.181  0.00  0.00    +0.000 A 
ATOM      4  O   UNL     1     -12.465  52.959  49.260  0.00  0.00    +0.000 OA
ATOM      5  N   UNL     1     -10.929  51.776  50.514  0.00  0.00    +0.000 N 
ATOM      6  C   UNL     1      -9.877  52.933  52.395  0.00  0.00    +0.000 A 
ATOM      7  C   UNL     1      -9.939  51.817  51.543  0.00  0.00    +0.000 A 
ATOM      8  C   UNL     1      -8.930  52.966  53.431  0.00  0.00    +0.000 A 
ATOM      9  C   UNL     1      -9.003  50.788  51.714  0.00  0.00    +0.000 A 
ATOM     10  C   UNL     1      -8.034  51.912  53.620  0.00  0.00    +0.000 A 
ATOM     11  C   UNL     1      -8.072  50.821  52.753  0.00  0.00    +0.000 A 
ENDROOT
BRANCH   1  17
ATOM     12  S   UNL     1     -13.370  57.054  49.279  0.00  0.00    +0.000 S 
ATOM     13  O   UNL     1     -14.482  56.639  48.450  0.00  0.00    +0.000 OA
ATOM     14  O   UNL     1     -12.430  58.052  48.801  0.00  0.00    +0.000 OA
ATOM     15  N   UNL     1     -12.528  55.731  49.680  0.00  0.00    +0.000 N 
ATOM     16  C   UNL     1     -14.077  57.720  50.743  0.00  0.00    +0.000 A 
ATOM     17  C   UNL     1     -12.542  55.263  50.894  0.00  0.00    +0.000 C 
ATOM     18  C   UNL     1     -13.934  56.999  51.917  0.00  0.00    +0.000 A 
ATOM     19  C   UNL     1     -14.741  58.948  50.703  0.00  0.00    +0.000 A 
ATOM     20  N   UNL     1     -13.274  55.773  51.942  0.00  0.00    +0.000 N 
ATOM     21  C   UNL     1     -14.540  57.495  53.075  0.00  0.00    +0.000 A 
ATOM     22  C   UNL     1     -15.309  59.448  51.872  0.00  0.00    +0.000 A 
ATOM     23  C   UNL     1     -15.216  58.717  53.056  0.00  0.00    +0.000 A 
ATOM     24  H   UNL     1     -11.995  55.272  48.992  0.00  0.00    +0.000 HD
ATOM     25  H   UNL     1     -13.337  55.234  52.764  0.00  0.00    +0.000 HD
ENDBRANCH   1  17
BRANCH   3  26
ATOM     26  O   UNL     1     -10.602  55.129  53.055  0.00  0.00    +0.000 OA
ATOM     27  H   UNL     1      -9.907  55.105  53.684  0.00  0.00    +0.000 HD
ENDBRANCH   3  26
BRANCH  10  28
ATOM     28  C   UNL     1      -7.004  52.049  54.680  0.00  0.00    +0.000 C 
ATOM     29  O   UNL     1      -6.809  51.214  55.545  0.00  0.00    +0.000 OA
BRANCH  28  30
ATOM     30  O   UNL     1      -6.434  53.276  54.605  0.00  0.00    +0.000 OA
BRANCH  30  31
ATOM     31  C   UNL     1      -5.197  53.320  53.886  0.00  0.00    +0.000 C 
ATOM     32  C   UNL     1      -5.370  54.297  52.735  0.00  0.00    +0.000 C 
ENDBRANCH  30  31
ENDBRANCH  28  30
ENDBRANCH  10  28
BRANCH   5  33
ATOM     33  C   UNL     1     -11.057  50.612  49.627  0.00  0.00    +0.000 C 
BRANCH  33  34
ATOM     34  C   UNL     1     -10.237  50.657  48.326  0.00  0.00    +0.000 C 
BRANCH  34  35
ATOM     35  C   UNL     1     -11.016  50.495  47.010  0.00  0.00    +0.000 C 
ATOM     36  C   UNL     1     -12.465  50.074  47.239  0.00  0.00    +0.000 C 
ATOM     37  C   UNL     1     -10.976  51.828  46.251  0.00  0.00    +0.000 C 
ENDBRANCH  34  35
ENDBRANCH  33  34
ENDBRANCH   5  33
TORSDOF 8
ENDMDL
