MODEL 1
REMARK VINA RESULT:      -8.6      0.000      0.000
REMARK  Name = 338063
REMARK  8 active torsions:
REMARK  status: ('A' for Active; 'I' for Inactive)
REMARK    1  A    between atoms: C_6  and  C_10
REMARK    2  A    between atoms: C_14  and  O_18
REMARK    3  A    between atoms: N_17  and  C_21
REMARK    4  A    between atoms: C_21  and  C_24
REMARK    5  A    between atoms: C_24  and  C_27
REMARK    6  A    between atoms: C_25  and  C_28
REMARK    7  A    between atoms: C_27  and  C_29
REMARK    8  A    between atoms: C_27  and  C_30
REMARK                            x       y       z     vdW  Elec       q    Type
REMARK                         _______ _______ _______ _____ _____    ______ ____
ROOT
ATOM      1  C   UNL     1     -10.153  54.433  52.204  0.00  0.00    +0.000 A 
ATOM      2  C   UNL     1      -8.771  55.000  52.131  0.00  0.00    +0.000 A 
ATOM      3  C   UNL     1     -10.386  53.323  52.926  0.00  0.00    +0.000 A 
ATOM      4  O   UNL     1      -8.615  56.079  51.551  0.00  0.00    +0.000 OA
ATOM      5  N   UNL     1      -7.728  54.305  52.732  0.00  0.00    +0.000 N 
ATOM      6  C   UNL     1      -9.294  52.667  53.658  0.00  0.00    +0.000 A 
ATOM      7  C   UNL     1      -7.988  53.179  53.575  0.00  0.00    +0.000 A 
ATOM      8  C   UNL     1      -9.549  51.541  54.465  0.00  0.00    +0.000 A 
ATOM      9  C   UNL     1      -6.983  52.578  54.348  0.00  0.00    +0.000 A 
ATOM     10  C   UNL     1      -8.530  50.922  55.194  0.00  0.00    +0.000 A 
ATOM     11  C   UNL     1      -7.245  51.456  55.135  0.00  0.00    +0.000 A 
ATOM     12  C   UNL     1      -8.808  49.733  56.062  0.00  0.00    +0.000 C 
ENDROOT
BRANCH   1  18
ATOM     13  S   UNL     1     -12.382  55.988  49.360  0.00  0.00    +0.000 S 
ATOM     14  O   UNL     1     -13.242  55.013  48.723  0.00  0.00    +0.000 OA
ATOM     15  O   UNL     1     -11.697  56.991  48.566  0.00  0.00    +0.000 OA
ATOM     16  N   UNL     1     -11.265  55.181  50.214  0.00  0.00    +0.000 N 
ATOM     17  C   UNL     1     -13.398  56.876  50.484  0.00  0.00    +0.000 A 
ATOM     18  C   UNL     1     -11.290  55.167  51.515  0.00  0.00    +0.000 C 
ATOM     19  C   UNL     1     -13.202  56.663  51.840  0.00  0.00    +0.000 A 
ATOM     20  C   UNL     1     -14.357  57.771  50.003  0.00  0.00    +0.000 A 
ATOM     21  N   UNL     1     -12.246  55.765  52.305  0.00  0.00    +0.000 N 
ATOM     22  C   UNL     1     -14.049  57.320  52.737  0.00  0.00    +0.000 A 
ATOM     23  C   UNL     1     -15.168  58.447  50.911  0.00  0.00    +0.000 A 
ATOM     24  C   UNL     1     -15.021  58.214  52.278  0.00  0.00    +0.000 A 
ATOM     25  H   UNL     1     -10.553  54.692  49.739  0.00  0.00    +0.000 HD
ATOM     26  H   UNL     1     -12.255  55.542  53.264  0.00  0.00    +0.000 HD
ENDBRANCH   1  18
BRANCH   3  27
ATOM     27  O   UNL     1     -11.634  52.744  53.087  0.00  0.00    +0.000 OA
ATOM     28  H   UNL     1     -12.196  53.026  53.782  0.00  0.00    +0.000 HD
ENDBRANCH   3  27
BRANCH   5  29
ATOM     29  C   UNL     1      -6.369  54.843  52.583  0.00  0.00    +0.000 C 
BRANCH  29  30
ATOM     30  C   UNL     1      -5.439  54.074  51.629  0.00  0.00    +0.000 C 
BRANCH  30  31
ATOM     31  C   UNL     1      -4.066  53.659  52.183  0.00  0.00    +0.000 C 
ATOM     32  C   UNL     1      -3.849  54.133  53.619  0.00  0.00    +0.000 C 
ATOM     33  C   UNL     1      -3.952  52.130  52.121  0.00  0.00    +0.000 C 
ENDBRANCH  30  31
ENDBRANCH  29  30
ENDBRANCH   5  29
TORSDOF 5
ENDMDL
MODEL 2
REMARK VINA RESULT:      -8.3      3.683      5.422
REMARK  Name = 338063
REMARK  8 active torsions:
REMARK  status: ('A' for Active; 'I' for Inactive)
REMARK    1  A    between atoms: C_6  and  C_10
REMARK    2  A    between atoms: C_14  and  O_18
REMARK    3  A    between atoms: N_17  and  C_21
REMARK    4  A    between atoms: C_21  and  C_24
REMARK    5  A    between atoms: C_24  and  C_27
REMARK    6  A    between atoms: C_25  and  C_28
REMARK    7  A    between atoms: C_27  and  C_29
REMARK    8  A    between atoms: C_27  and  C_30
REMARK                            x       y       z     vdW  Elec       q    Type
REMARK                         _______ _______ _______ _____ _____    ______ ____
ROOT
ATOM      1  C   UNL     1     -11.332  56.137  48.725  0.00  0.00    +0.000 A 
ATOM      2  C   UNL     1     -10.139  55.709  49.519  0.00  0.00    +0.000 A 
ATOM      3  C   UNL     1     -11.511  55.669  47.478  0.00  0.00    +0.000 A 
ATOM      4  O   UNL     1     -10.063  56.072  50.697  0.00  0.00    +0.000 OA
ATOM      5  N   UNL     1      -9.179  54.909  48.910  0.00  0.00    +0.000 N 
ATOM      6  C   UNL     1     -10.551  54.724  46.891  0.00  0.00    +0.000 A 
ATOM      7  C   UNL     1      -9.414  54.336  47.620  0.00  0.00    +0.000 A 
ATOM      8  C   UNL     1     -10.772  54.185  45.609  0.00  0.00    +0.000 A 
ATOM      9  C   UNL     1      -8.559  53.374  47.064  0.00  0.00    +0.000 A 
ATOM     10  C   UNL     1      -9.887  53.261  45.046  0.00  0.00    +0.000 A 
ATOM     11  C   UNL     1      -8.782  52.853  45.788  0.00  0.00    +0.000 A 
ATOM     12  C   UNL     1     -10.133  52.679  43.687  0.00  0.00    +0.000 C 
ENDROOT
BRANCH   1  18
ATOM     13  S   UNL     1     -13.557  59.298  49.455  0.00  0.00    +0.000 S 
ATOM     14  O   UNL     1     -14.706  59.392  48.579  0.00  0.00    +0.000 OA
ATOM     15  O   UNL     1     -12.792  60.485  49.790  0.00  0.00    +0.000 OA
ATOM     16  N   UNL     1     -12.536  58.210  48.820  0.00  0.00    +0.000 N 
ATOM     17  C   UNL     1     -14.156  58.665  50.980  0.00  0.00    +0.000 A 
ATOM     18  C   UNL     1     -12.362  57.045  49.373  0.00  0.00    +0.000 C 
ATOM     19  C   UNL     1     -13.807  57.369  51.325  0.00  0.00    +0.000 A 
ATOM     20  C   UNL     1     -14.947  59.467  51.808  0.00  0.00    +0.000 A 
ATOM     21  N   UNL     1     -13.022  56.580  50.489  0.00  0.00    +0.000 N 
ATOM     22  C   UNL     1     -14.331  56.839  52.508  0.00  0.00    +0.000 A 
ATOM     23  C   UNL     1     -15.431  58.938  53.001  0.00  0.00    +0.000 A 
ATOM     24  C   UNL     1     -15.132  57.621  53.346  0.00  0.00    +0.000 A 
ATOM     25  H   UNL     1     -12.038  58.436  48.001  0.00  0.00    +0.000 HD
ATOM     26  H   UNL     1     -12.933  55.625  50.710  0.00  0.00    +0.000 HD
ENDBRANCH   1  18
BRANCH   3  27
ATOM     27  O   UNL     1     -12.601  55.975  46.679  0.00  0.00    +0.000 OA
ATOM     28  H   UNL     1     -13.221  55.309  46.456  0.00  0.00    +0.000 HD
ENDBRANCH   3  27
BRANCH   5  29
ATOM     29  C   UNL     1      -7.981  54.563  49.686  0.00  0.00    +0.000 C 
BRANCH  29  30
ATOM     30  C   UNL     1      -6.802  55.547  49.583  0.00  0.00    +0.000 C 
BRANCH  30  31
ATOM     31  C   UNL     1      -5.389  54.951  49.696  0.00  0.00    +0.000 C 
ATOM     32  C   UNL     1      -5.162  54.235  51.026  0.00  0.00    +0.000 C 
ATOM     33  C   UNL     1      -5.176  53.967  48.537  0.00  0.00    +0.000 C 
ENDBRANCH  30  31
ENDBRANCH  29  30
ENDBRANCH   5  29
TORSDOF 5
ENDMDL
MODEL 3
REMARK VINA RESULT:      -8.1      3.782      4.797
REMARK  Name = 338063
REMARK  8 active torsions:
REMARK  status: ('A' for Active; 'I' for Inactive)
REMARK    1  A    between atoms: C_6  and  C_10
REMARK    2  A    between atoms: C_14  and  O_18
REMARK    3  A    between atoms: N_17  and  C_21
REMARK    4  A    between atoms: C_21  and  C_24
REMARK    5  A    between atoms: C_24  and  C_27
REMARK    6  A    between atoms: C_25  and  C_28
REMARK    7  A    between atoms: C_27  and  C_29
REMARK    8  A    between atoms: C_27  and  C_30
REMARK                            x       y       z     vdW  Elec       q    Type
REMARK                         _______ _______ _______ _____ _____    ______ ____
ROOT
ATOM      1  C   UNL     1     -12.350  54.254  49.887  0.00  0.00    +0.000 A 
ATOM      2  C   UNL     1     -11.892  54.101  48.472  0.00  0.00    +0.000 A 
ATOM      3  C   UNL     1     -11.970  53.359  50.815  0.00  0.00    +0.000 A 
ATOM      4  O   UNL     1     -12.170  54.999  47.670  0.00  0.00    +0.000 OA
ATOM      5  N   UNL     1     -11.160  52.973  48.120  0.00  0.00    +0.000 N 
ATOM      6  C   UNL     1     -11.093  52.237  50.454  0.00  0.00    +0.000 A 
ATOM      7  C   UNL     1     -10.678  52.072  49.122  0.00  0.00    +0.000 A 
ATOM      8  C   UNL     1     -10.643  51.335  51.438  0.00  0.00    +0.000 A 
ATOM      9  C   UNL     1      -9.778  51.038  48.824  0.00  0.00    +0.000 A 
ATOM     10  C   UNL     1      -9.783  50.280  51.121  0.00  0.00    +0.000 A 
ATOM     11  C   UNL     1      -9.347  50.144  49.805  0.00  0.00    +0.000 A 
ATOM     12  C   UNL     1      -9.296  49.332  52.173  0.00  0.00    +0.000 C 
ENDROOT
BRANCH   1  18
ATOM     13  S   UNL     1     -15.326  56.424  51.268  0.00  0.00    +0.000 S 
ATOM     14  O   UNL     1     -15.291  56.577  52.707  0.00  0.00    +0.000 OA
ATOM     15  O   UNL     1     -16.586  56.187  50.587  0.00  0.00    +0.000 OA
ATOM     16  N   UNL     1     -14.312  55.223  50.871  0.00  0.00    +0.000 N 
ATOM     17  C   UNL     1     -14.694  57.921  50.602  0.00  0.00    +0.000 A 
ATOM     18  C   UNL     1     -13.185  55.464  50.266  0.00  0.00    +0.000 C 
ATOM     19  C   UNL     1     -13.445  57.885  50.002  0.00  0.00    +0.000 A 
ATOM     20  C   UNL     1     -15.450  59.094  50.676  0.00  0.00    +0.000 A 
ATOM     21  N   UNL     1     -12.701  56.711  49.939  0.00  0.00    +0.000 N 
ATOM     22  C   UNL     1     -12.910  59.086  49.525  0.00  0.00    +0.000 A 
ATOM     23  C   UNL     1     -14.920  60.275  50.162  0.00  0.00    +0.000 A 
ATOM     24  C   UNL     1     -13.645  60.273  49.597  0.00  0.00    +0.000 A 
ATOM     25  H   UNL     1     -14.553  54.294  51.091  0.00  0.00    +0.000 HD
ATOM     26  H   UNL     1     -11.765  56.777  49.641  0.00  0.00    +0.000 HD
ENDBRANCH   1  18
BRANCH   3  27
ATOM     27  O   UNL     1     -12.309  53.434  52.156  0.00  0.00    +0.000 OA
ATOM     28  H   UNL     1     -13.162  53.727  52.409  0.00  0.00    +0.000 HD
ENDBRANCH   3  27
BRANCH   5  29
ATOM     29  C   UNL     1     -10.786  52.810  46.710  0.00  0.00    +0.000 C 
BRANCH  29  30
ATOM     30  C   UNL     1      -9.329  53.155  46.352  0.00  0.00    +0.000 C 
BRANCH  30  31
ATOM     31  C   UNL     1      -8.986  54.647  46.206  0.00  0.00    +0.000 C 
ATOM     32  C   UNL     1      -8.607  55.292  47.537  0.00  0.00    +0.000 C 
ATOM     33  C   UNL     1      -7.824  54.788  45.214  0.00  0.00    +0.000 C 
ENDBRANCH  30  31
ENDBRANCH  29  30
ENDBRANCH   5  29
TORSDOF 5
ENDMDL
MODEL 4
REMARK VINA RESULT:      -8.1      3.896      5.569
REMARK  Name = 338063
REMARK  8 active torsions:
REMARK  status: ('A' for Active; 'I' for Inactive)
REMARK    1  A    between atoms: C_6  and  C_10
REMARK    2  A    between atoms: C_14  and  O_18
REMARK    3  A    between atoms: N_17  and  C_21
REMARK    4  A    between atoms: C_21  and  C_24
REMARK    5  A    between atoms: C_24  and  C_27
REMARK    6  A    between atoms: C_25  and  C_28
REMARK    7  A    between atoms: C_27  and  C_29
REMARK    8  A    between atoms: C_27  and  C_30
REMARK                            x       y       z     vdW  Elec       q    Type
REMARK                         _______ _______ _______ _____ _____    ______ ____
ROOT
ATOM      1  C   UNL     1     -10.876  55.526  48.722  0.00  0.00    +0.000 A 
ATOM      2  C   UNL     1      -9.604  55.086  49.373  0.00  0.00    +0.000 A 
ATOM      3  C   UNL     1     -11.131  55.182  47.448  0.00  0.00    +0.000 A 
ATOM      4  O   UNL     1      -9.452  55.327  50.576  0.00  0.00    +0.000 OA
ATOM      5  N   UNL     1      -8.658  54.410  48.612  0.00  0.00    +0.000 N 
ATOM      6  C   UNL     1     -10.175  54.360  46.692  0.00  0.00    +0.000 A 
ATOM      7  C   UNL     1      -8.967  53.963  47.288  0.00  0.00    +0.000 A 
ATOM      8  C   UNL     1     -10.471  53.946  45.378  0.00  0.00    +0.000 A 
ATOM      9  C   UNL     1      -8.112  53.115  46.568  0.00  0.00    +0.000 A 
ATOM     10  C   UNL     1      -9.590  53.138  44.654  0.00  0.00    +0.000 A 
ATOM     11  C   UNL     1      -8.410  52.719  45.264  0.00  0.00    +0.000 A 
ATOM     12  C   UNL     1      -9.914  52.689  43.262  0.00  0.00    +0.000 C 
ENDROOT
BRANCH   1  18
ATOM     13  S   UNL     1     -13.568  56.367  51.463  0.00  0.00    +0.000 S 
ATOM     14  O   UNL     1     -12.982  56.689  52.748  0.00  0.00    +0.000 OA
ATOM     15  O   UNL     1     -14.756  55.538  51.387  0.00  0.00    +0.000 OA
ATOM     16  N   UNL     1     -12.419  55.676  50.553  0.00  0.00    +0.000 N 
ATOM     17  C   UNL     1     -14.005  57.901  50.727  0.00  0.00    +0.000 A 
ATOM     18  C   UNL     1     -11.894  56.301  49.539  0.00  0.00    +0.000 C 
ATOM     19  C   UNL     1     -13.263  58.331  49.639  0.00  0.00    +0.000 A 
ATOM     20  C   UNL     1     -15.077  58.639  51.233  0.00  0.00    +0.000 A 
ATOM     21  N   UNL     1     -12.194  57.587  49.148  0.00  0.00    +0.000 N 
ATOM     22  C   UNL     1     -13.566  59.579  49.087  0.00  0.00    +0.000 A 
ATOM     23  C   UNL     1     -15.392  59.864  50.650  0.00  0.00    +0.000 A 
ATOM     24  C   UNL     1     -14.630  60.339  49.583  0.00  0.00    +0.000 A 
ATOM     25  H   UNL     1     -12.112  54.766  50.771  0.00  0.00    +0.000 HD
ATOM     26  H   UNL     1     -11.611  58.010  48.476  0.00  0.00    +0.000 HD
ENDBRANCH   1  18
BRANCH   3  27
ATOM     27  O   UNL     1     -12.294  55.507  46.770  0.00  0.00    +0.000 OA
ATOM     28  H   UNL     1     -13.129  55.318  47.152  0.00  0.00    +0.000 HD
ENDBRANCH   3  27
BRANCH   5  29
ATOM     29  C   UNL     1      -7.386  54.054  49.255  0.00  0.00    +0.000 C 
BRANCH  29  30
ATOM     30  C   UNL     1      -6.233  55.057  49.073  0.00  0.00    +0.000 C 
BRANCH  30  31
ATOM     31  C   UNL     1      -4.805  54.495  49.159  0.00  0.00    +0.000 C 
ATOM     32  C   UNL     1      -4.527  53.807  50.494  0.00  0.00    +0.000 C 
ATOM     33  C   UNL     1      -4.600  53.496  48.012  0.00  0.00    +0.000 C 
ENDBRANCH  30  31
ENDBRANCH  29  30
ENDBRANCH   5  29
TORSDOF 5
ENDMDL
MODEL 5
REMARK VINA RESULT:      -7.9      3.539      5.475
REMARK  Name = 338063
REMARK  8 active torsions:
REMARK  status: ('A' for Active; 'I' for Inactive)
REMARK    1  A    between atoms: C_6  and  C_10
REMARK    2  A    between atoms: C_14  and  O_18
REMARK    3  A    between atoms: N_17  and  C_21
REMARK    4  A    between atoms: C_21  and  C_24
REMARK    5  A    between atoms: C_24  and  C_27
REMARK    6  A    between atoms: C_25  and  C_28
REMARK    7  A    between atoms: C_27  and  C_29
REMARK    8  A    between atoms: C_27  and  C_30
REMARK                            x       y       z     vdW  Elec       q    Type
REMARK                         _______ _______ _______ _____ _____    ______ ____
ROOT
ATOM      1  C   UNL     1     -11.431  55.920  48.897  0.00  0.00    +0.000 A 
ATOM      2  C   UNL     1     -10.402  55.301  49.787  0.00  0.00    +0.000 A 
ATOM      3  C   UNL     1     -11.501  55.564  47.602  0.00  0.00    +0.000 A 
ATOM      4  O   UNL     1     -10.438  55.570  50.992  0.00  0.00    +0.000 OA
ATOM      5  N   UNL     1      -9.464  54.439  49.231  0.00  0.00    +0.000 N 
ATOM      6  C   UNL     1     -10.581  54.557  47.056  0.00  0.00    +0.000 A 
ATOM      7  C   UNL     1      -9.594  53.989  47.879  0.00  0.00    +0.000 A 
ATOM      8  C   UNL     1     -10.694  54.137  45.716  0.00  0.00    +0.000 A 
ATOM      9  C   UNL     1      -8.784  52.974  47.349  0.00  0.00    +0.000 A 
ATOM     10  C   UNL     1      -9.849  53.158  45.186  0.00  0.00    +0.000 A 
ATOM     11  C   UNL     1      -8.898  52.573  46.018  0.00  0.00    +0.000 A 
ATOM     12  C   UNL     1      -9.982  52.704  43.764  0.00  0.00    +0.000 C 
ENDROOT
BRANCH   1  18
ATOM     13  S   UNL     1     -13.532  59.197  49.465  0.00  0.00    +0.000 S 
ATOM     14  O   UNL     1     -14.664  59.303  48.568  0.00  0.00    +0.000 OA
ATOM     15  O   UNL     1     -12.723  60.364  49.765  0.00  0.00    +0.000 OA
ATOM     16  N   UNL     1     -12.549  58.043  48.890  0.00  0.00    +0.000 N 
ATOM     17  C   UNL     1     -14.179  58.651  51.005  0.00  0.00    +0.000 A 
ATOM     18  C   UNL     1     -12.432  56.895  49.491  0.00  0.00    +0.000 C 
ATOM     19  C   UNL     1     -13.889  57.357  51.406  0.00  0.00    +0.000 A 
ATOM     20  C   UNL     1     -14.947  59.518  51.787  0.00  0.00    +0.000 A 
ATOM     21  N   UNL     1     -13.126  56.503  50.615  0.00  0.00    +0.000 N 
ATOM     22  C   UNL     1     -14.452  56.897  52.601  0.00  0.00    +0.000 A 
ATOM     23  C   UNL     1     -15.469  59.058  52.993  0.00  0.00    +0.000 A 
ATOM     24  C   UNL     1     -15.231  57.744  53.395  0.00  0.00    +0.000 A 
ATOM     25  H   UNL     1     -12.030  58.215  48.071  0.00  0.00    +0.000 HD
ATOM     26  H   UNL     1     -13.081  55.555  50.875  0.00  0.00    +0.000 HD
ENDBRANCH   1  18
BRANCH   3  27
ATOM     27  O   UNL     1     -12.441  56.050  46.709  0.00  0.00    +0.000 OA
ATOM     28  H   UNL     1     -12.718  55.522  45.986  0.00  0.00    +0.000 HD
ENDBRANCH   3  27
BRANCH   5  29
ATOM     29  C   UNL     1      -8.418  53.902  50.112  0.00  0.00    +0.000 C 
BRANCH  29  30
ATOM     30  C   UNL     1      -8.766  52.604  50.861  0.00  0.00    +0.000 C 
BRANCH  30  31
ATOM     31  C   UNL     1      -8.710  52.652  52.396  0.00  0.00    +0.000 C 
ATOM     32  C   UNL     1      -7.984  53.891  52.915  0.00  0.00    +0.000 C 
ATOM     33  C   UNL     1     -10.144  52.627  52.942  0.00  0.00    +0.000 C 
ENDBRANCH  30  31
ENDBRANCH  29  30
ENDBRANCH   5  29
TORSDOF 5
ENDMDL
MODEL 6
REMARK VINA RESULT:      -7.8      3.201      7.557
REMARK  Name = 338063
REMARK  8 active torsions:
REMARK  status: ('A' for Active; 'I' for Inactive)
REMARK    1  A    between atoms: C_6  and  C_10
REMARK    2  A    between atoms: C_14  and  O_18
REMARK    3  A    between atoms: N_17  and  C_21
REMARK    4  A    between atoms: C_21  and  C_24
REMARK    5  A    between atoms: C_24  and  C_27
REMARK    6  A    between atoms: C_25  and  C_28
REMARK    7  A    between atoms: C_27  and  C_29
REMARK    8  A    between atoms: C_27  and  C_30
REMARK                            x       y       z     vdW  Elec       q    Type
REMARK                         _______ _______ _______ _____ _____    ______ ____
ROOT
ATOM      1  C   UNL     1     -10.049  55.161  51.028  0.00  0.00    +0.000 A 
ATOM      2  C   UNL     1      -9.763  55.165  49.560  0.00  0.00    +0.000 A 
ATOM      3  C   UNL     1     -11.265  55.519  51.476  0.00  0.00    +0.000 A 
ATOM      4  O   UNL     1      -8.673  54.726  49.179  0.00  0.00    +0.000 OA
ATOM      5  N   UNL     1     -10.735  55.640  48.688  0.00  0.00    +0.000 N 
ATOM      6  C   UNL     1     -12.324  55.902  50.531  0.00  0.00    +0.000 A 
ATOM      7  C   UNL     1     -12.056  55.932  49.152  0.00  0.00    +0.000 A 
ATOM      8  C   UNL     1     -13.616  56.216  50.995  0.00  0.00    +0.000 A 
ATOM      9  C   UNL     1     -13.109  56.225  48.272  0.00  0.00    +0.000 A 
ATOM     10  C   UNL     1     -14.645  56.552  50.111  0.00  0.00    +0.000 A 
ATOM     11  C   UNL     1     -14.383  56.545  48.744  0.00  0.00    +0.000 A 
ATOM     12  C   UNL     1     -16.022  56.873  50.608  0.00  0.00    +0.000 C 
ENDROOT
BRANCH   1  18
ATOM     13  S   UNL     1      -6.581  54.836  52.855  0.00  0.00    +0.000 S 
ATOM     14  O   UNL     1      -6.382  55.849  53.870  0.00  0.00    +0.000 OA
ATOM     15  O   UNL     1      -5.491  54.457  51.975  0.00  0.00    +0.000 OA
ATOM     16  N   UNL     1      -7.831  55.297  51.932  0.00  0.00    +0.000 N 
ATOM     17  C   UNL     1      -7.040  53.372  53.710  0.00  0.00    +0.000 A 
ATOM     18  C   UNL     1      -8.976  54.681  51.989  0.00  0.00    +0.000 C 
ATOM     19  C   UNL     1      -8.349  52.935  53.589  0.00  0.00    +0.000 A 
ATOM     20  C   UNL     1      -6.093  52.680  54.470  0.00  0.00    +0.000 A 
ATOM     21  N   UNL     1      -9.283  53.636  52.832  0.00  0.00    +0.000 N 
ATOM     22  C   UNL     1      -8.736  51.805  54.317  0.00  0.00    +0.000 A 
ATOM     23  C   UNL     1      -6.483  51.534  55.159  0.00  0.00    +0.000 A 
ATOM     24  C   UNL     1      -7.808  51.103  55.091  0.00  0.00    +0.000 A 
ATOM     25  H   UNL     1      -7.721  56.057  51.315  0.00  0.00    +0.000 HD
ATOM     26  H   UNL     1     -10.227  53.368  52.905  0.00  0.00    +0.000 HD
ENDBRANCH   1  18
BRANCH   3  27
ATOM     27  O   UNL     1     -11.639  55.511  52.809  0.00  0.00    +0.000 OA
ATOM     28  H   UNL     1     -11.999  54.735  53.191  0.00  0.00    +0.000 HD
ENDBRANCH   3  27
BRANCH   5  29
ATOM     29  C   UNL     1     -10.402  55.703  47.259  0.00  0.00    +0.000 C 
BRANCH  29  30
ATOM     30  C   UNL     1     -10.629  54.411  46.454  0.00  0.00    +0.000 C 
BRANCH  30  31
ATOM     31  C   UNL     1      -9.387  53.757  45.827  0.00  0.00    +0.000 C 
ATOM     32  C   UNL     1      -9.678  53.141  44.460  0.00  0.00    +0.000 C 
ATOM     33  C   UNL     1      -8.288  54.820  45.691  0.00  0.00    +0.000 C 
ENDBRANCH  30  31
ENDBRANCH  29  30
ENDBRANCH   5  29
TORSDOF 5
ENDMDL
MODEL 7
REMARK VINA RESULT:      -7.8      4.524      7.107
REMARK  Name = 338063
REMARK  8 active torsions:
REMARK  status: ('A' for Active; 'I' for Inactive)
REMARK    1  A    between atoms: C_6  and  C_10
REMARK    2  A    between atoms: C_14  and  O_18
REMARK    3  A    between atoms: N_17  and  C_21
REMARK    4  A    between atoms: C_21  and  C_24
REMARK    5  A    between atoms: C_24  and  C_27
REMARK    6  A    between atoms: C_25  and  C_28
REMARK    7  A    between atoms: C_27  and  C_29
REMARK    8  A    between atoms: C_27  and  C_30
REMARK                            x       y       z     vdW  Elec       q    Type
REMARK                         _______ _______ _______ _____ _____    ______ ____
ROOT
ATOM      1  C   UNL     1     -10.786  54.445  48.692  0.00  0.00    +0.000 A 
ATOM      2  C   UNL     1     -10.294  54.012  50.036  0.00  0.00    +0.000 A 
ATOM      3  C   UNL     1     -11.800  55.322  48.598  0.00  0.00    +0.000 A 
ATOM      4  O   UNL     1      -9.292  53.292  50.085  0.00  0.00    +0.000 OA
ATOM      5  N   UNL     1     -10.968  54.451  51.170  0.00  0.00    +0.000 N 
ATOM      6  C   UNL     1     -12.422  55.874  49.810  0.00  0.00    +0.000 A 
ATOM      7  C   UNL     1     -11.984  55.454  51.076  0.00  0.00    +0.000 A 
ATOM      8  C   UNL     1     -13.442  56.841  49.712  0.00  0.00    +0.000 A 
ATOM      9  C   UNL     1     -12.543  56.058  52.213  0.00  0.00    +0.000 A 
ATOM     10  C   UNL     1     -14.025  57.401  50.853  0.00  0.00    +0.000 A 
ATOM     11  C   UNL     1     -13.561  57.007  52.105  0.00  0.00    +0.000 A 
ATOM     12  C   UNL     1     -15.100  58.439  50.745  0.00  0.00    +0.000 C 
ENDROOT
BRANCH   1  18
ATOM     13  S   UNL     1      -8.029  53.953  45.929  0.00  0.00    +0.000 S 
ATOM     14  O   UNL     1      -6.983  53.038  46.334  0.00  0.00    +0.000 OA
ATOM     15  O   UNL     1      -7.701  55.170  45.209  0.00  0.00    +0.000 OA
ATOM     16  N   UNL     1      -8.867  54.367  47.253  0.00  0.00    +0.000 N 
ATOM     17  C   UNL     1      -9.092  53.040  44.869  0.00  0.00    +0.000 A 
ATOM     18  C   UNL     1     -10.079  53.935  47.448  0.00  0.00    +0.000 C 
ATOM     19  C   UNL     1     -10.352  52.711  45.344  0.00  0.00    +0.000 A 
ATOM     20  C   UNL     1      -8.663  52.681  43.589  0.00  0.00    +0.000 A 
ATOM     21  N   UNL     1     -10.765  53.072  46.623  0.00  0.00    +0.000 N 
ATOM     22  C   UNL     1     -11.179  51.932  44.529  0.00  0.00    +0.000 A 
ATOM     23  C   UNL     1      -9.513  51.937  42.774  0.00  0.00    +0.000 A 
ATOM     24  C   UNL     1     -10.767  51.554  43.248  0.00  0.00    +0.000 A 
ATOM     25  H   UNL     1      -8.451  54.958  47.923  0.00  0.00    +0.000 HD
ATOM     26  H   UNL     1     -11.604  52.683  46.961  0.00  0.00    +0.000 HD
ENDBRANCH   1  18
BRANCH   3  27
ATOM     27  O   UNL     1     -12.300  55.812  47.403  0.00  0.00    +0.000 OA
ATOM     28  H   UNL     1     -12.092  55.383  46.596  0.00  0.00    +0.000 HD
ENDBRANCH   3  27
BRANCH   5  29
ATOM     29  C   UNL     1     -10.512  53.953  52.475  0.00  0.00    +0.000 C 
BRANCH  29  30
ATOM     30  C   UNL     1      -9.624  54.910  53.291  0.00  0.00    +0.000 C 
BRANCH  30  31
ATOM     31  C   UNL     1      -8.121  54.909  52.967  0.00  0.00    +0.000 C 
ATOM     32  C   UNL     1      -7.752  55.942  51.905  0.00  0.00    +0.000 C 
ATOM     33  C   UNL     1      -7.340  55.193  54.257  0.00  0.00    +0.000 C 
ENDBRANCH  30  31
ENDBRANCH  29  30
ENDBRANCH   5  29
TORSDOF 5
ENDMDL
MODEL 8
REMARK VINA RESULT:      -7.7      3.132      8.101
REMARK  Name = 338063
REMARK  8 active torsions:
REMARK  status: ('A' for Active; 'I' for Inactive)
REMARK    1  A    between atoms: C_6  and  C_10
REMARK    2  A    between atoms: C_14  and  O_18
REMARK    3  A    between atoms: N_17  and  C_21
REMARK    4  A    between atoms: C_21  and  C_24
REMARK    5  A    between atoms: C_24  and  C_27
REMARK    6  A    between atoms: C_25  and  C_28
REMARK    7  A    between atoms: C_27  and  C_29
REMARK    8  A    between atoms: C_27  and  C_30
REMARK                            x       y       z     vdW  Elec       q    Type
REMARK                         _______ _______ _______ _____ _____    ______ ____
ROOT
ATOM      1  C   UNL     1      -9.839  53.982  50.853  0.00  0.00    +0.000 A 
ATOM      2  C   UNL     1     -10.854  55.051  51.107  0.00  0.00    +0.000 A 
ATOM      3  C   UNL     1      -9.679  53.490  49.612  0.00  0.00    +0.000 A 
ATOM      4  O   UNL     1     -10.897  55.556  52.233  0.00  0.00    +0.000 OA
ATOM      5  N   UNL     1     -11.689  55.444  50.068  0.00  0.00    +0.000 N 
ATOM      6  C   UNL     1     -10.484  54.004  48.496  0.00  0.00    +0.000 A 
ATOM      7  C   UNL     1     -11.458  54.990  48.731  0.00  0.00    +0.000 A 
ATOM      8  C   UNL     1     -10.273  53.533  47.186  0.00  0.00    +0.000 A 
ATOM      9  C   UNL     1     -12.155  55.516  47.633  0.00  0.00    +0.000 A 
ATOM     10  C   UNL     1     -11.007  54.033  46.106  0.00  0.00    +0.000 A 
ATOM     11  C   UNL     1     -11.945  55.035  46.340  0.00  0.00    +0.000 A 
ATOM     12  C   UNL     1     -10.770  53.539  44.711  0.00  0.00    +0.000 C 
ENDROOT
BRANCH   1  18
ATOM     13  S   UNL     1      -6.639  53.401  53.066  0.00  0.00    +0.000 S 
ATOM     14  O   UNL     1      -6.305  54.547  53.885  0.00  0.00    +0.000 OA
ATOM     15  O   UNL     1      -5.594  52.651  52.394  0.00  0.00    +0.000 OA
ATOM     16  N   UNL     1      -7.704  53.886  51.944  0.00  0.00    +0.000 N 
ATOM     17  C   UNL     1      -7.443  52.257  54.130  0.00  0.00    +0.000 A 
ATOM     18  C   UNL     1      -8.952  53.520  51.996  0.00  0.00    +0.000 C 
ATOM     19  C   UNL     1      -8.804  52.058  53.956  0.00  0.00    +0.000 A 
ATOM     20  C   UNL     1      -6.711  51.574  55.104  0.00  0.00    +0.000 A 
ATOM     21  N   UNL     1      -9.522  52.749  52.984  0.00  0.00    +0.000 N 
ATOM     22  C   UNL     1      -9.460  51.196  54.839  0.00  0.00    +0.000 A 
ATOM     23  C   UNL     1      -7.372  50.689  55.952  0.00  0.00    +0.000 A 
ATOM     24  C   UNL     1      -8.749  50.508  55.827  0.00  0.00    +0.000 A 
ATOM     25  H   UNL     1      -7.401  54.467  51.210  0.00  0.00    +0.000 HD
ATOM     26  H   UNL     1     -10.504  52.683  53.007  0.00  0.00    +0.000 HD
ENDBRANCH   1  18
BRANCH   3  27
ATOM     27  O   UNL     1      -8.741  52.530  49.269  0.00  0.00    +0.000 OA
ATOM     28  H   UNL     1      -8.658  51.750  49.782  0.00  0.00    +0.000 HD
ENDBRANCH   3  27
BRANCH   5  29
ATOM     29  C   UNL     1     -12.726  56.441  50.361  0.00  0.00    +0.000 C 
BRANCH  29  30
ATOM     30  C   UNL     1     -13.988  55.916  51.069  0.00  0.00    +0.000 C 
BRANCH  30  31
ATOM     31  C   UNL     1     -14.812  56.938  51.869  0.00  0.00    +0.000 C 
ATOM     32  C   UNL     1     -14.007  57.584  52.994  0.00  0.00    +0.000 C 
ATOM     33  C   UNL     1     -15.317  58.022  50.907  0.00  0.00    +0.000 C 
ENDBRANCH  30  31
ENDBRANCH  29  30
ENDBRANCH   5  29
TORSDOF 5
ENDMDL
MODEL 9
REMARK VINA RESULT:      -7.7      4.164      6.126
REMARK  Name = 338063
REMARK  8 active torsions:
REMARK  status: ('A' for Active; 'I' for Inactive)
REMARK    1  A    between atoms: C_6  and  C_10
REMARK    2  A    between atoms: C_14  and  O_18
REMARK    3  A    between atoms: N_17  and  C_21
REMARK    4  A    between atoms: C_21  and  C_24
REMARK    5  A    between atoms: C_24  and  C_27
REMARK    6  A    between atoms: C_25  and  C_28
REMARK    7  A    between atoms: C_27  and  C_29
REMARK    8  A    between atoms: C_27  and  C_30
REMARK                            x       y       z     vdW  Elec       q    Type
REMARK                         _______ _______ _______ _____ _____    ______ ____
ROOT
ATOM      1  C   UNL     1     -10.755  55.670  48.738  0.00  0.00    +0.000 A 
ATOM      2  C   UNL     1     -11.089  55.203  47.357  0.00  0.00    +0.000 A 
ATOM      3  C   UNL     1      -9.512  55.500  49.221  0.00  0.00    +0.000 A 
ATOM      4  O   UNL     1     -12.207  55.474  46.907  0.00  0.00    +0.000 OA
ATOM      5  N   UNL     1     -10.130  54.506  46.633  0.00  0.00    +0.000 N 
ATOM      6  C   UNL     1      -8.471  54.871  48.396  0.00  0.00    +0.000 A 
ATOM      7  C   UNL     1      -8.783  54.406  47.107  0.00  0.00    +0.000 A 
ATOM      8  C   UNL     1      -7.153  54.749  48.878  0.00  0.00    +0.000 A 
ATOM      9  C   UNL     1      -7.750  53.882  46.315  0.00  0.00    +0.000 A 
ATOM     10  C   UNL     1      -6.142  54.182  48.096  0.00  0.00    +0.000 A 
ATOM     11  C   UNL     1      -6.451  53.757  46.807  0.00  0.00    +0.000 A 
ATOM     12  C   UNL     1      -4.738  54.067  48.607  0.00  0.00    +0.000 C 
ENDROOT
BRANCH   1  18
ATOM     13  S   UNL     1     -13.524  56.374  51.441  0.00  0.00    +0.000 S 
ATOM     14  O   UNL     1     -12.974  56.690  52.742  0.00  0.00    +0.000 OA
ATOM     15  O   UNL     1     -14.684  55.508  51.327  0.00  0.00    +0.000 OA
ATOM     16  N   UNL     1     -12.336  55.737  50.541  0.00  0.00    +0.000 N 
ATOM     17  C   UNL     1     -13.996  57.907  50.724  0.00  0.00    +0.000 A 
ATOM     18  C   UNL     1     -11.813  56.396  49.549  0.00  0.00    +0.000 C 
ATOM     19  C   UNL     1     -13.247  58.380  49.658  0.00  0.00    +0.000 A 
ATOM     20  C   UNL     1     -15.101  58.601  51.222  0.00  0.00    +0.000 A 
ATOM     21  N   UNL     1     -12.146  57.680  49.175  0.00  0.00    +0.000 N 
ATOM     22  C   UNL     1     -13.580  59.628  49.124  0.00  0.00    +0.000 A 
ATOM     23  C   UNL     1     -15.444  59.825  50.655  0.00  0.00    +0.000 A 
ATOM     24  C   UNL     1     -14.677  60.344  49.612  0.00  0.00    +0.000 A 
ATOM     25  H   UNL     1     -12.005  54.832  50.748  0.00  0.00    +0.000 HD
ATOM     26  H   UNL     1     -11.565  58.133  48.522  0.00  0.00    +0.000 HD
ENDBRANCH   1  18
BRANCH   3  27
ATOM     27  O   UNL     1      -9.094  55.931  50.469  0.00  0.00    +0.000 OA
ATOM     28  H   UNL     1      -9.716  56.040  51.160  0.00  0.00    +0.000 HD
ENDBRANCH   3  27
BRANCH   5  29
ATOM     29  C   UNL     1     -10.508  53.993  45.309  0.00  0.00    +0.000 C 
BRANCH  29  30
ATOM     30  C   UNL     1     -11.135  52.588  45.282  0.00  0.00    +0.000 C 
BRANCH  30  31
ATOM     31  C   UNL     1     -11.201  51.832  46.619  0.00  0.00    +0.000 C 
ATOM     32  C   UNL     1     -12.531  51.107  46.815  0.00  0.00    +0.000 C 
ATOM     33  C   UNL     1     -10.049  50.820  46.668  0.00  0.00    +0.000 C 
ENDBRANCH  30  31
ENDBRANCH  29  30
ENDBRANCH   5  29
TORSDOF 5
ENDMDL
