MODEL 1
REMARK VINA RESULT:      -8.2      0.000      0.000
REMARK  Name = 338093
REMARK  7 active torsions:
REMARK  status: ('A' for Active; 'I' for Inactive)
REMARK    1  A    between atoms: C_7  and  O_9
REMARK    2  A    between atoms: C_10  and  C_13
REMARK    3  A    between atoms: N_11  and  C_14
REMARK    4  A    between atoms: C_14  and  C_18
REMARK    5  A    between atoms: C_18  and  C_21
REMARK    6  A    between atoms: C_21  and  C_26
REMARK    7  A    between atoms: C_21  and  C_27
REMARK                            x       y       z     vdW  Elec       q    Type
REMARK                         _______ _______ _______ _____ _____    ______ ____
ROOT
ATOM      1 CL   UNL     1      -8.027  54.964  45.264  0.00  0.00    +0.000 Cl
ATOM      2  C   UNL     1      -9.042  55.189  46.637  0.00  0.00    +0.000 A 
ATOM      3  C   UNL     1      -8.511  55.060  47.916  0.00  0.00    +0.000 A 
ATOM      4  C   UNL     1     -10.390  55.438  46.455  0.00  0.00    +0.000 A 
ATOM      5  C   UNL     1      -9.348  55.166  49.049  0.00  0.00    +0.000 A 
ATOM      6  C   UNL     1     -11.227  55.576  47.566  0.00  0.00    +0.000 A 
ATOM      7  C   UNL     1      -8.886  54.775  50.396  0.00  0.00    +0.000 A 
ATOM      8  C   UNL     1     -10.725  55.452  48.868  0.00  0.00    +0.000 A 
ATOM      9  C   UNL     1      -9.795  54.623  51.375  0.00  0.00    +0.000 A 
ATOM     10  N   UNL     1     -11.567  55.588  50.012  0.00  0.00    +0.000 N 
ATOM     11  C   UNL     1     -11.095  55.328  51.290  0.00  0.00    +0.000 A 
ATOM     12  O   UNL     1     -11.726  55.605  52.309  0.00  0.00    +0.000 OA
ENDROOT
BRANCH   9  13
ATOM     13  C   UNL     1      -9.434  53.815  52.575  0.00  0.00    +0.000 C 
ATOM     14  N   UNL     1      -9.095  52.559  52.418  0.00  0.00    +0.000 N 
ATOM     15  N   UNL     1      -9.358  54.438  53.818  0.00  0.00    +0.000 N 
ATOM     16  S   UNL     1      -8.315  51.851  53.663  0.00  0.00    +0.000 S 
ATOM     17  C   UNL     1      -7.978  54.455  54.185  0.00  0.00    +0.000 A 
ATOM     18  O   UNL     1      -7.418  50.836  53.173  0.00  0.00    +0.000 OA
ATOM     19  O   UNL     1      -9.265  51.576  54.728  0.00  0.00    +0.000 OA
ATOM     20  C   UNL     1      -7.304  53.224  54.250  0.00  0.00    +0.000 A 
ATOM     21  C   UNL     1      -7.255  55.620  53.941  0.00  0.00    +0.000 A 
ATOM     22  C   UNL     1      -5.911  53.148  54.218  0.00  0.00    +0.000 A 
ATOM     23  C   UNL     1      -5.873  55.541  53.781  0.00  0.00    +0.000 A 
ATOM     24  C   UNL     1      -5.208  54.321  53.957  0.00  0.00    +0.000 A 
ATOM     25  H   UNL     1      -9.301  52.067  51.591  0.00  0.00    +0.000 HD
ATOM     26  H   UNL     1     -10.110  54.797  54.342  0.00  0.00    +0.000 HD
ENDBRANCH   9  13
BRANCH   7  27
ATOM     27  O   UNL     1      -7.560  54.426  50.589  0.00  0.00    +0.000 OA
ATOM     28  H   UNL     1      -6.879  54.945  50.206  0.00  0.00    +0.000 HD
ENDBRANCH   7  27
BRANCH  10  29
ATOM     29  C   UNL     1     -13.007  55.832  49.888  0.00  0.00    +0.000 C 
BRANCH  29  30
ATOM     30  C   UNL     1     -13.285  57.341  49.960  0.00  0.00    +0.000 C 
BRANCH  30  31
ATOM     31  C   UNL     1     -14.641  57.726  50.566  0.00  0.00    +0.000 C 
ATOM     32  C   UNL     1     -14.962  56.943  51.839  0.00  0.00    +0.000 C 
ATOM     33  C   UNL     1     -14.644  59.227  50.877  0.00  0.00    +0.000 C 
ENDBRANCH  30  31
ENDBRANCH  29  30
ENDBRANCH  10  29
TORSDOF 5
ENDMDL
MODEL 2
REMARK VINA RESULT:      -8.1      3.765      7.297
REMARK  Name = 338093
REMARK  7 active torsions:
REMARK  status: ('A' for Active; 'I' for Inactive)
REMARK    1  A    between atoms: C_7  and  O_9
REMARK    2  A    between atoms: C_10  and  C_13
REMARK    3  A    between atoms: N_11  and  C_14
REMARK    4  A    between atoms: C_14  and  C_18
REMARK    5  A    between atoms: C_18  and  C_21
REMARK    6  A    between atoms: C_21  and  C_26
REMARK    7  A    between atoms: C_21  and  C_27
REMARK                            x       y       z     vdW  Elec       q    Type
REMARK                         _______ _______ _______ _____ _____    ______ ____
ROOT
ATOM      1 CL   UNL     1      -8.339  52.307  54.205  0.00  0.00    +0.000 Cl
ATOM      2  C   UNL     1      -9.015  52.701  52.670  0.00  0.00    +0.000 A 
ATOM      3  C   UNL     1      -9.906  53.763  52.561  0.00  0.00    +0.000 A 
ATOM      4  C   UNL     1      -8.709  51.921  51.570  0.00  0.00    +0.000 A 
ATOM      5  C   UNL     1     -10.526  54.048  51.324  0.00  0.00    +0.000 A 
ATOM      6  C   UNL     1      -9.290  52.208  50.332  0.00  0.00    +0.000 A 
ATOM      7  C   UNL     1     -11.666  54.981  51.224  0.00  0.00    +0.000 A 
ATOM      8  C   UNL     1     -10.193  53.270  50.187  0.00  0.00    +0.000 A 
ATOM      9  C   UNL     1     -12.394  54.998  50.093  0.00  0.00    +0.000 A 
ATOM     10  N   UNL     1     -10.796  53.575  48.930  0.00  0.00    +0.000 N 
ATOM     11  C   UNL     1     -11.790  54.535  48.822  0.00  0.00    +0.000 A 
ATOM     12  O   UNL     1     -12.205  54.954  47.742  0.00  0.00    +0.000 OA
ENDROOT
BRANCH   9  13
ATOM     13  C   UNL     1     -13.770  55.569  50.130  0.00  0.00    +0.000 C 
ATOM     14  N   UNL     1     -14.455  55.511  51.246  0.00  0.00    +0.000 N 
ATOM     15  N   UNL     1     -14.256  56.248  49.015  0.00  0.00    +0.000 N 
ATOM     16  S   UNL     1     -15.746  56.499  51.364  0.00  0.00    +0.000 S 
ATOM     17  C   UNL     1     -14.346  57.625  49.380  0.00  0.00    +0.000 A 
ATOM     18  O   UNL     1     -15.957  56.876  52.738  0.00  0.00    +0.000 OA
ATOM     19  O   UNL     1     -16.826  55.974  50.546  0.00  0.00    +0.000 OA
ATOM     20  C   UNL     1     -15.136  57.955  50.494  0.00  0.00    +0.000 A 
ATOM     21  C   UNL     1     -13.301  58.466  49.008  0.00  0.00    +0.000 A 
ATOM     22  C   UNL     1     -14.995  59.175  51.158  0.00  0.00    +0.000 A 
ATOM     23  C   UNL     1     -13.069  59.628  49.742  0.00  0.00    +0.000 A 
ATOM     24  C   UNL     1     -13.933  59.993  50.782  0.00  0.00    +0.000 A 
ATOM     25  H   UNL     1     -14.202  54.901  51.976  0.00  0.00    +0.000 HD
ATOM     26  H   UNL     1     -14.492  55.854  48.143  0.00  0.00    +0.000 HD
ENDBRANCH   9  13
BRANCH   7  27
ATOM     27  O   UNL     1     -12.057  55.706  52.338  0.00  0.00    +0.000 OA
ATOM     28  H   UNL     1     -12.436  56.558  52.232  0.00  0.00    +0.000 HD
ENDBRANCH   7  27
BRANCH  10  29
ATOM     29  C   UNL     1     -10.531  52.775  47.730  0.00  0.00    +0.000 C 
BRANCH  29  30
ATOM     30  C   UNL     1      -9.226  53.246  47.073  0.00  0.00    +0.000 C 
BRANCH  30  31
ATOM     31  C   UNL     1      -9.403  54.120  45.824  0.00  0.00    +0.000 C 
ATOM     32  C   UNL     1      -8.073  54.478  45.160  0.00  0.00    +0.000 C 
ATOM     33  C   UNL     1     -10.294  53.384  44.818  0.00  0.00    +0.000 C 
ENDBRANCH  30  31
ENDBRANCH  29  30
ENDBRANCH  10  29
TORSDOF 5
ENDMDL
MODEL 3
REMARK VINA RESULT:      -8.0      3.736      6.794
REMARK  Name = 338093
REMARK  7 active torsions:
REMARK  status: ('A' for Active; 'I' for Inactive)
REMARK    1  A    between atoms: C_7  and  O_9
REMARK    2  A    between atoms: C_10  and  C_13
REMARK    3  A    between atoms: N_11  and  C_14
REMARK    4  A    between atoms: C_14  and  C_18
REMARK    5  A    between atoms: C_18  and  C_21
REMARK    6  A    between atoms: C_21  and  C_26
REMARK    7  A    between atoms: C_21  and  C_27
REMARK                            x       y       z     vdW  Elec       q    Type
REMARK                         _______ _______ _______ _____ _____    ______ ____
ROOT
ATOM      1 CL   UNL     1      -8.823  49.338  51.030  0.00  0.00    +0.000 Cl
ATOM      2  C   UNL     1      -9.111  50.946  50.486  0.00  0.00    +0.000 A 
ATOM      3  C   UNL     1      -9.880  51.809  51.259  0.00  0.00    +0.000 A 
ATOM      4  C   UNL     1      -8.623  51.347  49.255  0.00  0.00    +0.000 A 
ATOM      5  C   UNL     1     -10.188  53.105  50.788  0.00  0.00    +0.000 A 
ATOM      6  C   UNL     1      -8.893  52.637  48.788  0.00  0.00    +0.000 A 
ATOM      7  C   UNL     1     -11.210  53.947  51.443  0.00  0.00    +0.000 A 
ATOM      8  C   UNL     1      -9.665  53.531  49.542  0.00  0.00    +0.000 A 
ATOM      9  C   UNL     1     -11.664  55.035  50.797  0.00  0.00    +0.000 A 
ATOM     10  N   UNL     1      -9.951  54.850  49.077  0.00  0.00    +0.000 N 
ATOM     11  C   UNL     1     -10.826  55.680  49.759  0.00  0.00    +0.000 A 
ATOM     12  O   UNL     1     -10.961  56.875  49.499  0.00  0.00    +0.000 OA
ENDROOT
BRANCH   9  13
ATOM     13  C   UNL     1     -12.972  55.623  51.207  0.00  0.00    +0.000 C 
ATOM     14  N   UNL     1     -13.004  56.471  52.205  0.00  0.00    +0.000 N 
ATOM     15  N   UNL     1     -14.110  55.344  50.454  0.00  0.00    +0.000 N 
ATOM     16  S   UNL     1     -14.342  57.392  52.340  0.00  0.00    +0.000 S 
ATOM     17  C   UNL     1     -14.476  56.560  49.799  0.00  0.00    +0.000 A 
ATOM     18  O   UNL     1     -14.011  58.665  52.928  0.00  0.00    +0.000 OA
ATOM     19  O   UNL     1     -15.432  56.579  52.853  0.00  0.00    +0.000 OA
ATOM     20  C   UNL     1     -14.725  57.685  50.603  0.00  0.00    +0.000 A 
ATOM     21  C   UNL     1     -14.066  56.737  48.481  0.00  0.00    +0.000 A 
ATOM     22  C   UNL     1     -14.710  58.979  50.078  0.00  0.00    +0.000 A 
ATOM     23  C   UNL     1     -13.926  58.029  47.980  0.00  0.00    +0.000 A 
ATOM     24  C   UNL     1     -14.282  59.135  48.762  0.00  0.00    +0.000 A 
ATOM     25  H   UNL     1     -12.256  56.549  52.842  0.00  0.00    +0.000 HD
ATOM     26  H   UNL     1     -14.572  54.478  50.387  0.00  0.00    +0.000 HD
ENDBRANCH   9  13
BRANCH   7  27
ATOM     27  O   UNL     1     -11.787  53.524  52.628  0.00  0.00    +0.000 OA
ATOM     28  H   UNL     1     -11.274  53.488  53.412  0.00  0.00    +0.000 HD
ENDBRANCH   7  27
BRANCH  10  29
ATOM     29  C   UNL     1      -9.481  55.330  47.774  0.00  0.00    +0.000 C 
BRANCH  29  30
ATOM     30  C   UNL     1     -10.669  55.456  46.809  0.00  0.00    +0.000 C 
BRANCH  30  31
ATOM     31  C   UNL     1     -10.794  54.326  45.778  0.00  0.00    +0.000 C 
ATOM     32  C   UNL     1      -9.439  53.750  45.366  0.00  0.00    +0.000 C 
ATOM     33  C   UNL     1     -11.668  53.209  46.360  0.00  0.00    +0.000 C 
ENDBRANCH  30  31
ENDBRANCH  29  30
ENDBRANCH  10  29
TORSDOF 5
ENDMDL
MODEL 4
REMARK VINA RESULT:      -7.8      2.586      4.704
REMARK  Name = 338093
REMARK  7 active torsions:
REMARK  status: ('A' for Active; 'I' for Inactive)
REMARK    1  A    between atoms: C_7  and  O_9
REMARK    2  A    between atoms: C_10  and  C_13
REMARK    3  A    between atoms: N_11  and  C_14
REMARK    4  A    between atoms: C_14  and  C_18
REMARK    5  A    between atoms: C_18  and  C_21
REMARK    6  A    between atoms: C_21  and  C_26
REMARK    7  A    between atoms: C_21  and  C_27
REMARK                            x       y       z     vdW  Elec       q    Type
REMARK                         _______ _______ _______ _____ _____    ______ ____
ROOT
ATOM      1 CL   UNL     1     -15.065  59.454  50.411  0.00  0.00    +0.000 Cl
ATOM      2  C   UNL     1     -14.158  58.098  49.859  0.00  0.00    +0.000 A 
ATOM      3  C   UNL     1     -13.544  57.258  50.782  0.00  0.00    +0.000 A 
ATOM      4  C   UNL     1     -13.999  57.891  48.501  0.00  0.00    +0.000 A 
ATOM      5  C   UNL     1     -12.734  56.188  50.340  0.00  0.00    +0.000 A 
ATOM      6  C   UNL     1     -13.226  56.818  48.048  0.00  0.00    +0.000 A 
ATOM      7  C   UNL     1     -11.857  55.444  51.268  0.00  0.00    +0.000 A 
ATOM      8  C   UNL     1     -12.593  55.953  48.950  0.00  0.00    +0.000 A 
ATOM      9  C   UNL     1     -10.907  54.640  50.758  0.00  0.00    +0.000 A 
ATOM     10  N   UNL     1     -11.798  54.855  48.502  0.00  0.00    +0.000 N 
ATOM     11  C   UNL     1     -11.064  54.087  49.393  0.00  0.00    +0.000 A 
ATOM     12  O   UNL     1     -10.516  53.032  49.077  0.00  0.00    +0.000 OA
ENDROOT
BRANCH   9  13
ATOM     13  C   UNL     1      -9.754  54.251  51.620  0.00  0.00    +0.000 C 
ATOM     14  N   UNL     1      -9.528  52.980  51.845  0.00  0.00    +0.000 N 
ATOM     15  N   UNL     1      -8.881  55.235  52.075  0.00  0.00    +0.000 N 
ATOM     16  S   UNL     1      -8.052  52.590  52.417  0.00  0.00    +0.000 S 
ATOM     17  C   UNL     1      -7.641  55.030  51.397  0.00  0.00    +0.000 A 
ATOM     18  O   UNL     1      -7.677  51.274  51.967  0.00  0.00    +0.000 OA
ATOM     19  O   UNL     1      -7.969  52.965  53.819  0.00  0.00    +0.000 OA
ATOM     20  C   UNL     1      -7.023  53.776  51.531  0.00  0.00    +0.000 A 
ATOM     21  C   UNL     1      -7.381  55.805  50.270  0.00  0.00    +0.000 A 
ATOM     22  C   UNL     1      -6.045  53.340  50.636  0.00  0.00    +0.000 A 
ATOM     23  C   UNL     1      -6.499  55.325  49.304  0.00  0.00    +0.000 A 
ATOM     24  C   UNL     1      -5.811  54.122  49.507  0.00  0.00    +0.000 A 
ATOM     25  H   UNL     1     -10.215  52.294  51.676  0.00  0.00    +0.000 HD
ATOM     26  H   UNL     1      -9.080  55.937  52.737  0.00  0.00    +0.000 HD
ENDBRANCH   9  13
BRANCH   7  27
ATOM     27  O   UNL     1     -11.925  55.700  52.627  0.00  0.00    +0.000 OA
ATOM     28  H   UNL     1     -11.389  55.213  53.223  0.00  0.00    +0.000 HD
ENDBRANCH   7  27
BRANCH  10  29
ATOM     29  C   UNL     1     -11.574  54.592  47.078  0.00  0.00    +0.000 C 
BRANCH  29  30
ATOM     30  C   UNL     1     -10.230  55.194  46.645  0.00  0.00    +0.000 C 
BRANCH  30  31
ATOM     31  C   UNL     1      -9.235  54.198  46.035  0.00  0.00    +0.000 C 
ATOM     32  C   UNL     1      -9.814  53.444  44.837  0.00  0.00    +0.000 C 
ATOM     33  C   UNL     1      -7.972  54.950  45.601  0.00  0.00    +0.000 C 
ENDBRANCH  30  31
ENDBRANCH  29  30
ENDBRANCH  10  29
TORSDOF 5
ENDMDL
MODEL 5
REMARK VINA RESULT:      -7.7      2.791      4.733
REMARK  Name = 338093
REMARK  7 active torsions:
REMARK  status: ('A' for Active; 'I' for Inactive)
REMARK    1  A    between atoms: C_7  and  O_9
REMARK    2  A    between atoms: C_10  and  C_13
REMARK    3  A    between atoms: N_11  and  C_14
REMARK    4  A    between atoms: C_14  and  C_18
REMARK    5  A    between atoms: C_18  and  C_21
REMARK    6  A    between atoms: C_21  and  C_26
REMARK    7  A    between atoms: C_21  and  C_27
REMARK                            x       y       z     vdW  Elec       q    Type
REMARK                         _______ _______ _______ _____ _____    ______ ____
ROOT
ATOM      1 CL   UNL     1     -14.803  57.597  52.648  0.00  0.00    +0.000 Cl
ATOM      2  C   UNL     1     -13.653  56.898  51.574  0.00  0.00    +0.000 A 
ATOM      3  C   UNL     1     -12.691  56.024  52.068  0.00  0.00    +0.000 A 
ATOM      4  C   UNL     1     -13.660  57.258  50.238  0.00  0.00    +0.000 A 
ATOM      5  C   UNL     1     -11.695  55.504  51.211  0.00  0.00    +0.000 A 
ATOM      6  C   UNL     1     -12.701  56.728  49.371  0.00  0.00    +0.000 A 
ATOM      7  C   UNL     1     -10.510  54.796  51.737  0.00  0.00    +0.000 A 
ATOM      8  C   UNL     1     -11.717  55.846  49.836  0.00  0.00    +0.000 A 
ATOM      9  C   UNL     1      -9.467  54.579  50.917  0.00  0.00    +0.000 A 
ATOM     10  N   UNL     1     -10.729  55.299  48.963  0.00  0.00    +0.000 N 
ATOM     11  C   UNL     1      -9.678  54.538  49.451  0.00  0.00    +0.000 A 
ATOM     12  O   UNL     1      -8.914  53.902  48.726  0.00  0.00    +0.000 OA
ENDROOT
BRANCH   9  13
ATOM     13  C   UNL     1      -8.130  54.293  51.511  0.00  0.00    +0.000 C 
ATOM     14  N   UNL     1      -7.669  55.081  52.452  0.00  0.00    +0.000 N 
ATOM     15  N   UNL     1      -7.449  53.138  51.134  0.00  0.00    +0.000 N 
ATOM     16  S   UNL     1      -6.437  54.504  53.351  0.00  0.00    +0.000 S 
ATOM     17  C   UNL     1      -7.448  52.273  52.270  0.00  0.00    +0.000 A 
ATOM     18  O   UNL     1      -6.496  55.050  54.682  0.00  0.00    +0.000 OA
ATOM     19  O   UNL     1      -5.214  54.545  52.566  0.00  0.00    +0.000 OA
ATOM     20  C   UNL     1      -6.889  52.762  53.463  0.00  0.00    +0.000 A 
ATOM     21  C   UNL     1      -8.414  51.272  52.327  0.00  0.00    +0.000 A 
ATOM     22  C   UNL     1      -7.169  52.177  54.699  0.00  0.00    +0.000 A 
ATOM     23  C   UNL     1      -8.796  50.766  53.567  0.00  0.00    +0.000 A 
ATOM     24  C   UNL     1      -8.151  51.190  54.735  0.00  0.00    +0.000 A 
ATOM     25  H   UNL     1      -8.049  55.976  52.609  0.00  0.00    +0.000 HD
ATOM     26  H   UNL     1      -7.047  52.954  50.254  0.00  0.00    +0.000 HD
ENDBRANCH   9  13
BRANCH   7  27
ATOM     27  O   UNL     1     -10.430  54.507  53.089  0.00  0.00    +0.000 OA
ATOM     28  H   UNL     1     -10.374  55.204  53.714  0.00  0.00    +0.000 HD
ENDBRANCH   7  27
BRANCH  10  29
ATOM     29  C   UNL     1     -10.669  55.655  47.542  0.00  0.00    +0.000 C 
BRANCH  29  30
ATOM     30  C   UNL     1     -11.740  54.874  46.767  0.00  0.00    +0.000 C 
BRANCH  30  31
ATOM     31  C   UNL     1     -11.322  53.469  46.314  0.00  0.00    +0.000 C 
ATOM     32  C   UNL     1     -12.165  52.366  46.956  0.00  0.00    +0.000 C 
ATOM     33  C   UNL     1     -11.439  53.377  44.788  0.00  0.00    +0.000 C 
ENDBRANCH  30  31
ENDBRANCH  29  30
ENDBRANCH  10  29
TORSDOF 5
ENDMDL
MODEL 6
REMARK VINA RESULT:      -7.6      3.366      6.257
REMARK  Name = 338093
REMARK  7 active torsions:
REMARK  status: ('A' for Active; 'I' for Inactive)
REMARK    1  A    between atoms: C_7  and  O_9
REMARK    2  A    between atoms: C_10  and  C_13
REMARK    3  A    between atoms: N_11  and  C_14
REMARK    4  A    between atoms: C_14  and  C_18
REMARK    5  A    between atoms: C_18  and  C_21
REMARK    6  A    between atoms: C_21  and  C_26
REMARK    7  A    between atoms: C_21  and  C_27
REMARK                            x       y       z     vdW  Elec       q    Type
REMARK                         _______ _______ _______ _____ _____    ______ ____
ROOT
ATOM      1 CL   UNL     1      -4.929  55.324  54.479  0.00  0.00    +0.000 Cl
ATOM      2  C   UNL     1      -6.378  54.863  53.669  0.00  0.00    +0.000 A 
ATOM      3  C   UNL     1      -6.306  54.095  52.513  0.00  0.00    +0.000 A 
ATOM      4  C   UNL     1      -7.597  55.311  54.145  0.00  0.00    +0.000 A 
ATOM      5  C   UNL     1      -7.482  53.775  51.797  0.00  0.00    +0.000 A 
ATOM      6  C   UNL     1      -8.772  54.977  53.466  0.00  0.00    +0.000 A 
ATOM      7  C   UNL     1      -7.431  53.198  50.438  0.00  0.00    +0.000 A 
ATOM      8  C   UNL     1      -8.736  54.205  52.297  0.00  0.00    +0.000 A 
ATOM      9  C   UNL     1      -8.554  53.181  49.698  0.00  0.00    +0.000 A 
ATOM     10  N   UNL     1      -9.927  53.859  51.591  0.00  0.00    +0.000 N 
ATOM     11  C   UNL     1      -9.877  53.214  50.365  0.00  0.00    +0.000 A 
ATOM     12  O   UNL     1     -10.868  52.739  49.814  0.00  0.00    +0.000 OA
ENDROOT
BRANCH   9  13
ATOM     13  C   UNL     1      -8.440  53.038  48.219  0.00  0.00    +0.000 C 
ATOM     14  N   UNL     1      -8.813  51.914  47.657  0.00  0.00    +0.000 N 
ATOM     15  N   UNL     1      -8.044  54.134  47.457  0.00  0.00    +0.000 N 
ATOM     16  S   UNL     1      -9.072  51.952  46.048  0.00  0.00    +0.000 S 
ATOM     17  C   UNL     1      -9.187  54.545  46.704  0.00  0.00    +0.000 A 
ATOM     18  O   UNL     1     -10.087  50.997  45.686  0.00  0.00    +0.000 OA
ATOM     19  O   UNL     1      -7.792  51.998  45.360  0.00  0.00    +0.000 OA
ATOM     20  C   UNL     1      -9.788  53.596  45.860  0.00  0.00    +0.000 A 
ATOM     21  C   UNL     1      -9.948  55.599  47.200  0.00  0.00    +0.000 A 
ATOM     22  C   UNL     1     -11.092  53.755  45.388  0.00  0.00    +0.000 A 
ATOM     23  C   UNL     1     -11.289  55.700  46.837  0.00  0.00    +0.000 A 
ATOM     24  C   UNL     1     -11.841  54.807  45.910  0.00  0.00    +0.000 A 
ATOM     25  H   UNL     1      -8.933  51.089  48.180  0.00  0.00    +0.000 HD
ATOM     26  H   UNL     1      -7.150  54.547  47.440  0.00  0.00    +0.000 HD
ENDBRANCH   9  13
BRANCH   7  27
ATOM     27  O   UNL     1      -6.211  52.829  49.897  0.00  0.00    +0.000 OA
ATOM     28  H   UNL     1      -6.182  52.251  49.159  0.00  0.00    +0.000 HD
ENDBRANCH   7  27
BRANCH  10  29
ATOM     29  C   UNL     1     -11.248  54.318  52.031  0.00  0.00    +0.000 C 
BRANCH  29  30
ATOM     30  C   UNL     1     -11.585  55.653  51.352  0.00  0.00    +0.000 C 
BRANCH  30  31
ATOM     31  C   UNL     1     -13.083  55.932  51.169  0.00  0.00    +0.000 C 
ATOM     32  C   UNL     1     -13.656  56.825  52.270  0.00  0.00    +0.000 C 
ATOM     33  C   UNL     1     -13.309  56.595  49.806  0.00  0.00    +0.000 C 
ENDBRANCH  30  31
ENDBRANCH  29  30
ENDBRANCH  10  29
TORSDOF 5
ENDMDL
MODEL 7
REMARK VINA RESULT:      -7.5      2.563      3.473
REMARK  Name = 338093
REMARK  7 active torsions:
REMARK  status: ('A' for Active; 'I' for Inactive)
REMARK    1  A    between atoms: C_7  and  O_9
REMARK    2  A    between atoms: C_10  and  C_13
REMARK    3  A    between atoms: N_11  and  C_14
REMARK    4  A    between atoms: C_14  and  C_18
REMARK    5  A    between atoms: C_18  and  C_21
REMARK    6  A    between atoms: C_21  and  C_26
REMARK    7  A    between atoms: C_21  and  C_27
REMARK                            x       y       z     vdW  Elec       q    Type
REMARK                         _______ _______ _______ _____ _____    ______ ____
ROOT
ATOM      1 CL   UNL     1      -9.484  52.455  42.693  0.00  0.00    +0.000 Cl
ATOM      2  C   UNL     1      -9.947  53.226  44.162  0.00  0.00    +0.000 A 
ATOM      3  C   UNL     1      -8.970  53.644  45.059  0.00  0.00    +0.000 A 
ATOM      4  C   UNL     1     -11.289  53.369  44.464  0.00  0.00    +0.000 A 
ATOM      5  C   UNL     1      -9.338  54.207  46.301  0.00  0.00    +0.000 A 
ATOM      6  C   UNL     1     -11.671  53.953  45.675  0.00  0.00    +0.000 A 
ATOM      7  C   UNL     1      -8.353  54.414  47.382  0.00  0.00    +0.000 A 
ATOM      8  C   UNL     1     -10.712  54.385  46.602  0.00  0.00    +0.000 A 
ATOM      9  C   UNL     1      -8.798  54.680  48.623  0.00  0.00    +0.000 A 
ATOM     10  N   UNL     1     -11.085  54.980  47.844  0.00  0.00    +0.000 N 
ATOM     11  C   UNL     1     -10.140  55.278  48.813  0.00  0.00    +0.000 A 
ATOM     12  O   UNL     1     -10.391  55.950  49.812  0.00  0.00    +0.000 OA
ENDROOT
BRANCH   9  13
ATOM     13  C   UNL     1      -7.888  54.446  49.781  0.00  0.00    +0.000 C 
ATOM     14  N   UNL     1      -7.490  55.470  50.495  0.00  0.00    +0.000 N 
ATOM     15  N   UNL     1      -7.569  53.140  50.144  0.00  0.00    +0.000 N 
ATOM     16  S   UNL     1      -6.865  55.138  51.964  0.00  0.00    +0.000 S 
ATOM     17  C   UNL     1      -8.210  52.894  51.396  0.00  0.00    +0.000 A 
ATOM     18  O   UNL     1      -7.129  56.224  52.872  0.00  0.00    +0.000 OA
ATOM     19  O   UNL     1      -5.527  54.592  51.801  0.00  0.00    +0.000 OA
ATOM     20  C   UNL     1      -7.903  53.752  52.466  0.00  0.00    +0.000 A 
ATOM     21  C   UNL     1      -9.431  52.227  51.383  0.00  0.00    +0.000 A 
ATOM     22  C   UNL     1      -8.726  53.849  53.588  0.00  0.00    +0.000 A 
ATOM     23  C   UNL     1     -10.320  52.413  52.440  0.00  0.00    +0.000 A 
ATOM     24  C   UNL     1      -9.951  53.187  53.547  0.00  0.00    +0.000 A 
ATOM     25  H   UNL     1      -7.564  56.393  50.162  0.00  0.00    +0.000 HD
ATOM     26  H   UNL     1      -7.011  52.508  49.635  0.00  0.00    +0.000 HD
ENDBRANCH   9  13
BRANCH   7  27
ATOM     27  O   UNL     1      -7.010  54.185  47.137  0.00  0.00    +0.000 OA
ATOM     28  H   UNL     1      -6.488  54.849  46.729  0.00  0.00    +0.000 HD
ENDBRANCH   7  27
BRANCH  10  29
ATOM     29  C   UNL     1     -12.490  55.143  48.233  0.00  0.00    +0.000 C 
BRANCH  29  30
ATOM     30  C   UNL     1     -13.009  56.501  47.738  0.00  0.00    +0.000 C 
BRANCH  30  31
ATOM     31  C   UNL     1     -14.111  57.130  48.601  0.00  0.00    +0.000 C 
ATOM     32  C   UNL     1     -14.433  56.302  49.845  0.00  0.00    +0.000 C 
ATOM     33  C   UNL     1     -13.675  58.537  49.025  0.00  0.00    +0.000 C 
ENDBRANCH  30  31
ENDBRANCH  29  30
ENDBRANCH  10  29
TORSDOF 5
ENDMDL
MODEL 8
REMARK VINA RESULT:      -7.4      2.327      2.990
REMARK  Name = 338093
REMARK  7 active torsions:
REMARK  status: ('A' for Active; 'I' for Inactive)
REMARK    1  A    between atoms: C_7  and  O_9
REMARK    2  A    between atoms: C_10  and  C_13
REMARK    3  A    between atoms: N_11  and  C_14
REMARK    4  A    between atoms: C_14  and  C_18
REMARK    5  A    between atoms: C_18  and  C_21
REMARK    6  A    between atoms: C_21  and  C_26
REMARK    7  A    between atoms: C_21  and  C_27
REMARK                            x       y       z     vdW  Elec       q    Type
REMARK                         _______ _______ _______ _____ _____    ______ ____
ROOT
ATOM      1 CL   UNL     1     -10.820  53.639  44.810  0.00  0.00    +0.000 Cl
ATOM      2  C   UNL     1     -10.763  54.006  46.492  0.00  0.00    +0.000 A 
ATOM      3  C   UNL     1      -9.550  54.341  47.084  0.00  0.00    +0.000 A 
ATOM      4  C   UNL     1     -11.915  53.907  47.251  0.00  0.00    +0.000 A 
ATOM      5  C   UNL     1      -9.477  54.569  48.476  0.00  0.00    +0.000 A 
ATOM      6  C   UNL     1     -11.866  54.160  48.625  0.00  0.00    +0.000 A 
ATOM      7  C   UNL     1      -8.182  54.661  49.181  0.00  0.00    +0.000 A 
ATOM      8  C   UNL     1     -10.660  54.499  49.253  0.00  0.00    +0.000 A 
ATOM      9  C   UNL     1      -8.168  54.591  50.524  0.00  0.00    +0.000 A 
ATOM     10  N   UNL     1     -10.593  54.757  50.655  0.00  0.00    +0.000 N 
ATOM     11  C   UNL     1      -9.379  54.956  51.294  0.00  0.00    +0.000 A 
ATOM     12  O   UNL     1      -9.287  55.357  52.453  0.00  0.00    +0.000 OA
ENDROOT
BRANCH   9  13
ATOM     13  C   UNL     1      -6.895  54.230  51.213  0.00  0.00    +0.000 C 
ATOM     14  N   UNL     1      -6.361  55.084  52.051  0.00  0.00    +0.000 N 
ATOM     15  N   UNL     1      -6.363  52.956  51.036  0.00  0.00    +0.000 N 
ATOM     16  S   UNL     1      -5.239  54.496  53.078  0.00  0.00    +0.000 S 
ATOM     17  C   UNL     1      -6.505  52.275  52.283  0.00  0.00    +0.000 A 
ATOM     18  O   UNL     1      -5.261  55.235  54.313  0.00  0.00    +0.000 OA
ATOM     19  O   UNL     1      -4.001  54.266  52.351  0.00  0.00    +0.000 OA
ATOM     20  C   UNL     1      -5.918  52.860  53.418  0.00  0.00    +0.000 A 
ATOM     21  C   UNL     1      -7.595  51.423  52.439  0.00  0.00    +0.000 A 
ATOM     22  C   UNL     1      -6.306  52.505  54.710  0.00  0.00    +0.000 A 
ATOM     23  C   UNL     1      -8.073  51.157  53.720  0.00  0.00    +0.000 A 
ATOM     24  C   UNL     1      -7.408  51.664  54.843  0.00  0.00    +0.000 A 
ATOM     25  H   UNL     1      -6.624  56.033  52.061  0.00  0.00    +0.000 HD
ATOM     26  H   UNL     1      -5.965  52.594  50.211  0.00  0.00    +0.000 HD
ENDBRANCH   9  13
BRANCH   7  27
ATOM     27  O   UNL     1      -7.005  54.665  48.451  0.00  0.00    +0.000 OA
ATOM     28  H   UNL     1      -6.505  55.455  48.374  0.00  0.00    +0.000 HD
ENDBRANCH   7  27
BRANCH  10  29
ATOM     29  C   UNL     1     -11.773  54.650  51.519  0.00  0.00    +0.000 C 
BRANCH  29  30
ATOM     30  C   UNL     1     -12.435  56.027  51.664  0.00  0.00    +0.000 C 
BRANCH  30  31
ATOM     31  C   UNL     1     -13.965  56.032  51.538  0.00  0.00    +0.000 C 
ATOM     32  C   UNL     1     -14.630  57.054  52.460  0.00  0.00    +0.000 C 
ATOM     33  C   UNL     1     -14.349  56.329  50.084  0.00  0.00    +0.000 C 
ENDBRANCH  30  31
ENDBRANCH  29  30
ENDBRANCH  10  29
TORSDOF 5
ENDMDL
MODEL 9
REMARK VINA RESULT:      -7.3      2.822      4.647
REMARK  Name = 338093
REMARK  7 active torsions:
REMARK  status: ('A' for Active; 'I' for Inactive)
REMARK    1  A    between atoms: C_7  and  O_9
REMARK    2  A    between atoms: C_10  and  C_13
REMARK    3  A    between atoms: N_11  and  C_14
REMARK    4  A    between atoms: C_14  and  C_18
REMARK    5  A    between atoms: C_18  and  C_21
REMARK    6  A    between atoms: C_21  and  C_26
REMARK    7  A    between atoms: C_21  and  C_27
REMARK                            x       y       z     vdW  Elec       q    Type
REMARK                         _______ _______ _______ _____ _____    ______ ____
ROOT
ATOM      1 CL   UNL     1     -14.369  57.706  51.961  0.00  0.00    +0.000 Cl
ATOM      2  C   UNL     1     -13.382  56.425  51.368  0.00  0.00    +0.000 A 
ATOM      3  C   UNL     1     -12.363  55.915  52.165  0.00  0.00    +0.000 A 
ATOM      4  C   UNL     1     -13.574  55.954  50.082  0.00  0.00    +0.000 A 
ATOM      5  C   UNL     1     -11.498  54.917  51.662  0.00  0.00    +0.000 A 
ATOM      6  C   UNL     1     -12.747  54.946  49.580  0.00  0.00    +0.000 A 
ATOM      7  C   UNL     1     -10.253  54.543  52.364  0.00  0.00    +0.000 A 
ATOM      8  C   UNL     1     -11.710  54.410  50.356  0.00  0.00    +0.000 A 
ATOM      9  C   UNL     1      -9.335  53.809  51.711  0.00  0.00    +0.000 A 
ATOM     10  N   UNL     1     -10.855  53.382  49.857  0.00  0.00    +0.000 N 
ATOM     11  C   UNL     1      -9.749  52.954  50.574  0.00  0.00    +0.000 A 
ATOM     12  O   UNL     1      -9.096  51.957  50.270  0.00  0.00    +0.000 OA
ENDROOT
BRANCH   9  13
ATOM     13  C   UNL     1      -7.929  53.806  52.206  0.00  0.00    +0.000 C 
ATOM     14  N   UNL     1      -7.373  52.666  52.536  0.00  0.00    +0.000 N 
ATOM     15  N   UNL     1      -7.203  54.994  52.204  0.00  0.00    +0.000 N 
ATOM     16  S   UNL     1      -5.747  52.654  52.658  0.00  0.00    +0.000 S 
ATOM     17  C   UNL     1      -6.194  54.856  51.204  0.00  0.00    +0.000 A 
ATOM     18  O   UNL     1      -5.234  51.353  52.316  0.00  0.00    +0.000 OA
ATOM     19  O   UNL     1      -5.356  53.326  53.886  0.00  0.00    +0.000 OA
ATOM     20  C   UNL     1      -5.301  53.777  51.321  0.00  0.00    +0.000 A 
ATOM     21  C   UNL     1      -6.441  55.407  49.949  0.00  0.00    +0.000 A 
ATOM     22  C   UNL     1      -4.545  53.329  50.236  0.00  0.00    +0.000 A 
ATOM     23  C   UNL     1      -5.786  54.885  48.836  0.00  0.00    +0.000 A 
ATOM     24  C   UNL     1      -4.821  53.882  48.988  0.00  0.00    +0.000 A 
ATOM     25  H   UNL     1      -7.910  51.857  52.702  0.00  0.00    +0.000 HD
ATOM     26  H   UNL     1      -7.357  55.778  52.781  0.00  0.00    +0.000 HD
ENDBRANCH   9  13
BRANCH   7  27
ATOM     27  O   UNL     1      -9.987  55.075  53.615  0.00  0.00    +0.000 OA
ATOM     28  H   UNL     1     -10.694  55.324  54.178  0.00  0.00    +0.000 HD
ENDBRANCH   7  27
BRANCH  10  29
ATOM     29  C   UNL     1     -10.993  52.854  48.496  0.00  0.00    +0.000 C 
BRANCH  29  30
ATOM     30  C   UNL     1      -9.814  53.328  47.635  0.00  0.00    +0.000 C 
BRANCH  30  31
ATOM     31  C   UNL     1      -9.933  54.759  47.095  0.00  0.00    +0.000 C 
ATOM     32  C   UNL     1      -8.705  55.193  46.295  0.00  0.00    +0.000 C 
ATOM     33  C   UNL     1     -11.181  54.860  46.211  0.00  0.00    +0.000 C 
ENDBRANCH  30  31
ENDBRANCH  29  30
ENDBRANCH  10  29
TORSDOF 5
ENDMDL
