MODEL 1
REMARK VINA RESULT:      -8.6      0.000      0.000
REMARK  Name = 338168
REMARK  5 active torsions:
REMARK  status: ('A' for Active; 'I' for Inactive)
REMARK    1  A    between atoms: C_6  and  C_10
REMARK    2  A    between atoms: C_14  and  O_18
REMARK    3  A    between atoms: N_17  and  C_21
REMARK    4  A    between atoms: C_21  and  C_24
REMARK    5  A    between atoms: C_24  and  C_27
REMARK                            x       y       z     vdW  Elec       q    Type
REMARK                         _______ _______ _______ _____ _____    ______ ____
ROOT
ATOM      1  C   UNL     1      -9.984  54.547  52.367  0.00  0.00    +0.000 A 
ATOM      2  C   UNL     1      -8.588  55.047  52.251  0.00  0.00    +0.000 A 
ATOM      3  C   UNL     1     -10.242  53.418  53.048  0.00  0.00    +0.000 A 
ATOM      4  O   UNL     1      -8.381  55.983  51.477  0.00  0.00    +0.000 OA
ATOM      5  N   UNL     1      -7.591  54.467  53.042  0.00  0.00    +0.000 N 
ATOM      6  C   UNL     1      -9.163  52.702  53.736  0.00  0.00    +0.000 A 
ATOM      7  C   UNL     1      -7.859  53.239  53.753  0.00  0.00    +0.000 A 
ATOM      8  C   UNL     1      -9.445  51.505  54.421  0.00  0.00    +0.000 A 
ATOM      9  C   UNL     1      -6.867  52.541  54.469  0.00  0.00    +0.000 A 
ATOM     10  C   UNL     1      -8.453  50.859  55.138  0.00  0.00    +0.000 A 
ATOM     11  C   UNL     1      -7.167  51.369  55.171  0.00  0.00    +0.000 A 
ATOM     12  F   UNL     1      -8.742  49.739  55.812  0.00  0.00    +0.000 F 
ENDROOT
BRANCH   1  18
ATOM     13  S   UNL     1     -12.367  55.797  49.433  0.00  0.00    +0.000 S 
ATOM     14  O   UNL     1     -13.039  54.550  49.145  0.00  0.00    +0.000 OA
ATOM     15  O   UNL     1     -11.932  56.695  48.385  0.00  0.00    +0.000 OA
ATOM     16  N   UNL     1     -11.045  55.468  50.361  0.00  0.00    +0.000 N 
ATOM     17  C   UNL     1     -13.359  56.701  50.542  0.00  0.00    +0.000 A 
ATOM     18  C   UNL     1     -11.122  55.281  51.738  0.00  0.00    +0.000 C 
ATOM     19  C   UNL     1     -13.099  56.557  51.899  0.00  0.00    +0.000 A 
ATOM     20  C   UNL     1     -14.351  57.556  50.055  0.00  0.00    +0.000 A 
ATOM     21  N   UNL     1     -12.112  55.722  52.452  0.00  0.00    +0.000 N 
ATOM     22  C   UNL     1     -13.861  57.317  52.789  0.00  0.00    +0.000 A 
ATOM     23  C   UNL     1     -15.108  58.296  50.960  0.00  0.00    +0.000 A 
ATOM     24  C   UNL     1     -14.857  58.182  52.327  0.00  0.00    +0.000 A 
ATOM     25  H   UNL     1     -10.165  55.400  49.923  0.00  0.00    +0.000 HD
ATOM     26  H   UNL     1     -12.173  55.467  53.401  0.00  0.00    +0.000 HD
ENDBRANCH   1  18
BRANCH   3  27
ATOM     27  O   UNL     1     -11.499  52.851  53.189  0.00  0.00    +0.000 OA
ATOM     28  H   UNL     1     -12.253  53.296  52.856  0.00  0.00    +0.000 HD
ENDBRANCH   3  27
BRANCH   5  29
ATOM     29  C   UNL     1      -6.217  55.006  52.980  0.00  0.00    +0.000 C 
BRANCH  29  30
ATOM     30  C   UNL     1      -5.207  54.218  52.124  0.00  0.00    +0.000 C 
BRANCH  30  31
ATOM     31  C   UNL     1      -5.316  54.516  50.654  0.00  0.00    +0.000 C 
ATOM     32  C   UNL     1      -6.131  53.682  49.699  0.00  0.00    +0.000 C 
ATOM     33  C   UNL     1      -4.631  53.586  49.684  0.00  0.00    +0.000 C 
ENDBRANCH  30  31
ENDBRANCH  29  30
ENDBRANCH   5  29
TORSDOF 5
ENDMDL
MODEL 2
REMARK VINA RESULT:      -8.3      3.822      5.401
REMARK  Name = 338168
REMARK  5 active torsions:
REMARK  status: ('A' for Active; 'I' for Inactive)
REMARK    1  A    between atoms: C_6  and  C_10
REMARK    2  A    between atoms: C_14  and  O_18
REMARK    3  A    between atoms: N_17  and  C_21
REMARK    4  A    between atoms: C_21  and  C_24
REMARK    5  A    between atoms: C_24  and  C_27
REMARK                            x       y       z     vdW  Elec       q    Type
REMARK                         _______ _______ _______ _____ _____    ______ ____
ROOT
ATOM      1  C   UNL     1     -11.462  55.802  48.975  0.00  0.00    +0.000 A 
ATOM      2  C   UNL     1     -10.368  55.135  49.731  0.00  0.00    +0.000 A 
ATOM      3  C   UNL     1     -11.638  55.538  47.670  0.00  0.00    +0.000 A 
ATOM      4  O   UNL     1     -10.140  55.536  50.874  0.00  0.00    +0.000 OA
ATOM      5  N   UNL     1      -9.683  54.072  49.136  0.00  0.00    +0.000 N 
ATOM      6  C   UNL     1     -10.798  54.546  46.991  0.00  0.00    +0.000 A 
ATOM      7  C   UNL     1      -9.850  53.803  47.727  0.00  0.00    +0.000 A 
ATOM      8  C   UNL     1     -10.976  54.302  45.617  0.00  0.00    +0.000 A 
ATOM      9  C   UNL     1      -9.102  52.827  47.042  0.00  0.00    +0.000 A 
ATOM     10  C   UNL     1     -10.243  53.316  44.980  0.00  0.00    +0.000 A 
ATOM     11  C   UNL     1      -9.309  52.574  45.682  0.00  0.00    +0.000 A 
ATOM     12  F   UNL     1     -10.445  53.072  43.680  0.00  0.00    +0.000 F 
ENDROOT
BRANCH   1  18
ATOM     13  S   UNL     1     -13.517  59.179  49.447  0.00  0.00    +0.000 S 
ATOM     14  O   UNL     1     -14.503  58.987  48.408  0.00  0.00    +0.000 OA
ATOM     15  O   UNL     1     -12.891  60.462  49.684  0.00  0.00    +0.000 OA
ATOM     16  N   UNL     1     -12.301  58.091  49.213  0.00  0.00    +0.000 N 
ATOM     17  C   UNL     1     -14.201  58.624  50.949  0.00  0.00    +0.000 A 
ATOM     18  C   UNL     1     -12.384  56.769  49.642  0.00  0.00    +0.000 C 
ATOM     19  C   UNL     1     -13.947  57.310  51.323  0.00  0.00    +0.000 A 
ATOM     20  C   UNL     1     -14.946  59.500  51.743  0.00  0.00    +0.000 A 
ATOM     21  N   UNL     1     -13.200  56.384  50.575  0.00  0.00    +0.000 N 
ATOM     22  C   UNL     1     -14.454  56.876  52.550  0.00  0.00    +0.000 A 
ATOM     23  C   UNL     1     -15.452  59.044  52.958  0.00  0.00    +0.000 A 
ATOM     24  C   UNL     1     -15.200  57.734  53.365  0.00  0.00    +0.000 A 
ATOM     25  H   UNL     1     -11.485  58.386  48.749  0.00  0.00    +0.000 HD
ATOM     26  H   UNL     1     -13.297  55.422  50.762  0.00  0.00    +0.000 HD
ENDBRANCH   1  18
BRANCH   3  27
ATOM     27  O   UNL     1     -12.604  56.127  46.869  0.00  0.00    +0.000 OA
ATOM     28  H   UNL     1     -12.456  56.220  45.949  0.00  0.00    +0.000 HD
ENDBRANCH   3  27
BRANCH   5  29
ATOM     29  C   UNL     1      -8.642  53.362  49.909  0.00  0.00    +0.000 C 
BRANCH  29  30
ATOM     30  C   UNL     1      -7.420  54.195  50.342  0.00  0.00    +0.000 C 
BRANCH  30  31
ATOM     31  C   UNL     1      -6.684  54.812  49.186  0.00  0.00    +0.000 C 
ATOM     32  C   UNL     1      -5.721  54.048  48.314  0.00  0.00    +0.000 C 
ATOM     33  C   UNL     1      -5.198  55.033  49.322  0.00  0.00    +0.000 C 
ENDBRANCH  30  31
ENDBRANCH  29  30
ENDBRANCH   5  29
TORSDOF 5
ENDMDL
MODEL 3
REMARK VINA RESULT:      -8.2      3.672      7.279
REMARK  Name = 338168
REMARK  5 active torsions:
REMARK  status: ('A' for Active; 'I' for Inactive)
REMARK    1  A    between atoms: C_6  and  C_10
REMARK    2  A    between atoms: C_14  and  O_18
REMARK    3  A    between atoms: N_17  and  C_21
REMARK    4  A    between atoms: C_21  and  C_24
REMARK    5  A    between atoms: C_24  and  C_27
REMARK                            x       y       z     vdW  Elec       q    Type
REMARK                         _______ _______ _______ _____ _____    ______ ____
ROOT
ATOM      1  C   UNL     1     -10.160  55.460  50.470  0.00  0.00    +0.000 A 
ATOM      2  C   UNL     1     -10.332  55.714  49.015  0.00  0.00    +0.000 A 
ATOM      3  C   UNL     1     -11.193  55.629  51.312  0.00  0.00    +0.000 A 
ATOM      4  O   UNL     1      -9.320  55.713  48.313  0.00  0.00    +0.000 OA
ATOM      5  N   UNL     1     -11.622  55.903  48.508  0.00  0.00    +0.000 N 
ATOM      6  C   UNL     1     -12.516  56.004  50.801  0.00  0.00    +0.000 A 
ATOM      7  C   UNL     1     -12.729  56.112  49.410  0.00  0.00    +0.000 A 
ATOM      8  C   UNL     1     -13.581  56.206  51.698  0.00  0.00    +0.000 A 
ATOM      9  C   UNL     1     -14.028  56.425  48.965  0.00  0.00    +0.000 A 
ATOM     10  C   UNL     1     -14.851  56.486  51.225  0.00  0.00    +0.000 A 
ATOM     11  C   UNL     1     -15.084  56.594  49.866  0.00  0.00    +0.000 A 
ATOM     12  F   UNL     1     -15.862  56.644  52.088  0.00  0.00    +0.000 F 
ENDROOT
BRANCH   1  18
ATOM     13  S   UNL     1      -6.553  53.775  50.451  0.00  0.00    +0.000 S 
ATOM     14  O   UNL     1      -5.855  54.751  49.645  0.00  0.00    +0.000 OA
ATOM     15  O   UNL     1      -6.343  52.352  50.286  0.00  0.00    +0.000 OA
ATOM     16  N   UNL     1      -8.173  54.040  50.294  0.00  0.00    +0.000 N 
ATOM     17  C   UNL     1      -6.292  54.170  52.125  0.00  0.00    +0.000 A 
ATOM     18  C   UNL     1      -8.849  55.012  51.026  0.00  0.00    +0.000 C 
ATOM     19  C   UNL     1      -7.241  54.969  52.751  0.00  0.00    +0.000 A 
ATOM     20  C   UNL     1      -5.178  53.662  52.798  0.00  0.00    +0.000 A 
ATOM     21  N   UNL     1      -8.386  55.503  52.135  0.00  0.00    +0.000 N 
ATOM     22  C   UNL     1      -7.060  55.249  54.108  0.00  0.00    +0.000 A 
ATOM     23  C   UNL     1      -5.009  53.963  54.148  0.00  0.00    +0.000 A 
ATOM     24  C   UNL     1      -5.955  54.750  54.805  0.00  0.00    +0.000 A 
ATOM     25  H   UNL     1      -8.683  53.489  49.656  0.00  0.00    +0.000 HD
ATOM     26  H   UNL     1      -8.848  56.265  52.553  0.00  0.00    +0.000 HD
ENDBRANCH   1  18
BRANCH   3  27
ATOM     27  O   UNL     1     -11.130  55.451  52.685  0.00  0.00    +0.000 OA
ATOM     28  H   UNL     1     -11.379  54.630  53.062  0.00  0.00    +0.000 HD
ENDBRANCH   3  27
BRANCH   5  29
ATOM     29  C   UNL     1     -11.803  56.088  47.053  0.00  0.00    +0.000 C 
BRANCH  29  30
ATOM     30  C   UNL     1     -12.089  54.817  46.229  0.00  0.00    +0.000 C 
BRANCH  30  31
ATOM     31  C   UNL     1     -10.860  54.237  45.589  0.00  0.00    +0.000 C 
ATOM     32  C   UNL     1     -10.902  53.130  44.567  0.00  0.00    +0.000 C 
ATOM     33  C   UNL     1     -10.449  52.836  45.969  0.00  0.00    +0.000 C 
ENDBRANCH  30  31
ENDBRANCH  29  30
ENDBRANCH   5  29
TORSDOF 5
ENDMDL
MODEL 4
REMARK VINA RESULT:      -8.2      3.655      7.296
REMARK  Name = 338168
REMARK  5 active torsions:
REMARK  status: ('A' for Active; 'I' for Inactive)
REMARK    1  A    between atoms: C_6  and  C_10
REMARK    2  A    between atoms: C_14  and  O_18
REMARK    3  A    between atoms: N_17  and  C_21
REMARK    4  A    between atoms: C_21  and  C_24
REMARK    5  A    between atoms: C_24  and  C_27
REMARK                            x       y       z     vdW  Elec       q    Type
REMARK                         _______ _______ _______ _____ _____    ______ ____
ROOT
ATOM      1  C   UNL     1     -10.227  55.152  50.806  0.00  0.00    +0.000 A 
ATOM      2  C   UNL     1      -9.901  55.221  49.356  0.00  0.00    +0.000 A 
ATOM      3  C   UNL     1     -11.409  55.608  51.254  0.00  0.00    +0.000 A 
ATOM      4  O   UNL     1      -8.746  54.952  49.020  0.00  0.00    +0.000 OA
ATOM      5  N   UNL     1     -10.913  55.546  48.448  0.00  0.00    +0.000 N 
ATOM      6  C   UNL     1     -12.413  56.120  50.316  0.00  0.00    +0.000 A 
ATOM      7  C   UNL     1     -12.174  56.062  48.927  0.00  0.00    +0.000 A 
ATOM      8  C   UNL     1     -13.634  56.621  50.804  0.00  0.00    +0.000 A 
ATOM      9  C   UNL     1     -13.188  56.519  48.063  0.00  0.00    +0.000 A 
ATOM     10  C   UNL     1     -14.620  57.037  49.926  0.00  0.00    +0.000 A 
ATOM     11  C   UNL     1     -14.409  56.987  48.560  0.00  0.00    +0.000 A 
ATOM     12  F   UNL     1     -15.790  57.481  50.403  0.00  0.00    +0.000 F 
ENDROOT
BRANCH   1  18
ATOM     13  S   UNL     1      -6.883  54.920  52.955  0.00  0.00    +0.000 S 
ATOM     14  O   UNL     1      -7.127  56.015  53.866  0.00  0.00    +0.000 OA
ATOM     15  O   UNL     1      -5.581  54.682  52.371  0.00  0.00    +0.000 OA
ATOM     16  N   UNL     1      -7.951  55.041  51.705  0.00  0.00    +0.000 N 
ATOM     17  C   UNL     1      -7.408  53.449  53.724  0.00  0.00    +0.000 A 
ATOM     18  C   UNL     1      -9.261  54.577  51.789  0.00  0.00    +0.000 C 
ATOM     19  C   UNL     1      -8.704  53.019  53.470  0.00  0.00    +0.000 A 
ATOM     20  C   UNL     1      -6.526  52.733  54.537  0.00  0.00    +0.000 A 
ATOM     21  N   UNL     1      -9.636  53.688  52.657  0.00  0.00    +0.000 N 
ATOM     22  C   UNL     1      -9.113  51.815  54.047  0.00  0.00    +0.000 A 
ATOM     23  C   UNL     1      -6.956  51.540  55.113  0.00  0.00    +0.000 A 
ATOM     24  C   UNL     1      -8.248  51.077  54.862  0.00  0.00    +0.000 A 
ATOM     25  H   UNL     1      -7.652  55.460  50.865  0.00  0.00    +0.000 HD
ATOM     26  H   UNL     1     -10.594  53.477  52.747  0.00  0.00    +0.000 HD
ENDBRANCH   1  18
BRANCH   3  27
ATOM     27  O   UNL     1     -11.797  55.619  52.585  0.00  0.00    +0.000 OA
ATOM     28  H   UNL     1     -12.345  54.936  52.918  0.00  0.00    +0.000 HD
ENDBRANCH   3  27
BRANCH   5  29
ATOM     29  C   UNL     1     -10.609  55.549  47.002  0.00  0.00    +0.000 C 
BRANCH  29  30
ATOM     30  C   UNL     1     -11.043  54.303  46.206  0.00  0.00    +0.000 C 
BRANCH  30  31
ATOM     31  C   UNL     1      -9.896  53.400  45.847  0.00  0.00    +0.000 C 
ATOM     32  C   UNL     1      -8.644  53.883  45.161  0.00  0.00    +0.000 C 
ATOM     33  C   UNL     1      -9.661  53.088  44.391  0.00  0.00    +0.000 C 
ENDBRANCH  30  31
ENDBRANCH  29  30
ENDBRANCH   5  29
TORSDOF 5
ENDMDL
MODEL 5
REMARK VINA RESULT:      -8.2      4.070      5.811
REMARK  Name = 338168
REMARK  5 active torsions:
REMARK  status: ('A' for Active; 'I' for Inactive)
REMARK    1  A    between atoms: C_6  and  C_10
REMARK    2  A    between atoms: C_14  and  O_18
REMARK    3  A    between atoms: N_17  and  C_21
REMARK    4  A    between atoms: C_21  and  C_24
REMARK    5  A    between atoms: C_24  and  C_27
REMARK                            x       y       z     vdW  Elec       q    Type
REMARK                         _______ _______ _______ _____ _____    ______ ____
ROOT
ATOM      1  C   UNL     1     -11.533  55.783  48.922  0.00  0.00    +0.000 A 
ATOM      2  C   UNL     1     -10.423  55.111  49.650  0.00  0.00    +0.000 A 
ATOM      3  C   UNL     1     -11.746  55.517  47.622  0.00  0.00    +0.000 A 
ATOM      4  O   UNL     1     -10.161  55.514  50.784  0.00  0.00    +0.000 OA
ATOM      5  N   UNL     1      -9.760  54.043  49.039  0.00  0.00    +0.000 N 
ATOM      6  C   UNL     1     -10.931  54.518  46.924  0.00  0.00    +0.000 A 
ATOM      7  C   UNL     1      -9.968  53.771  47.636  0.00  0.00    +0.000 A 
ATOM      8  C   UNL     1     -11.147  54.271  45.555  0.00  0.00    +0.000 A 
ATOM      9  C   UNL     1      -9.244  52.789  46.934  0.00  0.00    +0.000 A 
ATOM     10  C   UNL     1     -10.437  53.279  44.902  0.00  0.00    +0.000 A 
ATOM     11  C   UNL     1      -9.490  52.533  45.581  0.00  0.00    +0.000 A 
ATOM     12  F   UNL     1     -10.676  53.032  43.608  0.00  0.00    +0.000 F 
ENDROOT
BRANCH   1  18
ATOM     13  S   UNL     1     -13.516  59.193  49.462  0.00  0.00    +0.000 S 
ATOM     14  O   UNL     1     -14.513  59.038  48.427  0.00  0.00    +0.000 OA
ATOM     15  O   UNL     1     -12.863  60.459  49.716  0.00  0.00    +0.000 OA
ATOM     16  N   UNL     1     -12.324  58.084  49.202  0.00  0.00    +0.000 N 
ATOM     17  C   UNL     1     -14.201  58.628  50.959  0.00  0.00    +0.000 A 
ATOM     18  C   UNL     1     -12.431  56.757  49.610  0.00  0.00    +0.000 C 
ATOM     19  C   UNL     1     -13.972  57.303  51.310  0.00  0.00    +0.000 A 
ATOM     20  C   UNL     1     -14.923  59.505  51.773  0.00  0.00    +0.000 A 
ATOM     21  N   UNL     1     -13.248  56.374  50.542  0.00  0.00    +0.000 N 
ATOM     22  C   UNL     1     -14.479  56.859  52.534  0.00  0.00    +0.000 A 
ATOM     23  C   UNL     1     -15.431  59.039  52.984  0.00  0.00    +0.000 A 
ATOM     24  C   UNL     1     -15.202  57.718  53.368  0.00  0.00    +0.000 A 
ATOM     25  H   UNL     1     -11.505  58.371  48.737  0.00  0.00    +0.000 HD
ATOM     26  H   UNL     1     -13.364  55.411  50.715  0.00  0.00    +0.000 HD
ENDBRANCH   1  18
BRANCH   3  27
ATOM     27  O   UNL     1     -12.730  56.110  46.846  0.00  0.00    +0.000 OA
ATOM     28  H   UNL     1     -12.539  56.368  45.966  0.00  0.00    +0.000 HD
ENDBRANCH   3  27
BRANCH   5  29
ATOM     29  C   UNL     1      -8.703  53.329  49.786  0.00  0.00    +0.000 C 
BRANCH  29  30
ATOM     30  C   UNL     1      -9.175  52.278  50.809  0.00  0.00    +0.000 C 
BRANCH  30  31
ATOM     31  C   UNL     1      -9.671  51.010  50.170  0.00  0.00    +0.000 C 
ATOM     32  C   UNL     1     -11.099  50.805  49.737  0.00  0.00    +0.000 C 
ATOM     33  C   UNL     1     -10.586  50.118  50.971  0.00  0.00    +0.000 C 
ENDBRANCH  30  31
ENDBRANCH  29  30
ENDBRANCH   5  29
TORSDOF 5
ENDMDL
MODEL 6
REMARK VINA RESULT:      -8.1      3.522      7.958
REMARK  Name = 338168
REMARK  5 active torsions:
REMARK  status: ('A' for Active; 'I' for Inactive)
REMARK    1  A    between atoms: C_6  and  C_10
REMARK    2  A    between atoms: C_14  and  O_18
REMARK    3  A    between atoms: N_17  and  C_21
REMARK    4  A    between atoms: C_21  and  C_24
REMARK    5  A    between atoms: C_24  and  C_27
REMARK                            x       y       z     vdW  Elec       q    Type
REMARK                         _______ _______ _______ _____ _____    ______ ____
ROOT
ATOM      1  C   UNL     1      -9.961  54.463  50.693  0.00  0.00    +0.000 A 
ATOM      2  C   UNL     1     -11.104  55.376  50.966  0.00  0.00    +0.000 A 
ATOM      3  C   UNL     1      -9.740  54.012  49.447  0.00  0.00    +0.000 A 
ATOM      4  O   UNL     1     -11.366  55.622  52.145  0.00  0.00    +0.000 OA
ATOM      5  N   UNL     1     -11.796  55.936  49.889  0.00  0.00    +0.000 N 
ATOM      6  C   UNL     1     -10.582  54.461  48.334  0.00  0.00    +0.000 A 
ATOM      7  C   UNL     1     -11.580  55.434  48.552  0.00  0.00    +0.000 A 
ATOM      8  C   UNL     1     -10.357  53.957  47.039  0.00  0.00    +0.000 A 
ATOM      9  C   UNL     1     -12.330  55.871  47.443  0.00  0.00    +0.000 A 
ATOM     10  C   UNL     1     -11.093  54.429  45.967  0.00  0.00    +0.000 A 
ATOM     11  C   UNL     1     -12.076  55.384  46.157  0.00  0.00    +0.000 A 
ATOM     12  F   UNL     1     -10.846  53.965  44.735  0.00  0.00    +0.000 F 
ENDROOT
BRANCH   1  18
ATOM     13  S   UNL     1      -6.759  54.603  53.055  0.00  0.00    +0.000 S 
ATOM     14  O   UNL     1      -7.109  55.767  53.837  0.00  0.00    +0.000 OA
ATOM     15  O   UNL     1      -5.411  54.375  52.578  0.00  0.00    +0.000 OA
ATOM     16  N   UNL     1      -7.746  54.551  51.736  0.00  0.00    +0.000 N 
ATOM     17  C   UNL     1      -7.269  53.189  53.932  0.00  0.00    +0.000 A 
ATOM     18  C   UNL     1      -9.038  54.033  51.785  0.00  0.00    +0.000 C 
ATOM     19  C   UNL     1      -8.526  52.673  53.643  0.00  0.00    +0.000 A 
ATOM     20  C   UNL     1      -6.412  52.597  54.864  0.00  0.00    +0.000 A 
ATOM     21  N   UNL     1      -9.430  53.214  52.712  0.00  0.00    +0.000 N 
ATOM     22  C   UNL     1      -8.919  51.510  54.310  0.00  0.00    +0.000 A 
ATOM     23  C   UNL     1      -6.828  51.446  55.528  0.00  0.00    +0.000 A 
ATOM     24  C   UNL     1      -8.079  50.897  55.245  0.00  0.00    +0.000 A 
ATOM     25  H   UNL     1      -7.411  54.901  50.879  0.00  0.00    +0.000 HD
ATOM     26  H   UNL     1     -10.382  52.966  52.764  0.00  0.00    +0.000 HD
ENDBRANCH   1  18
BRANCH   3  27
ATOM     27  O   UNL     1      -8.726  53.136  49.093  0.00  0.00    +0.000 OA
ATOM     28  H   UNL     1      -8.067  53.405  48.485  0.00  0.00    +0.000 HD
ENDBRANCH   3  27
BRANCH   5  29
ATOM     29  C   UNL     1     -12.888  56.896  50.156  0.00  0.00    +0.000 C 
BRANCH  29  30
ATOM     30  C   UNL     1     -14.264  56.294  50.499  0.00  0.00    +0.000 C 
BRANCH  30  31
ATOM     31  C   UNL     1     -15.187  57.271  51.173  0.00  0.00    +0.000 C 
ATOM     32  C   UNL     1     -14.743  58.217  52.258  0.00  0.00    +0.000 C 
ATOM     33  C   UNL     1     -15.573  57.015  52.608  0.00  0.00    +0.000 C 
ENDBRANCH  30  31
ENDBRANCH  29  30
ENDBRANCH   5  29
TORSDOF 5
ENDMDL
MODEL 7
REMARK VINA RESULT:      -8.0      3.253      4.334
REMARK  Name = 338168
REMARK  5 active torsions:
REMARK  status: ('A' for Active; 'I' for Inactive)
REMARK    1  A    between atoms: C_6  and  C_10
REMARK    2  A    between atoms: C_14  and  O_18
REMARK    3  A    between atoms: N_17  and  C_21
REMARK    4  A    between atoms: C_21  and  C_24
REMARK    5  A    between atoms: C_24  and  C_27
REMARK                            x       y       z     vdW  Elec       q    Type
REMARK                         _______ _______ _______ _____ _____    ______ ____
ROOT
ATOM      1  C   UNL     1     -12.139  54.375  50.288  0.00  0.00    +0.000 A 
ATOM      2  C   UNL     1     -11.948  53.870  48.901  0.00  0.00    +0.000 A 
ATOM      3  C   UNL     1     -11.632  53.695  51.330  0.00  0.00    +0.000 A 
ATOM      4  O   UNL     1     -12.574  54.431  48.001  0.00  0.00    +0.000 OA
ATOM      5  N   UNL     1     -11.049  52.823  48.680  0.00  0.00    +0.000 N 
ATOM      6  C   UNL     1     -10.832  52.486  51.110  0.00  0.00    +0.000 A 
ATOM      7  C   UNL     1     -10.523  52.073  49.796  0.00  0.00    +0.000 A 
ATOM      8  C   UNL     1     -10.332  51.768  52.213  0.00  0.00    +0.000 A 
ATOM      9  C   UNL     1      -9.711  50.935  49.636  0.00  0.00    +0.000 A 
ATOM     10  C   UNL     1      -9.514  50.669  52.020  0.00  0.00    +0.000 A 
ATOM     11  C   UNL     1      -9.196  50.248  50.741  0.00  0.00    +0.000 A 
ATOM     12  F   UNL     1      -9.018  50.016  53.078  0.00  0.00    +0.000 F 
ENDROOT
BRANCH   1  18
ATOM     13  S   UNL     1     -14.431  56.921  52.317  0.00  0.00    +0.000 S 
ATOM     14  O   UNL     1     -13.495  57.282  53.358  0.00  0.00    +0.000 OA
ATOM     15  O   UNL     1     -15.831  56.682  52.592  0.00  0.00    +0.000 OA
ATOM     16  N   UNL     1     -13.858  55.578  51.552  0.00  0.00    +0.000 N 
ATOM     17  C   UNL     1     -14.323  58.117  51.057  0.00  0.00    +0.000 A 
ATOM     18  C   UNL     1     -12.890  55.638  50.553  0.00  0.00    +0.000 C 
ATOM     19  C   UNL     1     -13.460  57.859  49.999  0.00  0.00    +0.000 A 
ATOM     20  C   UNL     1     -15.112  59.269  51.117  0.00  0.00    +0.000 A 
ATOM     21  N   UNL     1     -12.648  56.718  49.875  0.00  0.00    +0.000 N 
ATOM     22  C   UNL     1     -13.407  58.793  48.963  0.00  0.00    +0.000 A 
ATOM     23  C   UNL     1     -15.035  60.194  50.079  0.00  0.00    +0.000 A 
ATOM     24  C   UNL     1     -14.189  59.952  48.997  0.00  0.00    +0.000 A 
ATOM     25  H   UNL     1     -14.214  54.697  51.812  0.00  0.00    +0.000 HD
ATOM     26  H   UNL     1     -11.879  56.738  49.260  0.00  0.00    +0.000 HD
ENDBRANCH   1  18
BRANCH   3  27
ATOM     27  O   UNL     1     -11.780  54.061  52.658  0.00  0.00    +0.000 OA
ATOM     28  H   UNL     1     -12.329  53.555  53.225  0.00  0.00    +0.000 HD
ENDBRANCH   3  27
BRANCH   5  29
ATOM     29  C   UNL     1     -10.805  52.364  47.296  0.00  0.00    +0.000 C 
BRANCH  29  30
ATOM     30  C   UNL     1      -9.464  52.780  46.661  0.00  0.00    +0.000 C 
BRANCH  30  31
ATOM     31  C   UNL     1      -9.462  54.195  46.152  0.00  0.00    +0.000 C 
ATOM     32  C   UNL     1      -8.218  54.908  45.691  0.00  0.00    +0.000 C 
ATOM     33  C   UNL     1      -8.836  55.263  47.013  0.00  0.00    +0.000 C 
ENDBRANCH  30  31
ENDBRANCH  29  30
ENDBRANCH   5  29
TORSDOF 5
ENDMDL
MODEL 8
REMARK VINA RESULT:      -8.0      4.026      5.587
REMARK  Name = 338168
REMARK  5 active torsions:
REMARK  status: ('A' for Active; 'I' for Inactive)
REMARK    1  A    between atoms: C_6  and  C_10
REMARK    2  A    between atoms: C_14  and  O_18
REMARK    3  A    between atoms: N_17  and  C_21
REMARK    4  A    between atoms: C_21  and  C_24
REMARK    5  A    between atoms: C_24  and  C_27
REMARK                            x       y       z     vdW  Elec       q    Type
REMARK                         _______ _______ _______ _____ _____    ______ ____
ROOT
ATOM      1  C   UNL     1     -10.638  55.375  48.863  0.00  0.00    +0.000 A 
ATOM      2  C   UNL     1     -10.820  54.326  47.824  0.00  0.00    +0.000 A 
ATOM      3  C   UNL     1      -9.412  55.648  49.340  0.00  0.00    +0.000 A 
ATOM      4  O   UNL     1     -11.974  53.994  47.546  0.00  0.00    +0.000 OA
ATOM      5  N   UNL     1      -9.692  53.796  47.190  0.00  0.00    +0.000 N 
ATOM      6  C   UNL     1      -8.234  54.961  48.799  0.00  0.00    +0.000 A 
ATOM      7  C   UNL     1      -8.375  54.066  47.717  0.00  0.00    +0.000 A 
ATOM      8  C   UNL     1      -6.960  55.236  49.329  0.00  0.00    +0.000 A 
ATOM      9  C   UNL     1      -7.209  53.469  47.200  0.00  0.00    +0.000 A 
ATOM     10  C   UNL     1      -5.832  54.653  48.779  0.00  0.00    +0.000 A 
ATOM     11  C   UNL     1      -5.946  53.774  47.716  0.00  0.00    +0.000 A 
ATOM     12  F   UNL     1      -4.623  54.948  49.271  0.00  0.00    +0.000 F 
ENDROOT
BRANCH   1  18
ATOM     13  S   UNL     1     -13.924  57.618  48.717  0.00  0.00    +0.000 S 
ATOM     14  O   UNL     1     -14.843  56.634  48.190  0.00  0.00    +0.000 OA
ATOM     15  O   UNL     1     -13.927  58.992  48.262  0.00  0.00    +0.000 OA
ATOM     16  N   UNL     1     -12.389  57.052  48.514  0.00  0.00    +0.000 N 
ATOM     17  C   UNL     1     -14.072  57.622  50.451  0.00  0.00    +0.000 A 
ATOM     18  C   UNL     1     -11.801  56.146  49.394  0.00  0.00    +0.000 C 
ATOM     19  C   UNL     1     -13.200  56.815  51.171  0.00  0.00    +0.000 A 
ATOM     20  C   UNL     1     -15.020  58.441  51.070  0.00  0.00    +0.000 A 
ATOM     21  N   UNL     1     -12.219  55.978  50.611  0.00  0.00    +0.000 N 
ATOM     22  C   UNL     1     -13.283  56.852  52.565  0.00  0.00    +0.000 A 
ATOM     23  C   UNL     1     -15.096  58.454  52.460  0.00  0.00    +0.000 A 
ATOM     24  C   UNL     1     -14.222  57.665  53.208  0.00  0.00    +0.000 A 
ATOM     25  H   UNL     1     -11.867  57.365  47.740  0.00  0.00    +0.000 HD
ATOM     26  H   UNL     1     -11.841  55.248  51.153  0.00  0.00    +0.000 HD
ENDBRANCH   1  18
BRANCH   3  27
ATOM     27  O   UNL     1      -9.139  56.581  50.327  0.00  0.00    +0.000 OA
ATOM     28  H   UNL     1      -9.775  56.761  50.990  0.00  0.00    +0.000 HD
ENDBRANCH   3  27
BRANCH   5  29
ATOM     29  C   UNL     1      -9.872  52.804  46.110  0.00  0.00    +0.000 C 
BRANCH  29  30
ATOM     30  C   UNL     1      -9.867  53.348  44.669  0.00  0.00    +0.000 C 
BRANCH  30  31
ATOM     31  C   UNL     1      -9.025  52.530  43.730  0.00  0.00    +0.000 C 
ATOM     32  C   UNL     1      -8.665  52.979  42.337  0.00  0.00    +0.000 C 
ATOM     33  C   UNL     1      -9.694  51.901  42.533  0.00  0.00    +0.000 C 
ENDBRANCH  30  31
ENDBRANCH  29  30
ENDBRANCH   5  29
TORSDOF 5
ENDMDL
MODEL 9
REMARK VINA RESULT:      -8.0      4.909      7.792
REMARK  Name = 338168
REMARK  5 active torsions:
REMARK  status: ('A' for Active; 'I' for Inactive)
REMARK    1  A    between atoms: C_6  and  C_10
REMARK    2  A    between atoms: C_14  and  O_18
REMARK    3  A    between atoms: N_17  and  C_21
REMARK    4  A    between atoms: C_21  and  C_24
REMARK    5  A    between atoms: C_24  and  C_27
REMARK                            x       y       z     vdW  Elec       q    Type
REMARK                         _______ _______ _______ _____ _____    ______ ____
ROOT
ATOM      1  C   UNL     1     -11.397  54.233  47.930  0.00  0.00    +0.000 A 
ATOM      2  C   UNL     1     -11.504  53.401  49.159  0.00  0.00    +0.000 A 
ATOM      3  C   UNL     1     -12.044  55.408  47.853  0.00  0.00    +0.000 A 
ATOM      4  O   UNL     1     -11.038  52.261  49.115  0.00  0.00    +0.000 OA
ATOM      5  N   UNL     1     -12.086  53.953  50.303  0.00  0.00    +0.000 N 
ATOM      6  C   UNL     1     -12.810  55.913  48.998  0.00  0.00    +0.000 A 
ATOM      7  C   UNL     1     -12.805  55.202  50.217  0.00  0.00    +0.000 A 
ATOM      8  C   UNL     1     -13.506  57.131  48.891  0.00  0.00    +0.000 A 
ATOM      9  C   UNL     1     -13.514  55.751  51.303  0.00  0.00    +0.000 A 
ATOM     10  C   UNL     1     -14.169  57.656  49.986  0.00  0.00    +0.000 A 
ATOM     11  C   UNL     1     -14.177  56.978  51.192  0.00  0.00    +0.000 A 
ATOM     12  F   UNL     1     -14.800  58.832  49.881  0.00  0.00    +0.000 F 
ENDROOT
BRANCH   1  18
ATOM     13  S   UNL     1      -8.181  53.987  45.596  0.00  0.00    +0.000 S 
ATOM     14  O   UNL     1      -7.332  53.206  46.467  0.00  0.00    +0.000 OA
ATOM     15  O   UNL     1      -7.673  55.102  44.826  0.00  0.00    +0.000 OA
ATOM     16  N   UNL     1      -9.447  54.558  46.485  0.00  0.00    +0.000 N 
ATOM     17  C   UNL     1      -8.983  52.896  44.503  0.00  0.00    +0.000 A 
ATOM     18  C   UNL     1     -10.574  53.791  46.766  0.00  0.00    +0.000 C 
ATOM     19  C   UNL     1     -10.241  52.431  44.868  0.00  0.00    +0.000 A 
ATOM     20  C   UNL     1      -8.375  52.543  43.296  0.00  0.00    +0.000 A 
ATOM     21  N   UNL     1     -10.910  52.754  46.061  0.00  0.00    +0.000 N 
ATOM     22  C   UNL     1     -10.908  51.593  43.971  0.00  0.00    +0.000 A 
ATOM     23  C   UNL     1      -9.051  51.696  42.421  0.00  0.00    +0.000 A 
ATOM     24  C   UNL     1     -10.322  51.227  42.756  0.00  0.00    +0.000 A 
ATOM     25  H   UNL     1      -9.404  55.479  46.832  0.00  0.00    +0.000 HD
ATOM     26  H   UNL     1     -11.651  52.183  46.369  0.00  0.00    +0.000 HD
ENDBRANCH   1  18
BRANCH   3  27
ATOM     27  O   UNL     1     -12.036  56.242  46.747  0.00  0.00    +0.000 OA
ATOM     28  H   UNL     1     -11.231  56.423  46.302  0.00  0.00    +0.000 HD
ENDBRANCH   3  27
BRANCH   5  29
ATOM     29  C   UNL     1     -12.133  53.152  51.545  0.00  0.00    +0.000 C 
BRANCH  29  30
ATOM     30  C   UNL     1     -10.883  53.206  52.444  0.00  0.00    +0.000 C 
BRANCH  30  31
ATOM     31  C   UNL     1     -10.430  54.607  52.748  0.00  0.00    +0.000 C 
ATOM     32  C   UNL     1      -9.219  55.241  52.114  0.00  0.00    +0.000 C 
ATOM     33  C   UNL     1      -9.164  54.791  53.547  0.00  0.00    +0.000 C 
ENDBRANCH  30  31
ENDBRANCH  29  30
ENDBRANCH   5  29
TORSDOF 5
ENDMDL
