MODEL 1
REMARK VINA RESULT:      -9.5      0.000      0.000
REMARK  Name = 338154
REMARK  8 active torsions:
REMARK  status: ('A' for Active; 'I' for Inactive)
REMARK    1  A    between atoms: C_6  and  C_10
REMARK    2  A    between atoms: C_14  and  O_18
REMARK    3  A    between atoms: N_17  and  C_21
REMARK    4  A    between atoms: C_21  and  C_24
REMARK    5  A    between atoms: C_22  and  C_25
REMARK    6  A    between atoms: C_24  and  C_28
REMARK    7  A    between atoms: C_28  and  C_31
REMARK    8  A    between atoms: C_28  and  C_32
REMARK                            x       y       z     vdW  Elec       q    Type
REMARK                         _______ _______ _______ _____ _____    ______ ____
ROOT
ATOM      1  C   UNL     1     -10.208  55.095  50.300  0.00  0.00    +0.000 A 
ATOM      2  C   UNL     1      -9.601  55.005  48.949  0.00  0.00    +0.000 A 
ATOM      3  C   UNL     1     -11.479  55.502  50.441  0.00  0.00    +0.000 A 
ATOM      4  O   UNL     1      -8.464  54.534  48.845  0.00  0.00    +0.000 OA
ATOM      5  N   UNL     1     -10.369  55.376  47.857  0.00  0.00    +0.000 N 
ATOM      6  C   UNL     1     -12.252  56.078  49.312  0.00  0.00    +0.000 A 
ATOM      7  C   UNL     1     -11.689  55.922  48.013  0.00  0.00    +0.000 A 
ATOM      8  C   UNL     1     -13.502  56.766  49.470  0.00  0.00    +0.000 A 
ATOM      9  C   UNL     1     -12.429  56.321  46.889  0.00  0.00    +0.000 A 
ATOM     10  C   UNL     1     -14.212  57.099  48.294  0.00  0.00    +0.000 A 
ATOM     11  C   UNL     1     -13.699  56.861  47.026  0.00  0.00    +0.000 A 
ENDROOT
BRANCH   1  17
ATOM     12  S   UNL     1      -7.515  54.930  53.143  0.00  0.00    +0.000 S 
ATOM     13  O   UNL     1      -7.845  55.793  54.261  0.00  0.00    +0.000 OA
ATOM     14  O   UNL     1      -6.149  54.845  52.661  0.00  0.00    +0.000 OA
ATOM     15  N   UNL     1      -8.459  55.362  51.902  0.00  0.00    +0.000 N 
ATOM     16  C   UNL     1      -7.958  53.305  53.631  0.00  0.00    +0.000 A 
ATOM     17  C   UNL     1      -9.437  54.594  51.500  0.00  0.00    +0.000 C 
ATOM     18  C   UNL     1      -9.053  52.719  53.017  0.00  0.00    +0.000 A 
ATOM     19  C   UNL     1      -7.207  52.638  54.602  0.00  0.00    +0.000 A 
ATOM     20  N   UNL     1      -9.806  53.397  52.061  0.00  0.00    +0.000 N 
ATOM     21  C   UNL     1      -9.449  51.450  53.444  0.00  0.00    +0.000 A 
ATOM     22  C   UNL     1      -7.592  51.357  54.992  0.00  0.00    +0.000 A 
ATOM     23  C   UNL     1      -8.718  50.765  54.420  0.00  0.00    +0.000 A 
ATOM     24  H   UNL     1      -8.295  56.217  51.444  0.00  0.00    +0.000 HD
ATOM     25  H   UNL     1     -10.655  52.992  51.769  0.00  0.00    +0.000 HD
ENDBRANCH   1  17
BRANCH   8  26
ATOM     26  C   UNL     1     -14.089  57.236  50.769  0.00  0.00    +0.000 A 
ATOM     27  C   UNL     1     -13.788  58.503  51.309  0.00  0.00    +0.000 A 
ATOM     28  C   UNL     1     -15.025  56.461  51.483  0.00  0.00    +0.000 A 
ATOM     29  C   UNL     1     -14.301  58.925  52.540  0.00  0.00    +0.000 A 
ATOM     30  C   UNL     1     -15.601  56.912  52.677  0.00  0.00    +0.000 A 
ATOM     31  C   UNL     1     -15.218  58.133  53.219  0.00  0.00    +0.000 A 
ENDBRANCH   8  26
BRANCH   3  32
ATOM     32  O   UNL     1     -12.176  55.316  51.622  0.00  0.00    +0.000 OA
ATOM     33  H   UNL     1     -12.286  54.454  51.971  0.00  0.00    +0.000 HD
ENDBRANCH   3  32
BRANCH   5  34
ATOM     34  C   UNL     1      -9.748  55.234  46.531  0.00  0.00    +0.000 C 
BRANCH  34  35
ATOM     35  C   UNL     1      -9.794  53.789  46.013  0.00  0.00    +0.000 C 
BRANCH  35  36
ATOM     36  C   UNL     1     -10.933  53.520  45.009  0.00  0.00    +0.000 C 
ATOM     37  C   UNL     1     -10.457  52.759  43.770  0.00  0.00    +0.000 C 
ATOM     38  C   UNL     1     -12.053  52.727  45.692  0.00  0.00    +0.000 C 
ENDBRANCH  35  36
ENDBRANCH  34  35
ENDBRANCH   5  34
TORSDOF 6
ENDMDL
MODEL 2
REMARK VINA RESULT:      -9.1      1.287      5.605
REMARK  Name = 338154
REMARK  8 active torsions:
REMARK  status: ('A' for Active; 'I' for Inactive)
REMARK    1  A    between atoms: C_6  and  C_10
REMARK    2  A    between atoms: C_14  and  O_18
REMARK    3  A    between atoms: N_17  and  C_21
REMARK    4  A    between atoms: C_21  and  C_24
REMARK    5  A    between atoms: C_22  and  C_25
REMARK    6  A    between atoms: C_24  and  C_28
REMARK    7  A    between atoms: C_28  and  C_31
REMARK    8  A    between atoms: C_28  and  C_32
REMARK                            x       y       z     vdW  Elec       q    Type
REMARK                         _______ _______ _______ _____ _____    ______ ____
ROOT
ATOM      1  C   UNL     1     -10.270  55.074  51.074  0.00  0.00    +0.000 A 
ATOM      2  C   UNL     1     -11.563  55.531  51.639  0.00  0.00    +0.000 A 
ATOM      3  C   UNL     1     -10.039  55.169  49.756  0.00  0.00    +0.000 A 
ATOM      4  O   UNL     1     -11.706  55.521  52.865  0.00  0.00    +0.000 OA
ATOM      5  N   UNL     1     -12.522  56.026  50.769  0.00  0.00    +0.000 N 
ATOM      6  C   UNL     1     -11.112  55.518  48.792  0.00  0.00    +0.000 A 
ATOM      7  C   UNL     1     -12.324  56.023  49.346  0.00  0.00    +0.000 A 
ATOM      8  C   UNL     1     -10.986  55.372  47.369  0.00  0.00    +0.000 A 
ATOM      9  C   UNL     1     -13.328  56.499  48.489  0.00  0.00    +0.000 A 
ATOM     10  C   UNL     1     -12.016  55.915  46.567  0.00  0.00    +0.000 A 
ATOM     11  C   UNL     1     -13.156  56.489  47.113  0.00  0.00    +0.000 A 
ENDROOT
BRANCH   1  17
ATOM     12  S   UNL     1      -6.768  54.935  52.829  0.00  0.00    +0.000 S 
ATOM     13  O   UNL     1      -6.624  55.959  53.846  0.00  0.00    +0.000 OA
ATOM     14  O   UNL     1      -5.668  54.631  51.934  0.00  0.00    +0.000 OA
ATOM     15  N   UNL     1      -8.055  55.322  51.930  0.00  0.00    +0.000 N 
ATOM     16  C   UNL     1      -7.122  53.444  53.683  0.00  0.00    +0.000 A 
ATOM     17  C   UNL     1      -9.163  54.633  52.005  0.00  0.00    +0.000 C 
ATOM     18  C   UNL     1      -8.402  52.923  53.573  0.00  0.00    +0.000 A 
ATOM     19  C   UNL     1      -6.127  52.815  54.433  0.00  0.00    +0.000 A 
ATOM     20  N   UNL     1      -9.394  53.564  52.835  0.00  0.00    +0.000 N 
ATOM     21  C   UNL     1      -8.709  51.769  54.299  0.00  0.00    +0.000 A 
ATOM     22  C   UNL     1      -6.438  51.645  55.123  0.00  0.00    +0.000 A 
ATOM     23  C   UNL     1      -7.731  51.126  55.063  0.00  0.00    +0.000 A 
ATOM     24  H   UNL     1      -8.004  56.091  51.317  0.00  0.00    +0.000 HD
ATOM     25  H   UNL     1     -10.317  53.231  52.913  0.00  0.00    +0.000 HD
ENDBRANCH   1  17
BRANCH   8  26
ATOM     26  C   UNL     1      -9.896  54.626  46.656  0.00  0.00    +0.000 A 
ATOM     27  C   UNL     1      -9.975  53.240  46.415  0.00  0.00    +0.000 A 
ATOM     28  C   UNL     1      -8.768  55.286  46.129  0.00  0.00    +0.000 A 
ATOM     29  C   UNL     1      -8.942  52.535  45.788  0.00  0.00    +0.000 A 
ATOM     30  C   UNL     1      -7.767  54.598  45.431  0.00  0.00    +0.000 A 
ATOM     31  C   UNL     1      -7.841  53.218  45.286  0.00  0.00    +0.000 A 
ENDBRANCH   8  26
BRANCH   3  32
ATOM     32  O   UNL     1      -8.765  55.045  49.228  0.00  0.00    +0.000 OA
ATOM     33  H   UNL     1      -8.491  55.606  48.531  0.00  0.00    +0.000 HD
ENDBRANCH   3  32
BRANCH   5  34
ATOM     34  C   UNL     1     -13.775  56.508  51.369  0.00  0.00    +0.000 C 
BRANCH  34  35
ATOM     35  C   UNL     1     -13.713  57.997  51.741  0.00  0.00    +0.000 C 
BRANCH  35  36
ATOM     36  C   UNL     1     -15.077  58.715  51.681  0.00  0.00    +0.000 C 
ATOM     37  C   UNL     1     -15.454  59.374  53.010  0.00  0.00    +0.000 C 
ATOM     38  C   UNL     1     -15.060  59.776  50.575  0.00  0.00    +0.000 C 
ENDBRANCH  35  36
ENDBRANCH  34  35
ENDBRANCH   5  34
TORSDOF 6
ENDMDL
MODEL 3
REMARK VINA RESULT:      -8.8      2.083      5.971
REMARK  Name = 338154
REMARK  8 active torsions:
REMARK  status: ('A' for Active; 'I' for Inactive)
REMARK    1  A    between atoms: C_6  and  C_10
REMARK    2  A    between atoms: C_14  and  O_18
REMARK    3  A    between atoms: N_17  and  C_21
REMARK    4  A    between atoms: C_21  and  C_24
REMARK    5  A    between atoms: C_22  and  C_25
REMARK    6  A    between atoms: C_24  and  C_28
REMARK    7  A    between atoms: C_28  and  C_31
REMARK    8  A    between atoms: C_28  and  C_32
REMARK                            x       y       z     vdW  Elec       q    Type
REMARK                         _______ _______ _______ _____ _____    ______ ____
ROOT
ATOM      1  C   UNL     1     -10.039  54.106  50.710  0.00  0.00    +0.000 A 
ATOM      2  C   UNL     1     -11.247  54.484  51.482  0.00  0.00    +0.000 A 
ATOM      3  C   UNL     1      -9.912  54.485  49.429  0.00  0.00    +0.000 A 
ATOM      4  O   UNL     1     -11.289  54.205  52.685  0.00  0.00    +0.000 OA
ATOM      5  N   UNL     1     -12.239  55.207  50.839  0.00  0.00    +0.000 N 
ATOM      6  C   UNL     1     -11.036  55.092  48.673  0.00  0.00    +0.000 A 
ATOM      7  C   UNL     1     -12.161  55.515  49.437  0.00  0.00    +0.000 A 
ATOM      8  C   UNL     1     -11.037  55.265  47.247  0.00  0.00    +0.000 A 
ATOM      9  C   UNL     1     -13.198  56.218  48.806  0.00  0.00    +0.000 A 
ATOM     10  C   UNL     1     -12.091  56.022  46.687  0.00  0.00    +0.000 A 
ATOM     11  C   UNL     1     -13.141  56.511  47.453  0.00  0.00    +0.000 A 
ENDROOT
BRANCH   1  17
ATOM     12  S   UNL     1      -8.087  51.504  52.897  0.00  0.00    +0.000 S 
ATOM     13  O   UNL     1      -7.816  50.275  52.175  0.00  0.00    +0.000 OA
ATOM     14  O   UNL     1      -8.509  51.461  54.285  0.00  0.00    +0.000 OA
ATOM     15  N   UNL     1      -9.201  52.323  52.058  0.00  0.00    +0.000 N 
ATOM     16  C   UNL     1      -6.595  52.425  52.874  0.00  0.00    +0.000 A 
ATOM     17  C   UNL     1      -8.891  53.415  51.411  0.00  0.00    +0.000 C 
ATOM     18  C   UNL     1      -6.552  53.569  52.093  0.00  0.00    +0.000 A 
ATOM     19  C   UNL     1      -5.502  52.005  53.636  0.00  0.00    +0.000 A 
ATOM     20  N   UNL     1      -7.640  53.973  51.324  0.00  0.00    +0.000 N 
ATOM     21  C   UNL     1      -5.348  54.274  52.022  0.00  0.00    +0.000 A 
ATOM     22  C   UNL     1      -4.319  52.740  53.582  0.00  0.00    +0.000 A 
ATOM     23  C   UNL     1      -4.238  53.869  52.769  0.00  0.00    +0.000 A 
ATOM     24  H   UNL     1     -10.128  51.992  52.034  0.00  0.00    +0.000 HD
ATOM     25  H   UNL     1      -7.505  54.704  50.678  0.00  0.00    +0.000 HD
ENDBRANCH   1  17
BRANCH   8  26
ATOM     26  C   UNL     1     -10.063  54.649  46.287  0.00  0.00    +0.000 A 
ATOM     27  C   UNL     1     -10.367  53.478  45.563  0.00  0.00    +0.000 A 
ATOM     28  C   UNL     1      -8.818  55.248  46.007  0.00  0.00    +0.000 A 
ATOM     29  C   UNL     1      -9.444  52.879  44.699  0.00  0.00    +0.000 A 
ATOM     30  C   UNL     1      -7.921  54.694  45.083  0.00  0.00    +0.000 A 
ATOM     31  C   UNL     1      -8.224  53.494  44.451  0.00  0.00    +0.000 A 
ENDBRANCH   8  26
BRANCH   3  32
ATOM     32  O   UNL     1      -8.698  54.423  48.768  0.00  0.00    +0.000 OA
ATOM     33  H   UNL     1      -8.091  53.737  48.966  0.00  0.00    +0.000 HD
ENDBRANCH   3  32
BRANCH   5  34
ATOM     34  C   UNL     1     -13.404  55.599  51.648  0.00  0.00    +0.000 C 
BRANCH  34  35
ATOM     35  C   UNL     1     -13.201  56.949  52.352  0.00  0.00    +0.000 C 
BRANCH  35  36
ATOM     36  C   UNL     1     -14.510  57.603  52.841  0.00  0.00    +0.000 C 
ATOM     37  C   UNL     1     -14.599  59.085  52.474  0.00  0.00    +0.000 C 
ATOM     38  C   UNL     1     -15.715  56.861  52.252  0.00  0.00    +0.000 C 
ENDBRANCH  35  36
ENDBRANCH  34  35
ENDBRANCH   5  34
TORSDOF 6
ENDMDL
MODEL 4
REMARK VINA RESULT:      -8.8      1.472      2.137
REMARK  Name = 338154
REMARK  8 active torsions:
REMARK  status: ('A' for Active; 'I' for Inactive)
REMARK    1  A    between atoms: C_6  and  C_10
REMARK    2  A    between atoms: C_14  and  O_18
REMARK    3  A    between atoms: N_17  and  C_21
REMARK    4  A    between atoms: C_21  and  C_24
REMARK    5  A    between atoms: C_22  and  C_25
REMARK    6  A    between atoms: C_24  and  C_28
REMARK    7  A    between atoms: C_28  and  C_31
REMARK    8  A    between atoms: C_28  and  C_32
REMARK                            x       y       z     vdW  Elec       q    Type
REMARK                         _______ _______ _______ _____ _____    ______ ____
ROOT
ATOM      1  C   UNL     1     -10.352  54.940  50.023  0.00  0.00    +0.000 A 
ATOM      2  C   UNL     1      -9.809  54.905  48.643  0.00  0.00    +0.000 A 
ATOM      3  C   UNL     1     -11.597  55.388  50.245  0.00  0.00    +0.000 A 
ATOM      4  O   UNL     1      -8.699  54.395  48.460  0.00  0.00    +0.000 OA
ATOM      5  N   UNL     1     -10.607  55.371  47.610  0.00  0.00    +0.000 N 
ATOM      6  C   UNL     1     -12.393  56.061  49.189  0.00  0.00    +0.000 A 
ATOM      7  C   UNL     1     -11.895  55.960  47.858  0.00  0.00    +0.000 A 
ATOM      8  C   UNL     1     -13.604  56.789  49.443  0.00  0.00    +0.000 A 
ATOM      9  C   UNL     1     -12.665  56.454  46.794  0.00  0.00    +0.000 A 
ATOM     10  C   UNL     1     -14.350  57.219  48.322  0.00  0.00    +0.000 A 
ATOM     11  C   UNL     1     -13.903  57.036  47.020  0.00  0.00    +0.000 A 
ENDROOT
BRANCH   1  17
ATOM     12  S   UNL     1      -9.382  52.589  53.005  0.00  0.00    +0.000 S 
ATOM     13  O   UNL     1      -8.891  51.302  52.552  0.00  0.00    +0.000 OA
ATOM     14  O   UNL     1     -10.280  52.672  54.142  0.00  0.00    +0.000 OA
ATOM     15  N   UNL     1     -10.098  53.307  51.745  0.00  0.00    +0.000 N 
ATOM     16  C   UNL     1      -7.965  53.528  53.440  0.00  0.00    +0.000 A 
ATOM     17  C   UNL     1      -9.552  54.337  51.155  0.00  0.00    +0.000 C 
ATOM     18  C   UNL     1      -7.619  54.593  52.624  0.00  0.00    +0.000 A 
ATOM     19  C   UNL     1      -7.234  53.200  54.583  0.00  0.00    +0.000 A 
ATOM     20  N   UNL     1      -8.345  54.905  51.477  0.00  0.00    +0.000 N 
ATOM     21  C   UNL     1      -6.457  55.307  52.929  0.00  0.00    +0.000 A 
ATOM     22  C   UNL     1      -6.097  53.945  54.895  0.00  0.00    +0.000 A 
ATOM     23  C   UNL     1      -5.704  54.993  54.065  0.00  0.00    +0.000 A 
ATOM     24  H   UNL     1     -10.959  52.960  51.417  0.00  0.00    +0.000 HD
ATOM     25  H   UNL     1      -7.969  55.573  50.859  0.00  0.00    +0.000 HD
ENDBRANCH   1  17
BRANCH   8  26
ATOM     26  C   UNL     1     -14.113  57.204  50.792  0.00  0.00    +0.000 A 
ATOM     27  C   UNL     1     -13.724  58.417  51.396  0.00  0.00    +0.000 A 
ATOM     28  C   UNL     1     -15.060  56.434  51.497  0.00  0.00    +0.000 A 
ATOM     29  C   UNL     1     -14.164  58.786  52.671  0.00  0.00    +0.000 A 
ATOM     30  C   UNL     1     -15.563  56.837  52.741  0.00  0.00    +0.000 A 
ATOM     31  C   UNL     1     -15.094  57.999  53.339  0.00  0.00    +0.000 A 
ENDBRANCH   8  26
BRANCH   3  32
ATOM     32  O   UNL     1     -12.249  55.161  51.445  0.00  0.00    +0.000 OA
ATOM     33  H   UNL     1     -12.199  54.320  51.853  0.00  0.00    +0.000 HD
ENDBRANCH   3  32
BRANCH   5  34
ATOM     34  C   UNL     1     -10.051  55.283  46.251  0.00  0.00    +0.000 C 
BRANCH  34  35
ATOM     35  C   UNL     1     -10.459  53.988  45.533  0.00  0.00    +0.000 C 
BRANCH  35  36
ATOM     36  C   UNL     1      -9.274  53.211  44.923  0.00  0.00    +0.000 C 
ATOM     37  C   UNL     1      -9.572  52.695  43.514  0.00  0.00    +0.000 C 
ATOM     38  C   UNL     1      -8.029  54.106  44.883  0.00  0.00    +0.000 C 
ENDBRANCH  35  36
ENDBRANCH  34  35
ENDBRANCH   5  34
TORSDOF 6
ENDMDL
MODEL 5
REMARK VINA RESULT:      -8.6      2.668      6.454
REMARK  Name = 338154
REMARK  8 active torsions:
REMARK  status: ('A' for Active; 'I' for Inactive)
REMARK    1  A    between atoms: C_6  and  C_10
REMARK    2  A    between atoms: C_14  and  O_18
REMARK    3  A    between atoms: N_17  and  C_21
REMARK    4  A    between atoms: C_21  and  C_24
REMARK    5  A    between atoms: C_22  and  C_25
REMARK    6  A    between atoms: C_24  and  C_28
REMARK    7  A    between atoms: C_28  and  C_31
REMARK    8  A    between atoms: C_28  and  C_32
REMARK                            x       y       z     vdW  Elec       q    Type
REMARK                         _______ _______ _______ _____ _____    ______ ____
ROOT
ATOM      1  C   UNL     1     -11.481  55.924  48.763  0.00  0.00    +0.000 A 
ATOM      2  C   UNL     1     -11.754  55.414  47.398  0.00  0.00    +0.000 A 
ATOM      3  C   UNL     1     -10.322  55.632  49.372  0.00  0.00    +0.000 A 
ATOM      4  O   UNL     1     -12.786  55.781  46.827  0.00  0.00    +0.000 OA
ATOM      5  N   UNL     1     -10.798  54.615  46.791  0.00  0.00    +0.000 N 
ATOM      6  C   UNL     1      -9.373  54.632  48.822  0.00  0.00    +0.000 A 
ATOM      7  C   UNL     1      -9.607  54.204  47.483  0.00  0.00    +0.000 A 
ATOM      8  C   UNL     1      -8.265  54.093  49.559  0.00  0.00    +0.000 A 
ATOM      9  C   UNL     1      -8.674  53.366  46.855  0.00  0.00    +0.000 A 
ATOM     10  C   UNL     1      -7.342  53.291  48.848  0.00  0.00    +0.000 A 
ATOM     11  C   UNL     1      -7.528  52.952  47.515  0.00  0.00    +0.000 A 
ENDROOT
BRANCH   1  17
ATOM     12  S   UNL     1     -13.526  59.201  49.428  0.00  0.00    +0.000 S 
ATOM     13  O   UNL     1     -14.666  59.325  48.541  0.00  0.00    +0.000 OA
ATOM     14  O   UNL     1     -12.707  60.359  49.735  0.00  0.00    +0.000 OA
ATOM     15  N   UNL     1     -12.563  58.051  48.823  0.00  0.00    +0.000 N 
ATOM     16  C   UNL     1     -14.159  58.637  50.964  0.00  0.00    +0.000 A 
ATOM     17  C   UNL     1     -12.452  56.888  49.408  0.00  0.00    +0.000 C 
ATOM     18  C   UNL     1     -13.869  57.337  51.345  0.00  0.00    +0.000 A 
ATOM     19  C   UNL     1     -14.918  59.493  51.764  0.00  0.00    +0.000 A 
ATOM     20  N   UNL     1     -13.123  56.484  50.535  0.00  0.00    +0.000 N 
ATOM     21  C   UNL     1     -14.420  56.861  52.537  0.00  0.00    +0.000 A 
ATOM     22  C   UNL     1     -15.431  59.015  52.968  0.00  0.00    +0.000 A 
ATOM     23  C   UNL     1     -15.190  57.697  53.352  0.00  0.00    +0.000 A 
ATOM     24  H   UNL     1     -12.054  58.230  48.000  0.00  0.00    +0.000 HD
ATOM     25  H   UNL     1     -13.075  55.533  50.785  0.00  0.00    +0.000 HD
ENDBRANCH   1  17
BRANCH   8  26
ATOM     26  C   UNL     1      -8.037  54.239  51.035  0.00  0.00    +0.000 A 
ATOM     27  C   UNL     1      -8.778  53.502  51.980  0.00  0.00    +0.000 A 
ATOM     28  C   UNL     1      -7.022  55.070  51.550  0.00  0.00    +0.000 A 
ATOM     29  C   UNL     1      -8.597  53.668  53.358  0.00  0.00    +0.000 A 
ATOM     30  C   UNL     1      -6.784  55.180  52.926  0.00  0.00    +0.000 A 
ATOM     31  C   UNL     1      -7.590  54.500  53.830  0.00  0.00    +0.000 A 
ENDBRANCH   8  26
BRANCH   3  32
ATOM     32  O   UNL     1      -9.897  56.318  50.497  0.00  0.00    +0.000 OA
ATOM     33  H   UNL     1      -9.734  55.855  51.294  0.00  0.00    +0.000 HD
ENDBRANCH   3  32
BRANCH   5  34
ATOM     34  C   UNL     1     -11.085  54.161  45.421  0.00  0.00    +0.000 C 
BRANCH  34  35
ATOM     35  C   UNL     1     -11.824  52.815  45.392  0.00  0.00    +0.000 C 
BRANCH  35  36
ATOM     36  C   UNL     1     -11.237  51.800  44.390  0.00  0.00    +0.000 C 
ATOM     37  C   UNL     1     -10.183  52.422  43.473  0.00  0.00    +0.000 C 
ATOM     38  C   UNL     1     -10.618  50.619  45.147  0.00  0.00    +0.000 C 
ENDBRANCH  35  36
ENDBRANCH  34  35
ENDBRANCH   5  34
TORSDOF 6
ENDMDL
MODEL 6
REMARK VINA RESULT:      -8.5      2.662      7.780
REMARK  Name = 338154
REMARK  8 active torsions:
REMARK  status: ('A' for Active; 'I' for Inactive)
REMARK    1  A    between atoms: C_6  and  C_10
REMARK    2  A    between atoms: C_14  and  O_18
REMARK    3  A    between atoms: N_17  and  C_21
REMARK    4  A    between atoms: C_21  and  C_24
REMARK    5  A    between atoms: C_22  and  C_25
REMARK    6  A    between atoms: C_24  and  C_28
REMARK    7  A    between atoms: C_28  and  C_31
REMARK    8  A    between atoms: C_28  and  C_32
REMARK                            x       y       z     vdW  Elec       q    Type
REMARK                         _______ _______ _______ _____ _____    ______ ____
ROOT
ATOM      1  C   UNL     1     -11.447  54.370  50.950  0.00  0.00    +0.000 A 
ATOM      2  C   UNL     1     -10.581  54.278  52.150  0.00  0.00    +0.000 A 
ATOM      3  C   UNL     1     -11.453  53.378  50.046  0.00  0.00    +0.000 A 
ATOM      4  O   UNL     1     -10.672  55.159  53.011  0.00  0.00    +0.000 OA
ATOM      5  N   UNL     1      -9.769  53.164  52.292  0.00  0.00    +0.000 N 
ATOM      6  C   UNL     1     -10.461  52.274  50.082  0.00  0.00    +0.000 A 
ATOM      7  C   UNL     1      -9.685  52.156  51.270  0.00  0.00    +0.000 A 
ATOM      8  C   UNL     1     -10.256  51.351  49.002  0.00  0.00    +0.000 A 
ATOM      9  C   UNL     1      -8.827  51.057  51.427  0.00  0.00    +0.000 A 
ATOM     10  C   UNL     1      -9.412  50.243  49.247  0.00  0.00    +0.000 A 
ATOM     11  C   UNL     1      -8.727  50.084  50.444  0.00  0.00    +0.000 A 
ENDROOT
BRANCH   1  17
ATOM     12  S   UNL     1     -13.474  57.322  49.357  0.00  0.00    +0.000 S 
ATOM     13  O   UNL     1     -14.588  56.852  48.556  0.00  0.00    +0.000 OA
ATOM     14  O   UNL     1     -12.652  58.424  48.893  0.00  0.00    +0.000 OA
ATOM     15  N   UNL     1     -12.508  56.055  49.633  0.00  0.00    +0.000 N 
ATOM     16  C   UNL     1     -14.155  57.838  50.888  0.00  0.00    +0.000 A 
ATOM     17  C   UNL     1     -12.425  55.516  50.821  0.00  0.00    +0.000 C 
ATOM     18  C   UNL     1     -13.889  57.067  52.009  0.00  0.00    +0.000 A 
ATOM     19  C   UNL     1     -14.927  59.000  50.954  0.00  0.00    +0.000 A 
ATOM     20  N   UNL     1     -13.131  55.901  51.933  0.00  0.00    +0.000 N 
ATOM     21  C   UNL     1     -14.479  57.438  53.220  0.00  0.00    +0.000 A 
ATOM     22  C   UNL     1     -15.478  59.377  52.177  0.00  0.00    +0.000 A 
ATOM     23  C   UNL     1     -15.261  58.593  53.308  0.00  0.00    +0.000 A 
ATOM     24  H   UNL     1     -11.974  55.683  48.894  0.00  0.00    +0.000 HD
ATOM     25  H   UNL     1     -13.100  55.317  52.725  0.00  0.00    +0.000 HD
ENDBRANCH   1  17
BRANCH   8  26
ATOM     26  C   UNL     1     -10.794  51.494  47.608  0.00  0.00    +0.000 A 
ATOM     27  C   UNL     1     -10.229  52.389  46.678  0.00  0.00    +0.000 A 
ATOM     28  C   UNL     1     -11.852  50.691  47.135  0.00  0.00    +0.000 A 
ATOM     29  C   UNL     1     -10.756  52.555  45.393  0.00  0.00    +0.000 A 
ATOM     30  C   UNL     1     -12.333  50.797  45.824  0.00  0.00    +0.000 A 
ATOM     31  C   UNL     1     -11.802  51.750  44.962  0.00  0.00    +0.000 A 
ENDBRANCH   8  26
BRANCH   3  32
ATOM     32  O   UNL     1     -12.444  53.274  49.086  0.00  0.00    +0.000 OA
ATOM     33  H   UNL     1     -13.221  52.782  49.267  0.00  0.00    +0.000 HD
ENDBRANCH   3  32
BRANCH   5  34
ATOM     34  C   UNL     1      -8.955  53.087  53.514  0.00  0.00    +0.000 C 
BRANCH  34  35
ATOM     35  C   UNL     1      -7.525  53.605  53.300  0.00  0.00    +0.000 C 
BRANCH  35  36
ATOM     36  C   UNL     1      -7.161  54.821  54.176  0.00  0.00    +0.000 C 
ATOM     37  C   UNL     1      -5.816  54.654  54.886  0.00  0.00    +0.000 C 
ATOM     38  C   UNL     1      -7.127  56.091  53.318  0.00  0.00    +0.000 C 
ENDBRANCH  35  36
ENDBRANCH  34  35
ENDBRANCH   5  34
TORSDOF 6
ENDMDL
MODEL 7
REMARK VINA RESULT:      -8.2      1.986      5.633
REMARK  Name = 338154
REMARK  8 active torsions:
REMARK  status: ('A' for Active; 'I' for Inactive)
REMARK    1  A    between atoms: C_6  and  C_10
REMARK    2  A    between atoms: C_14  and  O_18
REMARK    3  A    between atoms: N_17  and  C_21
REMARK    4  A    between atoms: C_21  and  C_24
REMARK    5  A    between atoms: C_22  and  C_25
REMARK    6  A    between atoms: C_24  and  C_28
REMARK    7  A    between atoms: C_28  and  C_31
REMARK    8  A    between atoms: C_28  and  C_32
REMARK                            x       y       z     vdW  Elec       q    Type
REMARK                         _______ _______ _______ _____ _____    ______ ____
ROOT
ATOM      1  C   UNL     1      -9.541  54.462  50.738  0.00  0.00    +0.000 A 
ATOM      2  C   UNL     1     -10.611  55.107  51.539  0.00  0.00    +0.000 A 
ATOM      3  C   UNL     1      -9.540  54.577  49.401  0.00  0.00    +0.000 A 
ATOM      4  O   UNL     1     -10.529  55.066  52.771  0.00  0.00    +0.000 OA
ATOM      5  N   UNL     1     -11.609  55.796  50.869  0.00  0.00    +0.000 N 
ATOM      6  C   UNL     1     -10.692  55.146  48.658  0.00  0.00    +0.000 A 
ATOM      7  C   UNL     1     -11.676  55.823  49.434  0.00  0.00    +0.000 A 
ATOM      8  C   UNL     1     -10.853  55.044  47.235  0.00  0.00    +0.000 A 
ATOM      9  C   UNL     1     -12.719  56.501  48.785  0.00  0.00    +0.000 A 
ATOM     10  C   UNL     1     -11.899  55.789  46.645  0.00  0.00    +0.000 A 
ATOM     11  C   UNL     1     -12.803  56.523  47.401  0.00  0.00    +0.000 A 
ENDROOT
BRANCH   1  17
ATOM     12  S   UNL     1      -6.518  53.950  53.179  0.00  0.00    +0.000 S 
ATOM     13  O   UNL     1      -6.949  53.639  54.528  0.00  0.00    +0.000 OA
ATOM     14  O   UNL     1      -5.414  54.865  52.955  0.00  0.00    +0.000 OA
ATOM     15  N   UNL     1      -7.805  54.510  52.375  0.00  0.00    +0.000 N 
ATOM     16  C   UNL     1      -6.037  52.427  52.454  0.00  0.00    +0.000 A 
ATOM     17  C   UNL     1      -8.379  53.798  51.441  0.00  0.00    +0.000 C 
ATOM     18  C   UNL     1      -6.844  51.900  51.458  0.00  0.00    +0.000 A 
ATOM     19  C   UNL     1      -4.867  51.791  52.875  0.00  0.00    +0.000 A 
ATOM     20  N   UNL     1      -8.017  52.533  51.054  0.00  0.00    +0.000 N 
ATOM     21  C   UNL     1      -6.501  50.657  50.919  0.00  0.00    +0.000 A 
ATOM     22  C   UNL     1      -4.519  50.569  52.302  0.00  0.00    +0.000 A 
ATOM     23  C   UNL     1      -5.339  49.998  51.331  0.00  0.00    +0.000 A 
ATOM     24  H   UNL     1      -8.162  55.401  52.594  0.00  0.00    +0.000 HD
ATOM     25  H   UNL     1      -8.624  52.042  50.454  0.00  0.00    +0.000 HD
ENDBRANCH   1  17
BRANCH   8  26
ATOM     26  C   UNL     1     -10.058  54.157  46.322  0.00  0.00    +0.000 A 
ATOM     27  C   UNL     1      -8.949  54.635  45.595  0.00  0.00    +0.000 A 
ATOM     28  C   UNL     1     -10.337  52.781  46.197  0.00  0.00    +0.000 A 
ATOM     29  C   UNL     1      -8.233  53.821  44.712  0.00  0.00    +0.000 A 
ATOM     30  C   UNL     1      -9.574  51.943  45.373  0.00  0.00    +0.000 A 
ATOM     31  C   UNL     1      -8.540  52.470  44.610  0.00  0.00    +0.000 A 
ENDBRANCH   8  26
BRANCH   3  32
ATOM     32  O   UNL     1      -8.425  54.261  48.645  0.00  0.00    +0.000 OA
ATOM     33  H   UNL     1      -7.970  54.935  48.179  0.00  0.00    +0.000 HD
ENDBRANCH   3  32
BRANCH   5  34
ATOM     34  C   UNL     1     -12.630  56.456  51.698  0.00  0.00    +0.000 C 
BRANCH  34  35
ATOM     35  C   UNL     1     -13.982  55.730  51.652  0.00  0.00    +0.000 C 
BRANCH  35  36
ATOM     36  C   UNL     1     -15.191  56.637  51.962  0.00  0.00    +0.000 C 
ATOM     37  C   UNL     1     -14.781  58.079  52.267  0.00  0.00    +0.000 C 
ATOM     38  C   UNL     1     -16.167  56.627  50.780  0.00  0.00    +0.000 C 
ENDBRANCH  35  36
ENDBRANCH  34  35
ENDBRANCH   5  34
TORSDOF 6
ENDMDL
MODEL 8
REMARK VINA RESULT:      -8.1      2.425      6.814
REMARK  Name = 338154
REMARK  8 active torsions:
REMARK  status: ('A' for Active; 'I' for Inactive)
REMARK    1  A    between atoms: C_6  and  C_10
REMARK    2  A    between atoms: C_14  and  O_18
REMARK    3  A    between atoms: N_17  and  C_21
REMARK    4  A    between atoms: C_21  and  C_24
REMARK    5  A    between atoms: C_22  and  C_25
REMARK    6  A    between atoms: C_24  and  C_28
REMARK    7  A    between atoms: C_28  and  C_31
REMARK    8  A    between atoms: C_28  and  C_32
REMARK                            x       y       z     vdW  Elec       q    Type
REMARK                         _______ _______ _______ _____ _____    ______ ____
ROOT
ATOM      1  C   UNL     1     -10.680  55.601  49.084  0.00  0.00    +0.000 A 
ATOM      2  C   UNL     1     -10.820  55.240  47.652  0.00  0.00    +0.000 A 
ATOM      3  C   UNL     1      -9.531  55.356  49.731  0.00  0.00    +0.000 A 
ATOM      4  O   UNL     1     -11.854  55.568  47.061  0.00  0.00    +0.000 OA
ATOM      5  N   UNL     1      -9.751  54.625  47.022  0.00  0.00    +0.000 N 
ATOM      6  C   UNL     1      -8.449  54.534  49.132  0.00  0.00    +0.000 A 
ATOM      7  C   UNL     1      -8.561  54.255  47.739  0.00  0.00    +0.000 A 
ATOM      8  C   UNL     1      -7.330  54.024  49.873  0.00  0.00    +0.000 A 
ATOM      9  C   UNL     1      -7.509  53.602  47.080  0.00  0.00    +0.000 A 
ATOM     10  C   UNL     1      -6.288  53.416  49.137  0.00  0.00    +0.000 A 
ATOM     11  C   UNL     1      -6.362  53.228  47.763  0.00  0.00    +0.000 A 
ENDROOT
BRANCH   1  17
ATOM     12  S   UNL     1     -13.616  56.427  51.546  0.00  0.00    +0.000 S 
ATOM     13  O   UNL     1     -13.139  56.780  52.869  0.00  0.00    +0.000 OA
ATOM     14  O   UNL     1     -14.779  55.573  51.390  0.00  0.00    +0.000 OA
ATOM     15  N   UNL     1     -12.383  55.747  50.751  0.00  0.00    +0.000 N 
ATOM     16  C   UNL     1     -14.017  57.938  50.750  0.00  0.00    +0.000 A 
ATOM     17  C   UNL     1     -11.785  56.372  49.771  0.00  0.00    +0.000 C 
ATOM     18  C   UNL     1     -13.199  58.361  49.714  0.00  0.00    +0.000 A 
ATOM     19  C   UNL     1     -15.136  58.667  51.157  0.00  0.00    +0.000 A 
ATOM     20  N   UNL     1     -12.076  57.636  49.324  0.00  0.00    +0.000 N 
ATOM     21  C   UNL     1     -13.476  59.593  49.117  0.00  0.00    +0.000 A 
ATOM     22  C   UNL     1     -15.420  59.877  50.527  0.00  0.00    +0.000 A 
ATOM     23  C   UNL     1     -14.586  60.345  49.512  0.00  0.00    +0.000 A 
ATOM     24  H   UNL     1     -12.077  54.848  51.011  0.00  0.00    +0.000 HD
ATOM     25  H   UNL     1     -11.452  58.056  48.688  0.00  0.00    +0.000 HD
ENDBRANCH   1  17
BRANCH   8  26
ATOM     26  C   UNL     1      -7.201  54.007  51.368  0.00  0.00    +0.000 A 
ATOM     27  C   UNL     1      -7.927  53.103  52.169  0.00  0.00    +0.000 A 
ATOM     28  C   UNL     1      -6.294  54.848  52.044  0.00  0.00    +0.000 A 
ATOM     29  C   UNL     1      -7.840  53.114  53.565  0.00  0.00    +0.000 A 
ATOM     30  C   UNL     1      -6.145  54.809  53.436  0.00  0.00    +0.000 A 
ATOM     31  C   UNL     1      -6.939  53.960  54.198  0.00  0.00    +0.000 A 
ENDBRANCH   8  26
BRANCH   3  32
ATOM     32  O   UNL     1      -9.246  55.936  50.955  0.00  0.00    +0.000 OA
ATOM     33  H   UNL     1      -9.315  56.864  51.061  0.00  0.00    +0.000 HD
ENDBRANCH   3  32
BRANCH   5  34
ATOM     34  C   UNL     1      -9.911  54.319  45.592  0.00  0.00    +0.000 C 
BRANCH  34  35
ATOM     35  C   UNL     1     -10.426  52.892  45.351  0.00  0.00    +0.000 C 
BRANCH  35  36
ATOM     36  C   UNL     1      -9.605  52.096  44.316  0.00  0.00    +0.000 C 
ATOM     37  C   UNL     1     -10.488  51.370  43.298  0.00  0.00    +0.000 C 
ATOM     38  C   UNL     1      -8.647  53.037  43.576  0.00  0.00    +0.000 C 
ENDBRANCH  35  36
ENDBRANCH  34  35
ENDBRANCH   5  34
TORSDOF 6
ENDMDL
MODEL 9
REMARK VINA RESULT:      -8.1      2.715      7.169
REMARK  Name = 338154
REMARK  8 active torsions:
REMARK  status: ('A' for Active; 'I' for Inactive)
REMARK    1  A    between atoms: C_6  and  C_10
REMARK    2  A    between atoms: C_14  and  O_18
REMARK    3  A    between atoms: N_17  and  C_21
REMARK    4  A    between atoms: C_21  and  C_24
REMARK    5  A    between atoms: C_22  and  C_25
REMARK    6  A    between atoms: C_24  and  C_28
REMARK    7  A    between atoms: C_28  and  C_31
REMARK    8  A    between atoms: C_28  and  C_32
REMARK                            x       y       z     vdW  Elec       q    Type
REMARK                         _______ _______ _______ _____ _____    ______ ____
ROOT
ATOM      1  C   UNL     1     -10.842  54.855  47.970  0.00  0.00    +0.000 A 
ATOM      2  C   UNL     1     -12.060  55.658  47.706  0.00  0.00    +0.000 A 
ATOM      3  C   UNL     1     -10.489  54.563  49.232  0.00  0.00    +0.000 A 
ATOM      4  O   UNL     1     -12.412  55.826  46.534  0.00  0.00    +0.000 OA
ATOM      5  N   UNL     1     -12.795  56.115  48.788  0.00  0.00    +0.000 N 
ATOM      6  C   UNL     1     -11.150  55.194  50.401  0.00  0.00    +0.000 A 
ATOM      7  C   UNL     1     -12.358  55.904  50.141  0.00  0.00    +0.000 A 
ATOM      8  C   UNL     1     -10.639  55.123  51.741  0.00  0.00    +0.000 A 
ATOM      9  C   UNL     1     -13.105  56.408  51.216  0.00  0.00    +0.000 A 
ATOM     10  C   UNL     1     -11.467  55.612  52.777  0.00  0.00    +0.000 A 
ATOM     11  C   UNL     1     -12.688  56.223  52.525  0.00  0.00    +0.000 A 
ENDROOT
BRANCH   1  17
ATOM     12  S   UNL     1      -7.949  54.176  45.415  0.00  0.00    +0.000 S 
ATOM     13  O   UNL     1      -6.911  53.332  45.973  0.00  0.00    +0.000 OA
ATOM     14  O   UNL     1      -7.600  55.323  44.596  0.00  0.00    +0.000 OA
ATOM     15  N   UNL     1      -8.865  54.696  46.642  0.00  0.00    +0.000 N 
ATOM     16  C   UNL     1      -8.931  53.138  44.397  0.00  0.00    +0.000 A 
ATOM     17  C   UNL     1     -10.081  54.249  46.813  0.00  0.00    +0.000 C 
ATOM     18  C   UNL     1     -10.212  52.832  44.828  0.00  0.00    +0.000 A 
ATOM     19  C   UNL     1      -8.420  52.657  43.190  0.00  0.00    +0.000 A 
ATOM     20  N   UNL     1     -10.709  53.303  46.041  0.00  0.00    +0.000 N 
ATOM     21  C   UNL     1     -10.977  51.957  44.054  0.00  0.00    +0.000 A 
ATOM     22  C   UNL     1      -9.209  51.813  42.410  0.00  0.00    +0.000 A 
ATOM     23  C   UNL     1     -10.484  51.456  42.845  0.00  0.00    +0.000 A 
ATOM     24  H   UNL     1      -8.499  55.358  47.272  0.00  0.00    +0.000 HD
ATOM     25  H   UNL     1     -11.563  52.936  46.365  0.00  0.00    +0.000 HD
ENDBRANCH   1  17
BRANCH   8  26
ATOM     26  C   UNL     1      -9.272  54.648  52.136  0.00  0.00    +0.000 A 
ATOM     27  C   UNL     1      -8.121  55.436  51.937  0.00  0.00    +0.000 A 
ATOM     28  C   UNL     1      -9.076  53.415  52.790  0.00  0.00    +0.000 A 
ATOM     29  C   UNL     1      -6.841  54.978  52.265  0.00  0.00    +0.000 A 
ATOM     30  C   UNL     1      -7.805  52.984  53.193  0.00  0.00    +0.000 A 
ATOM     31  C   UNL     1      -6.684  53.754  52.905  0.00  0.00    +0.000 A 
ENDBRANCH   8  26
BRANCH   3  32
ATOM     32  O   UNL     1      -9.555  53.582  49.517  0.00  0.00    +0.000 OA
ATOM     33  H   UNL     1      -8.714  53.603  49.105  0.00  0.00    +0.000 HD
ENDBRANCH   3  32
BRANCH   5  34
ATOM     34  C   UNL     1     -14.019  56.874  48.487  0.00  0.00    +0.000 C 
BRANCH  34  35
ATOM     35  C   UNL     1     -13.741  58.366  48.256  0.00  0.00    +0.000 C 
BRANCH  35  36
ATOM     36  C   UNL     1     -14.444  59.298  49.265  0.00  0.00    +0.000 C 
ATOM     37  C   UNL     1     -15.141  58.528  50.388  0.00  0.00    +0.000 C 
ATOM     38  C   UNL     1     -13.427  60.271  49.872  0.00  0.00    +0.000 C 
ENDBRANCH  35  36
ENDBRANCH  34  35
ENDBRANCH   5  34
TORSDOF 6
ENDMDL
