MODEL 1
REMARK VINA RESULT:      -8.4      0.000      0.000
REMARK  Name = 338264
REMARK  4 active torsions:
REMARK  status: ('A' for Active; 'I' for Inactive)
REMARK    1  A    between atoms: C_6  and  C_10
REMARK    2  A    between atoms: C_14  and  O_18
REMARK    3  A    between atoms: N_17  and  C_21
REMARK    4  A    between atoms: C_21  and  C_24
REMARK                            x       y       z     vdW  Elec       q    Type
REMARK                         _______ _______ _______ _____ _____    ______ ____
ROOT
ATOM      1  C   UNL     1     -10.244  54.316  52.243  0.00  0.00    +0.000 A 
ATOM      2  C   UNL     1      -8.847  54.829  52.113  0.00  0.00    +0.000 A 
ATOM      3  C   UNL     1     -10.486  53.232  52.998  0.00  0.00    +0.000 A 
ATOM      4  O   UNL     1      -8.681  55.984  51.711  0.00  0.00    +0.000 OA
ATOM      5  N   UNL     1      -7.799  53.980  52.446  0.00  0.00    +0.000 N 
ATOM      6  C   UNL     1      -9.370  52.551  53.673  0.00  0.00    +0.000 A 
ATOM      7  C   UNL     1      -8.040  52.891  53.346  0.00  0.00    +0.000 A 
ATOM      8  C   UNL     1      -9.612  51.570  54.650  0.00  0.00    +0.000 A 
ATOM      9  C   UNL     1      -6.990  52.214  53.986  0.00  0.00    +0.000 A 
ATOM     10  C   UNL     1      -8.558  50.948  55.315  0.00  0.00    +0.000 A 
ATOM     11  C   UNL     1      -7.248  51.264  54.978  0.00  0.00    +0.000 A 
ENDROOT
BRANCH   1  17
ATOM     12  S   UNL     1     -12.432  56.056  49.485  0.00  0.00    +0.000 S 
ATOM     13  O   UNL     1     -13.365  55.181  48.801  0.00  0.00    +0.000 OA
ATOM     14  O   UNL     1     -11.680  57.048  48.739  0.00  0.00    +0.000 OA
ATOM     15  N   UNL     1     -11.375  55.122  50.288  0.00  0.00    +0.000 N 
ATOM     16  C   UNL     1     -13.385  56.958  50.655  0.00  0.00    +0.000 A 
ATOM     17  C   UNL     1     -11.357  55.104  51.586  0.00  0.00    +0.000 C 
ATOM     18  C   UNL     1     -13.155  56.713  51.998  0.00  0.00    +0.000 A 
ATOM     19  C   UNL     1     -14.320  57.906  50.230  0.00  0.00    +0.000 A 
ATOM     20  N   UNL     1     -12.238  55.755  52.416  0.00  0.00    +0.000 N 
ATOM     21  C   UNL     1     -13.937  57.387  52.942  0.00  0.00    +0.000 A 
ATOM     22  C   UNL     1     -15.071  58.594  51.182  0.00  0.00    +0.000 A 
ATOM     23  C   UNL     1     -14.885  58.328  52.539  0.00  0.00    +0.000 A 
ATOM     24  H   UNL     1     -10.738  54.564  49.785  0.00  0.00    +0.000 HD
ATOM     25  H   UNL     1     -12.220  55.527  53.373  0.00  0.00    +0.000 HD
ENDBRANCH   1  17
BRANCH   3  26
ATOM     26  O   UNL     1     -11.741  52.699  53.235  0.00  0.00    +0.000 OA
ATOM     27  H   UNL     1     -12.052  51.984  52.715  0.00  0.00    +0.000 HD
ENDBRANCH   3  26
BRANCH   5  28
ATOM     28  C   UNL     1      -6.437  54.427  52.128  0.00  0.00    +0.000 C 
BRANCH  28  29
ATOM     29  C   UNL     1      -6.021  53.926  50.743  0.00  0.00    +0.000 C 
ATOM     30  C   UNL     1      -4.481  53.858  50.576  0.00  0.00    +0.000 C 
ATOM     31  C   UNL     1      -6.060  54.911  49.547  0.00  0.00    +0.000 C 
ATOM     32  C   UNL     1      -4.598  54.569  49.225  0.00  0.00    +0.000 C 
ENDBRANCH  28  29
ENDBRANCH   5  28
TORSDOF 4
ENDMDL
MODEL 2
REMARK VINA RESULT:      -8.3      3.320      5.128
REMARK  Name = 338264
REMARK  4 active torsions:
REMARK  status: ('A' for Active; 'I' for Inactive)
REMARK    1  A    between atoms: C_6  and  C_10
REMARK    2  A    between atoms: C_14  and  O_18
REMARK    3  A    between atoms: N_17  and  C_21
REMARK    4  A    between atoms: C_21  and  C_24
REMARK                            x       y       z     vdW  Elec       q    Type
REMARK                         _______ _______ _______ _____ _____    ______ ____
ROOT
ATOM      1  C   UNL     1     -11.853  56.086  48.538  0.00  0.00    +0.000 A 
ATOM      2  C   UNL     1     -10.772  55.416  49.322  0.00  0.00    +0.000 A 
ATOM      3  C   UNL     1     -12.049  55.746  47.254  0.00  0.00    +0.000 A 
ATOM      4  O   UNL     1     -10.815  55.481  50.554  0.00  0.00    +0.000 OA
ATOM      5  N   UNL     1      -9.766  54.755  48.629  0.00  0.00    +0.000 N 
ATOM      6  C   UNL     1     -11.185  54.732  46.628  0.00  0.00    +0.000 A 
ATOM      7  C   UNL     1     -10.023  54.292  47.297  0.00  0.00    +0.000 A 
ATOM      8  C   UNL     1     -11.510  54.186  45.375  0.00  0.00    +0.000 A 
ATOM      9  C   UNL     1      -9.203  53.339  46.674  0.00  0.00    +0.000 A 
ATOM     10  C   UNL     1     -10.714  53.200  44.796  0.00  0.00    +0.000 A 
ATOM     11  C   UNL     1      -9.556  52.784  45.441  0.00  0.00    +0.000 A 
ENDROOT
BRANCH   1  17
ATOM     12  S   UNL     1     -13.664  59.427  49.527  0.00  0.00    +0.000 S 
ATOM     13  O   UNL     1     -14.837  59.746  48.734  0.00  0.00    +0.000 OA
ATOM     14  O   UNL     1     -12.723  60.469  49.890  0.00  0.00    +0.000 OA
ATOM     15  N   UNL     1     -12.846  58.257  48.753  0.00  0.00    +0.000 N 
ATOM     16  C   UNL     1     -14.269  58.777  51.045  0.00  0.00    +0.000 A 
ATOM     17  C   UNL     1     -12.754  57.065  49.258  0.00  0.00    +0.000 C 
ATOM     18  C   UNL     1     -14.030  57.441  51.313  0.00  0.00    +0.000 A 
ATOM     19  C   UNL     1     -14.942  59.601  51.951  0.00  0.00    +0.000 A 
ATOM     20  N   UNL     1     -13.378  56.620  50.400  0.00  0.00    +0.000 N 
ATOM     21  C   UNL     1     -14.545  56.896  52.494  0.00  0.00    +0.000 A 
ATOM     22  C   UNL     1     -15.422  59.053  53.140  0.00  0.00    +0.000 A 
ATOM     23  C   UNL     1     -15.231  57.697  53.407  0.00  0.00    +0.000 A 
ATOM     24  H   UNL     1     -12.414  58.455  47.890  0.00  0.00    +0.000 HD
ATOM     25  H   UNL     1     -13.362  55.654  50.584  0.00  0.00    +0.000 HD
ENDBRANCH   1  17
BRANCH   3  26
ATOM     26  O   UNL     1     -13.050  56.258  46.446  0.00  0.00    +0.000 OA
ATOM     27  H   UNL     1     -13.647  55.677  46.016  0.00  0.00    +0.000 HD
ENDBRANCH   3  26
BRANCH   5  28
ATOM     28  C   UNL     1      -8.614  54.273  49.400  0.00  0.00    +0.000 C 
BRANCH  28  29
ATOM     29  C   UNL     1      -7.435  55.239  49.257  0.00  0.00    +0.000 C 
ATOM     30  C   UNL     1      -6.278  54.639  48.418  0.00  0.00    +0.000 C 
ATOM     31  C   UNL     1      -6.441  55.388  50.437  0.00  0.00    +0.000 C 
ATOM     32  C   UNL     1      -5.274  55.091  49.482  0.00  0.00    +0.000 C 
ENDBRANCH  28  29
ENDBRANCH   5  28
TORSDOF 4
ENDMDL
MODEL 3
REMARK VINA RESULT:      -8.3      2.631      7.842
REMARK  Name = 338264
REMARK  4 active torsions:
REMARK  status: ('A' for Active; 'I' for Inactive)
REMARK    1  A    between atoms: C_6  and  C_10
REMARK    2  A    between atoms: C_14  and  O_18
REMARK    3  A    between atoms: N_17  and  C_21
REMARK    4  A    between atoms: C_21  and  C_24
REMARK                            x       y       z     vdW  Elec       q    Type
REMARK                         _______ _______ _______ _____ _____    ______ ____
ROOT
ATOM      1  C   UNL     1     -10.927  54.781  50.640  0.00  0.00    +0.000 A 
ATOM      2  C   UNL     1     -12.010  55.419  51.447  0.00  0.00    +0.000 A 
ATOM      3  C   UNL     1     -10.932  54.907  49.304  0.00  0.00    +0.000 A 
ATOM      4  O   UNL     1     -11.822  55.584  52.656  0.00  0.00    +0.000 OA
ATOM      5  N   UNL     1     -13.182  55.793  50.801  0.00  0.00    +0.000 N 
ATOM      6  C   UNL     1     -12.015  55.658  48.648  0.00  0.00    +0.000 A 
ATOM      7  C   UNL     1     -13.153  56.040  49.389  0.00  0.00    +0.000 A 
ATOM      8  C   UNL     1     -11.925  56.010  47.290  0.00  0.00    +0.000 A 
ATOM      9  C   UNL     1     -14.183  56.738  48.739  0.00  0.00    +0.000 A 
ATOM     10  C   UNL     1     -12.932  56.751  46.675  0.00  0.00    +0.000 A 
ATOM     11  C   UNL     1     -14.063  57.107  47.397  0.00  0.00    +0.000 A 
ENDROOT
BRANCH   1  17
ATOM     12  S   UNL     1      -8.653  51.938  52.113  0.00  0.00    +0.000 S 
ATOM     13  O   UNL     1      -7.669  51.401  51.192  0.00  0.00    +0.000 OA
ATOM     14  O   UNL     1      -9.392  51.050  52.991  0.00  0.00    +0.000 OA
ATOM     15  N   UNL     1      -9.725  52.797  51.248  0.00  0.00    +0.000 N 
ATOM     16  C   UNL     1      -7.777  53.037  53.170  0.00  0.00    +0.000 A 
ATOM     17  C   UNL     1      -9.803  54.086  51.378  0.00  0.00    +0.000 C 
ATOM     18  C   UNL     1      -8.064  54.387  53.074  0.00  0.00    +0.000 A 
ATOM     19  C   UNL     1      -6.845  52.545  54.089  0.00  0.00    +0.000 A 
ATOM     20  N   UNL     1      -8.977  54.873  52.145  0.00  0.00    +0.000 N 
ATOM     21  C   UNL     1      -7.343  55.280  53.874  0.00  0.00    +0.000 A 
ATOM     22  C   UNL     1      -6.156  53.443  54.903  0.00  0.00    +0.000 A 
ATOM     23  C   UNL     1      -6.399  54.812  54.789  0.00  0.00    +0.000 A 
ATOM     24  H   UNL     1     -10.324  52.334  50.618  0.00  0.00    +0.000 HD
ATOM     25  H   UNL     1      -9.035  55.848  52.028  0.00  0.00    +0.000 HD
ENDBRANCH   1  17
BRANCH   3  26
ATOM     26  O   UNL     1      -9.956  54.407  48.459  0.00  0.00    +0.000 OA
ATOM     27  H   UNL     1      -9.334  53.784  48.780  0.00  0.00    +0.000 HD
ENDBRANCH   3  26
BRANCH   5  28
ATOM     28  C   UNL     1     -14.305  56.237  51.635  0.00  0.00    +0.000 C 
BRANCH  28  29
ATOM     29  C   UNL     1     -14.042  57.643  52.179  0.00  0.00    +0.000 C 
ATOM     30  C   UNL     1     -14.913  57.970  53.420  0.00  0.00    +0.000 C 
ATOM     31  C   UNL     1     -14.691  58.856  51.464  0.00  0.00    +0.000 C 
ATOM     32  C   UNL     1     -15.283  59.321  52.803  0.00  0.00    +0.000 C 
ENDBRANCH  28  29
ENDBRANCH   5  28
TORSDOF 4
ENDMDL
MODEL 4
REMARK VINA RESULT:      -8.3      2.654      7.785
REMARK  Name = 338264
REMARK  4 active torsions:
REMARK  status: ('A' for Active; 'I' for Inactive)
REMARK    1  A    between atoms: C_6  and  C_10
REMARK    2  A    between atoms: C_14  and  O_18
REMARK    3  A    between atoms: N_17  and  C_21
REMARK    4  A    between atoms: C_21  and  C_24
REMARK                            x       y       z     vdW  Elec       q    Type
REMARK                         _______ _______ _______ _____ _____    ______ ____
ROOT
ATOM      1  C   UNL     1     -10.206  54.671  51.105  0.00  0.00    +0.000 A 
ATOM      2  C   UNL     1     -11.463  55.308  51.602  0.00  0.00    +0.000 A 
ATOM      3  C   UNL     1      -9.966  54.618  49.785  0.00  0.00    +0.000 A 
ATOM      4  O   UNL     1     -11.519  55.649  52.787  0.00  0.00    +0.000 OA
ATOM      5  N   UNL     1     -12.512  55.483  50.709  0.00  0.00    +0.000 N 
ATOM      6  C   UNL     1     -10.952  55.171  48.842  0.00  0.00    +0.000 A 
ATOM      7  C   UNL     1     -12.233  55.542  49.304  0.00  0.00    +0.000 A 
ATOM      8  C   UNL     1     -10.629  55.347  47.486  0.00  0.00    +0.000 A 
ATOM      9  C   UNL     1     -13.164  56.049  48.385  0.00  0.00    +0.000 A 
ATOM     10  C   UNL     1     -11.548  55.903  46.598  0.00  0.00    +0.000 A 
ATOM     11  C   UNL     1     -12.817  56.246  47.046  0.00  0.00    +0.000 A 
ENDROOT
BRANCH   1  17
ATOM     12  S   UNL     1      -6.822  54.174  53.033  0.00  0.00    +0.000 S 
ATOM     13  O   UNL     1      -6.508  55.211  53.997  0.00  0.00    +0.000 OA
ATOM     14  O   UNL     1      -5.782  53.633  52.178  0.00  0.00    +0.000 OA
ATOM     15  N   UNL     1      -8.019  54.724  52.085  0.00  0.00    +0.000 N 
ATOM     16  C   UNL     1      -7.429  52.813  53.968  0.00  0.00    +0.000 A 
ATOM     17  C   UNL     1      -9.200  54.187  52.126  0.00  0.00    +0.000 C 
ATOM     18  C   UNL     1      -8.761  52.472  53.816  0.00  0.00    +0.000 A 
ATOM     19  C   UNL     1      -6.576  52.095  54.810  0.00  0.00    +0.000 A 
ATOM     20  N   UNL     1      -9.610  53.202  52.993  0.00  0.00    +0.000 N 
ATOM     21  C   UNL     1      -9.272  51.423  54.588  0.00  0.00    +0.000 A 
ATOM     22  C   UNL     1      -7.090  51.031  55.550  0.00  0.00    +0.000 A 
ATOM     23  C   UNL     1      -8.442  50.701  55.445  0.00  0.00    +0.000 A 
ATOM     24  H   UNL     1      -7.846  55.474  51.469  0.00  0.00    +0.000 HD
ATOM     25  H   UNL     1     -10.573  53.000  53.034  0.00  0.00    +0.000 HD
ENDBRANCH   1  17
BRANCH   3  26
ATOM     26  O   UNL     1      -8.817  54.102  49.212  0.00  0.00    +0.000 OA
ATOM     27  H   UNL     1      -8.048  54.634  49.144  0.00  0.00    +0.000 HD
ENDBRANCH   3  26
BRANCH   5  28
ATOM     28  C   UNL     1     -13.801  55.928  51.255  0.00  0.00    +0.000 C 
BRANCH  28  29
ATOM     29  C   UNL     1     -13.752  57.421  51.588  0.00  0.00    +0.000 C 
ATOM     30  C   UNL     1     -14.333  57.734  52.990  0.00  0.00    +0.000 C 
ATOM     31  C   UNL     1     -14.828  58.359  50.983  0.00  0.00    +0.000 C 
ATOM     32  C   UNL     1     -15.158  58.877  52.392  0.00  0.00    +0.000 C 
ENDBRANCH  28  29
ENDBRANCH   5  28
TORSDOF 4
ENDMDL
MODEL 5
REMARK VINA RESULT:      -8.1      3.195      7.069
REMARK  Name = 338264
REMARK  4 active torsions:
REMARK  status: ('A' for Active; 'I' for Inactive)
REMARK    1  A    between atoms: C_6  and  C_10
REMARK    2  A    between atoms: C_14  and  O_18
REMARK    3  A    between atoms: N_17  and  C_21
REMARK    4  A    between atoms: C_21  and  C_24
REMARK                            x       y       z     vdW  Elec       q    Type
REMARK                         _______ _______ _______ _____ _____    ______ ____
ROOT
ATOM      1  C   UNL     1     -10.341  55.076  50.899  0.00  0.00    +0.000 A 
ATOM      2  C   UNL     1      -9.993  54.864  49.462  0.00  0.00    +0.000 A 
ATOM      3  C   UNL     1     -11.520  55.630  51.223  0.00  0.00    +0.000 A 
ATOM      4  O   UNL     1      -9.089  54.070  49.188  0.00  0.00    +0.000 OA
ATOM      5  N   UNL     1     -10.701  55.574  48.500  0.00  0.00    +0.000 N 
ATOM      6  C   UNL     1     -12.449  56.040  50.157  0.00  0.00    +0.000 A 
ATOM      7  C   UNL     1     -12.010  56.064  48.815  0.00  0.00    +0.000 A 
ATOM      8  C   UNL     1     -13.774  56.399  50.457  0.00  0.00    +0.000 A 
ATOM      9  C   UNL     1     -12.906  56.477  47.817  0.00  0.00    +0.000 A 
ATOM     10  C   UNL     1     -14.665  56.754  49.447  0.00  0.00    +0.000 A 
ATOM     11  C   UNL     1     -14.229  56.801  48.129  0.00  0.00    +0.000 A 
ENDROOT
BRANCH   1  17
ATOM     12  S   UNL     1      -7.065  54.600  53.012  0.00  0.00    +0.000 S 
ATOM     13  O   UNL     1      -6.870  55.575  54.068  0.00  0.00    +0.000 OA
ATOM     14  O   UNL     1      -5.945  54.177  52.192  0.00  0.00    +0.000 OA
ATOM     15  N   UNL     1      -8.226  55.161  52.027  0.00  0.00    +0.000 N 
ATOM     16  C   UNL     1      -7.656  53.144  53.802  0.00  0.00    +0.000 A 
ATOM     17  C   UNL     1      -9.377  54.566  51.948  0.00  0.00    +0.000 C 
ATOM     18  C   UNL     1      -8.956  52.750  53.535  0.00  0.00    +0.000 A 
ATOM     19  C   UNL     1      -6.821  52.406  54.646  0.00  0.00    +0.000 A 
ATOM     20  N   UNL     1      -9.789  53.498  52.711  0.00  0.00    +0.000 N 
ATOM     21  C   UNL     1      -9.458  51.621  54.192  0.00  0.00    +0.000 A 
ATOM     22  C   UNL     1      -7.324  51.264  55.269  0.00  0.00    +0.000 A 
ATOM     23  C   UNL     1      -8.646  50.877  55.048  0.00  0.00    +0.000 A 
ATOM     24  H   UNL     1      -8.055  55.963  51.481  0.00  0.00    +0.000 HD
ATOM     25  H   UNL     1     -10.739  53.247  52.672  0.00  0.00    +0.000 HD
ENDBRANCH   1  17
BRANCH   3  26
ATOM     26  O   UNL     1     -11.972  55.826  52.516  0.00  0.00    +0.000 OA
ATOM     27  H   UNL     1     -12.768  55.419  52.800  0.00  0.00    +0.000 HD
ENDBRANCH   3  26
BRANCH   5  28
ATOM     28  C   UNL     1     -10.220  55.504  47.115  0.00  0.00    +0.000 C 
BRANCH  28  29
ATOM     29  C   UNL     1     -10.566  54.146  46.499  0.00  0.00    +0.000 C 
ATOM     30  C   UNL     1      -9.504  53.675  45.473  0.00  0.00    +0.000 C 
ATOM     31  C   UNL     1     -11.621  54.085  45.364  0.00  0.00    +0.000 C 
ATOM     32  C   UNL     1     -10.617  53.328  44.481  0.00  0.00    +0.000 C 
ENDBRANCH  28  29
ENDBRANCH   5  28
TORSDOF 4
ENDMDL
MODEL 6
REMARK VINA RESULT:      -8.0      3.745      4.900
REMARK  Name = 338264
REMARK  4 active torsions:
REMARK  status: ('A' for Active; 'I' for Inactive)
REMARK    1  A    between atoms: C_6  and  C_10
REMARK    2  A    between atoms: C_14  and  O_18
REMARK    3  A    between atoms: N_17  and  C_21
REMARK    4  A    between atoms: C_21  and  C_24
REMARK                            x       y       z     vdW  Elec       q    Type
REMARK                         _______ _______ _______ _____ _____    ______ ____
ROOT
ATOM      1  C   UNL     1     -12.459  54.291  50.299  0.00  0.00    +0.000 A 
ATOM      2  C   UNL     1     -12.410  53.955  48.844  0.00  0.00    +0.000 A 
ATOM      3  C   UNL     1     -11.884  53.469  51.191  0.00  0.00    +0.000 A 
ATOM      4  O   UNL     1     -12.632  54.853  48.027  0.00  0.00    +0.000 OA
ATOM      5  N   UNL     1     -12.119  52.647  48.479  0.00  0.00    +0.000 N 
ATOM      6  C   UNL     1     -11.227  52.236  50.727  0.00  0.00    +0.000 A 
ATOM      7  C   UNL     1     -11.400  51.809  49.393  0.00  0.00    +0.000 A 
ATOM      8  C   UNL     1     -10.418  51.483  51.594  0.00  0.00    +0.000 A 
ATOM      9  C   UNL     1     -10.781  50.620  48.977  0.00  0.00    +0.000 A 
ATOM     10  C   UNL     1      -9.766  50.335  51.148  0.00  0.00    +0.000 A 
ATOM     11  C   UNL     1      -9.955  49.899  49.843  0.00  0.00    +0.000 A 
ENDROOT
BRANCH   1  17
ATOM     12  S   UNL     1     -14.559  56.945  52.292  0.00  0.00    +0.000 S 
ATOM     13  O   UNL     1     -13.892  57.511  53.449  0.00  0.00    +0.000 OA
ATOM     14  O   UNL     1     -15.963  56.588  52.361  0.00  0.00    +0.000 OA
ATOM     15  N   UNL     1     -13.726  55.629  51.834  0.00  0.00    +0.000 N 
ATOM     16  C   UNL     1     -14.435  58.156  51.023  0.00  0.00    +0.000 A 
ATOM     17  C   UNL     1     -13.084  55.608  50.706  0.00  0.00    +0.000 C 
ATOM     18  C   UNL     1     -13.651  57.857  49.922  0.00  0.00    +0.000 A 
ATOM     19  C   UNL     1     -15.133  59.363  51.124  0.00  0.00    +0.000 A 
ATOM     20  N   UNL     1     -12.943  56.664  49.836  0.00  0.00    +0.000 N 
ATOM     21  C   UNL     1     -13.503  58.828  48.926  0.00  0.00    +0.000 A 
ATOM     22  C   UNL     1     -15.002  60.310  50.108  0.00  0.00    +0.000 A 
ATOM     23  C   UNL     1     -14.180  60.045  49.012  0.00  0.00    +0.000 A 
ATOM     24  H   UNL     1     -13.709  54.837  52.418  0.00  0.00    +0.000 HD
ATOM     25  H   UNL     1     -12.295  56.568  49.101  0.00  0.00    +0.000 HD
ENDBRANCH   1  17
BRANCH   3  26
ATOM     26  O   UNL     1     -11.821  53.702  52.554  0.00  0.00    +0.000 OA
ATOM     27  H   UNL     1     -11.822  52.980  53.152  0.00  0.00    +0.000 HD
ENDBRANCH   3  26
BRANCH   5  28
ATOM     28  C   UNL     1     -12.265  52.290  47.063  0.00  0.00    +0.000 C 
BRANCH  28  29
ATOM     29  C   UNL     1     -11.054  52.778  46.262  0.00  0.00    +0.000 C 
ATOM     30  C   UNL     1     -11.464  53.594  45.009  0.00  0.00    +0.000 C 
ATOM     31  C   UNL     1     -10.329  51.784  45.320  0.00  0.00    +0.000 C 
ATOM     32  C   UNL     1     -10.485  52.780  44.160  0.00  0.00    +0.000 C 
ENDBRANCH  28  29
ENDBRANCH   5  28
TORSDOF 4
ENDMDL
MODEL 7
REMARK VINA RESULT:      -7.9      3.498      5.270
REMARK  Name = 338264
REMARK  4 active torsions:
REMARK  status: ('A' for Active; 'I' for Inactive)
REMARK    1  A    between atoms: C_6  and  C_10
REMARK    2  A    between atoms: C_14  and  O_18
REMARK    3  A    between atoms: N_17  and  C_21
REMARK    4  A    between atoms: C_21  and  C_24
REMARK                            x       y       z     vdW  Elec       q    Type
REMARK                         _______ _______ _______ _____ _____    ______ ____
ROOT
ATOM      1  C   UNL     1     -11.280  55.267  48.400  0.00  0.00    +0.000 A 
ATOM      2  C   UNL     1     -10.084  54.571  48.963  0.00  0.00    +0.000 A 
ATOM      3  C   UNL     1     -11.615  55.076  47.114  0.00  0.00    +0.000 A 
ATOM      4  O   UNL     1      -9.980  54.483  50.190  0.00  0.00    +0.000 OA
ATOM      5  N   UNL     1      -9.142  54.059  48.081  0.00  0.00    +0.000 N 
ATOM      6  C   UNL     1     -10.790  54.197  46.270  0.00  0.00    +0.000 A 
ATOM      7  C   UNL     1      -9.537  53.747  46.739  0.00  0.00    +0.000 A 
ATOM      8  C   UNL     1     -11.240  53.789  45.002  0.00  0.00    +0.000 A 
ATOM      9  C   UNL     1      -8.758  52.927  45.909  0.00  0.00    +0.000 A 
ATOM     10  C   UNL     1     -10.478  52.929  44.215  0.00  0.00    +0.000 A 
ATOM     11  C   UNL     1      -9.234  52.505  44.664  0.00  0.00    +0.000 A 
ENDROOT
BRANCH   1  17
ATOM     12  S   UNL     1     -13.577  56.268  51.424  0.00  0.00    +0.000 S 
ATOM     13  O   UNL     1     -12.873  56.553  52.660  0.00  0.00    +0.000 OA
ATOM     14  O   UNL     1     -14.811  55.505  51.446  0.00  0.00    +0.000 OA
ATOM     15  N   UNL     1     -12.540  55.519  50.425  0.00  0.00    +0.000 N 
ATOM     16  C   UNL     1     -13.992  57.830  50.732  0.00  0.00    +0.000 A 
ATOM     17  C   UNL     1     -12.129  56.097  49.338  0.00  0.00    +0.000 C 
ATOM     18  C   UNL     1     -13.371  58.196  49.550  0.00  0.00    +0.000 A 
ATOM     19  C   UNL     1     -14.938  58.651  51.352  0.00  0.00    +0.000 A 
ATOM     20  N   UNL     1     -12.416  57.385  48.949  0.00  0.00    +0.000 N 
ATOM     21  C   UNL     1     -13.654  59.455  49.011  0.00  0.00    +0.000 A 
ATOM     22  C   UNL     1     -15.235  59.891  50.786  0.00  0.00    +0.000 A 
ATOM     23  C   UNL     1     -14.586  60.297  49.620  0.00  0.00    +0.000 A 
ATOM     24  H   UNL     1     -12.220  54.614  50.645  0.00  0.00    +0.000 HD
ATOM     25  H   UNL     1     -11.910  57.758  48.192  0.00  0.00    +0.000 HD
ENDBRANCH   1  17
BRANCH   3  26
ATOM     26  O   UNL     1     -12.728  55.622  46.498  0.00  0.00    +0.000 OA
ATOM     27  H   UNL     1     -12.856  55.508  45.577  0.00  0.00    +0.000 HD
ENDBRANCH   3  26
BRANCH   5  28
ATOM     28  C   UNL     1      -7.885  53.555  48.647  0.00  0.00    +0.000 C 
BRANCH  28  29
ATOM     29  C   UNL     1      -6.771  54.592  48.481  0.00  0.00    +0.000 C 
ATOM     30  C   UNL     1      -5.372  53.941  48.338  0.00  0.00    +0.000 C 
ATOM     31  C   UNL     1      -6.246  55.334  49.737  0.00  0.00    +0.000 C 
ATOM     32  C   UNL     1      -4.812  54.919  49.374  0.00  0.00    +0.000 C 
ENDBRANCH  28  29
ENDBRANCH   5  28
TORSDOF 4
ENDMDL
MODEL 8
REMARK VINA RESULT:      -7.6      3.336      5.095
REMARK  Name = 338264
REMARK  4 active torsions:
REMARK  status: ('A' for Active; 'I' for Inactive)
REMARK    1  A    between atoms: C_6  and  C_10
REMARK    2  A    between atoms: C_14  and  O_18
REMARK    3  A    between atoms: N_17  and  C_21
REMARK    4  A    between atoms: C_21  and  C_24
REMARK                            x       y       z     vdW  Elec       q    Type
REMARK                         _______ _______ _______ _____ _____    ______ ____
ROOT
ATOM      1  C   UNL     1     -11.593  54.936  48.655  0.00  0.00    +0.000 A 
ATOM      2  C   UNL     1     -10.754  53.996  49.458  0.00  0.00    +0.000 A 
ATOM      3  C   UNL     1     -11.533  54.900  47.315  0.00  0.00    +0.000 A 
ATOM      4  O   UNL     1     -11.055  53.804  50.639  0.00  0.00    +0.000 OA
ATOM      5  N   UNL     1      -9.672  53.384  48.838  0.00  0.00    +0.000 N 
ATOM      6  C   UNL     1     -10.628  53.947  46.651  0.00  0.00    +0.000 A 
ATOM      7  C   UNL     1      -9.669  53.245  47.412  0.00  0.00    +0.000 A 
ATOM      8  C   UNL     1     -10.715  53.719  45.267  0.00  0.00    +0.000 A 
ATOM      9  C   UNL     1      -8.803  52.356  46.756  0.00  0.00    +0.000 A 
ATOM     10  C   UNL     1      -9.883  52.792  44.642  0.00  0.00    +0.000 A 
ATOM     11  C   UNL     1      -8.923  52.118  45.384  0.00  0.00    +0.000 A 
ENDROOT
BRANCH   1  17
ATOM     12  S   UNL     1     -14.648  56.129  50.816  0.00  0.00    +0.000 S 
ATOM     13  O   UNL     1     -14.451  56.049  52.251  0.00  0.00    +0.000 OA
ATOM     14  O   UNL     1     -15.915  55.738  50.229  0.00  0.00    +0.000 OA
ATOM     15  N   UNL     1     -13.474  55.260  50.106  0.00  0.00    +0.000 N 
ATOM     16  C   UNL     1     -14.426  57.821  50.391  0.00  0.00    +0.000 A 
ATOM     17  C   UNL     1     -12.556  55.839  49.394  0.00  0.00    +0.000 C 
ATOM     18  C   UNL     1     -13.326  58.152  49.619  0.00  0.00    +0.000 A 
ATOM     19  C   UNL     1     -15.352  58.783  50.804  0.00  0.00    +0.000 A 
ATOM     20  N   UNL     1     -12.397  57.195  49.228  0.00  0.00    +0.000 N 
ATOM     21  C   UNL     1     -13.108  59.499  49.312  0.00  0.00    +0.000 A 
ATOM     22  C   UNL     1     -15.140  60.119  50.464  0.00  0.00    +0.000 A 
ATOM     23  C   UNL     1     -14.013  60.478  49.725  0.00  0.00    +0.000 A 
ATOM     24  H   UNL     1     -13.460  54.282  50.216  0.00  0.00    +0.000 HD
ATOM     25  H   UNL     1     -11.567  57.510  48.803  0.00  0.00    +0.000 HD
ENDBRANCH   1  17
BRANCH   3  26
ATOM     26  O   UNL     1     -12.300  55.682  46.469  0.00  0.00    +0.000 OA
ATOM     27  H   UNL     1     -12.638  55.319  45.674  0.00  0.00    +0.000 HD
ENDBRANCH   3  26
BRANCH   5  28
ATOM     28  C   UNL     1      -8.748  52.620  49.686  0.00  0.00    +0.000 C 
BRANCH  28  29
ATOM     29  C   UNL     1      -7.508  53.458  50.012  0.00  0.00    +0.000 C 
ATOM     30  C   UNL     1      -7.580  54.093  51.424  0.00  0.00    +0.000 C 
ATOM     31  C   UNL     1      -7.395  54.888  49.425  0.00  0.00    +0.000 C 
ATOM     32  C   UNL     1      -7.152  55.441  50.838  0.00  0.00    +0.000 C 
ENDBRANCH  28  29
ENDBRANCH   5  28
TORSDOF 4
ENDMDL
MODEL 9
REMARK VINA RESULT:      -7.4      3.528      7.804
REMARK  Name = 338264
REMARK  4 active torsions:
REMARK  status: ('A' for Active; 'I' for Inactive)
REMARK    1  A    between atoms: C_6  and  C_10
REMARK    2  A    between atoms: C_14  and  O_18
REMARK    3  A    between atoms: N_17  and  C_21
REMARK    4  A    between atoms: C_21  and  C_24
REMARK                            x       y       z     vdW  Elec       q    Type
REMARK                         _______ _______ _______ _____ _____    ______ ____
ROOT
ATOM      1  C   UNL     1      -9.210  53.964  49.468  0.00  0.00    +0.000 A 
ATOM      2  C   UNL     1     -10.036  55.187  49.239  0.00  0.00    +0.000 A 
ATOM      3  C   UNL     1      -9.142  53.020  48.515  0.00  0.00    +0.000 A 
ATOM      4  O   UNL     1      -9.831  56.175  49.949  0.00  0.00    +0.000 OA
ATOM      5  N   UNL     1     -11.001  55.154  48.240  0.00  0.00    +0.000 N 
ATOM      6  C   UNL     1      -9.898  53.193  47.264  0.00  0.00    +0.000 A 
ATOM      7  C   UNL     1     -10.860  54.220  47.162  0.00  0.00    +0.000 A 
ATOM      8  C   UNL     1      -9.666  52.352  46.162  0.00  0.00    +0.000 A 
ATOM      9  C   UNL     1     -11.584  54.355  45.967  0.00  0.00    +0.000 A 
ATOM     10  C   UNL     1     -10.354  52.535  44.965  0.00  0.00    +0.000 A 
ATOM     11  C   UNL     1     -11.318  53.530  44.870  0.00  0.00    +0.000 A 
ENDROOT
BRANCH   1  17
ATOM     12  S   UNL     1      -8.287  53.924  53.285  0.00  0.00    +0.000 S 
ATOM     13  O   UNL     1      -8.476  52.648  53.947  0.00  0.00    +0.000 OA
ATOM     14  O   UNL     1      -8.668  55.156  53.949  0.00  0.00    +0.000 OA
ATOM     15  N   UNL     1      -9.060  53.862  51.859  0.00  0.00    +0.000 N 
ATOM     16  C   UNL     1      -6.560  54.059  52.980  0.00  0.00    +0.000 A 
ATOM     17  C   UNL     1      -8.398  53.880  50.742  0.00  0.00    +0.000 C 
ATOM     18  C   UNL     1      -6.135  54.032  51.663  0.00  0.00    +0.000 A 
ATOM     19  C   UNL     1      -5.663  54.215  54.040  0.00  0.00    +0.000 A 
ATOM     20  N   UNL     1      -7.030  53.857  50.613  0.00  0.00    +0.000 N 
ATOM     21  C   UNL     1      -4.762  54.090  51.405  0.00  0.00    +0.000 A 
ATOM     22  C   UNL     1      -4.298  54.304  53.767  0.00  0.00    +0.000 A 
ATOM     23  C   UNL     1      -3.847  54.233  52.449  0.00  0.00    +0.000 A 
ATOM     24  H   UNL     1     -10.044  53.810  51.841  0.00  0.00    +0.000 HD
ATOM     25  H   UNL     1      -6.656  53.705  49.715  0.00  0.00    +0.000 HD
ENDBRANCH   1  17
BRANCH   3  26
ATOM     26  O   UNL     1      -8.370  51.874  48.592  0.00  0.00    +0.000 OA
ATOM     27  H   UNL     1      -7.969  51.527  47.819  0.00  0.00    +0.000 HD
ENDBRANCH   3  26
BRANCH   5  28
ATOM     28  C   UNL     1     -11.931  56.287  48.158  0.00  0.00    +0.000 C 
BRANCH  28  29
ATOM     29  C   UNL     1     -13.199  55.994  48.965  0.00  0.00    +0.000 C 
ATOM     30  C   UNL     1     -14.382  56.912  48.560  0.00  0.00    +0.000 C 
ATOM     31  C   UNL     1     -13.317  56.556  50.405  0.00  0.00    +0.000 C 
ATOM     32  C   UNL     1     -14.665  57.196  50.038  0.00  0.00    +0.000 C 
ENDBRANCH  28  29
ENDBRANCH   5  28
TORSDOF 4
ENDMDL
