MODEL 1
REMARK VINA RESULT:      -8.4      0.000      0.000
REMARK  Name = 338287
REMARK  6 active torsions:
REMARK  status: ('A' for Active; 'I' for Inactive)
REMARK    1  A    between atoms: C_6  and  C_10
REMARK    2  A    between atoms: C_14  and  O_18
REMARK    3  A    between atoms: N_17  and  C_21
REMARK    4  A    between atoms: C_21  and  C_24
REMARK    5  A    between atoms: C_27  and  C_28
REMARK    6  A    between atoms: C_27  and  C_29
REMARK                            x       y       z     vdW  Elec       q    Type
REMARK                         _______ _______ _______ _____ _____    ______ ____
ROOT
ATOM      1  C   UNL     1     -10.082  54.254  52.301  0.00  0.00    +0.000 A 
ATOM      2  C   UNL     1      -8.714  54.832  52.262  0.00  0.00    +0.000 A 
ATOM      3  C   UNL     1     -10.350  53.164  53.036  0.00  0.00    +0.000 A 
ATOM      4  O   UNL     1      -8.574  55.969  51.808  0.00  0.00    +0.000 OA
ATOM      5  N   UNL     1      -7.664  54.074  52.766  0.00  0.00    +0.000 N 
ATOM      6  C   UNL     1      -9.259  52.506  53.775  0.00  0.00    +0.000 A 
ATOM      7  C   UNL     1      -7.930  52.953  53.616  0.00  0.00    +0.000 A 
ATOM      8  C   UNL     1      -9.531  51.445  54.656  0.00  0.00    +0.000 A 
ATOM      9  C   UNL     1      -6.915  52.325  54.352  0.00  0.00    +0.000 A 
ATOM     10  C   UNL     1      -8.511  50.847  55.393  0.00  0.00    +0.000 A 
ATOM     11  C   UNL     1      -7.204  51.290  55.243  0.00  0.00    +0.000 A 
ENDROOT
BRANCH   1  17
ATOM     12  S   UNL     1     -12.225  55.838  49.452  0.00  0.00    +0.000 S 
ATOM     13  O   UNL     1     -13.136  54.897  48.823  0.00  0.00    +0.000 OA
ATOM     14  O   UNL     1     -11.501  56.805  48.647  0.00  0.00    +0.000 OA
ATOM     15  N   UNL     1     -11.153  54.986  50.308  0.00  0.00    +0.000 N 
ATOM     16  C   UNL     1     -13.204  56.779  50.570  0.00  0.00    +0.000 A 
ATOM     17  C   UNL     1     -11.182  54.997  51.607  0.00  0.00    +0.000 C 
ATOM     18  C   UNL     1     -13.026  56.562  51.930  0.00  0.00    +0.000 A 
ATOM     19  C   UNL     1     -14.129  57.706  50.084  0.00  0.00    +0.000 A 
ATOM     20  N   UNL     1     -12.117  55.620  52.402  0.00  0.00    +0.000 N 
ATOM     21  C   UNL     1     -13.846  57.257  52.823  0.00  0.00    +0.000 A 
ATOM     22  C   UNL     1     -14.918  58.413  50.989  0.00  0.00    +0.000 A 
ATOM     23  C   UNL     1     -14.778  58.185  52.360  0.00  0.00    +0.000 A 
ATOM     24  H   UNL     1     -10.469  54.453  49.842  0.00  0.00    +0.000 HD
ATOM     25  H   UNL     1     -12.144  55.387  53.358  0.00  0.00    +0.000 HD
ENDBRANCH   1  17
BRANCH   3  26
ATOM     26  O   UNL     1     -11.610  52.624  53.218  0.00  0.00    +0.000 OA
ATOM     27  H   UNL     1     -12.307  53.160  53.541  0.00  0.00    +0.000 HD
ENDBRANCH   3  26
BRANCH   5  28
ATOM     28  C   UNL     1      -6.306  54.600  52.590  0.00  0.00    +0.000 C 
BRANCH  28  29
ATOM     29  C   UNL     1      -5.540  53.882  51.507  0.00  0.00    +0.000 C 
ATOM     30  C   UNL     1      -5.369  54.228  50.214  0.00  0.00    +0.000 C 
ATOM     31  C   UNL     1      -5.938  55.463  49.577  0.00  0.00    +0.000 C 
ATOM     32  C   UNL     1      -4.566  53.355  49.284  0.00  0.00    +0.000 C 
ENDBRANCH  28  29
ENDBRANCH   5  28
TORSDOF 4
ENDMDL
MODEL 2
REMARK VINA RESULT:      -8.2      3.226      7.081
REMARK  Name = 338287
REMARK  6 active torsions:
REMARK  status: ('A' for Active; 'I' for Inactive)
REMARK    1  A    between atoms: C_6  and  C_10
REMARK    2  A    between atoms: C_14  and  O_18
REMARK    3  A    between atoms: N_17  and  C_21
REMARK    4  A    between atoms: C_21  and  C_24
REMARK    5  A    between atoms: C_27  and  C_28
REMARK    6  A    between atoms: C_27  and  C_29
REMARK                            x       y       z     vdW  Elec       q    Type
REMARK                         _______ _______ _______ _____ _____    ______ ____
ROOT
ATOM      1  C   UNL     1     -10.321  55.199  50.823  0.00  0.00    +0.000 A 
ATOM      2  C   UNL     1      -9.937  55.026  49.398  0.00  0.00    +0.000 A 
ATOM      3  C   UNL     1     -11.518  55.703  51.159  0.00  0.00    +0.000 A 
ATOM      4  O   UNL     1      -8.963  54.317  49.138  0.00  0.00    +0.000 OA
ATOM      5  N   UNL     1     -10.713  55.646  48.426  0.00  0.00    +0.000 N 
ATOM      6  C   UNL     1     -12.443  56.134  50.097  0.00  0.00    +0.000 A 
ATOM      7  C   UNL     1     -12.025  56.121  48.750  0.00  0.00    +0.000 A 
ATOM      8  C   UNL     1     -13.752  56.541  50.411  0.00  0.00    +0.000 A 
ATOM      9  C   UNL     1     -12.936  56.511  47.757  0.00  0.00    +0.000 A 
ATOM     10  C   UNL     1     -14.648  56.906  49.409  0.00  0.00    +0.000 A 
ATOM     11  C   UNL     1     -14.240  56.888  48.082  0.00  0.00    +0.000 A 
ENDROOT
BRANCH   1  17
ATOM     12  S   UNL     1      -7.110  54.713  52.986  0.00  0.00    +0.000 S 
ATOM     13  O   UNL     1      -6.992  55.676  54.067  0.00  0.00    +0.000 OA
ATOM     14  O   UNL     1      -5.942  54.328  52.215  0.00  0.00    +0.000 OA
ATOM     15  N   UNL     1      -8.235  55.259  51.963  0.00  0.00    +0.000 N 
ATOM     16  C   UNL     1      -7.708  53.232  53.725  0.00  0.00    +0.000 A 
ATOM     17  C   UNL     1      -9.391  54.673  51.873  0.00  0.00    +0.000 C 
ATOM     18  C   UNL     1      -9.016  52.854  53.454  0.00  0.00    +0.000 A 
ATOM     19  C   UNL     1      -6.878  52.480  54.559  0.00  0.00    +0.000 A 
ATOM     20  N   UNL     1      -9.841  53.623  52.640  0.00  0.00    +0.000 N 
ATOM     21  C   UNL     1      -9.520  51.716  54.091  0.00  0.00    +0.000 A 
ATOM     22  C   UNL     1      -7.385  51.331  55.161  0.00  0.00    +0.000 A 
ATOM     23  C   UNL     1      -8.709  50.950  54.929  0.00  0.00    +0.000 A 
ATOM     24  H   UNL     1      -8.043  56.045  51.402  0.00  0.00    +0.000 HD
ATOM     25  H   UNL     1     -10.800  53.404  52.611  0.00  0.00    +0.000 HD
ENDBRANCH   1  17
BRANCH   3  26
ATOM     26  O   UNL     1     -12.000  55.799  52.451  0.00  0.00    +0.000 OA
ATOM     27  H   UNL     1     -12.139  56.641  52.838  0.00  0.00    +0.000 HD
ENDBRANCH   3  26
BRANCH   5  28
ATOM     28  C   UNL     1     -10.239  55.581  47.040  0.00  0.00    +0.000 C 
BRANCH  28  29
ATOM     29  C   UNL     1     -10.906  54.485  46.248  0.00  0.00    +0.000 C 
ATOM     30  C   UNL     1     -10.375  53.665  45.317  0.00  0.00    +0.000 C 
ATOM     31  C   UNL     1      -8.941  53.690  44.873  0.00  0.00    +0.000 C 
ATOM     32  C   UNL     1     -11.227  52.629  44.627  0.00  0.00    +0.000 C 
ENDBRANCH  28  29
ENDBRANCH   5  28
TORSDOF 4
ENDMDL
MODEL 3
REMARK VINA RESULT:      -8.1      2.566      7.791
REMARK  Name = 338287
REMARK  6 active torsions:
REMARK  status: ('A' for Active; 'I' for Inactive)
REMARK    1  A    between atoms: C_6  and  C_10
REMARK    2  A    between atoms: C_14  and  O_18
REMARK    3  A    between atoms: N_17  and  C_21
REMARK    4  A    between atoms: C_21  and  C_24
REMARK    5  A    between atoms: C_27  and  C_28
REMARK    6  A    between atoms: C_27  and  C_29
REMARK                            x       y       z     vdW  Elec       q    Type
REMARK                         _______ _______ _______ _____ _____    ______ ____
ROOT
ATOM      1  C   UNL     1     -10.045  54.617  50.962  0.00  0.00    +0.000 A 
ATOM      2  C   UNL     1     -11.376  55.137  51.367  0.00  0.00    +0.000 A 
ATOM      3  C   UNL     1      -9.678  54.590  49.672  0.00  0.00    +0.000 A 
ATOM      4  O   UNL     1     -11.564  55.398  52.557  0.00  0.00    +0.000 OA
ATOM      5  N   UNL     1     -12.336  55.332  50.380  0.00  0.00    +0.000 N 
ATOM      6  C   UNL     1     -10.630  55.039  48.642  0.00  0.00    +0.000 A 
ATOM      7  C   UNL     1     -11.949  55.383  49.003  0.00  0.00    +0.000 A 
ATOM      8  C   UNL     1     -10.229  55.148  47.298  0.00  0.00    +0.000 A 
ATOM      9  C   UNL     1     -12.826  55.833  48.004  0.00  0.00    +0.000 A 
ATOM     10  C   UNL     1     -11.109  55.614  46.325  0.00  0.00    +0.000 A 
ATOM     11  C   UNL     1     -12.406  55.960  46.679  0.00  0.00    +0.000 A 
ENDROOT
BRANCH   1  17
ATOM     12  S   UNL     1      -6.809  54.570  53.141  0.00  0.00    +0.000 S 
ATOM     13  O   UNL     1      -6.781  55.610  54.156  0.00  0.00    +0.000 OA
ATOM     14  O   UNL     1      -5.608  54.245  52.393  0.00  0.00    +0.000 OA
ATOM     15  N   UNL     1      -7.976  54.943  52.089  0.00  0.00    +0.000 N 
ATOM     16  C   UNL     1      -7.270  53.094  53.978  0.00  0.00    +0.000 A 
ATOM     17  C   UNL     1      -9.074  54.249  52.041  0.00  0.00    +0.000 C 
ATOM     18  C   UNL     1      -8.537  52.580  53.738  0.00  0.00    +0.000 A 
ATOM     19  C   UNL     1      -6.376  52.477  54.857  0.00  0.00    +0.000 A 
ATOM     20  N   UNL     1      -9.427  53.215  52.878  0.00  0.00    +0.000 N 
ATOM     21  C   UNL     1      -8.936  51.445  54.451  0.00  0.00    +0.000 A 
ATOM     22  C   UNL     1      -6.778  51.330  55.536  0.00  0.00    +0.000 A 
ATOM     23  C   UNL     1      -8.060  50.814  55.334  0.00  0.00    +0.000 A 
ATOM     24  H   UNL     1      -7.856  55.704  51.476  0.00  0.00    +0.000 HD
ATOM     25  H   UNL     1     -10.363  52.907  52.867  0.00  0.00    +0.000 HD
ENDBRANCH   1  17
BRANCH   3  26
ATOM     26  O   UNL     1      -8.425  54.227  49.215  0.00  0.00    +0.000 OA
ATOM     27  H   UNL     1      -8.236  54.250  48.297  0.00  0.00    +0.000 HD
ENDBRANCH   3  26
BRANCH   5  28
ATOM     28  C   UNL     1     -13.684  55.710  50.815  0.00  0.00    +0.000 C 
BRANCH  28  29
ATOM     29  C   UNL     1     -13.938  57.192  50.704  0.00  0.00    +0.000 C 
ATOM     30  C   UNL     1     -14.527  58.024  51.588  0.00  0.00    +0.000 C 
ATOM     31  C   UNL     1     -15.067  57.606  52.925  0.00  0.00    +0.000 C 
ATOM     32  C   UNL     1     -14.693  59.489  51.274  0.00  0.00    +0.000 C 
ENDBRANCH  28  29
ENDBRANCH   5  28
TORSDOF 4
ENDMDL
MODEL 4
REMARK VINA RESULT:      -7.9      3.339      7.132
REMARK  Name = 338287
REMARK  6 active torsions:
REMARK  status: ('A' for Active; 'I' for Inactive)
REMARK    1  A    between atoms: C_6  and  C_10
REMARK    2  A    between atoms: C_14  and  O_18
REMARK    3  A    between atoms: N_17  and  C_21
REMARK    4  A    between atoms: C_21  and  C_24
REMARK    5  A    between atoms: C_27  and  C_28
REMARK    6  A    between atoms: C_27  and  C_29
REMARK                            x       y       z     vdW  Elec       q    Type
REMARK                         _______ _______ _______ _____ _____    ______ ____
ROOT
ATOM      1  C   UNL     1     -10.462  54.877  50.500  0.00  0.00    +0.000 A 
ATOM      2  C   UNL     1     -10.165  54.794  49.047  0.00  0.00    +0.000 A 
ATOM      3  C   UNL     1     -11.598  55.437  50.941  0.00  0.00    +0.000 A 
ATOM      4  O   UNL     1      -9.262  54.040  48.678  0.00  0.00    +0.000 OA
ATOM      5  N   UNL     1     -10.938  55.548  48.172  0.00  0.00    +0.000 N 
ATOM      6  C   UNL     1     -12.539  56.021  49.970  0.00  0.00    +0.000 A 
ATOM      7  C   UNL     1     -12.191  56.089  48.605  0.00  0.00    +0.000 A 
ATOM      8  C   UNL     1     -13.795  56.495  50.389  0.00  0.00    +0.000 A 
ATOM      9  C   UNL     1     -13.118  56.625  47.699  0.00  0.00    +0.000 A 
ATOM     10  C   UNL     1     -14.709  57.007  49.470  0.00  0.00    +0.000 A 
ATOM     11  C   UNL     1     -14.371  57.068  48.125  0.00  0.00    +0.000 A 
ENDROOT
BRANCH   1  17
ATOM     12  S   UNL     1      -8.980  52.213  52.936  0.00  0.00    +0.000 S 
ATOM     13  O   UNL     1      -8.280  51.136  52.256  0.00  0.00    +0.000 OA
ATOM     14  O   UNL     1      -9.831  51.929  54.076  0.00  0.00    +0.000 OA
ATOM     15  N   UNL     1      -9.856  53.001  51.832  0.00  0.00    +0.000 N 
ATOM     16  C   UNL     1      -7.729  53.299  53.527  0.00  0.00    +0.000 A 
ATOM     17  C   UNL     1      -9.524  54.199  51.452  0.00  0.00    +0.000 C 
ATOM     18  C   UNL     1      -7.594  54.533  52.905  0.00  0.00    +0.000 A 
ATOM     19  C   UNL     1      -6.905  52.910  54.586  0.00  0.00    +0.000 A 
ATOM     20  N   UNL     1      -8.405  54.901  51.837  0.00  0.00    +0.000 N 
ATOM     21  C   UNL     1      -6.559  55.375  53.325  0.00  0.00    +0.000 A 
ATOM     22  C   UNL     1      -5.899  53.773  55.012  0.00  0.00    +0.000 A 
ATOM     23  C   UNL     1      -5.724  55.005  54.379  0.00  0.00    +0.000 A 
ATOM     24  H   UNL     1     -10.652  52.571  51.442  0.00  0.00    +0.000 HD
ATOM     25  H   UNL     1      -8.165  55.709  51.327  0.00  0.00    +0.000 HD
ENDBRANCH   1  17
BRANCH   3  26
ATOM     26  O   UNL     1     -12.006  55.461  52.262  0.00  0.00    +0.000 OA
ATOM     27  H   UNL     1     -12.538  54.766  52.601  0.00  0.00    +0.000 HD
ENDBRANCH   3  26
BRANCH   5  28
ATOM     28  C   UNL     1     -10.540  55.563  46.761  0.00  0.00    +0.000 C 
BRANCH  28  29
ATOM     29  C   UNL     1     -11.092  54.391  45.988  0.00  0.00    +0.000 C 
ATOM     30  C   UNL     1     -10.452  53.543  45.157  0.00  0.00    +0.000 C 
ATOM     31  C   UNL     1      -8.988  53.608  44.830  0.00  0.00    +0.000 C 
ATOM     32  C   UNL     1     -11.200  52.430  44.467  0.00  0.00    +0.000 C 
ENDBRANCH  28  29
ENDBRANCH   5  28
TORSDOF 4
ENDMDL
MODEL 5
REMARK VINA RESULT:      -7.9      1.571      2.277
REMARK  Name = 338287
REMARK  6 active torsions:
REMARK  status: ('A' for Active; 'I' for Inactive)
REMARK    1  A    between atoms: C_6  and  C_10
REMARK    2  A    between atoms: C_14  and  O_18
REMARK    3  A    between atoms: N_17  and  C_21
REMARK    4  A    between atoms: C_21  and  C_24
REMARK    5  A    between atoms: C_27  and  C_28
REMARK    6  A    between atoms: C_27  and  C_29
REMARK                            x       y       z     vdW  Elec       q    Type
REMARK                         _______ _______ _______ _____ _____    ______ ____
ROOT
ATOM      1  C   UNL     1     -10.115  54.449  52.144  0.00  0.00    +0.000 A 
ATOM      2  C   UNL     1      -8.728  54.981  52.167  0.00  0.00    +0.000 A 
ATOM      3  C   UNL     1     -10.447  53.356  52.847  0.00  0.00    +0.000 A 
ATOM      4  O   UNL     1      -8.532  56.121  51.741  0.00  0.00    +0.000 OA
ATOM      5  N   UNL     1      -7.723  54.179  52.696  0.00  0.00    +0.000 N 
ATOM      6  C   UNL     1      -9.407  52.648  53.613  0.00  0.00    +0.000 A 
ATOM      7  C   UNL     1      -8.059  53.052  53.513  0.00  0.00    +0.000 A 
ATOM      8  C   UNL     1      -9.748  51.581  54.463  0.00  0.00    +0.000 A 
ATOM      9  C   UNL     1      -7.095  52.376  54.275  0.00  0.00    +0.000 A 
ATOM     10  C   UNL     1      -8.778  50.935  55.226  0.00  0.00    +0.000 A 
ATOM     11  C   UNL     1      -7.452  51.335  55.133  0.00  0.00    +0.000 A 
ENDROOT
BRANCH   1  17
ATOM     12  S   UNL     1     -13.412  56.417  51.450  0.00  0.00    +0.000 S 
ATOM     13  O   UNL     1     -13.352  57.808  51.868  0.00  0.00    +0.000 OA
ATOM     14  O   UNL     1     -14.614  55.636  51.674  0.00  0.00    +0.000 OA
ATOM     15  N   UNL     1     -12.170  55.646  52.138  0.00  0.00    +0.000 N 
ATOM     16  C   UNL     1     -13.160  56.428  49.710  0.00  0.00    +0.000 A 
ATOM     17  C   UNL     1     -11.162  55.242  51.424  0.00  0.00    +0.000 C 
ATOM     18  C   UNL     1     -11.955  55.938  49.225  0.00  0.00    +0.000 A 
ATOM     19  C   UNL     1     -14.152  56.924  48.860  0.00  0.00    +0.000 A 
ATOM     20  N   UNL     1     -10.965  55.468  50.081  0.00  0.00    +0.000 N 
ATOM     21  C   UNL     1     -11.720  56.005  47.848  0.00  0.00    +0.000 A 
ATOM     22  C   UNL     1     -13.915  56.955  47.489  0.00  0.00    +0.000 A 
ATOM     23  C   UNL     1     -12.697  56.498  46.982  0.00  0.00    +0.000 A 
ATOM     24  H   UNL     1     -12.177  55.479  53.108  0.00  0.00    +0.000 HD
ATOM     25  H   UNL     1     -10.073  55.287  49.705  0.00  0.00    +0.000 HD
ENDBRANCH   1  17
BRANCH   3  26
ATOM     26  O   UNL     1     -11.730  52.856  52.971  0.00  0.00    +0.000 OA
ATOM     27  H   UNL     1     -11.908  51.963  52.747  0.00  0.00    +0.000 HD
ENDBRANCH   3  26
BRANCH   5  28
ATOM     28  C   UNL     1      -6.343  54.661  52.581  0.00  0.00    +0.000 C 
BRANCH  28  29
ATOM     29  C   UNL     1      -5.550  53.912  51.540  0.00  0.00    +0.000 C 
ATOM     30  C   UNL     1      -5.356  54.213  50.239  0.00  0.00    +0.000 C 
ATOM     31  C   UNL     1      -5.922  55.419  49.547  0.00  0.00    +0.000 C 
ATOM     32  C   UNL     1      -4.528  53.314  49.356  0.00  0.00    +0.000 C 
ENDBRANCH  28  29
ENDBRANCH   5  28
TORSDOF 4
ENDMDL
MODEL 6
REMARK VINA RESULT:      -7.8      1.909      2.628
REMARK  Name = 338287
REMARK  6 active torsions:
REMARK  status: ('A' for Active; 'I' for Inactive)
REMARK    1  A    between atoms: C_6  and  C_10
REMARK    2  A    between atoms: C_14  and  O_18
REMARK    3  A    between atoms: N_17  and  C_21
REMARK    4  A    between atoms: C_21  and  C_24
REMARK    5  A    between atoms: C_27  and  C_28
REMARK    6  A    between atoms: C_27  and  C_29
REMARK                            x       y       z     vdW  Elec       q    Type
REMARK                         _______ _______ _______ _____ _____    ______ ____
ROOT
ATOM      1  C   UNL     1     -11.383  54.040  51.301  0.00  0.00    +0.000 A 
ATOM      2  C   UNL     1     -10.370  54.226  52.371  0.00  0.00    +0.000 A 
ATOM      3  C   UNL     1     -11.572  52.841  50.729  0.00  0.00    +0.000 A 
ATOM      4  O   UNL     1     -10.419  55.253  53.049  0.00  0.00    +0.000 OA
ATOM      5  N   UNL     1      -9.434  53.218  52.574  0.00  0.00    +0.000 N 
ATOM      6  C   UNL     1     -10.726  51.706  51.138  0.00  0.00    +0.000 A 
ATOM      7  C   UNL     1      -9.657  51.911  52.036  0.00  0.00    +0.000 A 
ATOM      8  C   UNL     1     -10.986  50.411  50.656  0.00  0.00    +0.000 A 
ATOM      9  C   UNL     1      -8.885  50.807  52.428  0.00  0.00    +0.000 A 
ATOM     10  C   UNL     1     -10.220  49.325  51.072  0.00  0.00    +0.000 A 
ATOM     11  C   UNL     1      -9.172  49.523  51.961  0.00  0.00    +0.000 A 
ENDROOT
BRANCH   1  17
ATOM     12  S   UNL     1     -13.072  56.935  49.303  0.00  0.00    +0.000 S 
ATOM     13  O   UNL     1     -14.153  56.488  48.442  0.00  0.00    +0.000 OA
ATOM     14  O   UNL     1     -12.138  57.946  48.842  0.00  0.00    +0.000 OA
ATOM     15  N   UNL     1     -12.229  55.631  49.749  0.00  0.00    +0.000 N 
ATOM     16  C   UNL     1     -13.844  57.609  50.732  0.00  0.00    +0.000 A 
ATOM     17  C   UNL     1     -12.281  55.193  50.971  0.00  0.00    +0.000 C 
ATOM     18  C   UNL     1     -13.744  56.898  51.921  0.00  0.00    +0.000 A 
ATOM     19  C   UNL     1     -14.535  58.820  50.651  0.00  0.00    +0.000 A 
ATOM     20  N   UNL     1     -13.073  55.681  51.985  0.00  0.00    +0.000 N 
ATOM     21  C   UNL     1     -14.412  57.393  53.045  0.00  0.00    +0.000 A 
ATOM     22  C   UNL     1     -15.168  59.315  51.788  0.00  0.00    +0.000 A 
ATOM     23  C   UNL     1     -15.109  58.599  52.986  0.00  0.00    +0.000 A 
ATOM     24  H   UNL     1     -11.668  55.163  49.088  0.00  0.00    +0.000 HD
ATOM     25  H   UNL     1     -13.169  55.139  52.801  0.00  0.00    +0.000 HD
ENDBRANCH   1  17
BRANCH   3  26
ATOM     26  O   UNL     1     -12.561  52.551  49.808  0.00  0.00    +0.000 OA
ATOM     27  H   UNL     1     -12.397  52.665  48.892  0.00  0.00    +0.000 HD
ENDBRANCH   3  26
BRANCH   5  28
ATOM     28  C   UNL     1      -8.358  53.481  53.535  0.00  0.00    +0.000 C 
BRANCH  28  29
ATOM     29  C   UNL     1      -7.020  53.684  52.870  0.00  0.00    +0.000 C 
ATOM     30  C   UNL     1      -5.875  54.172  53.392  0.00  0.00    +0.000 C 
ATOM     31  C   UNL     1      -5.709  54.624  54.814  0.00  0.00    +0.000 C 
ATOM     32  C   UNL     1      -4.637  54.306  52.542  0.00  0.00    +0.000 C 
ENDBRANCH  28  29
ENDBRANCH   5  28
TORSDOF 4
ENDMDL
MODEL 7
REMARK VINA RESULT:      -7.8      4.345      7.275
REMARK  Name = 338287
REMARK  6 active torsions:
REMARK  status: ('A' for Active; 'I' for Inactive)
REMARK    1  A    between atoms: C_6  and  C_10
REMARK    2  A    between atoms: C_14  and  O_18
REMARK    3  A    between atoms: N_17  and  C_21
REMARK    4  A    between atoms: C_21  and  C_24
REMARK    5  A    between atoms: C_27  and  C_28
REMARK    6  A    between atoms: C_27  and  C_29
REMARK                            x       y       z     vdW  Elec       q    Type
REMARK                         _______ _______ _______ _____ _____    ______ ____
ROOT
ATOM      1  C   UNL     1     -11.061  54.663  48.373  0.00  0.00    +0.000 A 
ATOM      2  C   UNL     1     -10.716  54.274  49.765  0.00  0.00    +0.000 A 
ATOM      3  C   UNL     1     -11.983  55.605  48.128  0.00  0.00    +0.000 A 
ATOM      4  O   UNL     1      -9.689  53.619  49.951  0.00  0.00    +0.000 OA
ATOM      5  N   UNL     1     -11.553  54.694  50.793  0.00  0.00    +0.000 N 
ATOM      6  C   UNL     1     -12.696  56.227  49.256  0.00  0.00    +0.000 A 
ATOM      7  C   UNL     1     -12.490  55.753  50.568  0.00  0.00    +0.000 A 
ATOM      8  C   UNL     1     -13.570  57.308  49.040  0.00  0.00    +0.000 A 
ATOM      9  C   UNL     1     -13.163  56.382  51.626  0.00  0.00    +0.000 A 
ATOM     10  C   UNL     1     -14.213  57.932  50.107  0.00  0.00    +0.000 A 
ATOM     11  C   UNL     1     -14.007  57.470  51.399  0.00  0.00    +0.000 A 
ENDROOT
BRANCH   1  17
ATOM     12  S   UNL     1      -8.097  53.995  45.924  0.00  0.00    +0.000 S 
ATOM     13  O   UNL     1      -7.096  53.090  46.463  0.00  0.00    +0.000 OA
ATOM     14  O   UNL     1      -7.694  55.165  45.165  0.00  0.00    +0.000 OA
ATOM     15  N   UNL     1      -9.028  54.483  47.151  0.00  0.00    +0.000 N 
ATOM     16  C   UNL     1      -9.081  53.029  44.833  0.00  0.00    +0.000 A 
ATOM     17  C   UNL     1     -10.256  54.071  47.256  0.00  0.00    +0.000 C 
ATOM     18  C   UNL     1     -10.378  52.726  45.225  0.00  0.00    +0.000 A 
ATOM     19  C   UNL     1      -8.553  52.586  43.618  0.00  0.00    +0.000 A 
ATOM     20  N   UNL     1     -10.886  53.153  46.447  0.00  0.00    +0.000 N 
ATOM     21  C   UNL     1     -11.144  51.902  44.395  0.00  0.00    +0.000 A 
ATOM     22  C   UNL     1      -9.340  51.792  42.788  0.00  0.00    +0.000 A 
ATOM     23  C   UNL     1     -10.636  51.447  43.178  0.00  0.00    +0.000 A 
ATOM     24  H   UNL     1      -8.662  55.098  47.827  0.00  0.00    +0.000 HD
ATOM     25  H   UNL     1     -11.745  52.778  46.751  0.00  0.00    +0.000 HD
ENDBRANCH   1  17
BRANCH   3  26
ATOM     26  O   UNL     1     -12.288  56.105  46.875  0.00  0.00    +0.000 OA
ATOM     27  H   UNL     1     -13.178  56.125  46.583  0.00  0.00    +0.000 HD
ENDBRANCH   3  26
BRANCH   5  28
ATOM     28  C   UNL     1     -11.277  54.184  52.139  0.00  0.00    +0.000 C 
BRANCH  28  29
ATOM     29  C   UNL     1     -10.171  54.940  52.832  0.00  0.00    +0.000 C 
ATOM     30  C   UNL     1      -9.057  54.464  53.426  0.00  0.00    +0.000 C 
ATOM     31  C   UNL     1      -8.687  53.011  53.509  0.00  0.00    +0.000 C 
ATOM     32  C   UNL     1      -8.072  55.401  54.079  0.00  0.00    +0.000 C 
ENDBRANCH  28  29
ENDBRANCH   5  28
TORSDOF 4
ENDMDL
MODEL 8
REMARK VINA RESULT:      -7.7      2.101      2.377
REMARK  Name = 338287
REMARK  6 active torsions:
REMARK  status: ('A' for Active; 'I' for Inactive)
REMARK    1  A    between atoms: C_6  and  C_10
REMARK    2  A    between atoms: C_14  and  O_18
REMARK    3  A    between atoms: N_17  and  C_21
REMARK    4  A    between atoms: C_21  and  C_24
REMARK    5  A    between atoms: C_27  and  C_28
REMARK    6  A    between atoms: C_27  and  C_29
REMARK                            x       y       z     vdW  Elec       q    Type
REMARK                         _______ _______ _______ _____ _____    ______ ____
ROOT
ATOM      1  C   UNL     1     -11.178  54.612  50.890  0.00  0.00    +0.000 A 
ATOM      2  C   UNL     1      -9.784  55.053  50.626  0.00  0.00    +0.000 A 
ATOM      3  C   UNL     1     -11.438  53.373  51.334  0.00  0.00    +0.000 A 
ATOM      4  O   UNL     1      -9.569  56.259  50.489  0.00  0.00    +0.000 OA
ATOM      5  N   UNL     1      -8.786  54.087  50.577  0.00  0.00    +0.000 N 
ATOM      6  C   UNL     1     -10.326  52.425  51.515  0.00  0.00    +0.000 A 
ATOM      7  C   UNL     1      -9.021  52.783  51.117  0.00  0.00    +0.000 A 
ATOM      8  C   UNL     1     -10.549  51.167  52.104  0.00  0.00    +0.000 A 
ATOM      9  C   UNL     1      -7.978  51.869  51.327  0.00  0.00    +0.000 A 
ATOM     10  C   UNL     1      -9.496  50.281  52.321  0.00  0.00    +0.000 A 
ATOM     11  C   UNL     1      -8.210  50.635  51.935  0.00  0.00    +0.000 A 
ENDROOT
BRANCH   1  17
ATOM     12  S   UNL     1     -13.597  57.257  49.348  0.00  0.00    +0.000 S 
ATOM     13  O   UNL     1     -14.748  56.669  48.685  0.00  0.00    +0.000 OA
ATOM     14  O   UNL     1     -12.916  58.397  48.761  0.00  0.00    +0.000 OA
ATOM     15  N   UNL     1     -12.513  56.083  49.581  0.00  0.00    +0.000 N 
ATOM     16  C   UNL     1     -14.173  57.798  50.920  0.00  0.00    +0.000 A 
ATOM     17  C   UNL     1     -12.273  55.628  50.775  0.00  0.00    +0.000 C 
ATOM     18  C   UNL     1     -13.754  57.095  52.042  0.00  0.00    +0.000 A 
ATOM     19  C   UNL     1     -15.029  58.898  51.013  0.00  0.00    +0.000 A 
ATOM     20  N   UNL     1     -12.921  55.987  51.935  0.00  0.00    +0.000 N 
ATOM     21  C   UNL     1     -14.261  57.476  53.288  0.00  0.00    +0.000 A 
ATOM     22  C   UNL     1     -15.499  59.285  52.265  0.00  0.00    +0.000 A 
ATOM     23  C   UNL     1     -15.117  58.571  53.404  0.00  0.00    +0.000 A 
ATOM     24  H   UNL     1     -12.027  55.708  48.811  0.00  0.00    +0.000 HD
ATOM     25  H   UNL     1     -12.786  55.428  52.734  0.00  0.00    +0.000 HD
ENDBRANCH   1  17
BRANCH   3  26
ATOM     26  O   UNL     1     -12.687  52.914  51.708  0.00  0.00    +0.000 OA
ATOM     27  H   UNL     1     -13.458  53.355  51.407  0.00  0.00    +0.000 HD
ENDBRANCH   3  26
BRANCH   5  28
ATOM     28  C   UNL     1      -7.444  54.523  50.176  0.00  0.00    +0.000 C 
BRANCH  28  29
ATOM     29  C   UNL     1      -7.029  53.970  48.836  0.00  0.00    +0.000 C 
ATOM     30  C   UNL     1      -7.472  54.300  47.605  0.00  0.00    +0.000 C 
ATOM     31  C   UNL     1      -8.517  55.341  47.324  0.00  0.00    +0.000 C 
ATOM     32  C   UNL     1      -6.927  53.610  46.380  0.00  0.00    +0.000 C 
ENDBRANCH  28  29
ENDBRANCH   5  28
TORSDOF 4
ENDMDL
MODEL 9
REMARK VINA RESULT:      -7.6      3.248      6.792
REMARK  Name = 338287
REMARK  6 active torsions:
REMARK  status: ('A' for Active; 'I' for Inactive)
REMARK    1  A    between atoms: C_6  and  C_10
REMARK    2  A    between atoms: C_14  and  O_18
REMARK    3  A    between atoms: N_17  and  C_21
REMARK    4  A    between atoms: C_21  and  C_24
REMARK    5  A    between atoms: C_27  and  C_28
REMARK    6  A    between atoms: C_27  and  C_29
REMARK                            x       y       z     vdW  Elec       q    Type
REMARK                         _______ _______ _______ _____ _____    ______ ____
ROOT
ATOM      1  C   UNL     1     -11.998  55.261  49.118  0.00  0.00    +0.000 A 
ATOM      2  C   UNL     1     -11.183  55.113  50.351  0.00  0.00    +0.000 A 
ATOM      3  C   UNL     1     -13.123  55.991  49.118  0.00  0.00    +0.000 A 
ATOM      4  O   UNL     1     -10.036  54.675  50.243  0.00  0.00    +0.000 OA
ATOM      5  N   UNL     1     -11.742  55.504  51.561  0.00  0.00    +0.000 N 
ATOM      6  C   UNL     1     -13.579  56.613  50.372  0.00  0.00    +0.000 A 
ATOM      7  C   UNL     1     -12.899  56.347  51.579  0.00  0.00    +0.000 A 
ATOM      8  C   UNL     1     -14.678  57.491  50.376  0.00  0.00    +0.000 A 
ATOM      9  C   UNL     1     -13.339  56.976  52.753  0.00  0.00    +0.000 A 
ATOM     10  C   UNL     1     -15.087  58.120  51.550  0.00  0.00    +0.000 A 
ATOM     11  C   UNL     1     -14.415  57.864  52.737  0.00  0.00    +0.000 A 
ENDROOT
BRANCH   1  17
ATOM     12  S   UNL     1     -11.553  52.890  46.051  0.00  0.00    +0.000 S 
ATOM     13  O   UNL     1     -12.458  53.190  44.954  0.00  0.00    +0.000 OA
ATOM     14  O   UNL     1     -11.273  51.513  46.415  0.00  0.00    +0.000 OA
ATOM     15  N   UNL     1     -12.099  53.660  47.361  0.00  0.00    +0.000 N 
ATOM     16  C   UNL     1     -10.005  53.593  45.601  0.00  0.00    +0.000 A 
ATOM     17  C   UNL     1     -11.461  54.684  47.844  0.00  0.00    +0.000 C 
ATOM     18  C   UNL     1      -9.576  54.717  46.295  0.00  0.00    +0.000 A 
ATOM     19  C   UNL     1      -9.249  53.027  44.572  0.00  0.00    +0.000 A 
ATOM     20  N   UNL     1     -10.347  55.286  47.303  0.00  0.00    +0.000 N 
ATOM     21  C   UNL     1      -8.379  55.322  45.899  0.00  0.00    +0.000 A 
ATOM     22  C   UNL     1      -8.044  53.623  44.210  0.00  0.00    +0.000 A 
ATOM     23  C   UNL     1      -7.610  54.774  44.873  0.00  0.00    +0.000 A 
ATOM     24  H   UNL     1     -12.924  53.351  47.800  0.00  0.00    +0.000 HD
ATOM     25  H   UNL     1     -10.082  56.169  47.650  0.00  0.00    +0.000 HD
ENDBRANCH   1  17
BRANCH   3  26
ATOM     26  O   UNL     1     -13.883  56.271  47.997  0.00  0.00    +0.000 OA
ATOM     27  H   UNL     1     -13.464  56.415  47.171  0.00  0.00    +0.000 HD
ENDBRANCH   3  26
BRANCH   5  28
ATOM     28  C   UNL     1     -10.978  55.220  52.781  0.00  0.00    +0.000 C 
BRANCH  28  29
ATOM     29  C   UNL     1     -10.777  53.743  53.010  0.00  0.00    +0.000 C 
ATOM     30  C   UNL     1      -9.640  53.074  53.295  0.00  0.00    +0.000 C 
ATOM     31  C   UNL     1      -8.289  53.711  53.449  0.00  0.00    +0.000 C 
ATOM     32  C   UNL     1      -9.653  51.577  53.478  0.00  0.00    +0.000 C 
ENDBRANCH  28  29
ENDBRANCH   5  28
TORSDOF 4
ENDMDL
