MODEL 1
REMARK VINA RESULT:      -8.5      0.000      0.000
REMARK  Name = 338092
REMARK  7 active torsions:
REMARK  status: ('A' for Active; 'I' for Inactive)
REMARK    1  A    between atoms: C_6  and  C_10
REMARK    2  A    between atoms: C_14  and  O_18
REMARK    3  A    between atoms: N_17  and  C_21
REMARK    4  A    between atoms: C_21  and  C_24
REMARK    5  A    between atoms: C_24  and  C_27
REMARK    6  A    between atoms: C_27  and  C_29
REMARK    7  A    between atoms: C_27  and  C_30
REMARK                            x       y       z     vdW  Elec       q    Type
REMARK                         _______ _______ _______ _____ _____    ______ ____
ROOT
ATOM      1  C   UNL     1     -10.180  54.365  52.291  0.00  0.00    +0.000 A 
ATOM      2  C   UNL     1      -8.798  54.940  52.279  0.00  0.00    +0.000 A 
ATOM      3  C   UNL     1     -10.428  53.229  52.966  0.00  0.00    +0.000 A 
ATOM      4  O   UNL     1      -8.632  56.041  51.744  0.00  0.00    +0.000 OA
ATOM      5  N   UNL     1      -7.769  54.228  52.884  0.00  0.00    +0.000 N 
ATOM      6  C   UNL     1      -9.355  52.553  53.709  0.00  0.00    +0.000 A 
ATOM      7  C   UNL     1      -8.045  53.070  53.678  0.00  0.00    +0.000 A 
ATOM      8  C   UNL     1      -9.633  51.406  54.473  0.00  0.00    +0.000 A 
ATOM      9  C   UNL     1      -7.056  52.444  54.456  0.00  0.00    +0.000 A 
ATOM     10  C   UNL     1      -8.627  50.791  55.204  0.00  0.00    +0.000 A 
ATOM     11  C   UNL     1      -7.341  51.302  55.205  0.00  0.00    +0.000 A 
ATOM     12  F   UNL     1      -8.904  49.703  55.932  0.00  0.00    +0.000 F 
ENDROOT
BRANCH   1  18
ATOM     13  S   UNL     1     -12.361  55.977  49.446  0.00  0.00    +0.000 S 
ATOM     14  O   UNL     1     -13.224  55.020  48.783  0.00  0.00    +0.000 OA
ATOM     15  O   UNL     1     -11.657  56.985  48.674  0.00  0.00    +0.000 OA
ATOM     16  N   UNL     1     -11.261  55.145  50.297  0.00  0.00    +0.000 N 
ATOM     17  C   UNL     1     -13.385  56.859  50.568  0.00  0.00    +0.000 A 
ATOM     18  C   UNL     1     -11.298  55.121  51.598  0.00  0.00    +0.000 C 
ATOM     19  C   UNL     1     -13.201  56.632  51.921  0.00  0.00    +0.000 A 
ATOM     20  C   UNL     1     -14.337  57.763  50.087  0.00  0.00    +0.000 A 
ATOM     21  N   UNL     1     -12.254  55.724  52.386  0.00  0.00    +0.000 N 
ATOM     22  C   UNL     1     -14.054  57.285  52.820  0.00  0.00    +0.000 A 
ATOM     23  C   UNL     1     -15.153  58.433  50.995  0.00  0.00    +0.000 A 
ATOM     24  C   UNL     1     -15.018  58.186  52.361  0.00  0.00    +0.000 A 
ATOM     25  H   UNL     1     -10.554  54.651  49.824  0.00  0.00    +0.000 HD
ATOM     26  H   UNL     1     -12.269  55.496  53.344  0.00  0.00    +0.000 HD
ENDBRANCH   1  18
BRANCH   3  27
ATOM     27  O   UNL     1     -11.674  52.635  53.065  0.00  0.00    +0.000 OA
ATOM     28  H   UNL     1     -12.364  52.894  52.487  0.00  0.00    +0.000 HD
ENDBRANCH   3  27
BRANCH   5  29
ATOM     29  C   UNL     1      -6.413  54.788  52.803  0.00  0.00    +0.000 C 
BRANCH  29  30
ATOM     30  C   UNL     1      -5.486  54.168  51.742  0.00  0.00    +0.000 C 
BRANCH  30  31
ATOM     31  C   UNL     1      -4.086  53.737  52.209  0.00  0.00    +0.000 C 
ATOM     32  C   UNL     1      -3.848  54.021  53.690  0.00  0.00    +0.000 C 
ATOM     33  C   UNL     1      -3.920  52.235  51.940  0.00  0.00    +0.000 C 
ENDBRANCH  30  31
ENDBRANCH  29  30
ENDBRANCH   5  29
TORSDOF 5
ENDMDL
MODEL 2
REMARK VINA RESULT:      -8.1      4.124      5.640
REMARK  Name = 338092
REMARK  7 active torsions:
REMARK  status: ('A' for Active; 'I' for Inactive)
REMARK    1  A    between atoms: C_6  and  C_10
REMARK    2  A    between atoms: C_14  and  O_18
REMARK    3  A    between atoms: N_17  and  C_21
REMARK    4  A    between atoms: C_21  and  C_24
REMARK    5  A    between atoms: C_24  and  C_27
REMARK    6  A    between atoms: C_27  and  C_29
REMARK    7  A    between atoms: C_27  and  C_30
REMARK                            x       y       z     vdW  Elec       q    Type
REMARK                         _______ _______ _______ _____ _____    ______ ____
ROOT
ATOM      1  C   UNL     1     -11.662  56.003  48.718  0.00  0.00    +0.000 A 
ATOM      2  C   UNL     1     -10.615  55.329  49.547  0.00  0.00    +0.000 A 
ATOM      3  C   UNL     1     -11.802  55.679  47.420  0.00  0.00    +0.000 A 
ATOM      4  O   UNL     1     -10.590  55.569  50.758  0.00  0.00    +0.000 OA
ATOM      5  N   UNL     1      -9.733  54.449  48.930  0.00  0.00    +0.000 N 
ATOM      6  C   UNL     1     -10.944  54.653  46.810  0.00  0.00    +0.000 A 
ATOM      7  C   UNL     1      -9.935  54.035  47.575  0.00  0.00    +0.000 A 
ATOM      8  C   UNL     1     -11.139  54.264  45.474  0.00  0.00    +0.000 A 
ATOM      9  C   UNL     1      -9.178  53.008  46.987  0.00  0.00    +0.000 A 
ATOM     10  C   UNL     1     -10.354  53.269  44.911  0.00  0.00    +0.000 A 
ATOM     11  C   UNL     1      -9.377  52.634  45.658  0.00  0.00    +0.000 A 
ATOM     12  F   UNL     1     -10.553  52.903  43.640  0.00  0.00    +0.000 F 
ENDROOT
BRANCH   1  18
ATOM     13  S   UNL     1     -13.607  59.332  49.482  0.00  0.00    +0.000 S 
ATOM     14  O   UNL     1     -14.753  59.529  48.619  0.00  0.00    +0.000 OA
ATOM     15  O   UNL     1     -12.739  60.449  49.813  0.00  0.00    +0.000 OA
ATOM     16  N   UNL     1     -12.688  58.167  48.828  0.00  0.00    +0.000 N 
ATOM     17  C   UNL     1     -14.243  58.748  51.011  0.00  0.00    +0.000 A 
ATOM     18  C   UNL     1     -12.602  56.993  49.380  0.00  0.00    +0.000 C 
ATOM     19  C   UNL     1     -13.994  57.429  51.351  0.00  0.00    +0.000 A 
ATOM     20  C   UNL     1     -14.964  59.608  51.846  0.00  0.00    +0.000 A 
ATOM     21  N   UNL     1     -13.281  56.582  50.507  0.00  0.00    +0.000 N 
ATOM     22  C   UNL     1     -14.550  56.939  52.538  0.00  0.00    +0.000 A 
ATOM     23  C   UNL     1     -15.479  59.116  53.042  0.00  0.00    +0.000 A 
ATOM     24  C   UNL     1     -15.280  57.778  53.384  0.00  0.00    +0.000 A 
ATOM     25  H   UNL     1     -12.189  58.352  48.000  0.00  0.00    +0.000 HD
ATOM     26  H   UNL     1     -13.261  55.624  50.730  0.00  0.00    +0.000 HD
ENDBRANCH   1  18
BRANCH   3  27
ATOM     27  O   UNL     1     -12.757  56.219  46.578  0.00  0.00    +0.000 OA
ATOM     28  H   UNL     1     -12.571  56.328  45.666  0.00  0.00    +0.000 HD
ENDBRANCH   3  27
BRANCH   5  29
ATOM     29  C   UNL     1      -8.677  53.850  49.759  0.00  0.00    +0.000 C 
BRANCH  29  30
ATOM     30  C   UNL     1      -7.306  54.547  49.718  0.00  0.00    +0.000 C 
BRANCH  30  31
ATOM     31  C   UNL     1      -6.931  55.417  50.930  0.00  0.00    +0.000 C 
ATOM     32  C   UNL     1      -7.477  56.839  50.822  0.00  0.00    +0.000 C 
ATOM     33  C   UNL     1      -7.478  54.751  52.200  0.00  0.00    +0.000 C 
ENDBRANCH  30  31
ENDBRANCH  29  30
ENDBRANCH   5  29
TORSDOF 5
ENDMDL
MODEL 3
REMARK VINA RESULT:      -8.0      3.874      7.584
REMARK  Name = 338092
REMARK  7 active torsions:
REMARK  status: ('A' for Active; 'I' for Inactive)
REMARK    1  A    between atoms: C_6  and  C_10
REMARK    2  A    between atoms: C_14  and  O_18
REMARK    3  A    between atoms: N_17  and  C_21
REMARK    4  A    between atoms: C_21  and  C_24
REMARK    5  A    between atoms: C_24  and  C_27
REMARK    6  A    between atoms: C_27  and  C_29
REMARK    7  A    between atoms: C_27  and  C_30
REMARK                            x       y       z     vdW  Elec       q    Type
REMARK                         _______ _______ _______ _____ _____    ______ ____
ROOT
ATOM      1  C   UNL     1     -10.223  55.203  50.945  0.00  0.00    +0.000 A 
ATOM      2  C   UNL     1      -9.881  55.149  49.489  0.00  0.00    +0.000 A 
ATOM      3  C   UNL     1     -11.430  55.650  51.334  0.00  0.00    +0.000 A 
ATOM      4  O   UNL     1      -8.809  54.629  49.164  0.00  0.00    +0.000 OA
ATOM      5  N   UNL     1     -10.785  55.663  48.567  0.00  0.00    +0.000 N 
ATOM      6  C   UNL     1     -12.426  56.072  50.339  0.00  0.00    +0.000 A 
ATOM      7  C   UNL     1     -12.101  56.055  48.968  0.00  0.00    +0.000 A 
ATOM      8  C   UNL     1     -13.712  56.471  50.744  0.00  0.00    +0.000 A 
ATOM      9  C   UNL     1     -13.097  56.395  48.036  0.00  0.00    +0.000 A 
ATOM     10  C   UNL     1     -14.663  56.833  49.801  0.00  0.00    +0.000 A 
ATOM     11  C   UNL     1     -14.367  56.795  48.450  0.00  0.00    +0.000 A 
ATOM     12  F   UNL     1     -15.885  57.205  50.198  0.00  0.00    +0.000 F 
ENDROOT
BRANCH   1  18
ATOM     13  S   UNL     1      -6.898  54.776  52.997  0.00  0.00    +0.000 S 
ATOM     14  O   UNL     1      -6.758  55.753  54.057  0.00  0.00    +0.000 OA
ATOM     15  O   UNL     1      -5.753  54.413  52.180  0.00  0.00    +0.000 OA
ATOM     16  N   UNL     1      -8.074  55.287  52.005  0.00  0.00    +0.000 N 
ATOM     17  C   UNL     1      -7.427  53.291  53.771  0.00  0.00    +0.000 A 
ATOM     18  C   UNL     1      -9.223  54.678  51.958  0.00  0.00    +0.000 C 
ATOM     19  C   UNL     1      -8.726  52.871  53.539  0.00  0.00    +0.000 A 
ATOM     20  C   UNL     1      -6.545  52.568  54.580  0.00  0.00    +0.000 A 
ATOM     21  N   UNL     1      -9.596  53.605  52.736  0.00  0.00    +0.000 N 
ATOM     22  C   UNL     1      -9.175  51.722  54.200  0.00  0.00    +0.000 A 
ATOM     23  C   UNL     1      -6.995  51.406  55.201  0.00  0.00    +0.000 A 
ATOM     24  C   UNL     1      -8.313  50.988  55.019  0.00  0.00    +0.000 A 
ATOM     25  H   UNL     1      -7.916  56.070  51.430  0.00  0.00    +0.000 HD
ATOM     26  H   UNL     1     -10.544  53.338  52.726  0.00  0.00    +0.000 HD
ENDBRANCH   1  18
BRANCH   3  27
ATOM     27  O   UNL     1     -11.855  55.710  52.649  0.00  0.00    +0.000 OA
ATOM     28  H   UNL     1     -11.237  55.871  53.335  0.00  0.00    +0.000 HD
ENDBRANCH   3  27
BRANCH   5  29
ATOM     29  C   UNL     1     -10.394  55.652  47.150  0.00  0.00    +0.000 C 
BRANCH  29  30
ATOM     30  C   UNL     1     -10.736  54.375  46.363  0.00  0.00    +0.000 C 
BRANCH  30  31
ATOM     31  C   UNL     1      -9.559  53.600  45.748  0.00  0.00    +0.000 C 
ATOM     32  C   UNL     1      -9.899  53.001  44.385  0.00  0.00    +0.000 C 
ATOM     33  C   UNL     1      -8.364  54.553  45.608  0.00  0.00    +0.000 C 
ENDBRANCH  30  31
ENDBRANCH  29  30
ENDBRANCH   5  29
TORSDOF 5
ENDMDL
MODEL 4
REMARK VINA RESULT:      -8.0      1.533      2.223
REMARK  Name = 338092
REMARK  7 active torsions:
REMARK  status: ('A' for Active; 'I' for Inactive)
REMARK    1  A    between atoms: C_6  and  C_10
REMARK    2  A    between atoms: C_14  and  O_18
REMARK    3  A    between atoms: N_17  and  C_21
REMARK    4  A    between atoms: C_21  and  C_24
REMARK    5  A    between atoms: C_24  and  C_27
REMARK    6  A    between atoms: C_27  and  C_29
REMARK    7  A    between atoms: C_27  and  C_30
REMARK                            x       y       z     vdW  Elec       q    Type
REMARK                         _______ _______ _______ _____ _____    ______ ____
ROOT
ATOM      1  C   UNL     1     -10.140  54.446  52.264  0.00  0.00    +0.000 A 
ATOM      2  C   UNL     1      -8.734  54.960  52.266  0.00  0.00    +0.000 A 
ATOM      3  C   UNL     1     -10.447  53.331  52.949  0.00  0.00    +0.000 A 
ATOM      4  O   UNL     1      -8.513  56.046  51.720  0.00  0.00    +0.000 OA
ATOM      5  N   UNL     1      -7.746  54.212  52.894  0.00  0.00    +0.000 N 
ATOM      6  C   UNL     1      -9.415  52.617  53.716  0.00  0.00    +0.000 A 
ATOM      7  C   UNL     1      -8.083  53.076  53.697  0.00  0.00    +0.000 A 
ATOM      8  C   UNL     1      -9.752  51.493  54.489  0.00  0.00    +0.000 A 
ATOM      9  C   UNL     1      -7.133  52.417  54.496  0.00  0.00    +0.000 A 
ATOM     10  C   UNL     1      -8.785  50.844  55.242  0.00  0.00    +0.000 A 
ATOM     11  C   UNL     1      -7.478  51.299  55.255  0.00  0.00    +0.000 A 
ATOM     12  F   UNL     1      -9.119  49.778  55.978  0.00  0.00    +0.000 F 
ENDROOT
BRANCH   1  18
ATOM     13  S   UNL     1     -13.454  56.455  51.608  0.00  0.00    +0.000 S 
ATOM     14  O   UNL     1     -13.374  57.835  52.040  0.00  0.00    +0.000 OA
ATOM     15  O   UNL     1     -14.660  55.682  51.847  0.00  0.00    +0.000 OA
ATOM     16  N   UNL     1     -12.211  55.655  52.273  0.00  0.00    +0.000 N 
ATOM     17  C   UNL     1     -13.235  56.477  49.866  0.00  0.00    +0.000 A 
ATOM     18  C   UNL     1     -11.214  55.241  51.546  0.00  0.00    +0.000 C 
ATOM     19  C   UNL     1     -12.055  55.960  49.358  0.00  0.00    +0.000 A 
ATOM     20  C   UNL     1     -14.237  56.993  49.039  0.00  0.00    +0.000 A 
ATOM     21  N   UNL     1     -11.062  55.456  50.194  0.00  0.00    +0.000 N 
ATOM     22  C   UNL     1     -11.846  56.030  47.976  0.00  0.00    +0.000 A 
ATOM     23  C   UNL     1     -14.031  57.021  47.662  0.00  0.00    +0.000 A 
ATOM     24  C   UNL     1     -12.830  56.549  47.131  0.00  0.00    +0.000 A 
ATOM     25  H   UNL     1     -12.209  55.481  53.242  0.00  0.00    +0.000 HD
ATOM     26  H   UNL     1     -10.190  55.239  49.790  0.00  0.00    +0.000 HD
ENDBRANCH   1  18
BRANCH   3  27
ATOM     27  O   UNL     1     -11.718  52.793  53.037  0.00  0.00    +0.000 OA
ATOM     28  H   UNL     1     -12.273  52.773  52.282  0.00  0.00    +0.000 HD
ENDBRANCH   3  27
BRANCH   5  29
ATOM     29  C   UNL     1      -6.365  54.711  52.826  0.00  0.00    +0.000 C 
BRANCH  29  30
ATOM     30  C   UNL     1      -5.526  54.221  51.633  0.00  0.00    +0.000 C 
BRANCH  30  31
ATOM     31  C   UNL     1      -4.303  53.346  51.956  0.00  0.00    +0.000 C 
ATOM     32  C   UNL     1      -3.847  53.488  53.406  0.00  0.00    +0.000 C 
ATOM     33  C   UNL     1      -4.659  51.881  51.669  0.00  0.00    +0.000 C 
ENDBRANCH  30  31
ENDBRANCH  29  30
ENDBRANCH   5  29
TORSDOF 5
ENDMDL
MODEL 5
REMARK VINA RESULT:      -8.0      3.673      5.075
REMARK  Name = 338092
REMARK  7 active torsions:
REMARK  status: ('A' for Active; 'I' for Inactive)
REMARK    1  A    between atoms: C_6  and  C_10
REMARK    2  A    between atoms: C_14  and  O_18
REMARK    3  A    between atoms: N_17  and  C_21
REMARK    4  A    between atoms: C_21  and  C_24
REMARK    5  A    between atoms: C_24  and  C_27
REMARK    6  A    between atoms: C_27  and  C_29
REMARK    7  A    between atoms: C_27  and  C_30
REMARK                            x       y       z     vdW  Elec       q    Type
REMARK                         _______ _______ _______ _____ _____    ______ ____
ROOT
ATOM      1  C   UNL     1     -12.231  54.238  50.231  0.00  0.00    +0.000 A 
ATOM      2  C   UNL     1     -11.940  53.846  48.816  0.00  0.00    +0.000 A 
ATOM      3  C   UNL     1     -11.678  53.550  51.245  0.00  0.00    +0.000 A 
ATOM      4  O   UNL     1     -12.373  54.568  47.913  0.00  0.00    +0.000 OA
ATOM      5  N   UNL     1     -11.182  52.705  48.577  0.00  0.00    +0.000 N 
ATOM      6  C   UNL     1     -10.775  52.421  50.977  0.00  0.00    +0.000 A 
ATOM      7  C   UNL     1     -10.521  52.025  49.649  0.00  0.00    +0.000 A 
ATOM      8  C   UNL     1     -10.142  51.749  52.036  0.00  0.00    +0.000 A 
ATOM      9  C   UNL     1      -9.598  50.990  49.420  0.00  0.00    +0.000 A 
ATOM     10  C   UNL     1      -9.261  50.709  51.780  0.00  0.00    +0.000 A 
ATOM     11  C   UNL     1      -8.980  50.326  50.480  0.00  0.00    +0.000 A 
ATOM     12  F   UNL     1      -8.660  50.080  52.796  0.00  0.00    +0.000 F 
ENDROOT
BRANCH   1  18
ATOM     13  S   UNL     1     -15.272  56.466  51.344  0.00  0.00    +0.000 S 
ATOM     14  O   UNL     1     -15.301  56.711  52.772  0.00  0.00    +0.000 OA
ATOM     15  O   UNL     1     -16.500  56.175  50.626  0.00  0.00    +0.000 OA
ATOM     16  N   UNL     1     -14.236  55.249  51.072  0.00  0.00    +0.000 N 
ATOM     17  C   UNL     1     -14.622  57.925  50.615  0.00  0.00    +0.000 A 
ATOM     18  C   UNL     1     -13.089  55.461  50.495  0.00  0.00    +0.000 C 
ATOM     19  C   UNL     1     -13.353  57.860  50.065  0.00  0.00    +0.000 A 
ATOM     20  C   UNL     1     -15.384  59.097  50.591  0.00  0.00    +0.000 A 
ATOM     21  N   UNL     1     -12.602  56.688  50.102  0.00  0.00    +0.000 N 
ATOM     22  C   UNL     1     -12.803  59.034  49.536  0.00  0.00    +0.000 A 
ATOM     23  C   UNL     1     -14.838  60.248  50.027  0.00  0.00    +0.000 A 
ATOM     24  C   UNL     1     -13.543  60.219  49.509  0.00  0.00    +0.000 A 
ATOM     25  H   UNL     1     -14.478  54.336  51.348  0.00  0.00    +0.000 HD
ATOM     26  H   UNL     1     -11.657  56.741  49.829  0.00  0.00    +0.000 HD
ENDBRANCH   1  18
BRANCH   3  27
ATOM     27  O   UNL     1     -11.858  53.851  52.583  0.00  0.00    +0.000 OA
ATOM     28  H   UNL     1     -12.609  54.338  52.858  0.00  0.00    +0.000 HD
ENDBRANCH   3  27
BRANCH   5  29
ATOM     29  C   UNL     1     -10.966  52.311  47.178  0.00  0.00    +0.000 C 
BRANCH  29  30
ATOM     30  C   UNL     1      -9.740  52.929  46.482  0.00  0.00    +0.000 C 
BRANCH  30  31
ATOM     31  C   UNL     1      -9.979  53.598  45.118  0.00  0.00    +0.000 C 
ATOM     32  C   UNL     1      -9.013  53.103  44.045  0.00  0.00    +0.000 C 
ATOM     33  C   UNL     1     -11.424  53.318  44.680  0.00  0.00    +0.000 C 
ENDBRANCH  30  31
ENDBRANCH  29  30
ENDBRANCH   5  29
TORSDOF 5
ENDMDL
MODEL 6
REMARK VINA RESULT:      -7.8      4.094      7.817
REMARK  Name = 338092
REMARK  7 active torsions:
REMARK  status: ('A' for Active; 'I' for Inactive)
REMARK    1  A    between atoms: C_6  and  C_10
REMARK    2  A    between atoms: C_14  and  O_18
REMARK    3  A    between atoms: N_17  and  C_21
REMARK    4  A    between atoms: C_21  and  C_24
REMARK    5  A    between atoms: C_24  and  C_27
REMARK    6  A    between atoms: C_27  and  C_29
REMARK    7  A    between atoms: C_27  and  C_30
REMARK                            x       y       z     vdW  Elec       q    Type
REMARK                         _______ _______ _______ _____ _____    ______ ____
ROOT
ATOM      1  C   UNL     1     -10.346  54.840  50.365  0.00  0.00    +0.000 A 
ATOM      2  C   UNL     1     -10.242  54.732  48.876  0.00  0.00    +0.000 A 
ATOM      3  C   UNL     1     -11.341  55.556  50.917  0.00  0.00    +0.000 A 
ATOM      4  O   UNL     1      -9.385  53.976  48.408  0.00  0.00    +0.000 OA
ATOM      5  N   UNL     1     -11.121  55.463  48.086  0.00  0.00    +0.000 N 
ATOM      6  C   UNL     1     -12.341  56.222  50.070  0.00  0.00    +0.000 A 
ATOM      7  C   UNL     1     -12.233  56.151  48.667  0.00  0.00    +0.000 A 
ATOM      8  C   UNL     1     -13.421  56.909  50.650  0.00  0.00    +0.000 A 
ATOM      9  C   UNL     1     -13.242  56.736  47.884  0.00  0.00    +0.000 A 
ATOM     10  C   UNL     1     -14.385  57.505  49.849  0.00  0.00    +0.000 A 
ATOM     11  C   UNL     1     -14.306  57.422  48.470  0.00  0.00    +0.000 A 
ATOM     12  F   UNL     1     -15.411  58.152  50.413  0.00  0.00    +0.000 F 
ENDROOT
BRANCH   1  18
ATOM     13  S   UNL     1      -8.453  51.845  52.067  0.00  0.00    +0.000 S 
ATOM     14  O   UNL     1      -7.448  51.250  51.209  0.00  0.00    +0.000 OA
ATOM     15  O   UNL     1      -9.311  51.003  52.882  0.00  0.00    +0.000 OA
ATOM     16  N   UNL     1      -9.406  52.776  51.142  0.00  0.00    +0.000 N 
ATOM     17  C   UNL     1      -7.585  52.878  53.190  0.00  0.00    +0.000 A 
ATOM     18  C   UNL     1      -9.364  54.073  51.230  0.00  0.00    +0.000 C 
ATOM     19  C   UNL     1      -7.729  54.248  53.049  0.00  0.00    +0.000 A 
ATOM     20  C   UNL     1      -6.790  52.313  54.192  0.00  0.00    +0.000 A 
ATOM     21  N   UNL     1      -8.518  54.797  52.042  0.00  0.00    +0.000 N 
ATOM     22  C   UNL     1      -6.992  55.079  53.901  0.00  0.00    +0.000 A 
ATOM     23  C   UNL     1      -6.093  53.153  55.057  0.00  0.00    +0.000 A 
ATOM     24  C   UNL     1      -6.185  54.536  54.904  0.00  0.00    +0.000 A 
ATOM     25  H   UNL     1     -10.024  52.353  50.503  0.00  0.00    +0.000 HD
ATOM     26  H   UNL     1      -8.466  55.770  51.899  0.00  0.00    +0.000 HD
ENDBRANCH   1  18
BRANCH   3  27
ATOM     27  O   UNL     1     -11.544  55.692  52.279  0.00  0.00    +0.000 OA
ATOM     28  H   UNL     1     -10.841  55.971  52.832  0.00  0.00    +0.000 HD
ENDBRANCH   3  27
BRANCH   5  29
ATOM     29  C   UNL     1     -10.954  55.384  46.628  0.00  0.00    +0.000 C 
BRANCH  29  30
ATOM     30  C   UNL     1     -11.775  54.299  45.909  0.00  0.00    +0.000 C 
BRANCH  30  31
ATOM     31  C   UNL     1     -11.067  53.518  44.790  0.00  0.00    +0.000 C 
ATOM     32  C   UNL     1      -9.549  53.505  44.954  0.00  0.00    +0.000 C 
ATOM     33  C   UNL     1     -11.597  52.077  44.786  0.00  0.00    +0.000 C 
ENDBRANCH  30  31
ENDBRANCH  29  30
ENDBRANCH   5  29
TORSDOF 5
ENDMDL
MODEL 7
REMARK VINA RESULT:      -7.8      3.529      8.165
REMARK  Name = 338092
REMARK  7 active torsions:
REMARK  status: ('A' for Active; 'I' for Inactive)
REMARK    1  A    between atoms: C_6  and  C_10
REMARK    2  A    between atoms: C_14  and  O_18
REMARK    3  A    between atoms: N_17  and  C_21
REMARK    4  A    between atoms: C_21  and  C_24
REMARK    5  A    between atoms: C_24  and  C_27
REMARK    6  A    between atoms: C_27  and  C_29
REMARK    7  A    between atoms: C_27  and  C_30
REMARK                            x       y       z     vdW  Elec       q    Type
REMARK                         _______ _______ _______ _____ _____    ______ ____
ROOT
ATOM      1  C   UNL     1      -9.921  54.120  51.031  0.00  0.00    +0.000 A 
ATOM      2  C   UNL     1     -10.990  55.122  51.333  0.00  0.00    +0.000 A 
ATOM      3  C   UNL     1      -9.708  53.728  49.763  0.00  0.00    +0.000 A 
ATOM      4  O   UNL     1     -11.083  55.542  52.491  0.00  0.00    +0.000 OA
ATOM      5  N   UNL     1     -11.816  55.555  50.302  0.00  0.00    +0.000 N 
ATOM      6  C   UNL     1     -10.505  54.290  48.663  0.00  0.00    +0.000 A 
ATOM      7  C   UNL     1     -11.534  55.211  48.942  0.00  0.00    +0.000 A 
ATOM      8  C   UNL     1     -10.232  53.934  47.331  0.00  0.00    +0.000 A 
ATOM      9  C   UNL     1     -12.232  55.786  47.866  0.00  0.00    +0.000 A 
ATOM     10  C   UNL     1     -10.961  54.495  46.292  0.00  0.00    +0.000 A 
ATOM     11  C   UNL     1     -11.956  55.421  46.548  0.00  0.00    +0.000 A 
ATOM     12  F   UNL     1     -10.687  54.152  45.028  0.00  0.00    +0.000 F 
ENDROOT
BRANCH   1  18
ATOM     13  S   UNL     1      -6.750  53.484  53.265  0.00  0.00    +0.000 S 
ATOM     14  O   UNL     1      -6.445  54.595  54.144  0.00  0.00    +0.000 OA
ATOM     15  O   UNL     1      -5.683  52.783  52.574  0.00  0.00    +0.000 OA
ATOM     16  N   UNL     1      -7.803  54.009  52.150  0.00  0.00    +0.000 N 
ATOM     17  C   UNL     1      -7.549  52.280  54.263  0.00  0.00    +0.000 A 
ATOM     18  C   UNL     1      -9.043  53.616  52.161  0.00  0.00    +0.000 C 
ATOM     19  C   UNL     1      -8.900  52.063  54.053  0.00  0.00    +0.000 A 
ATOM     20  C   UNL     1      -6.821  51.569  55.223  0.00  0.00    +0.000 A 
ATOM     21  N   UNL     1      -9.614  52.783  53.099  0.00  0.00    +0.000 N 
ATOM     22  C   UNL     1      -9.558  51.149  54.885  0.00  0.00    +0.000 A 
ATOM     23  C   UNL     1      -7.482  50.636  56.018  0.00  0.00    +0.000 A 
ATOM     24  C   UNL     1      -8.852  50.434  55.856  0.00  0.00    +0.000 A 
ATOM     25  H   UNL     1      -7.500  54.636  51.455  0.00  0.00    +0.000 HD
ATOM     26  H   UNL     1     -10.594  52.692  53.095  0.00  0.00    +0.000 HD
ENDBRANCH   1  18
BRANCH   3  27
ATOM     27  O   UNL     1      -8.726  52.833  49.376  0.00  0.00    +0.000 OA
ATOM     28  H   UNL     1      -8.619  52.618  48.470  0.00  0.00    +0.000 HD
ENDBRANCH   3  27
BRANCH   5  29
ATOM     29  C   UNL     1     -12.895  56.493  50.641  0.00  0.00    +0.000 C 
BRANCH  29  30
ATOM     30  C   UNL     1     -14.261  55.865  50.970  0.00  0.00    +0.000 C 
BRANCH  30  31
ATOM     31  C   UNL     1     -15.406  56.831  51.316  0.00  0.00    +0.000 C 
ATOM     32  C   UNL     1     -15.554  57.050  52.820  0.00  0.00    +0.000 C 
ATOM     33  C   UNL     1     -15.141  58.175  50.624  0.00  0.00    +0.000 C 
ENDBRANCH  30  31
ENDBRANCH  29  30
ENDBRANCH   5  29
TORSDOF 5
ENDMDL
MODEL 8
REMARK VINA RESULT:      -7.6      2.002      2.480
REMARK  Name = 338092
REMARK  7 active torsions:
REMARK  status: ('A' for Active; 'I' for Inactive)
REMARK    1  A    between atoms: C_6  and  C_10
REMARK    2  A    between atoms: C_14  and  O_18
REMARK    3  A    between atoms: N_17  and  C_21
REMARK    4  A    between atoms: C_21  and  C_24
REMARK    5  A    between atoms: C_24  and  C_27
REMARK    6  A    between atoms: C_27  and  C_29
REMARK    7  A    between atoms: C_27  and  C_30
REMARK                            x       y       z     vdW  Elec       q    Type
REMARK                         _______ _______ _______ _____ _____    ______ ____
ROOT
ATOM      1  C   UNL     1     -10.737  54.813  51.308  0.00  0.00    +0.000 A 
ATOM      2  C   UNL     1      -9.355  55.272  50.961  0.00  0.00    +0.000 A 
ATOM      3  C   UNL     1     -10.920  53.613  51.885  0.00  0.00    +0.000 A 
ATOM      4  O   UNL     1      -9.215  56.423  50.536  0.00  0.00    +0.000 OA
ATOM      5  N   UNL     1      -8.291  54.399  51.149  0.00  0.00    +0.000 N 
ATOM      6  C   UNL     1      -9.771  52.751  52.196  0.00  0.00    +0.000 A 
ATOM      7  C   UNL     1      -8.470  53.161  51.845  0.00  0.00    +0.000 A 
ATOM      8  C   UNL     1      -9.958  51.529  52.865  0.00  0.00    +0.000 A 
ATOM      9  C   UNL     1      -7.385  52.350  52.218  0.00  0.00    +0.000 A 
ATOM     10  C   UNL     1      -8.869  50.734  53.192  0.00  0.00    +0.000 A 
ATOM     11  C   UNL     1      -7.583  51.136  52.877  0.00  0.00    +0.000 A 
ATOM     12  F   UNL     1      -9.060  49.576  53.834  0.00  0.00    +0.000 F 
ENDROOT
BRANCH   1  18
ATOM     13  S   UNL     1     -13.279  57.178  49.464  0.00  0.00    +0.000 S 
ATOM     14  O   UNL     1     -14.313  56.453  48.754  0.00  0.00    +0.000 OA
ATOM     15  O   UNL     1     -12.657  58.344  48.862  0.00  0.00    +0.000 OA
ATOM     16  N   UNL     1     -12.104  56.125  49.837  0.00  0.00    +0.000 N 
ATOM     17  C   UNL     1     -14.017  57.742  50.954  0.00  0.00    +0.000 A 
ATOM     18  C   UNL     1     -11.906  55.750  51.067  0.00  0.00    +0.000 C 
ATOM     19  C   UNL     1     -13.607  57.154  52.139  0.00  0.00    +0.000 A 
ATOM     20  C   UNL     1     -14.974  58.761  50.921  0.00  0.00    +0.000 A 
ATOM     21  N   UNL     1     -12.658  56.135  52.156  0.00  0.00    +0.000 N 
ATOM     22  C   UNL     1     -14.234  57.555  53.325  0.00  0.00    +0.000 A 
ATOM     23  C   UNL     1     -15.562  59.175  52.114  0.00  0.00    +0.000 A 
ATOM     24  C   UNL     1     -15.200  58.565  53.314  0.00  0.00    +0.000 A 
ATOM     25  H   UNL     1     -11.532  55.764  49.123  0.00  0.00    +0.000 HD
ATOM     26  H   UNL     1     -12.515  55.657  53.005  0.00  0.00    +0.000 HD
ENDBRANCH   1  18
BRANCH   3  27
ATOM     27  O   UNL     1     -12.150  53.112  52.273  0.00  0.00    +0.000 OA
ATOM     28  H   UNL     1     -12.630  52.550  51.697  0.00  0.00    +0.000 HD
ENDBRANCH   3  27
BRANCH   5  29
ATOM     29  C   UNL     1      -6.954  54.855  50.742  0.00  0.00    +0.000 C 
BRANCH  29  30
ATOM     30  C   UNL     1      -6.523  54.495  49.309  0.00  0.00    +0.000 C 
BRANCH  30  31
ATOM     31  C   UNL     1      -7.604  53.915  48.382  0.00  0.00    +0.000 C 
ATOM     32  C   UNL     1      -8.106  54.930  47.359  0.00  0.00    +0.000 C 
ATOM     33  C   UNL     1      -7.023  52.694  47.655  0.00  0.00    +0.000 C 
ENDBRANCH  30  31
ENDBRANCH  29  30
ENDBRANCH   5  29
TORSDOF 5
ENDMDL
MODEL 9
REMARK VINA RESULT:      -7.4      3.585      5.026
REMARK  Name = 338092
REMARK  7 active torsions:
REMARK  status: ('A' for Active; 'I' for Inactive)
REMARK    1  A    between atoms: C_6  and  C_10
REMARK    2  A    between atoms: C_14  and  O_18
REMARK    3  A    between atoms: N_17  and  C_21
REMARK    4  A    between atoms: C_21  and  C_24
REMARK    5  A    between atoms: C_24  and  C_27
REMARK    6  A    between atoms: C_27  and  C_29
REMARK    7  A    between atoms: C_27  and  C_30
REMARK                            x       y       z     vdW  Elec       q    Type
REMARK                         _______ _______ _______ _____ _____    ______ ____
ROOT
ATOM      1  C   UNL     1     -11.295  55.047  49.969  0.00  0.00    +0.000 A 
ATOM      2  C   UNL     1     -11.303  54.306  48.669  0.00  0.00    +0.000 A 
ATOM      3  C   UNL     1     -10.370  54.757  50.900  0.00  0.00    +0.000 A 
ATOM      4  O   UNL     1     -12.094  54.676  47.795  0.00  0.00    +0.000 OA
ATOM      5  N   UNL     1     -10.412  53.254  48.490  0.00  0.00    +0.000 N 
ATOM      6  C   UNL     1      -9.352  53.727  50.647  0.00  0.00    +0.000 A 
ATOM      7  C   UNL     1      -9.371  53.003  49.439  0.00  0.00    +0.000 A 
ATOM      8  C   UNL     1      -8.342  53.477  51.592  0.00  0.00    +0.000 A 
ATOM      9  C   UNL     1      -8.344  52.076  49.193  0.00  0.00    +0.000 A 
ATOM     10  C   UNL     1      -7.360  52.531  51.334  0.00  0.00    +0.000 A 
ATOM     11  C   UNL     1      -7.350  51.830  50.141  0.00  0.00    +0.000 A 
ATOM     12  F   UNL     1      -6.401  52.305  52.239  0.00  0.00    +0.000 F 
ENDROOT
BRANCH   1  18
ATOM     13  S   UNL     1     -13.296  58.386  49.422  0.00  0.00    +0.000 S 
ATOM     14  O   UNL     1     -14.357  58.256  48.443  0.00  0.00    +0.000 OA
ATOM     15  O   UNL     1     -12.462  59.574  49.444  0.00  0.00    +0.000 OA
ATOM     16  N   UNL     1     -12.323  57.098  49.271  0.00  0.00    +0.000 N 
ATOM     17  C   UNL     1     -14.075  58.315  50.994  0.00  0.00    +0.000 A 
ATOM     18  C   UNL     1     -12.291  56.171  50.183  0.00  0.00    +0.000 C 
ATOM     19  C   UNL     1     -13.861  57.187  51.769  0.00  0.00    +0.000 A 
ATOM     20  C   UNL     1     -14.869  59.379  51.432  0.00  0.00    +0.000 A 
ATOM     21  N   UNL     1     -13.073  56.132  51.317  0.00  0.00    +0.000 N 
ATOM     22  C   UNL     1     -14.527  57.096  52.997  0.00  0.00    +0.000 A 
ATOM     23  C   UNL     1     -15.495  59.290  52.673  0.00  0.00    +0.000 A 
ATOM     24  C   UNL     1     -15.332  58.143  53.451  0.00  0.00    +0.000 A 
ATOM     25  H   UNL     1     -11.747  57.016  48.477  0.00  0.00    +0.000 HD
ATOM     26  H   UNL     1     -13.076  55.300  51.844  0.00  0.00    +0.000 HD
ENDBRANCH   1  18
BRANCH   3  27
ATOM     27  O   UNL     1     -10.257  55.404  52.118  0.00  0.00    +0.000 OA
ATOM     28  H   UNL     1     -10.782  55.131  52.845  0.00  0.00    +0.000 HD
ENDBRANCH   3  27
BRANCH   5  29
ATOM     29  C   UNL     1     -10.486  52.506  47.227  0.00  0.00    +0.000 C 
BRANCH  29  30
ATOM     30  C   UNL     1      -9.764  53.136  46.023  0.00  0.00    +0.000 C 
BRANCH  30  31
ATOM     31  C   UNL     1     -10.561  53.244  44.712  0.00  0.00    +0.000 C 
ATOM     32  C   UNL     1      -9.877  52.527  43.550  0.00  0.00    +0.000 C 
ATOM     33  C   UNL     1     -11.957  52.647  44.936  0.00  0.00    +0.000 C 
ENDBRANCH  30  31
ENDBRANCH  29  30
ENDBRANCH   5  29
TORSDOF 5
ENDMDL
