MODEL 1
REMARK VINA RESULT:      -8.2      0.000      0.000
REMARK  Name = 338625
REMARK  8 active torsions:
REMARK  status: ('A' for Active; 'I' for Inactive)
REMARK    1  A    between atoms: C_6  and  C_10
REMARK    2  A    between atoms: C_14  and  O_18
REMARK    3  A    between atoms: N_17  and  C_21
REMARK    4  A    between atoms: C_21  and  C_24
REMARK    5  A    between atoms: C_24  and  C_27
REMARK    6  A    between atoms: C_26  and  C_28
REMARK    7  A    between atoms: C_27  and  C_29
REMARK    8  A    between atoms: C_27  and  C_30
REMARK                            x       y       z     vdW  Elec       q    Type
REMARK                         _______ _______ _______ _____ _____    ______ ____
ROOT
ATOM      1  C   UNL     1     -10.834  54.962  48.230  0.00  0.00    +0.000 A 
ATOM      2  C   UNL     1     -10.319  54.846  49.631  0.00  0.00    +0.000 A 
ATOM      3  C   UNL     1     -11.942  55.678  47.973  0.00  0.00    +0.000 A 
ATOM      4  O   UNL     1      -9.242  54.273  49.818  0.00  0.00    +0.000 OA
ATOM      5  N   UNL     1     -11.067  55.405  50.660  0.00  0.00    +0.000 N 
ATOM      6  C   UNL     1     -12.710  56.279  49.071  0.00  0.00    +0.000 A 
ATOM      7  C   UNL     1     -12.275  56.122  50.399  0.00  0.00    +0.000 A 
ATOM      8  C   UNL     1     -13.909  56.965  48.803  0.00  0.00    +0.000 A 
ATOM      9  C   UNL     1     -13.052  56.676  51.427  0.00  0.00    +0.000 A 
ATOM     10  C   UNL     1     -14.683  57.492  49.836  0.00  0.00    +0.000 A 
ATOM     11  C   UNL     1     -14.244  57.364  51.153  0.00  0.00    +0.000 A 
ENDROOT
BRANCH   1  17
ATOM     12  S   UNL     1      -7.949  54.131  45.703  0.00  0.00    +0.000 S 
ATOM     13  O   UNL     1      -6.947  53.251  46.275  0.00  0.00    +0.000 OA
ATOM     14  O   UNL     1      -7.555  55.252  44.876  0.00  0.00    +0.000 OA
ATOM     15  N   UNL     1      -8.849  54.704  46.921  0.00  0.00    +0.000 N 
ATOM     16  C   UNL     1      -8.974  53.120  44.698  0.00  0.00    +0.000 A 
ATOM     17  C   UNL     1     -10.072  54.298  47.106  0.00  0.00    +0.000 C 
ATOM     18  C   UNL     1     -10.259  52.857  45.141  0.00  0.00    +0.000 A 
ATOM     19  C   UNL     1      -8.492  52.620  43.486  0.00  0.00    +0.000 A 
ATOM     20  N   UNL     1     -10.724  53.346  46.358  0.00  0.00    +0.000 N 
ATOM     21  C   UNL     1     -11.066  52.013  44.372  0.00  0.00    +0.000 A 
ATOM     22  C   UNL     1      -9.317  51.804  42.716  0.00  0.00    +0.000 A 
ATOM     23  C   UNL     1     -10.602  51.495  43.163  0.00  0.00    +0.000 A 
ATOM     24  H   UNL     1      -8.463  55.371  47.534  0.00  0.00    +0.000 HD
ATOM     25  H   UNL     1     -11.573  52.989  46.706  0.00  0.00    +0.000 HD
ENDBRANCH   1  17
BRANCH  11  26
ATOM     26  C   UNL     1     -15.018  57.876  52.312  0.00  0.00    +0.000 C 
ATOM     27  O   UNL     1     -14.952  59.039  52.674  0.00  0.00    +0.000 OA
ATOM     28  O   UNL     1     -15.827  56.970  52.894  0.00  0.00    +0.000 OA
ENDBRANCH  11  26
BRANCH   3  29
ATOM     29  O   UNL     1     -12.455  55.906  46.708  0.00  0.00    +0.000 OA
ATOM     30  H   UNL     1     -13.357  55.725  46.529  0.00  0.00    +0.000 HD
ENDBRANCH   3  29
BRANCH   5  31
ATOM     31  C   UNL     1     -10.594  55.188  52.038  0.00  0.00    +0.000 C 
BRANCH  31  32
ATOM     32  C   UNL     1     -11.040  53.827  52.596  0.00  0.00    +0.000 C 
BRANCH  32  33
ATOM     33  C   UNL     1      -9.937  53.056  53.351  0.00  0.00    +0.000 C 
ATOM     34  C   UNL     1      -9.618  51.703  52.712  0.00  0.00    +0.000 C 
ATOM     35  C   UNL     1      -8.661  53.904  53.405  0.00  0.00    +0.000 C 
ENDBRANCH  32  33
ENDBRANCH  31  32
ENDBRANCH   5  31
TORSDOF 6
ENDMDL
MODEL 2
REMARK VINA RESULT:      -8.1      2.701      7.820
REMARK  Name = 338625
REMARK  8 active torsions:
REMARK  status: ('A' for Active; 'I' for Inactive)
REMARK    1  A    between atoms: C_6  and  C_10
REMARK    2  A    between atoms: C_14  and  O_18
REMARK    3  A    between atoms: N_17  and  C_21
REMARK    4  A    between atoms: C_21  and  C_24
REMARK    5  A    between atoms: C_24  and  C_27
REMARK    6  A    between atoms: C_26  and  C_28
REMARK    7  A    between atoms: C_27  and  C_29
REMARK    8  A    between atoms: C_27  and  C_30
REMARK                            x       y       z     vdW  Elec       q    Type
REMARK                         _______ _______ _______ _____ _____    ______ ____
ROOT
ATOM      1  C   UNL     1     -11.758  55.840  48.743  0.00  0.00    +0.000 A 
ATOM      2  C   UNL     1     -10.660  55.232  49.558  0.00  0.00    +0.000 A 
ATOM      3  C   UNL     1     -11.943  55.461  47.466  0.00  0.00    +0.000 A 
ATOM      4  O   UNL     1     -10.586  55.522  50.756  0.00  0.00    +0.000 OA
ATOM      5  N   UNL     1      -9.781  54.354  48.937  0.00  0.00    +0.000 N 
ATOM      6  C   UNL     1     -11.016  54.516  46.830  0.00  0.00    +0.000 A 
ATOM      7  C   UNL     1      -9.940  53.988  47.565  0.00  0.00    +0.000 A 
ATOM      8  C   UNL     1     -11.170  54.179  45.472  0.00  0.00    +0.000 A 
ATOM      9  C   UNL     1      -9.051  53.117  46.917  0.00  0.00    +0.000 A 
ATOM     10  C   UNL     1     -10.267  53.330  44.835  0.00  0.00    +0.000 A 
ATOM     11  C   UNL     1      -9.213  52.781  45.564  0.00  0.00    +0.000 A 
ENDROOT
BRANCH   1  17
ATOM     12  S   UNL     1     -13.608  59.228  49.454  0.00  0.00    +0.000 S 
ATOM     13  O   UNL     1     -14.754  59.426  48.587  0.00  0.00    +0.000 OA
ATOM     14  O   UNL     1     -12.717  60.329  49.755  0.00  0.00    +0.000 OA
ATOM     15  N   UNL     1     -12.720  58.029  48.824  0.00  0.00    +0.000 N 
ATOM     16  C   UNL     1     -14.247  58.681  50.995  0.00  0.00    +0.000 A 
ATOM     17  C   UNL     1     -12.681  56.854  49.382  0.00  0.00    +0.000 C 
ATOM     18  C   UNL     1     -14.042  57.357  51.348  0.00  0.00    +0.000 A 
ATOM     19  C   UNL     1     -14.923  59.574  51.829  0.00  0.00    +0.000 A 
ATOM     20  N   UNL     1     -13.381  56.472  50.502  0.00  0.00    +0.000 N 
ATOM     21  C   UNL     1     -14.589  56.900  52.550  0.00  0.00    +0.000 A 
ATOM     22  C   UNL     1     -15.438  59.111  53.037  0.00  0.00    +0.000 A 
ATOM     23  C   UNL     1     -15.277  57.772  53.394  0.00  0.00    +0.000 A 
ATOM     24  H   UNL     1     -12.202  58.191  48.002  0.00  0.00    +0.000 HD
ATOM     25  H   UNL     1     -13.417  55.512  50.718  0.00  0.00    +0.000 HD
ENDBRANCH   1  17
BRANCH  11  26
ATOM     26  C   UNL     1      -8.196  51.886  44.958  0.00  0.00    +0.000 C 
ATOM     27  O   UNL     1      -7.420  51.232  45.634  0.00  0.00    +0.000 OA
ATOM     28  O   UNL     1      -8.232  51.821  43.613  0.00  0.00    +0.000 OA
ENDBRANCH  11  26
BRANCH   3  29
ATOM     29  O   UNL     1     -12.971  55.907  46.654  0.00  0.00    +0.000 OA
ATOM     30  H   UNL     1     -12.778  56.286  45.819  0.00  0.00    +0.000 HD
ENDBRANCH   3  29
BRANCH   5  31
ATOM     31  C   UNL     1      -8.649  53.852  49.733  0.00  0.00    +0.000 C 
BRANCH  31  32
ATOM     32  C   UNL     1      -7.388  54.712  49.555  0.00  0.00    +0.000 C 
BRANCH  32  33
ATOM     33  C   UNL     1      -6.963  55.487  50.818  0.00  0.00    +0.000 C 
ATOM     34  C   UNL     1      -7.541  56.903  50.866  0.00  0.00    +0.000 C 
ATOM     35  C   UNL     1      -7.405  54.718  52.068  0.00  0.00    +0.000 C 
ENDBRANCH  32  33
ENDBRANCH  31  32
ENDBRANCH   5  31
TORSDOF 6
ENDMDL
MODEL 3
REMARK VINA RESULT:      -7.8      1.885      2.407
REMARK  Name = 338625
REMARK  8 active torsions:
REMARK  status: ('A' for Active; 'I' for Inactive)
REMARK    1  A    between atoms: C_6  and  C_10
REMARK    2  A    between atoms: C_14  and  O_18
REMARK    3  A    between atoms: N_17  and  C_21
REMARK    4  A    between atoms: C_21  and  C_24
REMARK    5  A    between atoms: C_24  and  C_27
REMARK    6  A    between atoms: C_26  and  C_28
REMARK    7  A    between atoms: C_27  and  C_29
REMARK    8  A    between atoms: C_27  and  C_30
REMARK                            x       y       z     vdW  Elec       q    Type
REMARK                         _______ _______ _______ _____ _____    ______ ____
ROOT
ATOM      1  C   UNL     1     -10.620  54.207  47.316  0.00  0.00    +0.000 A 
ATOM      2  C   UNL     1     -10.045  54.522  48.662  0.00  0.00    +0.000 A 
ATOM      3  C   UNL     1     -11.616  54.957  46.814  0.00  0.00    +0.000 A 
ATOM      4  O   UNL     1      -9.062  53.883  49.048  0.00  0.00    +0.000 OA
ATOM      5  N   UNL     1     -10.633  55.532  49.414  0.00  0.00    +0.000 N 
ATOM      6  C   UNL     1     -12.213  56.034  47.614  0.00  0.00    +0.000 A 
ATOM      7  C   UNL     1     -11.728  56.298  48.906  0.00  0.00    +0.000 A 
ATOM      8  C   UNL     1     -13.304  56.767  47.112  0.00  0.00    +0.000 A 
ATOM      9  C   UNL     1     -12.344  57.308  49.659  0.00  0.00    +0.000 A 
ATOM     10  C   UNL     1     -13.922  57.755  47.878  0.00  0.00    +0.000 A 
ATOM     11  C   UNL     1     -13.428  58.039  49.151  0.00  0.00    +0.000 A 
ENDROOT
BRANCH   1  17
ATOM     12  S   UNL     1      -9.049  50.715  46.455  0.00  0.00    +0.000 S 
ATOM     13  O   UNL     1     -10.049  49.670  46.347  0.00  0.00    +0.000 OA
ATOM     14  O   UNL     1      -7.790  50.460  47.121  0.00  0.00    +0.000 OA
ATOM     15  N   UNL     1      -9.747  51.985  47.180  0.00  0.00    +0.000 N 
ATOM     16  C   UNL     1      -8.646  51.181  44.811  0.00  0.00    +0.000 A 
ATOM     17  C   UNL     1     -10.041  53.064  46.514  0.00  0.00    +0.000 C 
ATOM     18  C   UNL     1      -9.085  52.415  44.361  0.00  0.00    +0.000 A 
ATOM     19  C   UNL     1      -7.892  50.324  44.005  0.00  0.00    +0.000 A 
ATOM     20  N   UNL     1      -9.850  53.254  45.166  0.00  0.00    +0.000 N 
ATOM     21  C   UNL     1      -8.811  52.774  43.038  0.00  0.00    +0.000 A 
ATOM     22  C   UNL     1      -7.602  50.707  42.698  0.00  0.00    +0.000 A 
ATOM     23  C   UNL     1      -8.068  51.930  42.213  0.00  0.00    +0.000 A 
ATOM     24  H   UNL     1      -9.953  51.939  48.141  0.00  0.00    +0.000 HD
ATOM     25  H   UNL     1     -10.282  54.032  44.744  0.00  0.00    +0.000 HD
ENDBRANCH   1  17
BRANCH  11  26
ATOM     26  C   UNL     1     -14.040  59.058  50.041  0.00  0.00    +0.000 C 
ATOM     27  O   UNL     1     -14.949  58.789  50.808  0.00  0.00    +0.000 OA
ATOM     28  O   UNL     1     -13.481  60.282  49.965  0.00  0.00    +0.000 OA
ENDBRANCH  11  26
BRANCH   3  29
ATOM     29  O   UNL     1     -12.163  54.794  45.553  0.00  0.00    +0.000 OA
ATOM     30  H   UNL     1     -12.132  53.958  45.132  0.00  0.00    +0.000 HD
ENDBRANCH   3  29
BRANCH   5  31
ATOM     31  C   UNL     1     -10.117  55.752  50.776  0.00  0.00    +0.000 C 
BRANCH  31  32
ATOM     32  C   UNL     1     -10.963  55.035  51.839  0.00  0.00    +0.000 C 
BRANCH  32  33
ATOM     33  C   UNL     1     -10.160  54.517  53.050  0.00  0.00    +0.000 C 
ATOM     34  C   UNL     1     -10.443  53.046  53.363  0.00  0.00    +0.000 C 
ATOM     35  C   UNL     1      -8.660  54.699  52.788  0.00  0.00    +0.000 C 
ENDBRANCH  32  33
ENDBRANCH  31  32
ENDBRANCH   5  31
TORSDOF 6
ENDMDL
MODEL 4
REMARK VINA RESULT:      -7.7      2.694      8.377
REMARK  Name = 338625
REMARK  8 active torsions:
REMARK  status: ('A' for Active; 'I' for Inactive)
REMARK    1  A    between atoms: C_6  and  C_10
REMARK    2  A    between atoms: C_14  and  O_18
REMARK    3  A    between atoms: N_17  and  C_21
REMARK    4  A    between atoms: C_21  and  C_24
REMARK    5  A    between atoms: C_24  and  C_27
REMARK    6  A    between atoms: C_26  and  C_28
REMARK    7  A    between atoms: C_27  and  C_29
REMARK    8  A    between atoms: C_27  and  C_30
REMARK                            x       y       z     vdW  Elec       q    Type
REMARK                         _______ _______ _______ _____ _____    ______ ____
ROOT
ATOM      1  C   UNL     1     -11.503  55.822  48.847  0.00  0.00    +0.000 A 
ATOM      2  C   UNL     1     -11.619  55.450  47.401  0.00  0.00    +0.000 A 
ATOM      3  C   UNL     1     -10.516  55.309  49.600  0.00  0.00    +0.000 A 
ATOM      4  O   UNL     1     -12.470  56.021  46.712  0.00  0.00    +0.000 OA
ATOM      5  N   UNL     1     -10.753  54.490  46.892  0.00  0.00    +0.000 N 
ATOM      6  C   UNL     1      -9.596  54.310  49.041  0.00  0.00    +0.000 A 
ATOM      7  C   UNL     1      -9.735  53.901  47.704  0.00  0.00    +0.000 A 
ATOM      8  C   UNL     1      -8.610  53.721  49.855  0.00  0.00    +0.000 A 
ATOM      9  C   UNL     1      -8.864  52.918  47.211  0.00  0.00    +0.000 A 
ATOM     10  C   UNL     1      -7.765  52.729  49.360  0.00  0.00    +0.000 A 
ATOM     11  C   UNL     1      -7.880  52.338  48.026  0.00  0.00    +0.000 A 
ENDROOT
BRANCH   1  17
ATOM     12  S   UNL     1     -13.508  59.145  49.427  0.00  0.00    +0.000 S 
ATOM     13  O   UNL     1     -14.637  59.276  48.525  0.00  0.00    +0.000 OA
ATOM     14  O   UNL     1     -12.672  60.288  49.726  0.00  0.00    +0.000 OA
ATOM     15  N   UNL     1     -12.555  57.970  48.850  0.00  0.00    +0.000 N 
ATOM     16  C   UNL     1     -14.167  58.608  50.963  0.00  0.00    +0.000 A 
ATOM     17  C   UNL     1     -12.483  56.811  49.437  0.00  0.00    +0.000 C 
ATOM     18  C   UNL     1     -13.918  57.302  51.353  0.00  0.00    +0.000 A 
ATOM     19  C   UNL     1     -14.902  59.491  51.757  0.00  0.00    +0.000 A 
ATOM     20  N   UNL     1     -13.199  56.426  50.546  0.00  0.00    +0.000 N 
ATOM     21  C   UNL     1     -14.479  56.850  52.551  0.00  0.00    +0.000 A 
ATOM     22  C   UNL     1     -15.431  59.035  52.962  0.00  0.00    +0.000 A 
ATOM     23  C   UNL     1     -15.225  57.712  53.355  0.00  0.00    +0.000 A 
ATOM     24  H   UNL     1     -12.022  58.135  48.039  0.00  0.00    +0.000 HD
ATOM     25  H   UNL     1     -13.201  55.470  50.785  0.00  0.00    +0.000 HD
ENDBRANCH   1  17
BRANCH  11  26
ATOM     26  C   UNL     1      -7.036  51.275  47.425  0.00  0.00    +0.000 C 
ATOM     27  O   UNL     1      -6.248  50.619  48.086  0.00  0.00    +0.000 OA
ATOM     28  O   UNL     1      -7.246  51.064  46.111  0.00  0.00    +0.000 OA
ENDBRANCH  11  26
BRANCH   3  29
ATOM     29  O   UNL     1     -10.279  55.645  50.922  0.00  0.00    +0.000 OA
ATOM     30  H   UNL     1     -10.343  56.538  51.197  0.00  0.00    +0.000 HD
ENDBRANCH   3  29
BRANCH   5  31
ATOM     31  C   UNL     1     -10.955  54.066  45.497  0.00  0.00    +0.000 C 
BRANCH  31  32
ATOM     32  C   UNL     1     -11.926  52.880  45.387  0.00  0.00    +0.000 C 
BRANCH  32  33
ATOM     33  C   UNL     1     -11.395  51.698  44.549  0.00  0.00    +0.000 C 
ATOM     34  C   UNL     1     -10.194  52.081  43.682  0.00  0.00    +0.000 C 
ATOM     35  C   UNL     1     -11.001  50.544  45.478  0.00  0.00    +0.000 C 
ENDBRANCH  32  33
ENDBRANCH  31  32
ENDBRANCH   5  31
TORSDOF 6
ENDMDL
MODEL 5
REMARK VINA RESULT:      -7.7      2.784      7.893
REMARK  Name = 338625
REMARK  8 active torsions:
REMARK  status: ('A' for Active; 'I' for Inactive)
REMARK    1  A    between atoms: C_6  and  C_10
REMARK    2  A    between atoms: C_14  and  O_18
REMARK    3  A    between atoms: N_17  and  C_21
REMARK    4  A    between atoms: C_21  and  C_24
REMARK    5  A    between atoms: C_24  and  C_27
REMARK    6  A    between atoms: C_26  and  C_28
REMARK    7  A    between atoms: C_27  and  C_29
REMARK    8  A    between atoms: C_27  and  C_30
REMARK                            x       y       z     vdW  Elec       q    Type
REMARK                         _______ _______ _______ _____ _____    ______ ____
ROOT
ATOM      1  C   UNL     1     -11.281  55.247  48.443  0.00  0.00    +0.000 A 
ATOM      2  C   UNL     1      -9.943  54.771  48.918  0.00  0.00    +0.000 A 
ATOM      3  C   UNL     1     -11.735  54.889  47.229  0.00  0.00    +0.000 A 
ATOM      4  O   UNL     1      -9.603  55.027  50.077  0.00  0.00    +0.000 OA
ATOM      5  N   UNL     1      -9.148  54.046  48.039  0.00  0.00    +0.000 N 
ATOM      6  C   UNL     1     -10.889  54.106  46.320  0.00  0.00    +0.000 A 
ATOM      7  C   UNL     1      -9.604  53.708  46.727  0.00  0.00    +0.000 A 
ATOM      8  C   UNL     1     -11.340  53.797  45.023  0.00  0.00    +0.000 A 
ATOM      9  C   UNL     1      -8.807  52.992  45.822  0.00  0.00    +0.000 A 
ATOM     10  C   UNL     1     -10.530  53.104  44.125  0.00  0.00    +0.000 A 
ATOM     11  C   UNL     1      -9.264  52.683  44.532  0.00  0.00    +0.000 A 
ENDROOT
BRANCH   1  17
ATOM     12  S   UNL     1     -13.571  56.292  51.454  0.00  0.00    +0.000 S 
ATOM     13  O   UNL     1     -12.809  56.589  52.653  0.00  0.00    +0.000 OA
ATOM     14  O   UNL     1     -14.807  55.543  51.537  0.00  0.00    +0.000 OA
ATOM     15  N   UNL     1     -12.586  55.516  50.429  0.00  0.00    +0.000 N 
ATOM     16  C   UNL     1     -13.987  57.842  50.741  0.00  0.00    +0.000 A 
ATOM     17  C   UNL     1     -12.130  56.099  49.359  0.00  0.00    +0.000 C 
ATOM     18  C   UNL     1     -13.343  58.210  49.571  0.00  0.00    +0.000 A 
ATOM     19  C   UNL     1     -14.950  58.654  51.343  0.00  0.00    +0.000 A 
ATOM     20  N   UNL     1     -12.373  57.400  48.988  0.00  0.00    +0.000 N 
ATOM     21  C   UNL     1     -13.631  59.463  49.022  0.00  0.00    +0.000 A 
ATOM     22  C   UNL     1     -15.248  59.887  50.769  0.00  0.00    +0.000 A 
ATOM     23  C   UNL     1     -14.583  60.294  49.612  0.00  0.00    +0.000 A 
ATOM     24  H   UNL     1     -12.327  54.585  50.620  0.00  0.00    +0.000 HD
ATOM     25  H   UNL     1     -11.825  57.783  48.264  0.00  0.00    +0.000 HD
ENDBRANCH   1  17
BRANCH  11  26
ATOM     26  C   UNL     1      -8.330  51.960  43.632  0.00  0.00    +0.000 C 
ATOM     27  O   UNL     1      -7.739  50.953  43.983  0.00  0.00    +0.000 OA
ATOM     28  O   UNL     1      -8.228  52.478  42.392  0.00  0.00    +0.000 OA
ENDBRANCH  11  26
BRANCH   3  29
ATOM     29  O   UNL     1     -12.984  55.215  46.730  0.00  0.00    +0.000 OA
ATOM     30  H   UNL     1     -13.697  55.372  47.316  0.00  0.00    +0.000 HD
ENDBRANCH   3  29
BRANCH   5  31
ATOM     31  C   UNL     1      -7.796  53.679  48.493  0.00  0.00    +0.000 C 
BRANCH  31  32
ATOM     32  C   UNL     1      -6.767  54.781  48.197  0.00  0.00    +0.000 C 
BRANCH  32  33
ATOM     33  C   UNL     1      -5.629  54.885  49.233  0.00  0.00    +0.000 C 
ATOM     34  C   UNL     1      -6.131  54.797  50.675  0.00  0.00    +0.000 C 
ATOM     35  C   UNL     1      -4.604  53.771  48.985  0.00  0.00    +0.000 C 
ENDBRANCH  32  33
ENDBRANCH  31  32
ENDBRANCH   5  31
TORSDOF 6
ENDMDL
MODEL 6
REMARK VINA RESULT:      -7.4      3.519      6.415
REMARK  Name = 338625
REMARK  8 active torsions:
REMARK  status: ('A' for Active; 'I' for Inactive)
REMARK    1  A    between atoms: C_6  and  C_10
REMARK    2  A    between atoms: C_14  and  O_18
REMARK    3  A    between atoms: N_17  and  C_21
REMARK    4  A    between atoms: C_21  and  C_24
REMARK    5  A    between atoms: C_24  and  C_27
REMARK    6  A    between atoms: C_26  and  C_28
REMARK    7  A    between atoms: C_27  and  C_29
REMARK    8  A    between atoms: C_27  and  C_30
REMARK                            x       y       z     vdW  Elec       q    Type
REMARK                         _______ _______ _______ _____ _____    ______ ____
ROOT
ATOM      1  C   UNL     1      -8.813  54.191  51.345  0.00  0.00    +0.000 A 
ATOM      2  C   UNL     1      -8.737  54.511  49.884  0.00  0.00    +0.000 A 
ATOM      3  C   UNL     1      -9.898  54.537  52.058  0.00  0.00    +0.000 A 
ATOM      4  O   UNL     1      -7.777  54.084  49.236  0.00  0.00    +0.000 OA
ATOM      5  N   UNL     1      -9.760  55.259  49.316  0.00  0.00    +0.000 N 
ATOM      6  C   UNL     1     -10.980  55.311  51.438  0.00  0.00    +0.000 A 
ATOM      7  C   UNL     1     -10.892  55.677  50.083  0.00  0.00    +0.000 A 
ATOM      8  C   UNL     1     -12.079  55.734  52.208  0.00  0.00    +0.000 A 
ATOM      9  C   UNL     1     -11.925  56.448  49.530  0.00  0.00    +0.000 A 
ATOM     10  C   UNL     1     -13.088  56.519  51.651  0.00  0.00    +0.000 A 
ATOM     11  C   UNL     1     -13.021  56.863  50.302  0.00  0.00    +0.000 A 
ENDROOT
BRANCH   1  17
ATOM     12  S   UNL     1      -5.784  53.387  53.708  0.00  0.00    +0.000 S 
ATOM     13  O   UNL     1      -6.209  52.948  55.024  0.00  0.00    +0.000 OA
ATOM     14  O   UNL     1      -4.671  54.302  53.564  0.00  0.00    +0.000 OA
ATOM     15  N   UNL     1      -7.068  54.048  52.975  0.00  0.00    +0.000 N 
ATOM     16  C   UNL     1      -5.340  51.936  52.825  0.00  0.00    +0.000 A 
ATOM     17  C   UNL     1      -7.674  53.440  51.997  0.00  0.00    +0.000 C 
ATOM     18  C   UNL     1      -6.177  51.517  51.805  0.00  0.00    +0.000 A 
ATOM     19  C   UNL     1      -4.167  51.251  53.150  0.00  0.00    +0.000 A 
ATOM     20  N   UNL     1      -7.352  52.198  51.501  0.00  0.00    +0.000 N 
ATOM     21  C   UNL     1      -5.858  50.336  51.129  0.00  0.00    +0.000 A 
ATOM     22  C   UNL     1      -3.847  50.091  52.449  0.00  0.00    +0.000 A 
ATOM     23  C   UNL     1      -4.697  49.630  51.443  0.00  0.00    +0.000 A 
ATOM     24  H   UNL     1      -7.398  54.926  53.276  0.00  0.00    +0.000 HD
ATOM     25  H   UNL     1      -7.993  51.764  50.893  0.00  0.00    +0.000 HD
ENDBRANCH   1  17
BRANCH  11  26
ATOM     26  C   UNL     1     -14.040  57.713  49.637  0.00  0.00    +0.000 C 
ATOM     27  O   UNL     1     -13.792  58.360  48.634  0.00  0.00    +0.000 OA
ATOM     28  O   UNL     1     -15.263  57.671  50.201  0.00  0.00    +0.000 OA
ENDBRANCH  11  26
BRANCH   3  29
ATOM     29  O   UNL     1     -10.095  54.223  53.392  0.00  0.00    +0.000 OA
ATOM     30  H   UNL     1      -9.842  53.382  53.718  0.00  0.00    +0.000 HD
ENDBRANCH   3  29
BRANCH   5  31
ATOM     31  C   UNL     1      -9.612  55.650  47.904  0.00  0.00    +0.000 C 
BRANCH  31  32
ATOM     32  C   UNL     1     -10.283  54.648  46.952  0.00  0.00    +0.000 C 
BRANCH  32  33
ATOM     33  C   UNL     1      -9.304  53.886  46.035  0.00  0.00    +0.000 C 
ATOM     34  C   UNL     1      -9.970  53.370  44.758  0.00  0.00    +0.000 C 
ATOM     35  C   UNL     1      -8.132  54.801  45.661  0.00  0.00    +0.000 C 
ENDBRANCH  32  33
ENDBRANCH  31  32
ENDBRANCH   5  31
TORSDOF 6
ENDMDL
MODEL 7
REMARK VINA RESULT:      -7.3      3.084      7.111
REMARK  Name = 338625
REMARK  8 active torsions:
REMARK  status: ('A' for Active; 'I' for Inactive)
REMARK    1  A    between atoms: C_6  and  C_10
REMARK    2  A    between atoms: C_14  and  O_18
REMARK    3  A    between atoms: N_17  and  C_21
REMARK    4  A    between atoms: C_21  and  C_24
REMARK    5  A    between atoms: C_24  and  C_27
REMARK    6  A    between atoms: C_26  and  C_28
REMARK    7  A    between atoms: C_27  and  C_29
REMARK    8  A    between atoms: C_27  and  C_30
REMARK                            x       y       z     vdW  Elec       q    Type
REMARK                         _______ _______ _______ _____ _____    ______ ____
ROOT
ATOM      1  C   UNL     1      -9.492  54.431  51.768  0.00  0.00    +0.000 A 
ATOM      2  C   UNL     1      -9.050  54.433  50.337  0.00  0.00    +0.000 A 
ATOM      3  C   UNL     1     -10.672  54.974  52.112  0.00  0.00    +0.000 A 
ATOM      4  O   UNL     1      -8.014  53.831  50.040  0.00  0.00    +0.000 OA
ATOM      5  N   UNL     1      -9.835  55.096  49.402  0.00  0.00    +0.000 N 
ATOM      6  C   UNL     1     -11.499  55.655  51.107  0.00  0.00    +0.000 A 
ATOM      7  C   UNL     1     -11.065  55.723  49.772  0.00  0.00    +0.000 A 
ATOM      8  C   UNL     1     -12.698  56.286  51.487  0.00  0.00    +0.000 A 
ATOM      9  C   UNL     1     -11.860  56.412  48.844  0.00  0.00    +0.000 A 
ATOM     10  C   UNL     1     -13.468  56.987  50.559  0.00  0.00    +0.000 A 
ATOM     11  C   UNL     1     -13.057  57.035  49.228  0.00  0.00    +0.000 A 
ENDROOT
BRANCH   1  17
ATOM     12  S   UNL     1      -6.291  53.390  53.785  0.00  0.00    +0.000 S 
ATOM     13  O   UNL     1      -5.898  54.392  54.757  0.00  0.00    +0.000 OA
ATOM     14  O   UNL     1      -5.292  52.711  52.987  0.00  0.00    +0.000 OA
ATOM     15  N   UNL     1      -7.351  54.080  52.773  0.00  0.00    +0.000 N 
ATOM     16  C   UNL     1      -7.131  52.137  54.682  0.00  0.00    +0.000 A 
ATOM     17  C   UNL     1      -8.616  53.777  52.812  0.00  0.00    +0.000 C 
ATOM     18  C   UNL     1      -8.503  52.032  54.519  0.00  0.00    +0.000 A 
ATOM     19  C   UNL     1      -6.417  51.276  55.518  0.00  0.00    +0.000 A 
ATOM     20  N   UNL     1      -9.207  52.907  53.697  0.00  0.00    +0.000 N 
ATOM     21  C   UNL     1      -9.188  51.070  55.267  0.00  0.00    +0.000 A 
ATOM     22  C   UNL     1      -7.109  50.303  56.235  0.00  0.00    +0.000 A 
ATOM     23  C   UNL     1      -8.495  50.205  56.114  0.00  0.00    +0.000 A 
ATOM     24  H   UNL     1      -7.032  54.741  52.117  0.00  0.00    +0.000 HD
ATOM     25  H   UNL     1     -10.190  52.902  53.752  0.00  0.00    +0.000 HD
ENDBRANCH   1  17
BRANCH  11  26
ATOM     26  C   UNL     1     -13.805  57.777  48.182  0.00  0.00    +0.000 C 
ATOM     27  O   UNL     1     -14.120  57.265  47.122  0.00  0.00    +0.000 OA
ATOM     28  O   UNL     1     -14.146  59.036  48.520  0.00  0.00    +0.000 OA
ENDBRANCH  11  26
BRANCH   3  29
ATOM     29  O   UNL     1     -11.203  54.958  53.390  0.00  0.00    +0.000 OA
ATOM     30  H   UNL     1     -12.131  54.971  53.513  0.00  0.00    +0.000 HD
ENDBRANCH   3  29
BRANCH   5  31
ATOM     31  C   UNL     1      -9.326  55.173  48.022  0.00  0.00    +0.000 C 
BRANCH  31  32
ATOM     32  C   UNL     1      -9.654  53.909  47.213  0.00  0.00    +0.000 C 
BRANCH  32  33
ATOM     33  C   UNL     1     -10.198  54.184  45.796  0.00  0.00    +0.000 C 
ATOM     34  C   UNL     1     -10.209  52.934  44.913  0.00  0.00    +0.000 C 
ATOM     35  C   UNL     1     -11.620  54.749  45.890  0.00  0.00    +0.000 C 
ENDBRANCH  32  33
ENDBRANCH  31  32
ENDBRANCH   5  31
TORSDOF 6
ENDMDL
MODEL 8
REMARK VINA RESULT:      -7.3      3.119      8.308
REMARK  Name = 338625
REMARK  8 active torsions:
REMARK  status: ('A' for Active; 'I' for Inactive)
REMARK    1  A    between atoms: C_6  and  C_10
REMARK    2  A    between atoms: C_14  and  O_18
REMARK    3  A    between atoms: N_17  and  C_21
REMARK    4  A    between atoms: C_21  and  C_24
REMARK    5  A    between atoms: C_24  and  C_27
REMARK    6  A    between atoms: C_26  and  C_28
REMARK    7  A    between atoms: C_27  and  C_29
REMARK    8  A    between atoms: C_27  and  C_30
REMARK                            x       y       z     vdW  Elec       q    Type
REMARK                         _______ _______ _______ _____ _____    ______ ____
ROOT
ATOM      1  C   UNL     1      -8.305  53.721  49.216  0.00  0.00    +0.000 A 
ATOM      2  C   UNL     1      -9.199  54.780  48.651  0.00  0.00    +0.000 A 
ATOM      3  C   UNL     1      -7.852  52.729  48.431  0.00  0.00    +0.000 A 
ATOM      4  O   UNL     1      -9.510  55.735  49.371  0.00  0.00    +0.000 OA
ATOM      5  N   UNL     1      -9.627  54.654  47.336  0.00  0.00    +0.000 N 
ATOM      6  C   UNL     1      -8.298  52.621  47.036  0.00  0.00    +0.000 A 
ATOM      7  C   UNL     1      -9.191  53.572  46.511  0.00  0.00    +0.000 A 
ATOM      8  C   UNL     1      -7.878  51.539  46.240  0.00  0.00    +0.000 A 
ATOM      9  C   UNL     1      -9.627  53.420  45.187  0.00  0.00    +0.000 A 
ATOM     10  C   UNL     1      -8.337  51.387  44.932  0.00  0.00    +0.000 A 
ATOM     11  C   UNL     1      -9.201  52.341  44.396  0.00  0.00    +0.000 A 
ENDROOT
BRANCH   1  17
ATOM     12  S   UNL     1      -8.541  54.024  53.122  0.00  0.00    +0.000 S 
ATOM     13  O   UNL     1      -8.827  52.752  53.760  0.00  0.00    +0.000 OA
ATOM     14  O   UNL     1      -9.190  55.235  53.577  0.00  0.00    +0.000 OA
ATOM     15  N   UNL     1      -8.851  53.857  51.541  0.00  0.00    +0.000 N 
ATOM     16  C   UNL     1      -6.817  54.293  53.314  0.00  0.00    +0.000 A 
ATOM     17  C   UNL     1      -7.888  53.802  50.667  0.00  0.00    +0.000 C 
ATOM     18  C   UNL     1      -6.015  54.181  52.190  0.00  0.00    +0.000 A 
ATOM     19  C   UNL     1      -6.295  54.624  54.566  0.00  0.00    +0.000 A 
ATOM     20  N   UNL     1      -6.543  53.834  50.950  0.00  0.00    +0.000 N 
ATOM     21  C   UNL     1      -4.635  54.345  52.342  0.00  0.00    +0.000 A 
ATOM     22  C   UNL     1      -4.922  54.814  54.697  0.00  0.00    +0.000 A 
ATOM     23  C   UNL     1      -4.091  54.667  53.586  0.00  0.00    +0.000 A 
ATOM     24  H   UNL     1      -9.785  53.795  51.235  0.00  0.00    +0.000 HD
ATOM     25  H   UNL     1      -5.914  53.596  50.231  0.00  0.00    +0.000 HD
ENDBRANCH   1  17
BRANCH  11  26
ATOM     26  C   UNL     1      -9.753  52.244  43.021  0.00  0.00    +0.000 C 
ATOM     27  O   UNL     1      -9.458  53.038  42.145  0.00  0.00    +0.000 OA
ATOM     28  O   UNL     1     -10.561  51.186  42.813  0.00  0.00    +0.000 OA
ENDBRANCH  11  26
BRANCH   3  29
ATOM     29  O   UNL     1      -6.965  51.747  48.837  0.00  0.00    +0.000 OA
ATOM     30  H   UNL     1      -7.231  50.849  48.844  0.00  0.00    +0.000 HD
ENDBRANCH   3  29
BRANCH   5  31
ATOM     31  C   UNL     1     -10.589  55.652  46.836  0.00  0.00    +0.000 C 
BRANCH  31  32
ATOM     32  C   UNL     1     -12.033  55.318  47.241  0.00  0.00    +0.000 C 
BRANCH  32  33
ATOM     33  C   UNL     1     -12.718  56.399  48.102  0.00  0.00    +0.000 C 
ATOM     34  C   UNL     1     -13.869  57.095  47.372  0.00  0.00    +0.000 C 
ATOM     35  C   UNL     1     -13.248  55.768  49.395  0.00  0.00    +0.000 C 
ENDBRANCH  32  33
ENDBRANCH  31  32
ENDBRANCH   5  31
TORSDOF 6
ENDMDL
MODEL 9
REMARK VINA RESULT:      -7.2      2.835      5.957
REMARK  Name = 338625
REMARK  8 active torsions:
REMARK  status: ('A' for Active; 'I' for Inactive)
REMARK    1  A    between atoms: C_6  and  C_10
REMARK    2  A    between atoms: C_14  and  O_18
REMARK    3  A    between atoms: N_17  and  C_21
REMARK    4  A    between atoms: C_21  and  C_24
REMARK    5  A    between atoms: C_24  and  C_27
REMARK    6  A    between atoms: C_26  and  C_28
REMARK    7  A    between atoms: C_27  and  C_29
REMARK    8  A    between atoms: C_27  and  C_30
REMARK                            x       y       z     vdW  Elec       q    Type
REMARK                         _______ _______ _______ _____ _____    ______ ____
ROOT
ATOM      1  C   UNL     1      -9.412  54.199  50.593  0.00  0.00    +0.000 A 
ATOM      2  C   UNL     1     -10.129  53.734  49.364  0.00  0.00    +0.000 A 
ATOM      3  C   UNL     1     -10.067  54.894  51.537  0.00  0.00    +0.000 A 
ATOM      4  O   UNL     1      -9.527  53.007  48.568  0.00  0.00    +0.000 OA
ATOM      5  N   UNL     1     -11.449  54.126  49.179  0.00  0.00    +0.000 N 
ATOM      6  C   UNL     1     -11.469  55.283  51.336  0.00  0.00    +0.000 A 
ATOM      7  C   UNL     1     -12.137  54.910  50.156  0.00  0.00    +0.000 A 
ATOM      8  C   UNL     1     -12.129  56.074  52.295  0.00  0.00    +0.000 A 
ATOM      9  C   UNL     1     -13.463  55.330  49.978  0.00  0.00    +0.000 A 
ATOM     10  C   UNL     1     -13.440  56.503  52.095  0.00  0.00    +0.000 A 
ATOM     11  C   UNL     1     -14.117  56.114  50.940  0.00  0.00    +0.000 A 
ENDROOT
BRANCH   1  17
ATOM     12  S   UNL     1      -5.621  53.593  49.776  0.00  0.00    +0.000 S 
ATOM     13  O   UNL     1      -4.844  54.818  49.811  0.00  0.00    +0.000 OA
ATOM     14  O   UNL     1      -5.396  52.610  48.737  0.00  0.00    +0.000 OA
ATOM     15  N   UNL     1      -7.186  54.008  49.738  0.00  0.00    +0.000 N 
ATOM     16  C   UNL     1      -5.312  52.773  51.298  0.00  0.00    +0.000 A 
ATOM     17  C   UNL     1      -7.953  53.843  50.776  0.00  0.00    +0.000 C 
ATOM     18  C   UNL     1      -6.333  52.738  52.234  0.00  0.00    +0.000 A 
ATOM     19  C   UNL     1      -4.074  52.169  51.529  0.00  0.00    +0.000 A 
ATOM     20  N   UNL     1      -7.557  53.358  52.000  0.00  0.00    +0.000 N 
ATOM     21  C   UNL     1      -6.081  52.130  53.467  0.00  0.00    +0.000 A 
ATOM     22  C   UNL     1      -3.847  51.541  52.751  0.00  0.00    +0.000 A 
ATOM     23  C   UNL     1      -4.848  51.529  53.723  0.00  0.00    +0.000 A 
ATOM     24  H   UNL     1      -7.563  54.393  48.914  0.00  0.00    +0.000 HD
ATOM     25  H   UNL     1      -8.177  53.455  52.758  0.00  0.00    +0.000 HD
ENDBRANCH   1  17
BRANCH  11  26
ATOM     26  C   UNL     1     -15.506  56.545  50.639  0.00  0.00    +0.000 C 
ATOM     27  O   UNL     1     -16.303  55.817  50.071  0.00  0.00    +0.000 OA
ATOM     28  O   UNL     1     -15.824  57.775  51.086  0.00  0.00    +0.000 OA
ENDBRANCH  11  26
BRANCH   3  29
ATOM     29  O   UNL     1      -9.515  55.303  52.738  0.00  0.00    +0.000 OA
ATOM     30  H   UNL     1      -9.703  56.157  53.074  0.00  0.00    +0.000 HD
ENDBRANCH   3  29
BRANCH   5  31
ATOM     31  C   UNL     1     -12.100  53.744  47.915  0.00  0.00    +0.000 C 
BRANCH  31  32
ATOM     32  C   UNL     1     -11.744  54.701  46.767  0.00  0.00    +0.000 C 
BRANCH  32  33
ATOM     33  C   UNL     1     -11.410  54.001  45.434  0.00  0.00    +0.000 C 
ATOM     34  C   UNL     1      -9.905  53.830  45.216  0.00  0.00    +0.000 C 
ATOM     35  C   UNL     1     -12.086  52.626  45.392  0.00  0.00    +0.000 C 
ENDBRANCH  32  33
ENDBRANCH  31  32
ENDBRANCH   5  31
TORSDOF 6
ENDMDL
