MODEL 1
REMARK VINA RESULT:      -8.0      0.000      0.000
REMARK  Name = 338451
REMARK  6 active torsions:
REMARK  status: ('A' for Active; 'I' for Inactive)
REMARK    1  A    between atoms: C_6  and  C_10
REMARK    2  A    between atoms: C_14  and  O_18
REMARK    3  A    between atoms: N_17  and  C_21
REMARK    4  A    between atoms: C_21  and  C_24
REMARK    5  A    between atoms: C_24  and  C_27
REMARK    6  A    between atoms: C_27  and  O_28
REMARK                            x       y       z     vdW  Elec       q    Type
REMARK                         _______ _______ _______ _____ _____    ______ ____
ROOT
ATOM      1  C   UNL     1     -10.106  54.380  52.187  0.00  0.00    +0.000 A 
ATOM      2  C   UNL     1      -8.750  54.970  52.035  0.00  0.00    +0.000 A 
ATOM      3  C   UNL     1     -10.313  53.297  52.950  0.00  0.00    +0.000 A 
ATOM      4  O   UNL     1      -8.658  56.069  51.452  0.00  0.00    +0.000 OA
ATOM      5  N   UNL     1      -7.665  54.298  52.566  0.00  0.00    +0.000 N 
ATOM      6  C   UNL     1      -9.170  52.659  53.616  0.00  0.00    +0.000 A 
ATOM      7  C   UNL     1      -7.869  53.161  53.420  0.00  0.00    +0.000 A 
ATOM      8  C   UNL     1      -9.379  51.564  54.470  0.00  0.00    +0.000 A 
ATOM      9  C   UNL     1      -6.815  52.553  54.116  0.00  0.00    +0.000 A 
ATOM     10  C   UNL     1      -8.324  51.007  55.183  0.00  0.00    +0.000 A 
ATOM     11  C   UNL     1      -7.043  51.509  55.014  0.00  0.00    +0.000 A 
ENDROOT
BRANCH   1  17
ATOM     12  S   UNL     1     -12.439  55.914  49.470  0.00  0.00    +0.000 S 
ATOM     13  O   UNL     1     -13.366  54.929  48.927  0.00  0.00    +0.000 OA
ATOM     14  O   UNL     1     -11.788  56.877  48.602  0.00  0.00    +0.000 OA
ATOM     15  N   UNL     1     -11.288  55.110  50.265  0.00  0.00    +0.000 N 
ATOM     16  C   UNL     1     -13.360  56.841  50.642  0.00  0.00    +0.000 A 
ATOM     17  C   UNL     1     -11.261  55.102  51.566  0.00  0.00    +0.000 C 
ATOM     18  C   UNL     1     -13.092  56.641  51.992  0.00  0.00    +0.000 A 
ATOM     19  C   UNL     1     -14.323  57.740  50.201  0.00  0.00    +0.000 A 
ATOM     20  N   UNL     1     -12.168  55.697  52.405  0.00  0.00    +0.000 N 
ATOM     21  C   UNL     1     -13.852  57.353  52.916  0.00  0.00    +0.000 A 
ATOM     22  C   UNL     1     -15.062  58.450  51.138  0.00  0.00    +0.000 A 
ATOM     23  C   UNL     1     -14.825  58.256  52.500  0.00  0.00    +0.000 A 
ATOM     24  H   UNL     1     -10.600  54.620  49.759  0.00  0.00    +0.000 HD
ATOM     25  H   UNL     1     -12.162  55.438  53.355  0.00  0.00    +0.000 HD
ENDBRANCH   1  17
BRANCH   3  26
ATOM     26  O   UNL     1     -11.555  52.748  53.228  0.00  0.00    +0.000 OA
ATOM     27  H   UNL     1     -12.080  52.400  52.532  0.00  0.00    +0.000 HD
ENDBRANCH   3  26
BRANCH   5  28
ATOM     28  C   UNL     1      -6.311  54.846  52.376  0.00  0.00    +0.000 C 
BRANCH  28  29
ATOM     29  C   UNL     1      -5.468  54.198  51.272  0.00  0.00    +0.000 C 
BRANCH  29  30
ATOM     30  C   UNL     1      -5.762  54.696  49.869  0.00  0.00    +0.000 C 
BRANCH  30  31
ATOM     31  O   UNL     1      -6.164  56.062  49.928  0.00  0.00    +0.000 OA
ATOM     32  H   UNL     1      -6.936  56.198  49.357  0.00  0.00    +0.000 HD
ENDBRANCH  30  31
ENDBRANCH  29  30
ENDBRANCH  28  29
ENDBRANCH   5  28
TORSDOF 6
ENDMDL
MODEL 2
REMARK VINA RESULT:      -7.7      2.088      2.846
REMARK  Name = 338451
REMARK  6 active torsions:
REMARK  status: ('A' for Active; 'I' for Inactive)
REMARK    1  A    between atoms: C_6  and  C_10
REMARK    2  A    between atoms: C_14  and  O_18
REMARK    3  A    between atoms: N_17  and  C_21
REMARK    4  A    between atoms: C_21  and  C_24
REMARK    5  A    between atoms: C_24  and  C_27
REMARK    6  A    between atoms: C_27  and  O_28
REMARK                            x       y       z     vdW  Elec       q    Type
REMARK                         _______ _______ _______ _____ _____    ______ ____
ROOT
ATOM      1  C   UNL     1     -11.519  54.137  51.187  0.00  0.00    +0.000 A 
ATOM      2  C   UNL     1     -10.568  54.249  52.324  0.00  0.00    +0.000 A 
ATOM      3  C   UNL     1     -11.638  52.998  50.489  0.00  0.00    +0.000 A 
ATOM      4  O   UNL     1     -10.630  55.275  53.031  0.00  0.00    +0.000 OA
ATOM      5  N   UNL     1      -9.687  53.211  52.566  0.00  0.00    +0.000 N 
ATOM      6  C   UNL     1     -10.785  51.853  50.832  0.00  0.00    +0.000 A 
ATOM      7  C   UNL     1      -9.827  51.969  51.858  0.00  0.00    +0.000 A 
ATOM      8  C   UNL     1     -10.944  50.633  50.155  0.00  0.00    +0.000 A 
ATOM      9  C   UNL     1      -9.070  50.835  52.187  0.00  0.00    +0.000 A 
ATOM     10  C   UNL     1     -10.213  49.512  50.529  0.00  0.00    +0.000 A 
ATOM     11  C   UNL     1      -9.283  49.611  51.553  0.00  0.00    +0.000 A 
ENDROOT
BRANCH   1  17
ATOM     12  S   UNL     1     -13.282  57.055  49.303  0.00  0.00    +0.000 S 
ATOM     13  O   UNL     1     -14.397  56.586  48.489  0.00  0.00    +0.000 OA
ATOM     14  O   UNL     1     -12.377  58.073  48.804  0.00  0.00    +0.000 OA
ATOM     15  N   UNL     1     -12.399  55.767  49.706  0.00  0.00    +0.000 N 
ATOM     16  C   UNL     1     -14.000  57.700  50.768  0.00  0.00    +0.000 A 
ATOM     17  C   UNL     1     -12.434  55.291  50.917  0.00  0.00    +0.000 C 
ATOM     18  C   UNL     1     -13.850  56.975  51.945  0.00  0.00    +0.000 A 
ATOM     19  C   UNL     1     -14.694  58.903  50.721  0.00  0.00    +0.000 A 
ATOM     20  N   UNL     1     -13.204  55.751  51.953  0.00  0.00    +0.000 N 
ATOM     21  C   UNL     1     -14.454  57.474  53.096  0.00  0.00    +0.000 A 
ATOM     22  C   UNL     1     -15.278  59.391  51.882  0.00  0.00    +0.000 A 
ATOM     23  C   UNL     1     -15.158  58.674  53.074  0.00  0.00    +0.000 A 
ATOM     24  H   UNL     1     -11.830  55.336  49.028  0.00  0.00    +0.000 HD
ATOM     25  H   UNL     1     -13.304  55.178  52.748  0.00  0.00    +0.000 HD
ENDBRANCH   1  17
BRANCH   3  26
ATOM     26  O   UNL     1     -12.569  52.776  49.487  0.00  0.00    +0.000 OA
ATOM     27  H   UNL     1     -12.853  53.488  48.945  0.00  0.00    +0.000 HD
ENDBRANCH   3  26
BRANCH   5  28
ATOM     28  C   UNL     1      -8.706  53.335  53.657  0.00  0.00    +0.000 C 
BRANCH  28  29
ATOM     29  C   UNL     1      -7.379  54.013  53.300  0.00  0.00    +0.000 C 
BRANCH  29  30
ATOM     30  C   UNL     1      -7.147  55.354  53.971  0.00  0.00    +0.000 C 
BRANCH  30  31
ATOM     31  O   UNL     1      -8.257  55.659  54.812  0.00  0.00    +0.000 OA
ATOM     32  H   UNL     1      -8.111  55.278  55.692  0.00  0.00    +0.000 HD
ENDBRANCH  30  31
ENDBRANCH  29  30
ENDBRANCH  28  29
ENDBRANCH   5  28
TORSDOF 6
ENDMDL
MODEL 3
REMARK VINA RESULT:      -7.6      3.224      4.942
REMARK  Name = 338451
REMARK  6 active torsions:
REMARK  status: ('A' for Active; 'I' for Inactive)
REMARK    1  A    between atoms: C_6  and  C_10
REMARK    2  A    between atoms: C_14  and  O_18
REMARK    3  A    between atoms: N_17  and  C_21
REMARK    4  A    between atoms: C_21  and  C_24
REMARK    5  A    between atoms: C_24  and  C_27
REMARK    6  A    between atoms: C_27  and  O_28
REMARK                            x       y       z     vdW  Elec       q    Type
REMARK                         _______ _______ _______ _____ _____    ______ ____
ROOT
ATOM      1  C   UNL     1     -11.521  56.074  48.766  0.00  0.00    +0.000 A 
ATOM      2  C   UNL     1     -10.467  55.485  49.634  0.00  0.00    +0.000 A 
ATOM      3  C   UNL     1     -11.658  55.700  47.486  0.00  0.00    +0.000 A 
ATOM      4  O   UNL     1     -10.504  55.752  50.852  0.00  0.00    +0.000 OA
ATOM      5  N   UNL     1      -9.521  54.652  49.067  0.00  0.00    +0.000 N 
ATOM      6  C   UNL     1     -10.725  54.717  46.921  0.00  0.00    +0.000 A 
ATOM      7  C   UNL     1      -9.675  54.207  47.709  0.00  0.00    +0.000 A 
ATOM      8  C   UNL     1     -10.896  54.266  45.603  0.00  0.00    +0.000 A 
ATOM      9  C   UNL     1      -8.839  53.232  47.146  0.00  0.00    +0.000 A 
ATOM     10  C   UNL     1     -10.081  53.267  45.082  0.00  0.00    +0.000 A 
ATOM     11  C   UNL     1      -9.059  52.743  45.858  0.00  0.00    +0.000 A 
ENDROOT
BRANCH   1  17
ATOM     12  S   UNL     1     -13.563  59.314  49.477  0.00  0.00    +0.000 S 
ATOM     13  O   UNL     1     -14.713  59.441  48.589  0.00  0.00    +0.000 OA
ATOM     14  O   UNL     1     -12.750  60.470  49.806  0.00  0.00    +0.000 OA
ATOM     15  N   UNL     1     -12.591  58.189  48.853  0.00  0.00    +0.000 N 
ATOM     16  C   UNL     1     -14.198  58.701  50.993  0.00  0.00    +0.000 A 
ATOM     17  C   UNL     1     -12.509  57.008  49.393  0.00  0.00    +0.000 C 
ATOM     18  C   UNL     1     -13.922  57.381  51.333  0.00  0.00    +0.000 A 
ATOM     19  C   UNL     1     -14.951  59.537  51.810  0.00  0.00    +0.000 A 
ATOM     20  N   UNL     1     -13.219  56.555  50.475  0.00  0.00    +0.000 N 
ATOM     21  C   UNL     1     -14.459  56.891  52.521  0.00  0.00    +0.000 A 
ATOM     22  C   UNL     1     -15.467  59.033  52.997  0.00  0.00    +0.000 A 
ATOM     23  C   UNL     1     -15.221  57.706  53.353  0.00  0.00    +0.000 A 
ATOM     24  H   UNL     1     -12.055  58.399  48.054  0.00  0.00    +0.000 HD
ATOM     25  H   UNL     1     -13.229  55.586  50.651  0.00  0.00    +0.000 HD
ENDBRANCH   1  17
BRANCH   3  26
ATOM     26  O   UNL     1     -12.673  56.120  46.642  0.00  0.00    +0.000 OA
ATOM     27  H   UNL     1     -13.219  55.489  46.213  0.00  0.00    +0.000 HD
ENDBRANCH   3  26
BRANCH   5  28
ATOM     28  C   UNL     1      -8.442  54.105  49.907  0.00  0.00    +0.000 C 
BRANCH  28  29
ATOM     29  C   UNL     1      -7.208  54.995  50.087  0.00  0.00    +0.000 C 
BRANCH  29  30
ATOM     30  C   UNL     1      -6.049  54.673  49.162  0.00  0.00    +0.000 C 
BRANCH  30  31
ATOM     31  O   UNL     1      -5.246  55.838  48.989  0.00  0.00    +0.000 OA
ATOM     32  H   UNL     1      -5.738  56.497  48.475  0.00  0.00    +0.000 HD
ENDBRANCH  30  31
ENDBRANCH  29  30
ENDBRANCH  28  29
ENDBRANCH   5  28
TORSDOF 6
ENDMDL
MODEL 4
REMARK VINA RESULT:      -7.4      2.660      7.485
REMARK  Name = 338451
REMARK  6 active torsions:
REMARK  status: ('A' for Active; 'I' for Inactive)
REMARK    1  A    between atoms: C_6  and  C_10
REMARK    2  A    between atoms: C_14  and  O_18
REMARK    3  A    between atoms: N_17  and  C_21
REMARK    4  A    between atoms: C_21  and  C_24
REMARK    5  A    between atoms: C_24  and  C_27
REMARK    6  A    between atoms: C_27  and  O_28
REMARK                            x       y       z     vdW  Elec       q    Type
REMARK                         _______ _______ _______ _____ _____    ______ ____
ROOT
ATOM      1  C   UNL     1     -10.452  54.958  51.001  0.00  0.00    +0.000 A 
ATOM      2  C   UNL     1     -11.713  55.587  51.474  0.00  0.00    +0.000 A 
ATOM      3  C   UNL     1     -10.174  54.853  49.693  0.00  0.00    +0.000 A 
ATOM      4  O   UNL     1     -11.829  55.803  52.697  0.00  0.00    +0.000 OA
ATOM      5  N   UNL     1     -12.679  55.929  50.547  0.00  0.00    +0.000 N 
ATOM      6  C   UNL     1     -11.153  55.335  48.710  0.00  0.00    +0.000 A 
ATOM      7  C   UNL     1     -12.384  55.864  49.142  0.00  0.00    +0.000 A 
ATOM      8  C   UNL     1     -10.848  55.293  47.340  0.00  0.00    +0.000 A 
ATOM      9  C   UNL     1     -13.267  56.360  48.172  0.00  0.00    +0.000 A 
ATOM     10  C   UNL     1     -11.721  55.830  46.401  0.00  0.00    +0.000 A 
ATOM     11  C   UNL     1     -12.926  56.374  46.819  0.00  0.00    +0.000 A 
ENDROOT
BRANCH   1  17
ATOM     12  S   UNL     1      -7.139  54.882  53.049  0.00  0.00    +0.000 S 
ATOM     13  O   UNL     1      -7.132  55.878  54.114  0.00  0.00    +0.000 OA
ATOM     14  O   UNL     1      -5.952  54.642  52.251  0.00  0.00    +0.000 OA
ATOM     15  N   UNL     1      -8.342  55.257  52.042  0.00  0.00    +0.000 N 
ATOM     16  C   UNL     1      -7.536  53.359  53.824  0.00  0.00    +0.000 A 
ATOM     17  C   UNL     1      -9.438  54.555  52.026  0.00  0.00    +0.000 C 
ATOM     18  C   UNL     1      -8.798  52.819  53.600  0.00  0.00    +0.000 A 
ATOM     19  C   UNL     1      -6.595  52.734  54.634  0.00  0.00    +0.000 A 
ATOM     20  N   UNL     1      -9.736  53.490  52.836  0.00  0.00    +0.000 N 
ATOM     21  C   UNL     1      -9.119  51.629  54.247  0.00  0.00    +0.000 A 
ATOM     22  C   UNL     1      -6.929  51.542  55.260  0.00  0.00    +0.000 A 
ATOM     23  C   UNL     1      -8.195  50.987  55.066  0.00  0.00    +0.000 A 
ATOM     24  H   UNL     1      -8.245  56.025  51.434  0.00  0.00    +0.000 HD
ATOM     25  H   UNL     1     -10.672  53.185  52.876  0.00  0.00    +0.000 HD
ENDBRANCH   1  17
BRANCH   3  26
ATOM     26  O   UNL     1      -8.981  54.377  49.172  0.00  0.00    +0.000 OA
ATOM     27  H   UNL     1      -8.298  54.091  49.748  0.00  0.00    +0.000 HD
ENDBRANCH   3  26
BRANCH   5  28
ATOM     28  C   UNL     1     -13.954  56.504  51.009  0.00  0.00    +0.000 C 
BRANCH  28  29
ATOM     29  C   UNL     1     -14.013  58.032  51.100  0.00  0.00    +0.000 C 
BRANCH  29  30
ATOM     30  C   UNL     1     -14.450  58.575  52.448  0.00  0.00    +0.000 C 
BRANCH  30  31
ATOM     31  O   UNL     1     -13.881  57.778  53.484  0.00  0.00    +0.000 OA
ATOM     32  H   UNL     1     -14.309  56.907  53.494  0.00  0.00    +0.000 HD
ENDBRANCH  30  31
ENDBRANCH  29  30
ENDBRANCH  28  29
ENDBRANCH   5  28
TORSDOF 6
ENDMDL
MODEL 5
REMARK VINA RESULT:      -7.4      3.516      5.300
REMARK  Name = 338451
REMARK  6 active torsions:
REMARK  status: ('A' for Active; 'I' for Inactive)
REMARK    1  A    between atoms: C_6  and  C_10
REMARK    2  A    between atoms: C_14  and  O_18
REMARK    3  A    between atoms: N_17  and  C_21
REMARK    4  A    between atoms: C_21  and  C_24
REMARK    5  A    between atoms: C_24  and  C_27
REMARK    6  A    between atoms: C_27  and  O_28
REMARK                            x       y       z     vdW  Elec       q    Type
REMARK                         _______ _______ _______ _____ _____    ______ ____
ROOT
ATOM      1  C   UNL     1     -11.039  55.384  48.394  0.00  0.00    +0.000 A 
ATOM      2  C   UNL     1      -9.747  54.878  48.926  0.00  0.00    +0.000 A 
ATOM      3  C   UNL     1     -11.453  55.072  47.157  0.00  0.00    +0.000 A 
ATOM      4  O   UNL     1      -9.506  55.066  50.136  0.00  0.00    +0.000 OA
ATOM      5  N   UNL     1      -8.891  54.202  48.076  0.00  0.00    +0.000 N 
ATOM      6  C   UNL     1     -10.593  54.247  46.300  0.00  0.00    +0.000 A 
ATOM      7  C   UNL     1      -9.333  53.823  46.763  0.00  0.00    +0.000 A 
ATOM      8  C   UNL     1     -11.041  53.856  45.027  0.00  0.00    +0.000 A 
ATOM      9  C   UNL     1      -8.567  52.994  45.931  0.00  0.00    +0.000 A 
ATOM     10  C   UNL     1     -10.283  52.998  44.239  0.00  0.00    +0.000 A 
ATOM     11  C   UNL     1      -9.050  52.558  44.696  0.00  0.00    +0.000 A 
ENDROOT
BRANCH   1  17
ATOM     12  S   UNL     1     -13.414  56.173  51.379  0.00  0.00    +0.000 S 
ATOM     13  O   UNL     1     -12.676  56.462  52.603  0.00  0.00    +0.000 OA
ATOM     14  O   UNL     1     -14.617  55.363  51.413  0.00  0.00    +0.000 OA
ATOM     15  N   UNL     1     -12.386  55.487  50.344  0.00  0.00    +0.000 N 
ATOM     16  C   UNL     1     -13.881  57.733  50.725  0.00  0.00    +0.000 A 
ATOM     17  C   UNL     1     -11.931  56.151  49.321  0.00  0.00    +0.000 C 
ATOM     18  C   UNL     1     -13.229  58.187  49.583  0.00  0.00    +0.000 A 
ATOM     19  C   UNL     1     -14.877  58.471  51.354  0.00  0.00    +0.000 A 
ATOM     20  N   UNL     1     -12.201  57.458  49.011  0.00  0.00    +0.000 N 
ATOM     21  C   UNL     1     -13.580  59.441  49.091  0.00  0.00    +0.000 A 
ATOM     22  C   UNL     1     -15.221  59.714  50.840  0.00  0.00    +0.000 A 
ATOM     23  C   UNL     1     -14.571  60.201  49.705  0.00  0.00    +0.000 A 
ATOM     24  H   UNL     1     -12.100  54.556  50.488  0.00  0.00    +0.000 HD
ATOM     25  H   UNL     1     -11.631  57.905  48.344  0.00  0.00    +0.000 HD
ENDBRANCH   1  17
BRANCH   3  26
ATOM     26  O   UNL     1     -12.685  55.414  46.623  0.00  0.00    +0.000 OA
ATOM     27  H   UNL     1     -12.755  56.138  46.031  0.00  0.00    +0.000 HD
ENDBRANCH   3  26
BRANCH   5  28
ATOM     28  C   UNL     1      -7.585  53.743  48.579  0.00  0.00    +0.000 C 
BRANCH  28  29
ATOM     29  C   UNL     1      -6.427  54.739  48.461  0.00  0.00    +0.000 C 
BRANCH  29  30
ATOM     30  C   UNL     1      -5.918  55.287  49.781  0.00  0.00    +0.000 C 
BRANCH  30  31
ATOM     31  O   UNL     1      -6.741  56.378  50.187  0.00  0.00    +0.000 OA
ATOM     32  H   UNL     1      -7.661  56.081  50.257  0.00  0.00    +0.000 HD
ENDBRANCH  30  31
ENDBRANCH  29  30
ENDBRANCH  28  29
ENDBRANCH   5  28
TORSDOF 6
ENDMDL
MODEL 6
REMARK VINA RESULT:      -7.2      1.614      2.320
REMARK  Name = 338451
REMARK  6 active torsions:
REMARK  status: ('A' for Active; 'I' for Inactive)
REMARK    1  A    between atoms: C_6  and  C_10
REMARK    2  A    between atoms: C_14  and  O_18
REMARK    3  A    between atoms: N_17  and  C_21
REMARK    4  A    between atoms: C_21  and  C_24
REMARK    5  A    between atoms: C_24  and  C_27
REMARK    6  A    between atoms: C_27  and  O_28
REMARK                            x       y       z     vdW  Elec       q    Type
REMARK                         _______ _______ _______ _____ _____    ______ ____
ROOT
ATOM      1  C   UNL     1     -10.144  54.585  51.920  0.00  0.00    +0.000 A 
ATOM      2  C   UNL     1      -8.745  55.053  51.740  0.00  0.00    +0.000 A 
ATOM      3  C   UNL     1     -10.433  53.542  52.711  0.00  0.00    +0.000 A 
ATOM      4  O   UNL     1      -8.567  56.126  51.128  0.00  0.00    +0.000 OA
ATOM      5  N   UNL     1      -7.714  54.305  52.278  0.00  0.00    +0.000 N 
ATOM      6  C   UNL     1      -9.341  52.826  53.383  0.00  0.00    +0.000 A 
ATOM      7  C   UNL     1      -8.005  53.210  53.162  0.00  0.00    +0.000 A 
ATOM      8  C   UNL     1      -9.632  51.774  54.267  0.00  0.00    +0.000 A 
ATOM      9  C   UNL     1      -6.997  52.533  53.864  0.00  0.00    +0.000 A 
ATOM     10  C   UNL     1      -8.619  51.147  54.983  0.00  0.00    +0.000 A 
ATOM     11  C   UNL     1      -7.302  51.534  54.790  0.00  0.00    +0.000 A 
ENDROOT
BRANCH   1  17
ATOM     12  S   UNL     1     -13.503  56.515  51.512  0.00  0.00    +0.000 S 
ATOM     13  O   UNL     1     -13.404  57.891  51.984  0.00  0.00    +0.000 OA
ATOM     14  O   UNL     1     -14.684  55.719  51.790  0.00  0.00    +0.000 OA
ATOM     15  N   UNL     1     -12.224  55.713  52.080  0.00  0.00    +0.000 N 
ATOM     16  C   UNL     1     -13.358  56.599  49.765  0.00  0.00    +0.000 A 
ATOM     17  C   UNL     1     -11.241  55.387  51.292  0.00  0.00    +0.000 C 
ATOM     18  C   UNL     1     -12.181  56.143  49.183  0.00  0.00    +0.000 A 
ATOM     19  C   UNL     1     -14.408  57.112  49.013  0.00  0.00    +0.000 A 
ATOM     20  N   UNL     1     -11.129  55.690  49.960  0.00  0.00    +0.000 N 
ATOM     21  C   UNL     1     -12.058  56.246  47.800  0.00  0.00    +0.000 A 
ATOM     22  C   UNL     1     -14.272  57.195  47.634  0.00  0.00    +0.000 A 
ATOM     23  C   UNL     1     -13.093  56.761  47.025  0.00  0.00    +0.000 A 
ATOM     24  H   UNL     1     -12.187  55.470  53.033  0.00  0.00    +0.000 HD
ATOM     25  H   UNL     1     -10.249  55.580  49.531  0.00  0.00    +0.000 HD
ENDBRANCH   1  17
BRANCH   3  26
ATOM     26  O   UNL     1     -11.714  53.108  53.015  0.00  0.00    +0.000 OA
ATOM     27  H   UNL     1     -12.190  52.585  52.398  0.00  0.00    +0.000 HD
ENDBRANCH   3  26
BRANCH   5  28
ATOM     28  C   UNL     1      -6.321  54.731  52.061  0.00  0.00    +0.000 C 
BRANCH  28  29
ATOM     29  C   UNL     1      -5.632  54.178  50.810  0.00  0.00    +0.000 C 
BRANCH  29  30
ATOM     30  C   UNL     1      -5.330  55.209  49.738  0.00  0.00    +0.000 C 
BRANCH  30  31
ATOM     31  O   UNL     1      -6.541  55.579  49.085  0.00  0.00    +0.000 OA
ATOM     32  H   UNL     1      -7.285  55.473  49.698  0.00  0.00    +0.000 HD
ENDBRANCH  30  31
ENDBRANCH  29  30
ENDBRANCH  28  29
ENDBRANCH   5  28
TORSDOF 6
ENDMDL
MODEL 7
REMARK VINA RESULT:      -7.2      2.874      6.953
REMARK  Name = 338451
REMARK  6 active torsions:
REMARK  status: ('A' for Active; 'I' for Inactive)
REMARK    1  A    between atoms: C_6  and  C_10
REMARK    2  A    between atoms: C_14  and  O_18
REMARK    3  A    between atoms: N_17  and  C_21
REMARK    4  A    between atoms: C_21  and  C_24
REMARK    5  A    between atoms: C_24  and  C_27
REMARK    6  A    between atoms: C_27  and  O_28
REMARK                            x       y       z     vdW  Elec       q    Type
REMARK                         _______ _______ _______ _____ _____    ______ ____
ROOT
ATOM      1  C   UNL     1     -10.327  55.242  50.839  0.00  0.00    +0.000 A 
ATOM      2  C   UNL     1      -9.930  55.095  49.414  0.00  0.00    +0.000 A 
ATOM      3  C   UNL     1     -11.525  55.737  51.181  0.00  0.00    +0.000 A 
ATOM      4  O   UNL     1      -8.876  54.474  49.167  0.00  0.00    +0.000 OA
ATOM      5  N   UNL     1     -10.751  55.618  48.433  0.00  0.00    +0.000 N 
ATOM      6  C   UNL     1     -12.447  56.177  50.126  0.00  0.00    +0.000 A 
ATOM      7  C   UNL     1     -12.056  56.114  48.775  0.00  0.00    +0.000 A 
ATOM      8  C   UNL     1     -13.731  56.635  50.464  0.00  0.00    +0.000 A 
ATOM      9  C   UNL     1     -12.987  56.496  47.799  0.00  0.00    +0.000 A 
ATOM     10  C   UNL     1     -14.651  56.966  49.476  0.00  0.00    +0.000 A 
ATOM     11  C   UNL     1     -14.282  56.886  48.143  0.00  0.00    +0.000 A 
ENDROOT
BRANCH   1  17
ATOM     12  S   UNL     1      -7.113  54.742  52.984  0.00  0.00    +0.000 S 
ATOM     13  O   UNL     1      -7.023  55.714  54.067  0.00  0.00    +0.000 OA
ATOM     14  O   UNL     1      -5.938  54.375  52.217  0.00  0.00    +0.000 OA
ATOM     15  N   UNL     1      -8.230  55.272  51.949  0.00  0.00    +0.000 N 
ATOM     16  C   UNL     1      -7.713  53.265  53.718  0.00  0.00    +0.000 A 
ATOM     17  C   UNL     1      -9.401  54.706  51.887  0.00  0.00    +0.000 C 
ATOM     18  C   UNL     1      -9.022  52.882  53.446  0.00  0.00    +0.000 A 
ATOM     19  C   UNL     1      -6.878  52.521  54.544  0.00  0.00    +0.000 A 
ATOM     20  N   UNL     1      -9.849  53.672  52.667  0.00  0.00    +0.000 N 
ATOM     21  C   UNL     1      -9.502  51.729  54.061  0.00  0.00    +0.000 A 
ATOM     22  C   UNL     1      -7.371  51.367  55.137  0.00  0.00    +0.000 A 
ATOM     23  C   UNL     1      -8.687  50.969  54.895  0.00  0.00    +0.000 A 
ATOM     24  H   UNL     1      -8.024  56.033  51.359  0.00  0.00    +0.000 HD
ATOM     25  H   UNL     1     -10.815  53.480  52.674  0.00  0.00    +0.000 HD
ENDBRANCH   1  17
BRANCH   3  26
ATOM     26  O   UNL     1     -12.012  55.811  52.476  0.00  0.00    +0.000 OA
ATOM     27  H   UNL     1     -11.506  56.232  53.144  0.00  0.00    +0.000 HD
ENDBRANCH   3  26
BRANCH   5  28
ATOM     28  C   UNL     1     -10.342  55.525  47.021  0.00  0.00    +0.000 C 
BRANCH  28  29
ATOM     29  C   UNL     1     -10.759  54.251  46.279  0.00  0.00    +0.000 C 
BRANCH  29  30
ATOM     30  C   UNL     1      -9.609  53.374  45.821  0.00  0.00    +0.000 C 
BRANCH  30  31
ATOM     31  O   UNL     1      -9.149  52.588  46.918  0.00  0.00    +0.000 OA
ATOM     32  H   UNL     1      -8.230  52.822  47.121  0.00  0.00    +0.000 HD
ENDBRANCH  30  31
ENDBRANCH  29  30
ENDBRANCH  28  29
ENDBRANCH   5  28
TORSDOF 6
ENDMDL
MODEL 8
REMARK VINA RESULT:      -7.0      3.039      7.021
REMARK  Name = 338451
REMARK  6 active torsions:
REMARK  status: ('A' for Active; 'I' for Inactive)
REMARK    1  A    between atoms: C_6  and  C_10
REMARK    2  A    between atoms: C_14  and  O_18
REMARK    3  A    between atoms: N_17  and  C_21
REMARK    4  A    between atoms: C_21  and  C_24
REMARK    5  A    between atoms: C_24  and  C_27
REMARK    6  A    between atoms: C_27  and  O_28
REMARK                            x       y       z     vdW  Elec       q    Type
REMARK                         _______ _______ _______ _____ _____    ______ ____
ROOT
ATOM      1  C   UNL     1     -10.433  54.923  50.485  0.00  0.00    +0.000 A 
ATOM      2  C   UNL     1     -10.137  54.861  49.029  0.00  0.00    +0.000 A 
ATOM      3  C   UNL     1     -11.564  55.480  50.941  0.00  0.00    +0.000 A 
ATOM      4  O   UNL     1      -9.154  54.183  48.667  0.00  0.00    +0.000 OA
ATOM      5  N   UNL     1     -10.969  55.524  48.147  0.00  0.00    +0.000 N 
ATOM      6  C   UNL     1     -12.509  56.073  49.987  0.00  0.00    +0.000 A 
ATOM      7  C   UNL     1     -12.206  56.090  48.612  0.00  0.00    +0.000 A 
ATOM      8  C   UNL     1     -13.728  56.601  50.443  0.00  0.00    +0.000 A 
ATOM      9  C   UNL     1     -13.159  56.620  47.731  0.00  0.00    +0.000 A 
ATOM     10  C   UNL     1     -14.675  57.081  49.546  0.00  0.00    +0.000 A 
ATOM     11  C   UNL     1     -14.394  57.080  48.188  0.00  0.00    +0.000 A 
ENDROOT
BRANCH   1  17
ATOM     12  S   UNL     1      -8.956  52.212  52.860  0.00  0.00    +0.000 S 
ATOM     13  O   UNL     1      -8.241  51.174  52.127  0.00  0.00    +0.000 OA
ATOM     14  O   UNL     1      -9.813  51.872  53.980  0.00  0.00    +0.000 OA
ATOM     15  N   UNL     1      -9.843  53.035  51.794  0.00  0.00    +0.000 N 
ATOM     16  C   UNL     1      -7.721  53.290  53.486  0.00  0.00    +0.000 A 
ATOM     17  C   UNL     1      -9.494  54.234  51.425  0.00  0.00    +0.000 C 
ATOM     18  C   UNL     1      -7.592  54.547  52.904  0.00  0.00    +0.000 A 
ATOM     19  C   UNL     1      -6.910  52.871  54.534  0.00  0.00    +0.000 A 
ATOM     20  N   UNL     1      -8.374  54.917  51.824  0.00  0.00    +0.000 N 
ATOM     21  C   UNL     1      -6.586  55.383  53.381  0.00  0.00    +0.000 A 
ATOM     22  C   UNL     1      -5.921  53.725  55.004  0.00  0.00    +0.000 A 
ATOM     23  C   UNL     1      -5.758  54.985  54.426  0.00  0.00    +0.000 A 
ATOM     24  H   UNL     1     -10.655  52.626  51.419  0.00  0.00    +0.000 HD
ATOM     25  H   UNL     1      -8.111  55.716  51.312  0.00  0.00    +0.000 HD
ENDBRANCH   1  17
BRANCH   3  26
ATOM     26  O   UNL     1     -11.965  55.486  52.268  0.00  0.00    +0.000 OA
ATOM     27  H   UNL     1     -11.337  55.640  52.947  0.00  0.00    +0.000 HD
ENDBRANCH   3  26
BRANCH   5  28
ATOM     28  C   UNL     1     -10.655  55.513  46.708  0.00  0.00    +0.000 C 
BRANCH  28  29
ATOM     29  C   UNL     1     -11.200  54.328  45.906  0.00  0.00    +0.000 C 
BRANCH  29  30
ATOM     30  C   UNL     1     -10.140  53.431  45.293  0.00  0.00    +0.000 C 
BRANCH  30  31
ATOM     31  O   UNL     1      -8.849  53.888  45.688  0.00  0.00    +0.000 OA
ATOM     32  H   UNL     1      -8.177  53.505  45.102  0.00  0.00    +0.000 HD
ENDBRANCH  30  31
ENDBRANCH  29  30
ENDBRANCH  28  29
ENDBRANCH   5  28
TORSDOF 6
ENDMDL
MODEL 9
REMARK VINA RESULT:      -7.0      3.656      5.454
REMARK  Name = 338451
REMARK  6 active torsions:
REMARK  status: ('A' for Active; 'I' for Inactive)
REMARK    1  A    between atoms: C_6  and  C_10
REMARK    2  A    between atoms: C_14  and  O_18
REMARK    3  A    between atoms: N_17  and  C_21
REMARK    4  A    between atoms: C_21  and  C_24
REMARK    5  A    between atoms: C_24  and  C_27
REMARK    6  A    between atoms: C_27  and  O_28
REMARK                            x       y       z     vdW  Elec       q    Type
REMARK                         _______ _______ _______ _____ _____    ______ ____
ROOT
ATOM      1  C   UNL     1     -11.963  54.738  48.712  0.00  0.00    +0.000 A 
ATOM      2  C   UNL     1     -11.393  53.619  49.508  0.00  0.00    +0.000 A 
ATOM      3  C   UNL     1     -11.798  54.801  47.383  0.00  0.00    +0.000 A 
ATOM      4  O   UNL     1     -11.726  53.534  50.707  0.00  0.00    +0.000 OA
ATOM      5  N   UNL     1     -10.553  52.715  48.885  0.00  0.00    +0.000 N 
ATOM      6  C   UNL     1     -11.007  53.765  46.707  0.00  0.00    +0.000 A 
ATOM      7  C   UNL     1     -10.398  52.742  47.457  0.00  0.00    +0.000 A 
ATOM      8  C   UNL     1     -10.881  53.781  45.308  0.00  0.00    +0.000 A 
ATOM      9  C   UNL     1      -9.695  51.744  46.766  0.00  0.00    +0.000 A 
ATOM     10  C   UNL     1     -10.216  52.757  44.643  0.00  0.00    +0.000 A 
ATOM     11  C   UNL     1      -9.633  51.733  45.372  0.00  0.00    +0.000 A 
ENDROOT
BRANCH   1  17
ATOM     12  S   UNL     1     -14.909  56.198  50.800  0.00  0.00    +0.000 S 
ATOM     13  O   UNL     1     -14.665  56.098  52.234  0.00  0.00    +0.000 OA
ATOM     14  O   UNL     1     -16.223  55.919  50.251  0.00  0.00    +0.000 OA
ATOM     15  N   UNL     1     -13.851  55.232  50.060  0.00  0.00    +0.000 N 
ATOM     16  C   UNL     1     -14.528  57.855  50.366  0.00  0.00    +0.000 A 
ATOM     17  C   UNL     1     -12.835  55.731  49.416  0.00  0.00    +0.000 C 
ATOM     18  C   UNL     1     -13.367  58.090  49.637  0.00  0.00    +0.000 A 
ATOM     19  C   UNL     1     -15.381  58.880  50.756  0.00  0.00    +0.000 A 
ATOM     20  N   UNL     1     -12.506  57.057  49.313  0.00  0.00    +0.000 N 
ATOM     21  C   UNL     1     -13.052  59.411  49.328  0.00  0.00    +0.000 A 
ATOM     22  C   UNL     1     -15.056  60.189  50.426  0.00  0.00    +0.000 A 
ATOM     23  C   UNL     1     -13.888  60.456  49.710  0.00  0.00    +0.000 A 
ATOM     24  H   UNL     1     -13.975  54.256  50.096  0.00  0.00    +0.000 HD
ATOM     25  H   UNL     1     -11.605  57.288  48.989  0.00  0.00    +0.000 HD
ENDBRANCH   1  17
BRANCH   3  26
ATOM     26  O   UNL     1     -12.381  55.749  46.556  0.00  0.00    +0.000 OA
ATOM     27  H   UNL     1     -12.659  55.510  45.692  0.00  0.00    +0.000 HD
ENDBRANCH   3  26
BRANCH   5  28
ATOM     28  C   UNL     1      -9.940  51.634  49.676  0.00  0.00    +0.000 C 
BRANCH  28  29
ATOM     29  C   UNL     1      -8.626  51.975  50.386  0.00  0.00    +0.000 C 
BRANCH  29  30
ATOM     30  C   UNL     1      -8.727  52.091  51.895  0.00  0.00    +0.000 C 
BRANCH  30  31
ATOM     31  O   UNL     1      -9.108  53.419  52.242  0.00  0.00    +0.000 OA
ATOM     32  H   UNL     1      -9.996  53.603  51.896  0.00  0.00    +0.000 HD
ENDBRANCH  30  31
ENDBRANCH  29  30
ENDBRANCH  28  29
ENDBRANCH   5  28
TORSDOF 6
ENDMDL
