MODEL 1
REMARK VINA RESULT:      -8.2      0.000      0.000
REMARK  Name = 338189
REMARK  5 active torsions:
REMARK  status: ('A' for Active; 'I' for Inactive)
REMARK    1  A    between atoms: C_6  and  C_10
REMARK    2  A    between atoms: C_14  and  O_18
REMARK    3  A    between atoms: N_17  and  C_21
REMARK    4  A    between atoms: C_21  and  C_24
REMARK    5  A    between atoms: C_24  and  C_27
REMARK                            x       y       z     vdW  Elec       q    Type
REMARK                         _______ _______ _______ _____ _____    ______ ____
ROOT
ATOM      1  C   UNL     1     -10.136  54.328  52.341  0.00  0.00    +0.000 A 
ATOM      2  C   UNL     1      -8.739  54.847  52.267  0.00  0.00    +0.000 A 
ATOM      3  C   UNL     1     -10.407  53.233  53.073  0.00  0.00    +0.000 A 
ATOM      4  O   UNL     1      -8.543  55.917  51.680  0.00  0.00    +0.000 OA
ATOM      5  N   UNL     1      -7.718  54.118  52.865  0.00  0.00    +0.000 N 
ATOM      6  C   UNL     1      -9.336  52.540  53.803  0.00  0.00    +0.000 A 
ATOM      7  C   UNL     1      -8.001  52.970  53.669  0.00  0.00    +0.000 A 
ATOM      8  C   UNL     1      -9.638  51.454  54.645  0.00  0.00    +0.000 A 
ATOM      9  C   UNL     1      -7.001  52.279  54.373  0.00  0.00    +0.000 A 
ATOM     10  C   UNL     1      -8.637  50.805  55.362  0.00  0.00    +0.000 A 
ATOM     11  C   UNL     1      -7.320  51.217  55.224  0.00  0.00    +0.000 A 
ENDROOT
BRANCH   1  17
ATOM     12  S   UNL     1     -12.318  55.920  49.484  0.00  0.00    +0.000 S 
ATOM     13  O   UNL     1     -13.211  54.962  48.864  0.00  0.00    +0.000 OA
ATOM     14  O   UNL     1     -11.606  56.888  48.672  0.00  0.00    +0.000 OA
ATOM     15  N   UNL     1     -11.223  55.088  50.342  0.00  0.00    +0.000 N 
ATOM     16  C   UNL     1     -13.302  56.854  50.599  0.00  0.00    +0.000 A 
ATOM     17  C   UNL     1     -11.243  55.096  51.644  0.00  0.00    +0.000 C 
ATOM     18  C   UNL     1     -13.104  56.658  51.955  0.00  0.00    +0.000 A 
ATOM     19  C   UNL     1     -14.242  57.764  50.109  0.00  0.00    +0.000 A 
ATOM     20  N   UNL     1     -12.170  55.742  52.430  0.00  0.00    +0.000 N 
ATOM     21  C   UNL     1     -13.929  57.348  52.849  0.00  0.00    +0.000 A 
ATOM     22  C   UNL     1     -15.030  58.474  51.011  0.00  0.00    +0.000 A 
ATOM     23  C   UNL     1     -14.880  58.257  52.381  0.00  0.00    +0.000 A 
ATOM     24  H   UNL     1     -10.531  54.570  49.872  0.00  0.00    +0.000 HD
ATOM     25  H   UNL     1     -12.174  55.541  53.394  0.00  0.00    +0.000 HD
ENDBRANCH   1  17
BRANCH   3  26
ATOM     26  O   UNL     1     -11.672  52.692  53.230  0.00  0.00    +0.000 OA
ATOM     27  H   UNL     1     -12.032  52.142  52.562  0.00  0.00    +0.000 HD
ENDBRANCH   3  26
BRANCH   5  28
ATOM     28  C   UNL     1      -6.352  54.627  52.703  0.00  0.00    +0.000 C 
BRANCH  28  29
ATOM     29  C   UNL     1      -5.851  55.462  53.888  0.00  0.00    +0.000 C 
ATOM     30  C   UNL     1      -4.418  55.154  54.302  0.00  0.00    +0.000 C 
ENDBRANCH  28  29
ENDBRANCH   5  28
TORSDOF 4
ENDMDL
MODEL 2
REMARK VINA RESULT:      -7.9      3.636      5.205
REMARK  Name = 338189
REMARK  5 active torsions:
REMARK  status: ('A' for Active; 'I' for Inactive)
REMARK    1  A    between atoms: C_6  and  C_10
REMARK    2  A    between atoms: C_14  and  O_18
REMARK    3  A    between atoms: N_17  and  C_21
REMARK    4  A    between atoms: C_21  and  C_24
REMARK    5  A    between atoms: C_24  and  C_27
REMARK                            x       y       z     vdW  Elec       q    Type
REMARK                         _______ _______ _______ _____ _____    ______ ____
ROOT
ATOM      1  C   UNL     1     -11.297  56.139  48.794  0.00  0.00    +0.000 A 
ATOM      2  C   UNL     1     -10.142  55.684  49.622  0.00  0.00    +0.000 A 
ATOM      3  C   UNL     1     -11.440  55.685  47.536  0.00  0.00    +0.000 A 
ATOM      4  O   UNL     1     -10.102  56.029  50.808  0.00  0.00    +0.000 OA
ATOM      5  N   UNL     1      -9.167  54.886  49.036  0.00  0.00    +0.000 N 
ATOM      6  C   UNL     1     -10.466  54.743  46.967  0.00  0.00    +0.000 A 
ATOM      7  C   UNL     1      -9.326  54.376  47.710  0.00  0.00    +0.000 A 
ATOM      8  C   UNL     1     -10.670  54.195  45.688  0.00  0.00    +0.000 A 
ATOM      9  C   UNL     1      -8.409  53.481  47.133  0.00  0.00    +0.000 A 
ATOM     10  C   UNL     1      -9.769  53.282  45.148  0.00  0.00    +0.000 A 
ATOM     11  C   UNL     1      -8.639  52.928  45.869  0.00  0.00    +0.000 A 
ENDROOT
BRANCH   1  17
ATOM     12  S   UNL     1     -13.556  59.289  49.447  0.00  0.00    +0.000 S 
ATOM     13  O   UNL     1     -14.696  59.353  48.555  0.00  0.00    +0.000 OA
ATOM     14  O   UNL     1     -12.809  60.491  49.766  0.00  0.00    +0.000 OA
ATOM     15  N   UNL     1     -12.516  58.203  48.840  0.00  0.00    +0.000 N 
ATOM     16  C   UNL     1     -14.166  58.678  50.975  0.00  0.00    +0.000 A 
ATOM     17  C   UNL     1     -12.334  57.052  49.418  0.00  0.00    +0.000 C 
ATOM     18  C   UNL     1     -13.802  57.395  51.349  0.00  0.00    +0.000 A 
ATOM     19  C   UNL     1     -14.983  59.481  51.775  0.00  0.00    +0.000 A 
ATOM     20  N   UNL     1     -12.994  56.602  50.540  0.00  0.00    +0.000 N 
ATOM     21  C   UNL     1     -14.336  56.876  52.533  0.00  0.00    +0.000 A 
ATOM     22  C   UNL     1     -15.477  58.965  52.970  0.00  0.00    +0.000 A 
ATOM     23  C   UNL     1     -15.162  57.658  53.342  0.00  0.00    +0.000 A 
ATOM     24  H   UNL     1     -12.013  58.419  48.022  0.00  0.00    +0.000 HD
ATOM     25  H   UNL     1     -12.887  55.655  50.786  0.00  0.00    +0.000 HD
ENDBRANCH   1  17
BRANCH   3  26
ATOM     26  O   UNL     1     -12.490  56.021  46.699  0.00  0.00    +0.000 OA
ATOM     27  H   UNL     1     -12.895  55.363  46.168  0.00  0.00    +0.000 HD
ENDBRANCH   3  26
BRANCH   5  28
ATOM     28  C   UNL     1      -8.012  54.525  49.867  0.00  0.00    +0.000 C 
BRANCH  28  29
ATOM     29  C   UNL     1      -6.890  55.570  49.866  0.00  0.00    +0.000 C 
ATOM     30  C   UNL     1      -5.571  55.062  49.296  0.00  0.00    +0.000 C 
ENDBRANCH  28  29
ENDBRANCH   5  28
TORSDOF 4
ENDMDL
MODEL 3
REMARK VINA RESULT:      -7.9      4.197      5.495
REMARK  Name = 338189
REMARK  5 active torsions:
REMARK  status: ('A' for Active; 'I' for Inactive)
REMARK    1  A    between atoms: C_6  and  C_10
REMARK    2  A    between atoms: C_14  and  O_18
REMARK    3  A    between atoms: N_17  and  C_21
REMARK    4  A    between atoms: C_21  and  C_24
REMARK    5  A    between atoms: C_24  and  C_27
REMARK                            x       y       z     vdW  Elec       q    Type
REMARK                         _______ _______ _______ _____ _____    ______ ____
ROOT
ATOM      1  C   UNL     1     -12.557  54.261  49.508  0.00  0.00    +0.000 A 
ATOM      2  C   UNL     1     -12.065  54.230  48.099  0.00  0.00    +0.000 A 
ATOM      3  C   UNL     1     -12.256  53.254  50.346  0.00  0.00    +0.000 A 
ATOM      4  O   UNL     1     -12.263  55.221  47.389  0.00  0.00    +0.000 OA
ATOM      5  N   UNL     1     -11.399  53.099  47.644  0.00  0.00    +0.000 N 
ATOM      6  C   UNL     1     -11.444  52.118  49.886  0.00  0.00    +0.000 A 
ATOM      7  C   UNL     1     -11.049  52.037  48.536  0.00  0.00    +0.000 A 
ATOM      8  C   UNL     1     -11.048  51.116  50.790  0.00  0.00    +0.000 A 
ATOM      9  C   UNL     1     -10.281  50.933  48.128  0.00  0.00    +0.000 A 
ATOM     10  C   UNL     1     -10.257  50.048  50.374  0.00  0.00    +0.000 A 
ATOM     11  C   UNL     1      -9.877  49.957  49.044  0.00  0.00    +0.000 A 
ENDROOT
BRANCH   1  17
ATOM     12  S   UNL     1     -15.364  56.451  51.175  0.00  0.00    +0.000 S 
ATOM     13  O   UNL     1     -15.228  56.530  52.616  0.00  0.00    +0.000 OA
ATOM     14  O   UNL     1     -16.673  56.286  50.572  0.00  0.00    +0.000 OA
ATOM     15  N   UNL     1     -14.421  55.238  50.658  0.00  0.00    +0.000 N 
ATOM     16  C   UNL     1     -14.725  57.958  50.542  0.00  0.00    +0.000 A 
ATOM     17  C   UNL     1     -13.330  55.474  49.989  0.00  0.00    +0.000 C 
ATOM     18  C   UNL     1     -13.524  57.912  49.854  0.00  0.00    +0.000 A 
ATOM     19  C   UNL     1     -15.428  59.151  50.730  0.00  0.00    +0.000 A 
ATOM     20  N   UNL     1     -12.830  56.718  49.680  0.00  0.00    +0.000 N 
ATOM     21  C   UNL     1     -12.975  59.117  49.403  0.00  0.00    +0.000 A 
ATOM     22  C   UNL     1     -14.889  60.338  50.241  0.00  0.00    +0.000 A 
ATOM     23  C   UNL     1     -13.657  60.321  49.588  0.00  0.00    +0.000 A 
ATOM     24  H   UNL     1     -14.679  54.308  50.852  0.00  0.00    +0.000 HD
ATOM     25  H   UNL     1     -11.918  56.768  49.312  0.00  0.00    +0.000 HD
ENDBRANCH   1  17
BRANCH   3  26
ATOM     26  O   UNL     1     -12.637  53.204  51.676  0.00  0.00    +0.000 OA
ATOM     27  H   UNL     1     -13.428  53.622  51.953  0.00  0.00    +0.000 HD
ENDBRANCH   3  26
BRANCH   5  28
ATOM     28  C   UNL     1     -10.999  53.081  46.233  0.00  0.00    +0.000 C 
BRANCH  28  29
ATOM     29  C   UNL     1     -12.048  52.472  45.294  0.00  0.00    +0.000 C 
ATOM     30  C   UNL     1     -11.592  51.191  44.605  0.00  0.00    +0.000 C 
ENDBRANCH  28  29
ENDBRANCH   5  28
TORSDOF 4
ENDMDL
MODEL 4
REMARK VINA RESULT:      -7.7      2.815      7.398
REMARK  Name = 338189
REMARK  5 active torsions:
REMARK  status: ('A' for Active; 'I' for Inactive)
REMARK    1  A    between atoms: C_6  and  C_10
REMARK    2  A    between atoms: C_14  and  O_18
REMARK    3  A    between atoms: N_17  and  C_21
REMARK    4  A    between atoms: C_21  and  C_24
REMARK    5  A    between atoms: C_24  and  C_27
REMARK                            x       y       z     vdW  Elec       q    Type
REMARK                         _______ _______ _______ _____ _____    ______ ____
ROOT
ATOM      1  C   UNL     1     -10.260  55.127  50.797  0.00  0.00    +0.000 A 
ATOM      2  C   UNL     1      -9.854  55.034  49.364  0.00  0.00    +0.000 A 
ATOM      3  C   UNL     1     -11.471  55.612  51.121  0.00  0.00    +0.000 A 
ATOM      4  O   UNL     1      -8.783  54.481  49.095  0.00  0.00    +0.000 OA
ATOM      5  N   UNL     1     -10.694  55.562  48.391  0.00  0.00    +0.000 N 
ATOM      6  C   UNL     1     -12.403  56.054  50.073  0.00  0.00    +0.000 A 
ATOM      7  C   UNL     1     -11.996  56.052  48.724  0.00  0.00    +0.000 A 
ATOM      8  C   UNL     1     -13.704  56.469  50.409  0.00  0.00    +0.000 A 
ATOM      9  C   UNL     1     -12.907  56.490  47.749  0.00  0.00    +0.000 A 
ATOM     10  C   UNL     1     -14.605  56.865  49.424  0.00  0.00    +0.000 A 
ATOM     11  C   UNL     1     -14.205  56.878  48.096  0.00  0.00    +0.000 A 
ENDROOT
BRANCH   1  17
ATOM     12  S   UNL     1      -7.059  54.694  53.038  0.00  0.00    +0.000 S 
ATOM     13  O   UNL     1      -6.986  55.674  54.102  0.00  0.00    +0.000 OA
ATOM     14  O   UNL     1      -5.867  54.331  52.295  0.00  0.00    +0.000 OA
ATOM     15  N   UNL     1      -8.172  55.203  51.975  0.00  0.00    +0.000 N 
ATOM     16  C   UNL     1      -7.637  53.211  53.779  0.00  0.00    +0.000 A 
ATOM     17  C   UNL     1      -9.319  54.598  51.862  0.00  0.00    +0.000 C 
ATOM     18  C   UNL     1      -8.921  52.794  53.470  0.00  0.00    +0.000 A 
ATOM     19  C   UNL     1      -6.808  52.489  54.640  0.00  0.00    +0.000 A 
ATOM     20  N   UNL     1      -9.740  53.526  52.616  0.00  0.00    +0.000 N 
ATOM     21  C   UNL     1      -9.414  51.649  54.107  0.00  0.00    +0.000 A 
ATOM     22  C   UNL     1      -7.297  51.330  55.237  0.00  0.00    +0.000 A 
ATOM     23  C   UNL     1      -8.605  50.918  54.978  0.00  0.00    +0.000 A 
ATOM     24  H   UNL     1      -7.978  55.982  51.406  0.00  0.00    +0.000 HD
ATOM     25  H   UNL     1     -10.686  53.260  52.548  0.00  0.00    +0.000 HD
ENDBRANCH   1  17
BRANCH   3  26
ATOM     26  O   UNL     1     -11.953  55.709  52.415  0.00  0.00    +0.000 OA
ATOM     27  H   UNL     1     -12.416  56.478  52.686  0.00  0.00    +0.000 HD
ENDBRANCH   3  26
BRANCH   5  28
ATOM     28  C   UNL     1     -10.221  55.516  47.003  0.00  0.00    +0.000 C 
BRANCH  28  29
ATOM     29  C   UNL     1     -10.416  54.157  46.321  0.00  0.00    +0.000 C 
ATOM     30  C   UNL     1     -11.612  54.103  45.378  0.00  0.00    +0.000 C 
ENDBRANCH  28  29
ENDBRANCH   5  28
TORSDOF 4
ENDMDL
MODEL 5
REMARK VINA RESULT:      -7.7      2.110      2.724
REMARK  Name = 338189
REMARK  5 active torsions:
REMARK  status: ('A' for Active; 'I' for Inactive)
REMARK    1  A    between atoms: C_6  and  C_10
REMARK    2  A    between atoms: C_14  and  O_18
REMARK    3  A    between atoms: N_17  and  C_21
REMARK    4  A    between atoms: C_21  and  C_24
REMARK    5  A    between atoms: C_24  and  C_27
REMARK                            x       y       z     vdW  Elec       q    Type
REMARK                         _______ _______ _______ _____ _____    ______ ____
ROOT
ATOM      1  C   UNL     1     -11.595  54.096  51.172  0.00  0.00    +0.000 A 
ATOM      2  C   UNL     1     -10.666  54.134  52.339  0.00  0.00    +0.000 A 
ATOM      3  C   UNL     1     -11.683  52.986  50.419  0.00  0.00    +0.000 A 
ATOM      4  O   UNL     1     -10.692  55.125  53.076  0.00  0.00    +0.000 OA
ATOM      5  N   UNL     1      -9.817  53.055  52.558  0.00  0.00    +0.000 N 
ATOM      6  C   UNL     1     -10.868  51.804  50.735  0.00  0.00    +0.000 A 
ATOM      7  C   UNL     1      -9.924  51.859  51.780  0.00  0.00    +0.000 A 
ATOM      8  C   UNL     1     -11.032  50.612  50.006  0.00  0.00    +0.000 A 
ATOM      9  C   UNL     1      -9.154  50.716  52.050  0.00  0.00    +0.000 A 
ATOM     10  C   UNL     1     -10.285  49.478  50.312  0.00  0.00    +0.000 A 
ATOM     11  C   UNL     1      -9.346  49.531  51.331  0.00  0.00    +0.000 A 
ENDROOT
BRANCH   1  17
ATOM     12  S   UNL     1     -13.346  57.070  49.288  0.00  0.00    +0.000 S 
ATOM     13  O   UNL     1     -14.456  56.633  48.465  0.00  0.00    +0.000 OA
ATOM     14  O   UNL     1     -12.425  58.078  48.799  0.00  0.00    +0.000 OA
ATOM     15  N   UNL     1     -12.482  55.757  49.687  0.00  0.00    +0.000 N 
ATOM     16  C   UNL     1     -14.055  57.731  50.752  0.00  0.00    +0.000 A 
ATOM     17  C   UNL     1     -12.484  55.295  50.903  0.00  0.00    +0.000 C 
ATOM     18  C   UNL     1     -13.896  57.016  51.927  0.00  0.00    +0.000 A 
ATOM     19  C   UNL     1     -14.745  58.945  50.709  0.00  0.00    +0.000 A 
ATOM     20  N   UNL     1     -13.214  55.803  51.954  0.00  0.00    +0.000 N 
ATOM     21  C   UNL     1     -14.514  57.501  53.084  0.00  0.00    +0.000 A 
ATOM     22  C   UNL     1     -15.322  59.437  51.877  0.00  0.00    +0.000 A 
ATOM     23  C   UNL     1     -15.215  58.708  53.061  0.00  0.00    +0.000 A 
ATOM     24  H   UNL     1     -11.946  55.303  48.997  0.00  0.00    +0.000 HD
ATOM     25  H   UNL     1     -13.256  55.272  52.782  0.00  0.00    +0.000 HD
ENDBRANCH   1  17
BRANCH   3  26
ATOM     26  O   UNL     1     -12.535  52.840  49.338  0.00  0.00    +0.000 OA
ATOM     27  H   UNL     1     -12.359  52.189  48.688  0.00  0.00    +0.000 HD
ENDBRANCH   3  26
BRANCH   5  28
ATOM     28  C   UNL     1      -8.869  53.167  53.671  0.00  0.00    +0.000 C 
BRANCH  28  29
ATOM     29  C   UNL     1      -7.562  53.883  53.309  0.00  0.00    +0.000 C 
ATOM     30  C   UNL     1      -7.311  55.156  54.110  0.00  0.00    +0.000 C 
ENDBRANCH  28  29
ENDBRANCH   5  28
TORSDOF 4
ENDMDL
MODEL 6
REMARK VINA RESULT:      -7.6      2.289      7.599
REMARK  Name = 338189
REMARK  5 active torsions:
REMARK  status: ('A' for Active; 'I' for Inactive)
REMARK    1  A    between atoms: C_6  and  C_10
REMARK    2  A    between atoms: C_14  and  O_18
REMARK    3  A    between atoms: N_17  and  C_21
REMARK    4  A    between atoms: C_21  and  C_24
REMARK    5  A    between atoms: C_24  and  C_27
REMARK                            x       y       z     vdW  Elec       q    Type
REMARK                         _______ _______ _______ _____ _____    ______ ____
ROOT
ATOM      1  C   UNL     1     -10.995  55.339  51.077  0.00  0.00    +0.000 A 
ATOM      2  C   UNL     1     -12.205  55.957  51.694  0.00  0.00    +0.000 A 
ATOM      3  C   UNL     1     -10.866  55.307  49.739  0.00  0.00    +0.000 A 
ATOM      4  O   UNL     1     -12.240  56.072  52.924  0.00  0.00    +0.000 OA
ATOM      5  N   UNL     1     -13.237  56.384  50.868  0.00  0.00    +0.000 N 
ATOM      6  C   UNL     1     -11.911  55.875  48.875  0.00  0.00    +0.000 A 
ATOM      7  C   UNL     1     -13.097  56.381  49.445  0.00  0.00    +0.000 A 
ATOM      8  C   UNL     1     -11.730  55.928  47.481  0.00  0.00    +0.000 A 
ATOM      9  C   UNL     1     -14.079  56.908  48.590  0.00  0.00    +0.000 A 
ATOM     10  C   UNL     1     -12.700  56.487  46.654  0.00  0.00    +0.000 A 
ATOM     11  C   UNL     1     -13.874  56.974  47.209  0.00  0.00    +0.000 A 
ENDROOT
BRANCH   1  17
ATOM     12  S   UNL     1      -7.491  54.989  52.826  0.00  0.00    +0.000 S 
ATOM     13  O   UNL     1      -7.306  55.944  53.899  0.00  0.00    +0.000 OA
ATOM     14  O   UNL     1      -6.405  54.698  51.910  0.00  0.00    +0.000 OA
ATOM     15  N   UNL     1      -8.765  55.476  51.948  0.00  0.00    +0.000 N 
ATOM     16  C   UNL     1      -7.898  53.464  53.594  0.00  0.00    +0.000 A 
ATOM     17  C   UNL     1      -9.891  54.825  51.980  0.00  0.00    +0.000 C 
ATOM     18  C   UNL     1      -9.195  52.999  53.458  0.00  0.00    +0.000 A 
ATOM     19  C   UNL     1      -6.927  52.757  54.305  0.00  0.00    +0.000 A 
ATOM     20  N   UNL     1     -10.157  53.717  52.753  0.00  0.00    +0.000 N 
ATOM     21  C   UNL     1      -9.546  51.818  54.121  0.00  0.00    +0.000 A 
ATOM     22  C   UNL     1      -7.279  51.563  54.929  0.00  0.00    +0.000 A 
ATOM     23  C   UNL     1      -8.592  51.101  54.845  0.00  0.00    +0.000 A 
ATOM     24  H   UNL     1      -8.684  56.277  51.382  0.00  0.00    +0.000 HD
ATOM     25  H   UNL     1     -11.091  53.412  52.811  0.00  0.00    +0.000 HD
ENDBRANCH   1  17
BRANCH   3  26
ATOM     26  O   UNL     1      -9.770  54.787  49.071  0.00  0.00    +0.000 OA
ATOM     27  H   UNL     1      -9.755  54.776  48.134  0.00  0.00    +0.000 HD
ENDBRANCH   3  26
BRANCH   5  28
ATOM     28  C   UNL     1     -14.439  56.916  51.521  0.00  0.00    +0.000 C 
BRANCH  28  29
ATOM     29  C   UNL     1     -14.318  58.382  51.954  0.00  0.00    +0.000 C 
ATOM     30  C   UNL     1     -15.041  59.360  51.036  0.00  0.00    +0.000 C 
ENDBRANCH  28  29
ENDBRANCH   5  28
TORSDOF 4
ENDMDL
MODEL 7
REMARK VINA RESULT:      -7.5      3.943      5.558
REMARK  Name = 338189
REMARK  5 active torsions:
REMARK  status: ('A' for Active; 'I' for Inactive)
REMARK    1  A    between atoms: C_6  and  C_10
REMARK    2  A    between atoms: C_14  and  O_18
REMARK    3  A    between atoms: N_17  and  C_21
REMARK    4  A    between atoms: C_21  and  C_24
REMARK    5  A    between atoms: C_24  and  C_27
REMARK                            x       y       z     vdW  Elec       q    Type
REMARK                         _______ _______ _______ _____ _____    ______ ____
ROOT
ATOM      1  C   UNL     1     -10.736  55.699  48.388  0.00  0.00    +0.000 A 
ATOM      2  C   UNL     1      -9.317  55.588  48.836  0.00  0.00    +0.000 A 
ATOM      3  C   UNL     1     -11.112  55.166  47.212  0.00  0.00    +0.000 A 
ATOM      4  O   UNL     1      -9.028  55.987  49.969  0.00  0.00    +0.000 OA
ATOM      5  N   UNL     1      -8.380  55.036  47.971  0.00  0.00    +0.000 N 
ATOM      6  C   UNL     1     -10.135  54.475  46.360  0.00  0.00    +0.000 A 
ATOM      7  C   UNL     1      -8.776  54.441  46.732  0.00  0.00    +0.000 A 
ATOM      8  C   UNL     1     -10.550  53.835  45.178  0.00  0.00    +0.000 A 
ATOM      9  C   UNL     1      -7.867  53.780  45.890  0.00  0.00    +0.000 A 
ATOM     10  C   UNL     1      -9.640  53.154  44.375  0.00  0.00    +0.000 A 
ATOM     11  C   UNL     1      -8.299  53.129  44.730  0.00  0.00    +0.000 A 
ENDROOT
BRANCH   1  17
ATOM     12  S   UNL     1     -13.291  56.192  51.334  0.00  0.00    +0.000 S 
ATOM     13  O   UNL     1     -12.639  56.464  52.599  0.00  0.00    +0.000 OA
ATOM     14  O   UNL     1     -14.432  55.299  51.277  0.00  0.00    +0.000 OA
ATOM     15  N   UNL     1     -12.167  55.629  50.311  0.00  0.00    +0.000 N 
ATOM     16  C   UNL     1     -13.859  57.742  50.736  0.00  0.00    +0.000 A 
ATOM     17  C   UNL     1     -11.748  56.349  49.311  0.00  0.00    +0.000 C 
ATOM     18  C   UNL     1     -13.219  58.282  49.633  0.00  0.00    +0.000 A 
ATOM     19  C   UNL     1     -14.929  58.386  51.362  0.00  0.00    +0.000 A 
ATOM     20  N   UNL     1     -12.149  57.634  49.022  0.00  0.00    +0.000 N 
ATOM     21  C   UNL     1     -13.621  59.546  49.189  0.00  0.00    +0.000 A 
ATOM     22  C   UNL     1     -15.345  59.626  50.886  0.00  0.00    +0.000 A 
ATOM     23  C   UNL     1     -14.682  60.210  49.807  0.00  0.00    +0.000 A 
ATOM     24  H   UNL     1     -11.795  54.728  50.449  0.00  0.00    +0.000 HD
ATOM     25  H   UNL     1     -11.644  58.129  48.337  0.00  0.00    +0.000 HD
ENDBRANCH   1  17
BRANCH   3  26
ATOM     26  O   UNL     1     -12.407  55.188  46.723  0.00  0.00    +0.000 OA
ATOM     27  H   UNL     1     -12.585  55.571  45.886  0.00  0.00    +0.000 HD
ENDBRANCH   3  26
BRANCH   5  28
ATOM     28  C   UNL     1      -6.984  55.015  48.422  0.00  0.00    +0.000 C 
BRANCH  28  29
ATOM     29  C   UNL     1      -6.635  53.821  49.320  0.00  0.00    +0.000 C 
ATOM     30  C   UNL     1      -5.854  54.197  50.573  0.00  0.00    +0.000 C 
ENDBRANCH  28  29
ENDBRANCH   5  28
TORSDOF 4
ENDMDL
MODEL 8
REMARK VINA RESULT:      -7.4      2.488      7.563
REMARK  Name = 338189
REMARK  5 active torsions:
REMARK  status: ('A' for Active; 'I' for Inactive)
REMARK    1  A    between atoms: C_6  and  C_10
REMARK    2  A    between atoms: C_14  and  O_18
REMARK    3  A    between atoms: N_17  and  C_21
REMARK    4  A    between atoms: C_21  and  C_24
REMARK    5  A    between atoms: C_24  and  C_27
REMARK                            x       y       z     vdW  Elec       q    Type
REMARK                         _______ _______ _______ _____ _____    ______ ____
ROOT
ATOM      1  C   UNL     1     -10.574  55.015  50.542  0.00  0.00    +0.000 A 
ATOM      2  C   UNL     1     -11.660  55.429  51.478  0.00  0.00    +0.000 A 
ATOM      3  C   UNL     1     -10.706  55.232  49.222  0.00  0.00    +0.000 A 
ATOM      4  O   UNL     1     -11.460  55.319  52.692  0.00  0.00    +0.000 OA
ATOM      5  N   UNL     1     -12.846  55.928  50.952  0.00  0.00    +0.000 N 
ATOM      6  C   UNL     1     -11.916  55.875  48.689  0.00  0.00    +0.000 A 
ATOM      7  C   UNL     1     -12.984  56.189  49.553  0.00  0.00    +0.000 A 
ATOM      8  C   UNL     1     -12.010  56.189  47.321  0.00  0.00    +0.000 A 
ATOM      9  C   UNL     1     -14.129  56.794  49.010  0.00  0.00    +0.000 A 
ATOM     10  C   UNL     1     -13.139  56.821  46.808  0.00  0.00    +0.000 A 
ATOM     11  C   UNL     1     -14.197  57.121  47.652  0.00  0.00    +0.000 A 
ENDROOT
BRANCH   1  17
ATOM     12  S   UNL     1      -7.547  52.571  51.107  0.00  0.00    +0.000 S 
ATOM     13  O   UNL     1      -6.486  52.763  50.139  0.00  0.00    +0.000 OA
ATOM     14  O   UNL     1      -7.939  51.233  51.506  0.00  0.00    +0.000 OA
ATOM     15  N   UNL     1      -8.866  53.331  50.550  0.00  0.00    +0.000 N 
ATOM     16  C   UNL     1      -7.020  53.378  52.575  0.00  0.00    +0.000 A 
ATOM     17  C   UNL     1      -9.300  54.421  51.113  0.00  0.00    +0.000 C 
ATOM     18  C   UNL     1      -7.677  54.539  52.944  0.00  0.00    +0.000 A 
ATOM     19  C   UNL     1      -5.977  52.842  53.333  0.00  0.00    +0.000 A 
ATOM     20  N   UNL     1      -8.710  55.068  52.176  0.00  0.00    +0.000 N 
ATOM     21  C   UNL     1      -7.221  55.224  54.075  0.00  0.00    +0.000 A 
ATOM     22  C   UNL     1      -5.558  53.513  54.479  0.00  0.00    +0.000 A 
ATOM     23  C   UNL     1      -6.174  54.710  54.842  0.00  0.00    +0.000 A 
ATOM     24  H   UNL     1      -9.346  52.963  49.774  0.00  0.00    +0.000 HD
ATOM     25  H   UNL     1      -9.041  55.966  52.407  0.00  0.00    +0.000 HD
ENDBRANCH   1  17
BRANCH   3  26
ATOM     26  O   UNL     1      -9.744  54.914  48.278  0.00  0.00    +0.000 OA
ATOM     27  H   UNL     1      -9.945  54.308  47.591  0.00  0.00    +0.000 HD
ENDBRANCH   3  26
BRANCH   5  28
ATOM     28  C   UNL     1     -13.914  56.252  51.904  0.00  0.00    +0.000 C 
BRANCH  28  29
ATOM     29  C   UNL     1     -13.875  57.696  52.420  0.00  0.00    +0.000 C 
ATOM     30  C   UNL     1     -15.118  58.109  53.199  0.00  0.00    +0.000 C 
ENDBRANCH  28  29
ENDBRANCH   5  28
TORSDOF 4
ENDMDL
MODEL 9
REMARK VINA RESULT:      -7.4      3.974      5.898
REMARK  Name = 338189
REMARK  5 active torsions:
REMARK  status: ('A' for Active; 'I' for Inactive)
REMARK    1  A    between atoms: C_6  and  C_10
REMARK    2  A    between atoms: C_14  and  O_18
REMARK    3  A    between atoms: N_17  and  C_21
REMARK    4  A    between atoms: C_21  and  C_24
REMARK    5  A    between atoms: C_24  and  C_27
REMARK                            x       y       z     vdW  Elec       q    Type
REMARK                         _______ _______ _______ _____ _____    ______ ____
ROOT
ATOM      1  C   UNL     1     -11.941  54.697  48.696  0.00  0.00    +0.000 A 
ATOM      2  C   UNL     1     -11.349  53.582  49.493  0.00  0.00    +0.000 A 
ATOM      3  C   UNL     1     -11.732  54.758  47.370  0.00  0.00    +0.000 A 
ATOM      4  O   UNL     1     -11.653  53.492  50.687  0.00  0.00    +0.000 OA
ATOM      5  N   UNL     1     -10.490  52.689  48.864  0.00  0.00    +0.000 N 
ATOM      6  C   UNL     1     -10.921  53.735  46.694  0.00  0.00    +0.000 A 
ATOM      7  C   UNL     1     -10.285  52.730  47.449  0.00  0.00    +0.000 A 
ATOM      8  C   UNL     1     -10.784  53.747  45.294  0.00  0.00    +0.000 A 
ATOM      9  C   UNL     1      -9.510  51.773  46.774  0.00  0.00    +0.000 A 
ATOM     10  C   UNL     1     -10.041  52.769  44.639  0.00  0.00    +0.000 A 
ATOM     11  C   UNL     1      -9.403  51.785  45.379  0.00  0.00    +0.000 A 
ENDROOT
BRANCH   1  17
ATOM     12  S   UNL     1     -14.877  56.190  50.842  0.00  0.00    +0.000 S 
ATOM     13  O   UNL     1     -14.626  56.107  52.267  0.00  0.00    +0.000 OA
ATOM     14  O   UNL     1     -16.196  55.900  50.314  0.00  0.00    +0.000 OA
ATOM     15  N   UNL     1     -13.817  55.215  50.097  0.00  0.00    +0.000 N 
ATOM     16  C   UNL     1     -14.525  57.847  50.381  0.00  0.00    +0.000 A 
ATOM     17  C   UNL     1     -12.837  55.702  49.394  0.00  0.00    +0.000 C 
ATOM     18  C   UNL     1     -13.397  58.077  49.612  0.00  0.00    +0.000 A 
ATOM     19  C   UNL     1     -15.375  58.881  50.781  0.00  0.00    +0.000 A 
ATOM     20  N   UNL     1     -12.554  57.039  49.227  0.00  0.00    +0.000 N 
ATOM     21  C   UNL     1     -13.073  59.401  49.296  0.00  0.00    +0.000 A 
ATOM     22  C   UNL     1     -15.062  60.190  50.426  0.00  0.00    +0.000 A 
ATOM     23  C   UNL     1     -13.904  60.450  49.693  0.00  0.00    +0.000 A 
ATOM     24  H   UNL     1     -13.917  54.240  50.178  0.00  0.00    +0.000 HD
ATOM     25  H   UNL     1     -11.695  57.278  48.807  0.00  0.00    +0.000 HD
ENDBRANCH   1  17
BRANCH   3  26
ATOM     26  O   UNL     1     -12.262  55.731  46.539  0.00  0.00    +0.000 OA
ATOM     27  H   UNL     1     -13.046  56.181  46.786  0.00  0.00    +0.000 HD
ENDBRANCH   3  26
BRANCH   5  28
ATOM     28  C   UNL     1      -9.872  51.655  49.702  0.00  0.00    +0.000 C 
BRANCH  28  29
ATOM     29  C   UNL     1     -10.736  50.402  49.886  0.00  0.00    +0.000 C 
ATOM     30  C   UNL     1     -10.494  49.671  51.202  0.00  0.00    +0.000 C 
ENDBRANCH  28  29
ENDBRANCH   5  28
TORSDOF 4
ENDMDL
