MODEL 1
REMARK VINA RESULT:      -8.6      0.000      0.000
REMARK  Name = 338168
REMARK  5 active torsions:
REMARK  status: ('A' for Active; 'I' for Inactive)
REMARK    1  A    between atoms: C_6  and  C_10
REMARK    2  A    between atoms: C_14  and  O_18
REMARK    3  A    between atoms: N_17  and  C_21
REMARK    4  A    between atoms: C_21  and  C_24
REMARK    5  A    between atoms: C_24  and  C_27
REMARK                            x       y       z     vdW  Elec       q    Type
REMARK                         _______ _______ _______ _____ _____    ______ ____
ROOT
ATOM      1  C   UNL     1      -9.993  54.553  52.369  0.00  0.00    +0.000 A 
ATOM      2  C   UNL     1      -8.599  55.062  52.261  0.00  0.00    +0.000 A 
ATOM      3  C   UNL     1     -10.246  53.420  53.046  0.00  0.00    +0.000 A 
ATOM      4  O   UNL     1      -8.397  56.001  51.490  0.00  0.00    +0.000 OA
ATOM      5  N   UNL     1      -7.607  54.484  53.054  0.00  0.00    +0.000 N 
ATOM      6  C   UNL     1      -9.165  52.709  53.737  0.00  0.00    +0.000 A 
ATOM      7  C   UNL     1      -7.864  53.252  53.758  0.00  0.00    +0.000 A 
ATOM      8  C   UNL     1      -9.443  51.508  54.417  0.00  0.00    +0.000 A 
ATOM      9  C   UNL     1      -6.871  52.557  54.472  0.00  0.00    +0.000 A 
ATOM     10  C   UNL     1      -8.448  50.863  55.131  0.00  0.00    +0.000 A 
ATOM     11  C   UNL     1      -7.165  51.378  55.168  0.00  0.00    +0.000 A 
ATOM     12  F   UNL     1      -8.732  49.739  55.799  0.00  0.00    +0.000 F 
ENDROOT
BRANCH   1  18
ATOM     13  S   UNL     1     -12.382  55.790  49.430  0.00  0.00    +0.000 S 
ATOM     14  O   UNL     1     -13.059  54.548  49.144  0.00  0.00    +0.000 OA
ATOM     15  O   UNL     1     -11.940  56.682  48.382  0.00  0.00    +0.000 OA
ATOM     16  N   UNL     1     -11.059  55.454  50.358  0.00  0.00    +0.000 N 
ATOM     17  C   UNL     1     -13.370  56.697  50.538  0.00  0.00    +0.000 A 
ATOM     18  C   UNL     1     -11.131  55.282  51.737  0.00  0.00    +0.000 C 
ATOM     19  C   UNL     1     -13.107  56.558  51.896  0.00  0.00    +0.000 A 
ATOM     20  C   UNL     1     -14.362  57.551  50.051  0.00  0.00    +0.000 A 
ATOM     21  N   UNL     1     -12.118  55.730  52.451  0.00  0.00    +0.000 N 
ATOM     22  C   UNL     1     -13.867  57.325  52.785  0.00  0.00    +0.000 A 
ATOM     23  C   UNL     1     -15.115  58.297  50.954  0.00  0.00    +0.000 A 
ATOM     24  C   UNL     1     -14.863  58.190  52.320  0.00  0.00    +0.000 A 
ATOM     25  H   UNL     1     -10.183  55.373  49.918  0.00  0.00    +0.000 HD
ATOM     26  H   UNL     1     -12.174  55.485  53.402  0.00  0.00    +0.000 HD
ENDBRANCH   1  18
BRANCH   3  27
ATOM     27  O   UNL     1     -11.500  52.846  53.181  0.00  0.00    +0.000 OA
ATOM     28  H   UNL     1     -12.264  53.390  53.217  0.00  0.00    +0.000 HD
ENDBRANCH   3  27
BRANCH   5  29
ATOM     29  C   UNL     1      -6.231  55.031  52.993  0.00  0.00    +0.000 C 
BRANCH  29  30
ATOM     30  C   UNL     1      -5.214  54.242  52.146  0.00  0.00    +0.000 C 
BRANCH  30  31
ATOM     31  C   UNL     1      -5.349  54.499  50.671  0.00  0.00    +0.000 C 
ATOM     32  C   UNL     1      -6.132  53.607  49.745  0.00  0.00    +0.000 C 
ATOM     33  C   UNL     1      -4.631  53.579  49.716  0.00  0.00    +0.000 C 
ENDBRANCH  30  31
ENDBRANCH  29  30
ENDBRANCH   5  29
TORSDOF 5
ENDMDL
MODEL 2
REMARK VINA RESULT:      -8.3      3.870      7.426
REMARK  Name = 338168
REMARK  5 active torsions:
REMARK  status: ('A' for Active; 'I' for Inactive)
REMARK    1  A    between atoms: C_6  and  C_10
REMARK    2  A    between atoms: C_14  and  O_18
REMARK    3  A    between atoms: N_17  and  C_21
REMARK    4  A    between atoms: C_21  and  C_24
REMARK    5  A    between atoms: C_24  and  C_27
REMARK                            x       y       z     vdW  Elec       q    Type
REMARK                         _______ _______ _______ _____ _____    ______ ____
ROOT
ATOM      1  C   UNL     1     -10.172  55.099  50.832  0.00  0.00    +0.000 A 
ATOM      2  C   UNL     1      -9.816  55.163  49.389  0.00  0.00    +0.000 A 
ATOM      3  C   UNL     1     -11.366  55.552  51.253  0.00  0.00    +0.000 A 
ATOM      4  O   UNL     1      -8.653  54.898  49.080  0.00  0.00    +0.000 OA
ATOM      5  N   UNL     1     -10.811  55.479  48.463  0.00  0.00    +0.000 N 
ATOM      6  C   UNL     1     -12.352  56.054  50.291  0.00  0.00    +0.000 A 
ATOM      7  C   UNL     1     -12.082  55.994  48.908  0.00  0.00    +0.000 A 
ATOM      8  C   UNL     1     -13.586  56.551  50.751  0.00  0.00    +0.000 A 
ATOM      9  C   UNL     1     -13.078  56.446  48.022  0.00  0.00    +0.000 A 
ATOM     10  C   UNL     1     -14.553  56.964  49.852  0.00  0.00    +0.000 A 
ATOM     11  C   UNL     1     -14.311  56.913  48.491  0.00  0.00    +0.000 A 
ATOM     12  F   UNL     1     -15.733  57.406  50.301  0.00  0.00    +0.000 F 
ENDROOT
BRANCH   1  18
ATOM     13  S   UNL     1      -6.872  54.891  53.054  0.00  0.00    +0.000 S 
ATOM     14  O   UNL     1      -7.137  55.979  53.965  0.00  0.00    +0.000 OA
ATOM     15  O   UNL     1      -5.559  54.663  52.492  0.00  0.00    +0.000 OA
ATOM     16  N   UNL     1      -7.918  55.014  51.785  0.00  0.00    +0.000 N 
ATOM     17  C   UNL     1      -7.405  53.418  53.811  0.00  0.00    +0.000 A 
ATOM     18  C   UNL     1      -9.224  54.533  51.836  0.00  0.00    +0.000 C 
ATOM     19  C   UNL     1      -8.693  52.980  53.527  0.00  0.00    +0.000 A 
ATOM     20  C   UNL     1      -6.537  52.705  54.642  0.00  0.00    +0.000 A 
ATOM     21  N   UNL     1      -9.610  53.639  52.692  0.00  0.00    +0.000 N 
ATOM     22  C   UNL     1      -9.105  51.769  54.094  0.00  0.00    +0.000 A 
ATOM     23  C   UNL     1      -6.971  51.509  55.206  0.00  0.00    +0.000 A 
ATOM     24  C   UNL     1      -8.253  51.036  54.926  0.00  0.00    +0.000 A 
ATOM     25  H   UNL     1      -7.607  55.446  50.957  0.00  0.00    +0.000 HD
ATOM     26  H   UNL     1     -10.566  53.416  52.757  0.00  0.00    +0.000 HD
ENDBRANCH   1  18
BRANCH   3  27
ATOM     27  O   UNL     1     -11.781  55.565  52.575  0.00  0.00    +0.000 OA
ATOM     28  H   UNL     1     -11.298  55.091  53.224  0.00  0.00    +0.000 HD
ENDBRANCH   3  27
BRANCH   5  29
ATOM     29  C   UNL     1     -10.472  55.483  47.020  0.00  0.00    +0.000 C 
BRANCH  29  30
ATOM     30  C   UNL     1     -10.299  54.107  46.350  0.00  0.00    +0.000 C 
BRANCH  30  31
ATOM     31  C   UNL     1     -11.262  53.874  45.219  0.00  0.00    +0.000 C 
ATOM     32  C   UNL     1     -12.037  52.596  45.043  0.00  0.00    +0.000 C 
ATOM     33  C   UNL     1     -10.876  52.896  44.139  0.00  0.00    +0.000 C 
ENDBRANCH  30  31
ENDBRANCH  29  30
ENDBRANCH   5  29
TORSDOF 5
ENDMDL
MODEL 3
REMARK VINA RESULT:      -8.3      3.822      5.398
REMARK  Name = 338168
REMARK  5 active torsions:
REMARK  status: ('A' for Active; 'I' for Inactive)
REMARK    1  A    between atoms: C_6  and  C_10
REMARK    2  A    between atoms: C_14  and  O_18
REMARK    3  A    between atoms: N_17  and  C_21
REMARK    4  A    between atoms: C_21  and  C_24
REMARK    5  A    between atoms: C_24  and  C_27
REMARK                            x       y       z     vdW  Elec       q    Type
REMARK                         _______ _______ _______ _____ _____    ______ ____
ROOT
ATOM      1  C   UNL     1     -11.447  55.849  48.974  0.00  0.00    +0.000 A 
ATOM      2  C   UNL     1     -10.339  55.204  49.728  0.00  0.00    +0.000 A 
ATOM      3  C   UNL     1     -11.629  55.571  47.672  0.00  0.00    +0.000 A 
ATOM      4  O   UNL     1     -10.108  55.619  50.864  0.00  0.00    +0.000 OA
ATOM      5  N   UNL     1      -9.646  54.148  49.133  0.00  0.00    +0.000 N 
ATOM      6  C   UNL     1     -10.780  54.585  46.997  0.00  0.00    +0.000 A 
ATOM      7  C   UNL     1      -9.814  53.865  47.730  0.00  0.00    +0.000 A 
ATOM      8  C   UNL     1     -10.965  54.327  45.625  0.00  0.00    +0.000 A 
ATOM      9  C   UNL     1      -9.054  52.897  47.047  0.00  0.00    +0.000 A 
ATOM     10  C   UNL     1     -10.218  53.350  44.990  0.00  0.00    +0.000 A 
ATOM     11  C   UNL     1      -9.266  52.630  45.690  0.00  0.00    +0.000 A 
ATOM     12  F   UNL     1     -10.426  53.093  43.693  0.00  0.00    +0.000 F 
ENDROOT
BRANCH   1  18
ATOM     13  S   UNL     1     -13.529  59.212  49.453  0.00  0.00    +0.000 S 
ATOM     14  O   UNL     1     -14.518  59.022  48.419  0.00  0.00    +0.000 OA
ATOM     15  O   UNL     1     -12.906  60.494  49.692  0.00  0.00    +0.000 OA
ATOM     16  N   UNL     1     -12.310  58.129  49.207  0.00  0.00    +0.000 N 
ATOM     17  C   UNL     1     -14.207  58.647  50.952  0.00  0.00    +0.000 A 
ATOM     18  C   UNL     1     -12.377  56.808  49.641  0.00  0.00    +0.000 C 
ATOM     19  C   UNL     1     -13.943  57.333  51.322  0.00  0.00    +0.000 A 
ATOM     20  C   UNL     1     -14.958  59.513  51.751  0.00  0.00    +0.000 A 
ATOM     21  N   UNL     1     -13.186  56.416  50.576  0.00  0.00    +0.000 N 
ATOM     22  C   UNL     1     -14.445  56.893  52.552  0.00  0.00    +0.000 A 
ATOM     23  C   UNL     1     -15.458  59.051  52.965  0.00  0.00    +0.000 A 
ATOM     24  C   UNL     1     -15.195  57.744  53.370  0.00  0.00    +0.000 A 
ATOM     25  H   UNL     1     -11.501  58.428  48.733  0.00  0.00    +0.000 HD
ATOM     26  H   UNL     1     -13.272  55.454  50.766  0.00  0.00    +0.000 HD
ENDBRANCH   1  18
BRANCH   3  27
ATOM     27  O   UNL     1     -12.611  56.139  46.875  0.00  0.00    +0.000 OA
ATOM     28  H   UNL     1     -12.455  56.962  46.453  0.00  0.00    +0.000 HD
ENDBRANCH   3  27
BRANCH   5  29
ATOM     29  C   UNL     1      -8.582  53.464  49.907  0.00  0.00    +0.000 C 
BRANCH  29  30
ATOM     30  C   UNL     1      -7.376  54.325  50.328  0.00  0.00    +0.000 C 
BRANCH  30  31
ATOM     31  C   UNL     1      -6.607  54.876  49.159  0.00  0.00    +0.000 C 
ATOM     32  C   UNL     1      -5.707  54.037  48.292  0.00  0.00    +0.000 C 
ATOM     33  C   UNL     1      -5.109  54.996  49.281  0.00  0.00    +0.000 C 
ENDBRANCH  30  31
ENDBRANCH  29  30
ENDBRANCH   5  29
TORSDOF 5
ENDMDL
MODEL 4
REMARK VINA RESULT:      -8.2      3.679      7.283
REMARK  Name = 338168
REMARK  5 active torsions:
REMARK  status: ('A' for Active; 'I' for Inactive)
REMARK    1  A    between atoms: C_6  and  C_10
REMARK    2  A    between atoms: C_14  and  O_18
REMARK    3  A    between atoms: N_17  and  C_21
REMARK    4  A    between atoms: C_21  and  C_24
REMARK    5  A    between atoms: C_24  and  C_27
REMARK                            x       y       z     vdW  Elec       q    Type
REMARK                         _______ _______ _______ _____ _____    ______ ____
ROOT
ATOM      1  C   UNL     1     -10.164  55.451  50.467  0.00  0.00    +0.000 A 
ATOM      2  C   UNL     1     -10.335  55.705  49.012  0.00  0.00    +0.000 A 
ATOM      3  C   UNL     1     -11.199  55.621  51.308  0.00  0.00    +0.000 A 
ATOM      4  O   UNL     1      -9.321  55.702  48.313  0.00  0.00    +0.000 OA
ATOM      5  N   UNL     1     -11.623  55.895  48.507  0.00  0.00    +0.000 N 
ATOM      6  C   UNL     1     -12.520  55.997  50.794  0.00  0.00    +0.000 A 
ATOM      7  C   UNL     1     -12.731  56.109  49.404  0.00  0.00    +0.000 A 
ATOM      8  C   UNL     1     -13.586  56.200  51.691  0.00  0.00    +0.000 A 
ATOM      9  C   UNL     1     -14.027  56.428  48.957  0.00  0.00    +0.000 A 
ATOM     10  C   UNL     1     -14.854  56.488  51.216  0.00  0.00    +0.000 A 
ATOM     11  C   UNL     1     -15.085  56.600  49.857  0.00  0.00    +0.000 A 
ATOM     12  F   UNL     1     -15.865  56.648  52.078  0.00  0.00    +0.000 F 
ENDROOT
BRANCH   1  18
ATOM     13  S   UNL     1      -6.562  53.748  50.457  0.00  0.00    +0.000 S 
ATOM     14  O   UNL     1      -5.853  54.711  49.649  0.00  0.00    +0.000 OA
ATOM     15  O   UNL     1      -6.367  52.324  50.302  0.00  0.00    +0.000 OA
ATOM     16  N   UNL     1      -8.180  54.028  50.292  0.00  0.00    +0.000 N 
ATOM     17  C   UNL     1      -6.301  54.156  52.128  0.00  0.00    +0.000 A 
ATOM     18  C   UNL     1      -8.854  55.001  51.023  0.00  0.00    +0.000 C 
ATOM     19  C   UNL     1      -7.248  54.964  52.747  0.00  0.00    +0.000 A 
ATOM     20  C   UNL     1      -5.190  53.649  52.806  0.00  0.00    +0.000 A 
ATOM     21  N   UNL     1      -8.392  55.495  52.130  0.00  0.00    +0.000 N 
ATOM     22  C   UNL     1      -7.065  55.251  54.105  0.00  0.00    +0.000 A 
ATOM     23  C   UNL     1      -5.022  53.956  54.153  0.00  0.00    +0.000 A 
ATOM     24  C   UNL     1      -5.963  54.751  54.805  0.00  0.00    +0.000 A 
ATOM     25  H   UNL     1      -8.690  53.483  49.651  0.00  0.00    +0.000 HD
ATOM     26  H   UNL     1      -8.853  56.258  52.546  0.00  0.00    +0.000 HD
ENDBRANCH   1  18
BRANCH   3  27
ATOM     27  O   UNL     1     -11.137  55.440  52.680  0.00  0.00    +0.000 OA
ATOM     28  H   UNL     1     -10.784  56.115  53.227  0.00  0.00    +0.000 HD
ENDBRANCH   3  27
BRANCH   5  29
ATOM     29  C   UNL     1     -11.800  56.087  47.048  0.00  0.00    +0.000 C 
BRANCH  29  30
ATOM     30  C   UNL     1     -12.088  54.822  46.218  0.00  0.00    +0.000 C 
BRANCH  30  31
ATOM     31  C   UNL     1     -10.857  54.241  45.579  0.00  0.00    +0.000 C 
ATOM     32  C   UNL     1     -10.897  53.125  44.569  0.00  0.00    +0.000 C 
ATOM     33  C   UNL     1     -10.437  52.847  45.971  0.00  0.00    +0.000 C 
ENDBRANCH  30  31
ENDBRANCH  29  30
ENDBRANCH   5  29
TORSDOF 5
ENDMDL
MODEL 5
REMARK VINA RESULT:      -8.2      4.016      5.810
REMARK  Name = 338168
REMARK  5 active torsions:
REMARK  status: ('A' for Active; 'I' for Inactive)
REMARK    1  A    between atoms: C_6  and  C_10
REMARK    2  A    between atoms: C_14  and  O_18
REMARK    3  A    between atoms: N_17  and  C_21
REMARK    4  A    between atoms: C_21  and  C_24
REMARK    5  A    between atoms: C_24  and  C_27
REMARK                            x       y       z     vdW  Elec       q    Type
REMARK                         _______ _______ _______ _____ _____    ______ ____
ROOT
ATOM      1  C   UNL     1     -11.506  55.852  48.906  0.00  0.00    +0.000 A 
ATOM      2  C   UNL     1     -10.368  55.216  49.622  0.00  0.00    +0.000 A 
ATOM      3  C   UNL     1     -11.736  55.563  47.614  0.00  0.00    +0.000 A 
ATOM      4  O   UNL     1     -10.097  55.640  50.746  0.00  0.00    +0.000 OA
ATOM      5  N   UNL     1      -9.694  54.158  49.010  0.00  0.00    +0.000 N 
ATOM      6  C   UNL     1     -10.908  54.575  46.914  0.00  0.00    +0.000 A 
ATOM      7  C   UNL     1      -9.913  53.864  47.616  0.00  0.00    +0.000 A 
ATOM      8  C   UNL     1     -11.143  54.306  45.553  0.00  0.00    +0.000 A 
ATOM      9  C   UNL     1      -9.175  52.894  46.913  0.00  0.00    +0.000 A 
ATOM     10  C   UNL     1     -10.417  53.327  44.897  0.00  0.00    +0.000 A 
ATOM     11  C   UNL     1      -9.437  52.616  45.566  0.00  0.00    +0.000 A 
ATOM     12  F   UNL     1     -10.671  53.060  43.611  0.00  0.00    +0.000 F 
ENDROOT
BRANCH   1  18
ATOM     13  S   UNL     1     -13.528  59.238  49.471  0.00  0.00    +0.000 S 
ATOM     14  O   UNL     1     -14.528  59.085  48.441  0.00  0.00    +0.000 OA
ATOM     15  O   UNL     1     -12.881  60.505  49.730  0.00  0.00    +0.000 OA
ATOM     16  N   UNL     1     -12.328  58.140  49.192  0.00  0.00    +0.000 N 
ATOM     17  C   UNL     1     -14.203  58.654  50.964  0.00  0.00    +0.000 A 
ATOM     18  C   UNL     1     -12.414  56.812  49.600  0.00  0.00    +0.000 C 
ATOM     19  C   UNL     1     -13.957  57.329  51.304  0.00  0.00    +0.000 A 
ATOM     20  C   UNL     1     -14.932  59.516  51.786  0.00  0.00    +0.000 A 
ATOM     21  N   UNL     1     -13.222  56.414  50.533  0.00  0.00    +0.000 N 
ATOM     22  C   UNL     1     -14.456  56.872  52.529  0.00  0.00    +0.000 A 
ATOM     23  C   UNL     1     -15.430  59.038  52.994  0.00  0.00    +0.000 A 
ATOM     24  C   UNL     1     -15.186  57.718  53.370  0.00  0.00    +0.000 A 
ATOM     25  H   UNL     1     -11.519  58.436  48.718  0.00  0.00    +0.000 HD
ATOM     26  H   UNL     1     -13.322  55.451  50.705  0.00  0.00    +0.000 HD
ENDBRANCH   1  18
BRANCH   3  27
ATOM     27  O   UNL     1     -12.748  56.122  46.849  0.00  0.00    +0.000 OA
ATOM     28  H   UNL     1     -12.814  57.053  46.766  0.00  0.00    +0.000 HD
ENDBRANCH   3  27
BRANCH   5  29
ATOM     29  C   UNL     1      -8.599  53.483  49.749  0.00  0.00    +0.000 C 
BRANCH  29  30
ATOM     30  C   UNL     1      -9.020  52.453  50.814  0.00  0.00    +0.000 C 
BRANCH  30  31
ATOM     31  C   UNL     1      -9.986  51.425  50.292  0.00  0.00    +0.000 C 
ATOM     32  C   UNL     1     -11.480  51.551  50.427  0.00  0.00    +0.000 C 
ATOM     33  C   UNL     1     -10.732  50.573  51.287  0.00  0.00    +0.000 C 
ENDBRANCH  30  31
ENDBRANCH  29  30
ENDBRANCH   5  29
TORSDOF 5
ENDMDL
MODEL 6
REMARK VINA RESULT:      -8.0      3.520      7.962
REMARK  Name = 338168
REMARK  5 active torsions:
REMARK  status: ('A' for Active; 'I' for Inactive)
REMARK    1  A    between atoms: C_6  and  C_10
REMARK    2  A    between atoms: C_14  and  O_18
REMARK    3  A    between atoms: N_17  and  C_21
REMARK    4  A    between atoms: C_21  and  C_24
REMARK    5  A    between atoms: C_24  and  C_27
REMARK                            x       y       z     vdW  Elec       q    Type
REMARK                         _______ _______ _______ _____ _____    ______ ____
ROOT
ATOM      1  C   UNL     1      -9.966  54.478  50.693  0.00  0.00    +0.000 A 
ATOM      2  C   UNL     1     -11.114  55.382  50.969  0.00  0.00    +0.000 A 
ATOM      3  C   UNL     1      -9.743  54.032  49.445  0.00  0.00    +0.000 A 
ATOM      4  O   UNL     1     -11.376  55.623  52.148  0.00  0.00    +0.000 OA
ATOM      5  N   UNL     1     -11.808  55.938  49.892  0.00  0.00    +0.000 N 
ATOM      6  C   UNL     1     -10.588  54.479  48.334  0.00  0.00    +0.000 A 
ATOM      7  C   UNL     1     -11.595  55.442  48.556  0.00  0.00    +0.000 A 
ATOM      8  C   UNL     1     -10.360  53.980  47.037  0.00  0.00    +0.000 A 
ATOM      9  C   UNL     1     -12.351  55.873  47.450  0.00  0.00    +0.000 A 
ATOM     10  C   UNL     1     -11.104  54.445  45.967  0.00  0.00    +0.000 A 
ATOM     11  C   UNL     1     -12.096  55.390  46.161  0.00  0.00    +0.000 A 
ATOM     12  F   UNL     1     -10.856  53.985  44.735  0.00  0.00    +0.000 F 
ENDROOT
BRANCH   1  18
ATOM     13  S   UNL     1      -6.761  54.626  53.055  0.00  0.00    +0.000 S 
ATOM     14  O   UNL     1      -7.108  55.784  53.844  0.00  0.00    +0.000 OA
ATOM     15  O   UNL     1      -5.417  54.403  52.570  0.00  0.00    +0.000 OA
ATOM     16  N   UNL     1      -7.755  54.582  51.739  0.00  0.00    +0.000 N 
ATOM     17  C   UNL     1      -7.268  53.210  53.929  0.00  0.00    +0.000 A 
ATOM     18  C   UNL     1      -9.041  54.052  51.784  0.00  0.00    +0.000 C 
ATOM     19  C   UNL     1      -8.524  52.692  53.638  0.00  0.00    +0.000 A 
ATOM     20  C   UNL     1      -6.410  52.618  54.859  0.00  0.00    +0.000 A 
ATOM     21  N   UNL     1      -9.428  53.227  52.707  0.00  0.00    +0.000 N 
ATOM     22  C   UNL     1      -8.912  51.523  54.303  0.00  0.00    +0.000 A 
ATOM     23  C   UNL     1      -6.821  51.463  55.518  0.00  0.00    +0.000 A 
ATOM     24  C   UNL     1      -8.069  50.911  55.235  0.00  0.00    +0.000 A 
ATOM     25  H   UNL     1      -7.425  54.946  50.886  0.00  0.00    +0.000 HD
ATOM     26  H   UNL     1     -10.377  52.971  52.755  0.00  0.00    +0.000 HD
ENDBRANCH   1  18
BRANCH   3  27
ATOM     27  O   UNL     1      -8.722  53.165  49.089  0.00  0.00    +0.000 OA
ATOM     28  H   UNL     1      -8.394  53.162  48.210  0.00  0.00    +0.000 HD
ENDBRANCH   3  27
BRANCH   5  29
ATOM     29  C   UNL     1     -12.913  56.887  50.165  0.00  0.00    +0.000 C 
BRANCH  29  30
ATOM     30  C   UNL     1     -14.283  56.269  50.503  0.00  0.00    +0.000 C 
BRANCH  30  31
ATOM     31  C   UNL     1     -15.225  57.242  51.157  0.00  0.00    +0.000 C 
ATOM     32  C   UNL     1     -14.786  58.256  52.181  0.00  0.00    +0.000 C 
ATOM     33  C   UNL     1     -15.559  57.044  52.614  0.00  0.00    +0.000 C 
ENDBRANCH  30  31
ENDBRANCH  29  30
ENDBRANCH   5  29
TORSDOF 5
ENDMDL
MODEL 7
REMARK VINA RESULT:      -8.0      3.268      4.326
REMARK  Name = 338168
REMARK  5 active torsions:
REMARK  status: ('A' for Active; 'I' for Inactive)
REMARK    1  A    between atoms: C_6  and  C_10
REMARK    2  A    between atoms: C_14  and  O_18
REMARK    3  A    between atoms: N_17  and  C_21
REMARK    4  A    between atoms: C_21  and  C_24
REMARK    5  A    between atoms: C_24  and  C_27
REMARK                            x       y       z     vdW  Elec       q    Type
REMARK                         _______ _______ _______ _____ _____    ______ ____
ROOT
ATOM      1  C   UNL     1     -12.113  54.357  50.293  0.00  0.00    +0.000 A 
ATOM      2  C   UNL     1     -11.911  53.858  48.906  0.00  0.00    +0.000 A 
ATOM      3  C   UNL     1     -11.614  53.672  51.336  0.00  0.00    +0.000 A 
ATOM      4  O   UNL     1     -12.530  54.424  48.004  0.00  0.00    +0.000 OA
ATOM      5  N   UNL     1     -11.013  52.811  48.691  0.00  0.00    +0.000 N 
ATOM      6  C   UNL     1     -10.814  52.462  51.116  0.00  0.00    +0.000 A 
ATOM      7  C   UNL     1     -10.499  52.053  49.804  0.00  0.00    +0.000 A 
ATOM      8  C   UNL     1     -10.323  51.740  52.220  0.00  0.00    +0.000 A 
ATOM      9  C   UNL     1      -9.691  50.912  49.645  0.00  0.00    +0.000 A 
ATOM     10  C   UNL     1      -9.510  50.637  52.029  0.00  0.00    +0.000 A 
ATOM     11  C   UNL     1      -9.187  50.218  50.751  0.00  0.00    +0.000 A 
ATOM     12  F   UNL     1      -9.025  49.977  53.087  0.00  0.00    +0.000 F 
ENDROOT
BRANCH   1  18
ATOM     13  S   UNL     1     -14.419  56.904  52.309  0.00  0.00    +0.000 S 
ATOM     14  O   UNL     1     -13.499  57.269  53.359  0.00  0.00    +0.000 OA
ATOM     15  O   UNL     1     -15.820  56.658  52.569  0.00  0.00    +0.000 OA
ATOM     16  N   UNL     1     -13.833  55.560  51.553  0.00  0.00    +0.000 N 
ATOM     17  C   UNL     1     -14.298  58.099  51.051  0.00  0.00    +0.000 A 
ATOM     18  C   UNL     1     -12.863  55.620  50.556  0.00  0.00    +0.000 C 
ATOM     19  C   UNL     1     -13.426  57.840  50.001  0.00  0.00    +0.000 A 
ATOM     20  C   UNL     1     -15.086  59.252  51.104  0.00  0.00    +0.000 A 
ATOM     21  N   UNL     1     -12.618  56.699  49.879  0.00  0.00    +0.000 N 
ATOM     22  C   UNL     1     -13.366  58.777  48.963  0.00  0.00    +0.000 A 
ATOM     23  C   UNL     1     -15.002  60.176  50.067  0.00  0.00    +0.000 A 
ATOM     24  C   UNL     1     -14.147  59.936  48.992  0.00  0.00    +0.000 A 
ATOM     25  H   UNL     1     -14.183  54.679  51.817  0.00  0.00    +0.000 HD
ATOM     26  H   UNL     1     -11.849  56.717  49.265  0.00  0.00    +0.000 HD
ENDBRANCH   1  18
BRANCH   3  27
ATOM     27  O   UNL     1     -11.771  54.033  52.664  0.00  0.00    +0.000 OA
ATOM     28  H   UNL     1     -11.620  54.920  52.930  0.00  0.00    +0.000 HD
ENDBRANCH   3  27
BRANCH   5  29
ATOM     29  C   UNL     1     -10.765  52.354  47.302  0.00  0.00    +0.000 C 
BRANCH  29  30
ATOM     30  C   UNL     1      -9.415  52.754  46.677  0.00  0.00    +0.000 C 
BRANCH  30  31
ATOM     31  C   UNL     1      -9.423  54.138  46.091  0.00  0.00    +0.000 C 
ATOM     32  C   UNL     1      -8.176  54.855  45.647  0.00  0.00    +0.000 C 
ATOM     33  C   UNL     1      -8.862  55.268  46.917  0.00  0.00    +0.000 C 
ENDBRANCH  30  31
ENDBRANCH  29  30
ENDBRANCH   5  29
TORSDOF 5
ENDMDL
MODEL 8
REMARK VINA RESULT:      -8.0      4.907      7.792
REMARK  Name = 338168
REMARK  5 active torsions:
REMARK  status: ('A' for Active; 'I' for Inactive)
REMARK    1  A    between atoms: C_6  and  C_10
REMARK    2  A    between atoms: C_14  and  O_18
REMARK    3  A    between atoms: N_17  and  C_21
REMARK    4  A    between atoms: C_21  and  C_24
REMARK    5  A    between atoms: C_24  and  C_27
REMARK                            x       y       z     vdW  Elec       q    Type
REMARK                         _______ _______ _______ _____ _____    ______ ____
ROOT
ATOM      1  C   UNL     1     -11.379  54.291  47.930  0.00  0.00    +0.000 A 
ATOM      2  C   UNL     1     -11.499  53.465  49.162  0.00  0.00    +0.000 A 
ATOM      3  C   UNL     1     -12.015  55.472  47.845  0.00  0.00    +0.000 A 
ATOM      4  O   UNL     1     -11.043  52.322  49.125  0.00  0.00    +0.000 OA
ATOM      5  N   UNL     1     -12.081  54.031  50.298  0.00  0.00    +0.000 N 
ATOM      6  C   UNL     1     -12.781  55.988  48.985  0.00  0.00    +0.000 A 
ATOM      7  C   UNL     1     -12.791  55.282  50.206  0.00  0.00    +0.000 A 
ATOM      8  C   UNL     1     -13.465  57.212  48.869  0.00  0.00    +0.000 A 
ATOM      9  C   UNL     1     -13.502  55.840  51.284  0.00  0.00    +0.000 A 
ATOM     10  C   UNL     1     -14.134  57.745  49.957  0.00  0.00    +0.000 A 
ATOM     11  C   UNL     1     -14.156  57.072  51.165  0.00  0.00    +0.000 A 
ATOM     12  F   UNL     1     -14.754  58.926  49.843  0.00  0.00    +0.000 F 
ENDROOT
BRANCH   1  18
ATOM     13  S   UNL     1      -8.157  54.000  45.606  0.00  0.00    +0.000 S 
ATOM     14  O   UNL     1      -7.314  53.214  46.475  0.00  0.00    +0.000 OA
ATOM     15  O   UNL     1      -7.641  55.109  44.836  0.00  0.00    +0.000 OA
ATOM     16  N   UNL     1      -9.416  54.584  46.498  0.00  0.00    +0.000 N 
ATOM     17  C   UNL     1      -8.968  52.910  44.519  0.00  0.00    +0.000 A 
ATOM     18  C   UNL     1     -10.556  53.834  46.773  0.00  0.00    +0.000 C 
ATOM     19  C   UNL     1     -10.232  52.461  44.884  0.00  0.00    +0.000 A 
ATOM     20  C   UNL     1      -8.362  52.545  43.314  0.00  0.00    +0.000 A 
ATOM     21  N   UNL     1     -10.903  52.801  46.070  0.00  0.00    +0.000 N 
ATOM     22  C   UNL     1     -10.907  51.626  43.987  0.00  0.00    +0.000 A 
ATOM     23  C   UNL     1      -9.046  51.703  42.442  0.00  0.00    +0.000 A 
ATOM     24  C   UNL     1     -10.322  51.250  42.774  0.00  0.00    +0.000 A 
ATOM     25  H   UNL     1      -9.359  55.501  46.850  0.00  0.00    +0.000 HD
ATOM     26  H   UNL     1     -11.654  52.242  46.374  0.00  0.00    +0.000 HD
ENDBRANCH   1  18
BRANCH   3  27
ATOM     27  O   UNL     1     -11.993  56.300  46.735  0.00  0.00    +0.000 OA
ATOM     28  H   UNL     1     -12.338  57.171  46.792  0.00  0.00    +0.000 HD
ENDBRANCH   3  27
BRANCH   5  29
ATOM     29  C   UNL     1     -12.145  53.230  51.544  0.00  0.00    +0.000 C 
BRANCH  29  30
ATOM     30  C   UNL     1     -10.896  53.260  52.446  0.00  0.00    +0.000 C 
BRANCH  30  31
ATOM     31  C   UNL     1     -10.391  54.651  52.708  0.00  0.00    +0.000 C 
ATOM     32  C   UNL     1      -9.174  55.229  52.035  0.00  0.00    +0.000 C 
ATOM     33  C   UNL     1      -9.103  54.812  53.476  0.00  0.00    +0.000 C 
ENDBRANCH  30  31
ENDBRANCH  29  30
ENDBRANCH   5  29
TORSDOF 5
ENDMDL
MODEL 9
REMARK VINA RESULT:      -7.9      4.097      5.612
REMARK  Name = 338168
REMARK  5 active torsions:
REMARK  status: ('A' for Active; 'I' for Inactive)
REMARK    1  A    between atoms: C_6  and  C_10
REMARK    2  A    between atoms: C_14  and  O_18
REMARK    3  A    between atoms: N_17  and  C_21
REMARK    4  A    between atoms: C_21  and  C_24
REMARK    5  A    between atoms: C_24  and  C_27
REMARK                            x       y       z     vdW  Elec       q    Type
REMARK                         _______ _______ _______ _____ _____    ______ ____
ROOT
ATOM      1  C   UNL     1     -10.695  55.310  48.784  0.00  0.00    +0.000 A 
ATOM      2  C   UNL     1     -10.924  54.251  47.765  0.00  0.00    +0.000 A 
ATOM      3  C   UNL     1      -9.449  55.576  49.212  0.00  0.00    +0.000 A 
ATOM      4  O   UNL     1     -12.090  53.929  47.534  0.00  0.00    +0.000 OA
ATOM      5  N   UNL     1      -9.824  53.705  47.101  0.00  0.00    +0.000 N 
ATOM      6  C   UNL     1      -8.299  54.870  48.638  0.00  0.00    +0.000 A 
ATOM      7  C   UNL     1      -8.487  53.962  47.576  0.00  0.00    +0.000 A 
ATOM      8  C   UNL     1      -7.004  55.140  49.119  0.00  0.00    +0.000 A 
ATOM      9  C   UNL     1      -7.348  53.343  47.028  0.00  0.00    +0.000 A 
ATOM     10  C   UNL     1      -5.903  54.533  48.540  0.00  0.00    +0.000 A 
ATOM     11  C   UNL     1      -6.063  53.640  47.496  0.00  0.00    +0.000 A 
ATOM     12  F   UNL     1      -4.674  54.821  48.986  0.00  0.00    +0.000 F 
ENDROOT
BRANCH   1  18
ATOM     13  S   UNL     1     -13.943  57.617  48.731  0.00  0.00    +0.000 S 
ATOM     14  O   UNL     1     -14.898  56.661  48.224  0.00  0.00    +0.000 OA
ATOM     15  O   UNL     1     -13.922  58.992  48.283  0.00  0.00    +0.000 OA
ATOM     16  N   UNL     1     -12.427  57.014  48.483  0.00  0.00    +0.000 N 
ATOM     17  C   UNL     1     -14.047  57.609  50.467  0.00  0.00    +0.000 A 
ATOM     18  C   UNL     1     -11.831  56.098  49.345  0.00  0.00    +0.000 C 
ATOM     19  C   UNL     1     -13.172  56.781  51.159  0.00  0.00    +0.000 A 
ATOM     20  C   UNL     1     -14.963  58.441  51.116  0.00  0.00    +0.000 A 
ATOM     21  N   UNL     1     -12.220  55.933  50.572  0.00  0.00    +0.000 N 
ATOM     22  C   UNL     1     -13.220  56.812  52.557  0.00  0.00    +0.000 A 
ATOM     23  C   UNL     1     -15.003  58.448  52.507  0.00  0.00    +0.000 A 
ATOM     24  C   UNL     1     -14.126  57.639  53.229  0.00  0.00    +0.000 A 
ATOM     25  H   UNL     1     -11.924  57.313  47.692  0.00  0.00    +0.000 HD
ATOM     26  H   UNL     1     -11.839  55.197  51.102  0.00  0.00    +0.000 HD
ENDBRANCH   1  18
BRANCH   3  27
ATOM     27  O   UNL     1      -9.132  56.519  50.177  0.00  0.00    +0.000 OA
ATOM     28  H   UNL     1      -9.298  56.339  51.082  0.00  0.00    +0.000 HD
ENDBRANCH   3  27
BRANCH   5  29
ATOM     29  C   UNL     1     -10.055  52.693  46.043  0.00  0.00    +0.000 C 
BRANCH  29  30
ATOM     30  C   UNL     1     -10.313  53.231  44.622  0.00  0.00    +0.000 C 
BRANCH  30  31
ATOM     31  C   UNL     1      -9.751  52.344  43.545  0.00  0.00    +0.000 C 
ATOM     32  C   UNL     1      -8.371  51.747  43.602  0.00  0.00    +0.000 C 
ATOM     33  C   UNL     1      -8.651  52.890  42.670  0.00  0.00    +0.000 C 
ENDBRANCH  30  31
ENDBRANCH  29  30
ENDBRANCH   5  29
TORSDOF 5
ENDMDL
