MODEL 1
REMARK VINA RESULT:      -8.6      0.000      0.000
REMARK  Name = 338063
REMARK  8 active torsions:
REMARK  status: ('A' for Active; 'I' for Inactive)
REMARK    1  A    between atoms: C_6  and  C_10
REMARK    2  A    between atoms: C_14  and  O_18
REMARK    3  A    between atoms: N_17  and  C_21
REMARK    4  A    between atoms: C_21  and  C_24
REMARK    5  A    between atoms: C_24  and  C_27
REMARK    6  A    between atoms: C_25  and  C_28
REMARK    7  A    between atoms: C_27  and  C_29
REMARK    8  A    between atoms: C_27  and  C_30
REMARK                            x       y       z     vdW  Elec       q    Type
REMARK                         _______ _______ _______ _____ _____    ______ ____
ROOT
ATOM      1  C   UNL     1     -10.165  54.437  52.207  0.00  0.00    +0.000 A 
ATOM      2  C   UNL     1      -8.783  55.002  52.104  0.00  0.00    +0.000 A 
ATOM      3  C   UNL     1     -10.393  53.337  52.939  0.00  0.00    +0.000 A 
ATOM      4  O   UNL     1      -8.637  56.089  51.536  0.00  0.00    +0.000 OA
ATOM      5  N   UNL     1      -7.733  54.293  52.671  0.00  0.00    +0.000 N 
ATOM      6  C   UNL     1      -9.287  52.673  53.643  0.00  0.00    +0.000 A 
ATOM      7  C   UNL     1      -7.980  53.170  53.519  0.00  0.00    +0.000 A 
ATOM      8  C   UNL     1      -9.532  51.553  54.457  0.00  0.00    +0.000 A 
ATOM      9  C   UNL     1      -6.960  52.564  54.268  0.00  0.00    +0.000 A 
ATOM     10  C   UNL     1      -8.499  50.932  55.166  0.00  0.00    +0.000 A 
ATOM     11  C   UNL     1      -7.209  51.452  55.072  0.00  0.00    +0.000 A 
ATOM     12  C   UNL     1      -8.768  49.757  56.050  0.00  0.00    +0.000 C 
ENDROOT
BRANCH   1  18
ATOM     13  S   UNL     1     -12.442  55.988  49.410  0.00  0.00    +0.000 S 
ATOM     14  O   UNL     1     -13.321  55.007  48.801  0.00  0.00    +0.000 OA
ATOM     15  O   UNL     1     -11.777  56.983  48.591  0.00  0.00    +0.000 OA
ATOM     16  N   UNL     1     -11.307  55.182  50.239  0.00  0.00    +0.000 N 
ATOM     17  C   UNL     1     -13.427  56.884  50.555  0.00  0.00    +0.000 A 
ATOM     18  C   UNL     1     -11.310  55.169  51.539  0.00  0.00    +0.000 C 
ATOM     19  C   UNL     1     -13.201  56.673  51.905  0.00  0.00    +0.000 A 
ATOM     20  C   UNL     1     -14.390  57.784  50.095  0.00  0.00    +0.000 A 
ATOM     21  N   UNL     1     -12.248  55.763  52.350  0.00  0.00    +0.000 N 
ATOM     22  C   UNL     1     -14.015  57.345  52.825  0.00  0.00    +0.000 A 
ATOM     23  C   UNL     1     -15.173  58.468  51.021  0.00  0.00    +0.000 A 
ATOM     24  C   UNL     1     -14.990  58.243  52.385  0.00  0.00    +0.000 A 
ATOM     25  H   UNL     1     -10.605  54.694  49.750  0.00  0.00    +0.000 HD
ATOM     26  H   UNL     1     -12.245  55.528  53.306  0.00  0.00    +0.000 HD
ENDBRANCH   1  18
BRANCH   3  27
ATOM     27  O   UNL     1     -11.644  52.772  53.139  0.00  0.00    +0.000 OA
ATOM     28  H   UNL     1     -11.736  52.020  53.692  0.00  0.00    +0.000 HD
ENDBRANCH   3  27
BRANCH   5  29
ATOM     29  C   UNL     1      -6.374  54.819  52.489  0.00  0.00    +0.000 C 
BRANCH  29  30
ATOM     30  C   UNL     1      -5.532  54.137  51.397  0.00  0.00    +0.000 C 
BRANCH  30  31
ATOM     31  C   UNL     1      -4.175  53.562  51.829  0.00  0.00    +0.000 C 
ATOM     32  C   UNL     1      -3.849  53.874  53.287  0.00  0.00    +0.000 C 
ATOM     33  C   UNL     1      -4.203  52.043  51.612  0.00  0.00    +0.000 C 
ENDBRANCH  30  31
ENDBRANCH  29  30
ENDBRANCH   5  29
TORSDOF 5
ENDMDL
MODEL 2
REMARK VINA RESULT:      -8.3      3.659      5.377
REMARK  Name = 338063
REMARK  8 active torsions:
REMARK  status: ('A' for Active; 'I' for Inactive)
REMARK    1  A    between atoms: C_6  and  C_10
REMARK    2  A    between atoms: C_14  and  O_18
REMARK    3  A    between atoms: N_17  and  C_21
REMARK    4  A    between atoms: C_21  and  C_24
REMARK    5  A    between atoms: C_24  and  C_27
REMARK    6  A    between atoms: C_25  and  C_28
REMARK    7  A    between atoms: C_27  and  C_29
REMARK    8  A    between atoms: C_27  and  C_30
REMARK                            x       y       z     vdW  Elec       q    Type
REMARK                         _______ _______ _______ _____ _____    ______ ____
ROOT
ATOM      1  C   UNL     1     -11.362  56.142  48.740  0.00  0.00    +0.000 A 
ATOM      2  C   UNL     1     -10.176  55.705  49.541  0.00  0.00    +0.000 A 
ATOM      3  C   UNL     1     -11.547  55.674  47.496  0.00  0.00    +0.000 A 
ATOM      4  O   UNL     1     -10.113  56.049  50.725  0.00  0.00    +0.000 OA
ATOM      5  N   UNL     1      -9.213  54.917  48.925  0.00  0.00    +0.000 N 
ATOM      6  C   UNL     1     -10.585  54.733  46.908  0.00  0.00    +0.000 A 
ATOM      7  C   UNL     1      -9.446  54.350  47.635  0.00  0.00    +0.000 A 
ATOM      8  C   UNL     1     -10.806  54.197  45.627  0.00  0.00    +0.000 A 
ATOM      9  C   UNL     1      -8.590  53.389  47.078  0.00  0.00    +0.000 A 
ATOM     10  C   UNL     1      -9.922  53.270  45.066  0.00  0.00    +0.000 A 
ATOM     11  C   UNL     1      -8.814  52.862  45.807  0.00  0.00    +0.000 A 
ATOM     12  C   UNL     1     -10.174  52.683  43.714  0.00  0.00    +0.000 C 
ENDROOT
BRANCH   1  18
ATOM     13  S   UNL     1     -13.564  59.310  49.464  0.00  0.00    +0.000 S 
ATOM     14  O   UNL     1     -14.711  59.403  48.581  0.00  0.00    +0.000 OA
ATOM     15  O   UNL     1     -12.800  60.497  49.798  0.00  0.00    +0.000 OA
ATOM     16  N   UNL     1     -12.545  58.221  48.831  0.00  0.00    +0.000 N 
ATOM     17  C   UNL     1     -14.168  58.678  50.986  0.00  0.00    +0.000 A 
ATOM     18  C   UNL     1     -12.387  57.054  49.381  0.00  0.00    +0.000 C 
ATOM     19  C   UNL     1     -13.826  57.380  51.328  0.00  0.00    +0.000 A 
ATOM     20  C   UNL     1     -14.953  59.483  51.816  0.00  0.00    +0.000 A 
ATOM     21  N   UNL     1     -13.055  56.585  50.486  0.00  0.00    +0.000 N 
ATOM     22  C   UNL     1     -14.344  56.851  52.516  0.00  0.00    +0.000 A 
ATOM     23  C   UNL     1     -15.437  58.953  53.009  0.00  0.00    +0.000 A 
ATOM     24  C   UNL     1     -15.138  57.636  53.355  0.00  0.00    +0.000 A 
ATOM     25  H   UNL     1     -12.039  58.446  48.016  0.00  0.00    +0.000 HD
ATOM     26  H   UNL     1     -12.985  55.626  50.696  0.00  0.00    +0.000 HD
ENDBRANCH   1  18
BRANCH   3  27
ATOM     27  O   UNL     1     -12.641  55.976  46.699  0.00  0.00    +0.000 OA
ATOM     28  H   UNL     1     -12.880  55.405  45.995  0.00  0.00    +0.000 HD
ENDBRANCH   3  27
BRANCH   5  29
ATOM     29  C   UNL     1      -8.015  54.567  49.701  0.00  0.00    +0.000 C 
BRANCH  29  30
ATOM     30  C   UNL     1      -6.849  55.568  49.618  0.00  0.00    +0.000 C 
BRANCH  30  31
ATOM     31  C   UNL     1      -5.431  54.985  49.713  0.00  0.00    +0.000 C 
ATOM     32  C   UNL     1      -5.184  54.270  51.040  0.00  0.00    +0.000 C 
ATOM     33  C   UNL     1      -5.232  54.007  48.548  0.00  0.00    +0.000 C 
ENDBRANCH  30  31
ENDBRANCH  29  30
ENDBRANCH   5  29
TORSDOF 5
ENDMDL
MODEL 3
REMARK VINA RESULT:      -8.0      3.842      5.519
REMARK  Name = 338063
REMARK  8 active torsions:
REMARK  status: ('A' for Active; 'I' for Inactive)
REMARK    1  A    between atoms: C_6  and  C_10
REMARK    2  A    between atoms: C_14  and  O_18
REMARK    3  A    between atoms: N_17  and  C_21
REMARK    4  A    between atoms: C_21  and  C_24
REMARK    5  A    between atoms: C_24  and  C_27
REMARK    6  A    between atoms: C_25  and  C_28
REMARK    7  A    between atoms: C_27  and  C_29
REMARK    8  A    between atoms: C_27  and  C_30
REMARK                            x       y       z     vdW  Elec       q    Type
REMARK                         _______ _______ _______ _____ _____    ______ ____
ROOT
ATOM      1  C   UNL     1     -10.895  55.524  48.736  0.00  0.00    +0.000 A 
ATOM      2  C   UNL     1      -9.625  55.076  49.387  0.00  0.00    +0.000 A 
ATOM      3  C   UNL     1     -11.161  55.182  47.466  0.00  0.00    +0.000 A 
ATOM      4  O   UNL     1      -9.480  55.293  50.594  0.00  0.00    +0.000 OA
ATOM      5  N   UNL     1      -8.679  54.418  48.613  0.00  0.00    +0.000 N 
ATOM      6  C   UNL     1     -10.205  54.370  46.702  0.00  0.00    +0.000 A 
ATOM      7  C   UNL     1      -8.990  53.981  47.289  0.00  0.00    +0.000 A 
ATOM      8  C   UNL     1     -10.505  53.962  45.391  0.00  0.00    +0.000 A 
ATOM      9  C   UNL     1      -8.136  53.138  46.563  0.00  0.00    +0.000 A 
ATOM     10  C   UNL     1      -9.626  53.156  44.661  0.00  0.00    +0.000 A 
ATOM     11  C   UNL     1      -8.439  52.739  45.262  0.00  0.00    +0.000 A 
ATOM     12  C   UNL     1      -9.961  52.704  43.276  0.00  0.00    +0.000 C 
ENDROOT
BRANCH   1  18
ATOM     13  S   UNL     1     -13.585  56.368  51.468  0.00  0.00    +0.000 S 
ATOM     14  O   UNL     1     -12.991  56.687  52.753  0.00  0.00    +0.000 OA
ATOM     15  O   UNL     1     -14.777  55.545  51.398  0.00  0.00    +0.000 OA
ATOM     16  N   UNL     1     -12.441  55.669  50.559  0.00  0.00    +0.000 N 
ATOM     17  C   UNL     1     -14.012  57.903  50.732  0.00  0.00    +0.000 A 
ATOM     18  C   UNL     1     -11.909  56.298  49.553  0.00  0.00    +0.000 C 
ATOM     19  C   UNL     1     -13.264  58.329  49.646  0.00  0.00    +0.000 A 
ATOM     20  C   UNL     1     -15.084  58.645  51.232  0.00  0.00    +0.000 A 
ATOM     21  N   UNL     1     -12.190  57.586  49.166  0.00  0.00    +0.000 N 
ATOM     22  C   UNL     1     -13.565  59.574  49.084  0.00  0.00    +0.000 A 
ATOM     23  C   UNL     1     -15.391  59.869  50.644  0.00  0.00    +0.000 A 
ATOM     24  C   UNL     1     -14.628  60.337  49.575  0.00  0.00    +0.000 A 
ATOM     25  H   UNL     1     -12.142  54.755  50.772  0.00  0.00    +0.000 HD
ATOM     26  H   UNL     1     -11.593  58.011  48.509  0.00  0.00    +0.000 HD
ENDBRANCH   1  18
BRANCH   3  27
ATOM     27  O   UNL     1     -12.332  55.502  46.796  0.00  0.00    +0.000 OA
ATOM     28  H   UNL     1     -13.162  55.266  47.163  0.00  0.00    +0.000 HD
ENDBRANCH   3  27
BRANCH   5  29
ATOM     29  C   UNL     1      -7.403  54.060  49.248  0.00  0.00    +0.000 C 
BRANCH  29  30
ATOM     30  C   UNL     1      -6.279  55.103  49.126  0.00  0.00    +0.000 C 
BRANCH  30  31
ATOM     31  C   UNL     1      -4.839  54.583  49.250  0.00  0.00    +0.000 C 
ATOM     32  C   UNL     1      -4.566  53.942  50.608  0.00  0.00    +0.000 C 
ATOM     33  C   UNL     1      -4.597  53.562  48.131  0.00  0.00    +0.000 C 
ENDBRANCH  30  31
ENDBRANCH  29  30
ENDBRANCH   5  29
TORSDOF 5
ENDMDL
MODEL 4
REMARK VINA RESULT:      -7.9      3.692      4.999
REMARK  Name = 338063
REMARK  8 active torsions:
REMARK  status: ('A' for Active; 'I' for Inactive)
REMARK    1  A    between atoms: C_6  and  C_10
REMARK    2  A    between atoms: C_14  and  O_18
REMARK    3  A    between atoms: N_17  and  C_21
REMARK    4  A    between atoms: C_21  and  C_24
REMARK    5  A    between atoms: C_24  and  C_27
REMARK    6  A    between atoms: C_25  and  C_28
REMARK    7  A    between atoms: C_27  and  C_29
REMARK    8  A    between atoms: C_27  and  C_30
REMARK                            x       y       z     vdW  Elec       q    Type
REMARK                         _______ _______ _______ _____ _____    ______ ____
ROOT
ATOM      1  C   UNL     1     -12.321  54.146  50.170  0.00  0.00    +0.000 A 
ATOM      2  C   UNL     1     -12.047  53.772  48.747  0.00  0.00    +0.000 A 
ATOM      3  C   UNL     1     -11.799  53.424  51.172  0.00  0.00    +0.000 A 
ATOM      4  O   UNL     1     -12.430  54.538  47.858  0.00  0.00    +0.000 OA
ATOM      5  N   UNL     1     -11.357  52.595  48.493  0.00  0.00    +0.000 N 
ATOM      6  C   UNL     1     -10.958  52.255  50.883  0.00  0.00    +0.000 A 
ATOM      7  C   UNL     1     -10.730  51.869  49.552  0.00  0.00    +0.000 A 
ATOM      8  C   UNL     1     -10.363  51.529  51.929  0.00  0.00    +0.000 A 
ATOM      9  C   UNL     1      -9.857  50.799  49.307  0.00  0.00    +0.000 A 
ATOM     10  C   UNL     1      -9.528  50.438  51.673  0.00  0.00    +0.000 A 
ATOM     11  C   UNL     1      -9.271  50.083  50.350  0.00  0.00    +0.000 A 
ATOM     12  C   UNL     1      -8.877  49.685  52.788  0.00  0.00    +0.000 C 
ENDROOT
BRANCH   1  18
ATOM     13  S   UNL     1     -15.263  56.469  51.339  0.00  0.00    +0.000 S 
ATOM     14  O   UNL     1     -15.252  56.701  52.771  0.00  0.00    +0.000 OA
ATOM     15  O   UNL     1     -16.514  56.232  50.645  0.00  0.00    +0.000 OA
ATOM     16  N   UNL     1     -14.279  55.217  51.038  0.00  0.00    +0.000 N 
ATOM     17  C   UNL     1     -14.567  57.905  50.606  0.00  0.00    +0.000 A 
ATOM     18  C   UNL     1     -13.129  55.395  50.459  0.00  0.00    +0.000 C 
ATOM     19  C   UNL     1     -13.305  57.797  50.045  0.00  0.00    +0.000 A 
ATOM     20  C   UNL     1     -15.288  59.100  50.587  0.00  0.00    +0.000 A 
ATOM     21  N   UNL     1     -12.592  56.603  50.083  0.00  0.00    +0.000 N 
ATOM     22  C   UNL     1     -12.722  58.948  49.503  0.00  0.00    +0.000 A 
ATOM     23  C   UNL     1     -14.708  60.231  50.018  0.00  0.00    +0.000 A 
ATOM     24  C   UNL     1     -13.423  60.156  49.482  0.00  0.00    +0.000 A 
ATOM     25  H   UNL     1     -14.556  54.309  51.298  0.00  0.00    +0.000 HD
ATOM     26  H   UNL     1     -11.642  56.626  49.825  0.00  0.00    +0.000 HD
ENDBRANCH   1  18
BRANCH   3  27
ATOM     27  O   UNL     1     -11.951  53.724  52.518  0.00  0.00    +0.000 OA
ATOM     28  H   UNL     1     -12.597  54.347  52.789  0.00  0.00    +0.000 HD
ENDBRANCH   3  27
BRANCH   5  29
ATOM     29  C   UNL     1     -11.169  52.200  47.090  0.00  0.00    +0.000 C 
BRANCH  29  30
ATOM     30  C   UNL     1      -9.847  52.644  46.442  0.00  0.00    +0.000 C 
BRANCH  30  31
ATOM     31  C   UNL     1      -9.953  53.587  45.233  0.00  0.00    +0.000 C 
ATOM     32  C   UNL     1      -8.819  53.380  44.232  0.00  0.00    +0.000 C 
ATOM     33  C   UNL     1     -11.305  53.344  44.550  0.00  0.00    +0.000 C 
ENDBRANCH  30  31
ENDBRANCH  29  30
ENDBRANCH   5  29
TORSDOF 5
ENDMDL
MODEL 5
REMARK VINA RESULT:      -7.8      3.208      7.494
REMARK  Name = 338063
REMARK  8 active torsions:
REMARK  status: ('A' for Active; 'I' for Inactive)
REMARK    1  A    between atoms: C_6  and  C_10
REMARK    2  A    between atoms: C_14  and  O_18
REMARK    3  A    between atoms: N_17  and  C_21
REMARK    4  A    between atoms: C_21  and  C_24
REMARK    5  A    between atoms: C_24  and  C_27
REMARK    6  A    between atoms: C_25  and  C_28
REMARK    7  A    between atoms: C_27  and  C_29
REMARK    8  A    between atoms: C_27  and  C_30
REMARK                            x       y       z     vdW  Elec       q    Type
REMARK                         _______ _______ _______ _____ _____    ______ ____
ROOT
ATOM      1  C   UNL     1     -10.047  55.146  51.035  0.00  0.00    +0.000 A 
ATOM      2  C   UNL     1      -9.756  55.127  49.567  0.00  0.00    +0.000 A 
ATOM      3  C   UNL     1     -11.258  55.513  51.480  0.00  0.00    +0.000 A 
ATOM      4  O   UNL     1      -8.680  54.654  49.191  0.00  0.00    +0.000 OA
ATOM      5  N   UNL     1     -10.717  55.621  48.695  0.00  0.00    +0.000 N 
ATOM      6  C   UNL     1     -12.308  55.907  50.531  0.00  0.00    +0.000 A 
ATOM      7  C   UNL     1     -12.033  55.934  49.154  0.00  0.00    +0.000 A 
ATOM      8  C   UNL     1     -13.594  56.238  50.990  0.00  0.00    +0.000 A 
ATOM      9  C   UNL     1     -13.079  56.234  48.269  0.00  0.00    +0.000 A 
ATOM     10  C   UNL     1     -14.618  56.576  50.100  0.00  0.00    +0.000 A 
ATOM     11  C   UNL     1     -14.353  56.563  48.732  0.00  0.00    +0.000 A 
ATOM     12  C   UNL     1     -15.992  56.903  50.591  0.00  0.00    +0.000 C 
ENDROOT
BRANCH   1  18
ATOM     13  S   UNL     1      -6.598  54.816  52.881  0.00  0.00    +0.000 S 
ATOM     14  O   UNL     1      -6.412  55.834  53.898  0.00  0.00    +0.000 OA
ATOM     15  O   UNL     1      -5.498  54.438  52.015  0.00  0.00    +0.000 OA
ATOM     16  N   UNL     1      -7.836  55.279  51.944  0.00  0.00    +0.000 N 
ATOM     17  C   UNL     1      -7.068  53.354  53.732  0.00  0.00    +0.000 A 
ATOM     18  C   UNL     1      -8.983  54.669  52.002  0.00  0.00    +0.000 C 
ATOM     19  C   UNL     1      -8.378  52.923  53.600  0.00  0.00    +0.000 A 
ATOM     20  C   UNL     1      -6.130  52.657  54.496  0.00  0.00    +0.000 A 
ATOM     21  N   UNL     1      -9.306  53.635  52.847  0.00  0.00    +0.000 N 
ATOM     22  C   UNL     1      -8.775  51.787  54.315  0.00  0.00    +0.000 A 
ATOM     23  C   UNL     1      -6.531  51.511  55.178  0.00  0.00    +0.000 A 
ATOM     24  C   UNL     1      -7.855  51.080  55.093  0.00  0.00    +0.000 A 
ATOM     25  H   UNL     1      -7.719  56.035  51.324  0.00  0.00    +0.000 HD
ATOM     26  H   UNL     1     -10.254  53.381  52.924  0.00  0.00    +0.000 HD
ENDBRANCH   1  18
BRANCH   3  27
ATOM     27  O   UNL     1     -11.638  55.510  52.814  0.00  0.00    +0.000 OA
ATOM     28  H   UNL     1     -11.427  54.778  53.359  0.00  0.00    +0.000 HD
ENDBRANCH   3  27
BRANCH   5  29
ATOM     29  C   UNL     1     -10.382  55.672  47.265  0.00  0.00    +0.000 C 
BRANCH  29  30
ATOM     30  C   UNL     1     -10.631  54.376  46.473  0.00  0.00    +0.000 C 
BRANCH  30  31
ATOM     31  C   UNL     1      -9.404  53.717  45.825  0.00  0.00    +0.000 C 
ATOM     32  C   UNL     1      -9.713  53.142  44.445  0.00  0.00    +0.000 C 
ATOM     33  C   UNL     1      -8.292  54.769  45.716  0.00  0.00    +0.000 C 
ENDBRANCH  30  31
ENDBRANCH  29  30
ENDBRANCH   5  29
TORSDOF 5
ENDMDL
MODEL 6
REMARK VINA RESULT:      -7.7      4.044      5.783
REMARK  Name = 338063
REMARK  8 active torsions:
REMARK  status: ('A' for Active; 'I' for Inactive)
REMARK    1  A    between atoms: C_6  and  C_10
REMARK    2  A    between atoms: C_14  and  O_18
REMARK    3  A    between atoms: N_17  and  C_21
REMARK    4  A    between atoms: C_21  and  C_24
REMARK    5  A    between atoms: C_24  and  C_27
REMARK    6  A    between atoms: C_25  and  C_28
REMARK    7  A    between atoms: C_27  and  C_29
REMARK    8  A    between atoms: C_27  and  C_30
REMARK                            x       y       z     vdW  Elec       q    Type
REMARK                         _______ _______ _______ _____ _____    ______ ____
ROOT
ATOM      1  C   UNL     1     -11.560  55.707  48.864  0.00  0.00    +0.000 A 
ATOM      2  C   UNL     1     -11.661  55.368  47.411  0.00  0.00    +0.000 A 
ATOM      3  C   UNL     1     -10.594  55.163  49.620  0.00  0.00    +0.000 A 
ATOM      4  O   UNL     1     -12.474  55.991  46.721  0.00  0.00    +0.000 OA
ATOM      5  N   UNL     1     -10.824  54.386  46.899  0.00  0.00    +0.000 N 
ATOM      6  C   UNL     1      -9.631  54.224  49.029  0.00  0.00    +0.000 A 
ATOM      7  C   UNL     1      -9.743  53.866  47.676  0.00  0.00    +0.000 A 
ATOM      8  C   UNL     1      -8.584  53.696  49.804  0.00  0.00    +0.000 A 
ATOM      9  C   UNL     1      -8.761  53.032  47.121  0.00  0.00    +0.000 A 
ATOM     10  C   UNL     1      -7.635  52.832  49.249  0.00  0.00    +0.000 A 
ATOM     11  C   UNL     1      -7.726  52.511  47.896  0.00  0.00    +0.000 A 
ATOM     12  C   UNL     1      -6.508  52.293  50.071  0.00  0.00    +0.000 C 
ENDROOT
BRANCH   1  18
ATOM     13  S   UNL     1     -13.496  59.078  49.411  0.00  0.00    +0.000 S 
ATOM     14  O   UNL     1     -14.625  59.223  48.511  0.00  0.00    +0.000 OA
ATOM     15  O   UNL     1     -12.638  60.212  49.697  0.00  0.00    +0.000 OA
ATOM     16  N   UNL     1     -12.566  57.879  48.842  0.00  0.00    +0.000 N 
ATOM     17  C   UNL     1     -14.162  58.573  50.955  0.00  0.00    +0.000 A 
ATOM     18  C   UNL     1     -12.510  56.731  49.449  0.00  0.00    +0.000 C 
ATOM     19  C   UNL     1     -13.932  57.270  51.362  0.00  0.00    +0.000 A 
ATOM     20  C   UNL     1     -14.883  59.479  51.735  0.00  0.00    +0.000 A 
ATOM     21  N   UNL     1     -13.224  56.373  50.568  0.00  0.00    +0.000 N 
ATOM     22  C   UNL     1     -14.501  56.844  52.567  0.00  0.00    +0.000 A 
ATOM     23  C   UNL     1     -15.419  59.050  52.947  0.00  0.00    +0.000 A 
ATOM     24  C   UNL     1     -15.234  57.731  53.359  0.00  0.00    +0.000 A 
ATOM     25  H   UNL     1     -12.037  58.022  48.024  0.00  0.00    +0.000 HD
ATOM     26  H   UNL     1     -13.235  55.423  50.824  0.00  0.00    +0.000 HD
ENDBRANCH   1  18
BRANCH   3  27
ATOM     27  O   UNL     1     -10.386  55.457  50.959  0.00  0.00    +0.000 OA
ATOM     28  H   UNL     1     -10.611  54.828  51.618  0.00  0.00    +0.000 HD
ENDBRANCH   3  27
BRANCH   5  29
ATOM     29  C   UNL     1     -10.994  54.007  45.490  0.00  0.00    +0.000 C 
BRANCH  29  30
ATOM     30  C   UNL     1     -11.912  52.800  45.228  0.00  0.00    +0.000 C 
BRANCH  30  31
ATOM     31  C   UNL     1     -11.317  51.645  44.408  0.00  0.00    +0.000 C 
ATOM     32  C   UNL     1     -10.102  52.077  43.591  0.00  0.00    +0.000 C 
ATOM     33  C   UNL     1     -10.925  50.520  45.375  0.00  0.00    +0.000 C 
ENDBRANCH  30  31
ENDBRANCH  29  30
ENDBRANCH   5  29
TORSDOF 5
ENDMDL
MODEL 7
REMARK VINA RESULT:      -7.7      3.071      7.676
REMARK  Name = 338063
REMARK  8 active torsions:
REMARK  status: ('A' for Active; 'I' for Inactive)
REMARK    1  A    between atoms: C_6  and  C_10
REMARK    2  A    between atoms: C_14  and  O_18
REMARK    3  A    between atoms: N_17  and  C_21
REMARK    4  A    between atoms: C_21  and  C_24
REMARK    5  A    between atoms: C_24  and  C_27
REMARK    6  A    between atoms: C_25  and  C_28
REMARK    7  A    between atoms: C_27  and  C_29
REMARK    8  A    between atoms: C_27  and  C_30
REMARK                            x       y       z     vdW  Elec       q    Type
REMARK                         _______ _______ _______ _____ _____    ______ ____
ROOT
ATOM      1  C   UNL     1     -10.132  54.149  51.161  0.00  0.00    +0.000 A 
ATOM      2  C   UNL     1     -10.620  53.866  49.775  0.00  0.00    +0.000 A 
ATOM      3  C   UNL     1     -10.837  54.947  51.977  0.00  0.00    +0.000 A 
ATOM      4  O   UNL     1     -10.018  53.022  49.105  0.00  0.00    +0.000 OA
ATOM      5  N   UNL     1     -11.737  54.549  49.313  0.00  0.00    +0.000 N 
ATOM      6  C   UNL     1     -12.091  55.557  51.514  0.00  0.00    +0.000 A 
ATOM      7  C   UNL     1     -12.536  55.333  50.201  0.00  0.00    +0.000 A 
ATOM      8  C   UNL     1     -12.861  56.348  52.384  0.00  0.00    +0.000 A 
ATOM      9  C   UNL     1     -13.776  55.862  49.816  0.00  0.00    +0.000 A 
ATOM     10  C   UNL     1     -14.077  56.904  51.974  0.00  0.00    +0.000 A 
ATOM     11  C   UNL     1     -14.535  56.647  50.683  0.00  0.00    +0.000 A 
ATOM     12  C   UNL     1     -14.905  57.725  52.911  0.00  0.00    +0.000 C 
ENDROOT
BRANCH   1  18
ATOM     13  S   UNL     1      -7.780  51.725  53.163  0.00  0.00    +0.000 S 
ATOM     14  O   UNL     1      -7.730  50.396  52.585  0.00  0.00    +0.000 OA
ATOM     15  O   UNL     1      -7.843  51.895  54.602  0.00  0.00    +0.000 OA
ATOM     16  N   UNL     1      -9.048  52.496  52.512  0.00  0.00    +0.000 N 
ATOM     17  C   UNL     1      -6.314  52.541  52.643  0.00  0.00    +0.000 A 
ATOM     18  C   UNL     1      -8.878  53.458  51.655  0.00  0.00    +0.000 C 
ATOM     19  C   UNL     1      -6.437  53.556  51.709  0.00  0.00    +0.000 A 
ATOM     20  C   UNL     1      -5.080  52.171  53.181  0.00  0.00    +0.000 A 
ATOM     21  N   UNL     1      -7.672  53.905  51.171  0.00  0.00    +0.000 N 
ATOM     22  C   UNL     1      -5.270  54.177  51.251  0.00  0.00    +0.000 A 
ATOM     23  C   UNL     1      -3.929  52.818  52.739  0.00  0.00    +0.000 A 
ATOM     24  C   UNL     1      -4.023  53.817  51.770  0.00  0.00    +0.000 A 
ATOM     25  H   UNL     1      -9.961  52.230  52.768  0.00  0.00    +0.000 HD
ATOM     26  H   UNL     1      -7.681  54.509  50.394  0.00  0.00    +0.000 HD
ENDBRANCH   1  18
BRANCH   3  27
ATOM     27  O   UNL     1     -10.497  55.224  53.292  0.00  0.00    +0.000 OA
ATOM     28  H   UNL     1     -10.350  54.521  53.896  0.00  0.00    +0.000 HD
ENDBRANCH   3  27
BRANCH   5  29
ATOM     29  C   UNL     1     -12.152  54.322  47.922  0.00  0.00    +0.000 C 
BRANCH  29  30
ATOM     30  C   UNL     1     -11.649  55.353  46.897  0.00  0.00    +0.000 C 
BRANCH  30  31
ATOM     31  C   UNL     1     -10.497  54.913  45.982  0.00  0.00    +0.000 C 
ATOM     32  C   UNL     1      -9.127  55.205  46.590  0.00  0.00    +0.000 C 
ATOM     33  C   UNL     1     -10.641  53.409  45.715  0.00  0.00    +0.000 C 
ENDBRANCH  30  31
ENDBRANCH  29  30
ENDBRANCH   5  29
TORSDOF 5
ENDMDL
MODEL 8
REMARK VINA RESULT:      -7.7      3.118      8.069
REMARK  Name = 338063
REMARK  8 active torsions:
REMARK  status: ('A' for Active; 'I' for Inactive)
REMARK    1  A    between atoms: C_6  and  C_10
REMARK    2  A    between atoms: C_14  and  O_18
REMARK    3  A    between atoms: N_17  and  C_21
REMARK    4  A    between atoms: C_21  and  C_24
REMARK    5  A    between atoms: C_24  and  C_27
REMARK    6  A    between atoms: C_25  and  C_28
REMARK    7  A    between atoms: C_27  and  C_29
REMARK    8  A    between atoms: C_27  and  C_30
REMARK                            x       y       z     vdW  Elec       q    Type
REMARK                         _______ _______ _______ _____ _____    ______ ____
ROOT
ATOM      1  C   UNL     1      -9.766  53.935  51.090  0.00  0.00    +0.000 A 
ATOM      2  C   UNL     1     -10.788  54.997  51.346  0.00  0.00    +0.000 A 
ATOM      3  C   UNL     1      -9.571  53.469  49.847  0.00  0.00    +0.000 A 
ATOM      4  O   UNL     1     -10.843  55.495  52.475  0.00  0.00    +0.000 OA
ATOM      5  N   UNL     1     -11.612  55.391  50.301  0.00  0.00    +0.000 N 
ATOM      6  C   UNL     1     -10.363  53.995  48.727  0.00  0.00    +0.000 A 
ATOM      7  C   UNL     1     -11.354  54.961  48.963  0.00  0.00    +0.000 A 
ATOM      8  C   UNL     1     -10.122  53.551  47.415  0.00  0.00    +0.000 A 
ATOM      9  C   UNL     1     -12.036  55.502  47.863  0.00  0.00    +0.000 A 
ATOM     10  C   UNL     1     -10.838  54.068  46.331  0.00  0.00    +0.000 A 
ATOM     11  C   UNL     1     -11.793  55.056  46.564  0.00  0.00    +0.000 A 
ATOM     12  C   UNL     1     -10.560  53.611  44.935  0.00  0.00    +0.000 C 
ENDROOT
BRANCH   1  18
ATOM     13  S   UNL     1      -6.620  53.310  53.354  0.00  0.00    +0.000 S 
ATOM     14  O   UNL     1      -6.317  54.442  54.209  0.00  0.00    +0.000 OA
ATOM     15  O   UNL     1      -5.551  52.586  52.693  0.00  0.00    +0.000 OA
ATOM     16  N   UNL     1      -7.657  53.818  52.217  0.00  0.00    +0.000 N 
ATOM     17  C   UNL     1      -7.445  52.138  54.368  0.00  0.00    +0.000 A 
ATOM     18  C   UNL     1      -8.904  53.451  52.238  0.00  0.00    +0.000 C 
ATOM     19  C   UNL     1      -8.799  51.941  54.156  0.00  0.00    +0.000 A 
ATOM     20  C   UNL     1      -6.734  51.429  55.338  0.00  0.00    +0.000 A 
ATOM     21  N   UNL     1      -9.499  52.664  53.195  0.00  0.00    +0.000 N 
ATOM     22  C   UNL     1      -9.476  51.046  54.992  0.00  0.00    +0.000 A 
ATOM     23  C   UNL     1      -7.413  50.519  56.144  0.00  0.00    +0.000 A 
ATOM     24  C   UNL     1      -8.785  50.333  55.975  0.00  0.00    +0.000 A 
ATOM     25  H   UNL     1      -7.339  54.414  51.501  0.00  0.00    +0.000 HD
ATOM     26  H   UNL     1     -10.482  52.609  53.202  0.00  0.00    +0.000 HD
ENDBRANCH   1  18
BRANCH   3  27
ATOM     27  O   UNL     1      -8.613  52.528  49.503  0.00  0.00    +0.000 OA
ATOM     28  H   UNL     1      -8.715  51.635  49.771  0.00  0.00    +0.000 HD
ENDBRANCH   3  27
BRANCH   5  29
ATOM     29  C   UNL     1     -12.664  56.374  50.590  0.00  0.00    +0.000 C 
BRANCH  29  30
ATOM     30  C   UNL     1     -13.979  55.802  51.149  0.00  0.00    +0.000 C 
BRANCH  30  31
ATOM     31  C   UNL     1     -14.837  56.750  52.001  0.00  0.00    +0.000 C 
ATOM     32  C   UNL     1     -14.004  57.551  52.998  0.00  0.00    +0.000 C 
ATOM     33  C   UNL     1     -15.583  57.703  51.058  0.00  0.00    +0.000 C 
ENDBRANCH  30  31
ENDBRANCH  29  30
ENDBRANCH   5  29
TORSDOF 5
ENDMDL
MODEL 9
REMARK VINA RESULT:      -7.7      3.927      5.858
REMARK  Name = 338063
REMARK  8 active torsions:
REMARK  status: ('A' for Active; 'I' for Inactive)
REMARK    1  A    between atoms: C_6  and  C_10
REMARK    2  A    between atoms: C_14  and  O_18
REMARK    3  A    between atoms: N_17  and  C_21
REMARK    4  A    between atoms: C_21  and  C_24
REMARK    5  A    between atoms: C_24  and  C_27
REMARK    6  A    between atoms: C_25  and  C_28
REMARK    7  A    between atoms: C_27  and  C_29
REMARK    8  A    between atoms: C_27  and  C_30
REMARK                            x       y       z     vdW  Elec       q    Type
REMARK                         _______ _______ _______ _____ _____    ______ ____
ROOT
ATOM      1  C   UNL     1     -12.029  54.653  48.786  0.00  0.00    +0.000 A 
ATOM      2  C   UNL     1     -11.467  53.522  49.588  0.00  0.00    +0.000 A 
ATOM      3  C   UNL     1     -11.816  54.716  47.463  0.00  0.00    +0.000 A 
ATOM      4  O   UNL     1     -11.798  53.425  50.774  0.00  0.00    +0.000 OA
ATOM      5  N   UNL     1     -10.618  52.621  48.959  0.00  0.00    +0.000 N 
ATOM      6  C   UNL     1     -11.023  53.678  46.791  0.00  0.00    +0.000 A 
ATOM      7  C   UNL     1     -10.455  52.636  47.540  0.00  0.00    +0.000 A 
ATOM      8  C   UNL     1     -10.846  53.710  45.397  0.00  0.00    +0.000 A 
ATOM      9  C   UNL     1      -9.774  51.617  46.858  0.00  0.00    +0.000 A 
ATOM     10  C   UNL     1     -10.128  52.710  44.733  0.00  0.00    +0.000 A 
ATOM     11  C   UNL     1      -9.600  51.655  45.475  0.00  0.00    +0.000 A 
ATOM     12  C   UNL     1      -9.963  52.734  43.247  0.00  0.00    +0.000 C 
ENDROOT
BRANCH   1  18
ATOM     13  S   UNL     1     -14.941  56.212  50.909  0.00  0.00    +0.000 S 
ATOM     14  O   UNL     1     -14.681  56.154  52.336  0.00  0.00    +0.000 OA
ATOM     15  O   UNL     1     -16.266  55.925  50.395  0.00  0.00    +0.000 OA
ATOM     16  N   UNL     1     -13.894  55.213  50.180  0.00  0.00    +0.000 N 
ATOM     17  C   UNL     1     -14.573  57.855  50.411  0.00  0.00    +0.000 A 
ATOM     18  C   UNL     1     -12.906  55.679  49.475  0.00  0.00    +0.000 C 
ATOM     19  C   UNL     1     -13.439  58.057  49.641  0.00  0.00    +0.000 A 
ATOM     20  C   UNL     1     -15.419  58.903  50.777  0.00  0.00    +0.000 A 
ATOM     21  N   UNL     1     -12.597  57.006  49.295  0.00  0.00    +0.000 N 
ATOM     22  C   UNL     1     -13.111  59.369  49.282  0.00  0.00    +0.000 A 
ATOM     23  C   UNL     1     -15.097  60.200  50.388  0.00  0.00    +0.000 A 
ATOM     24  C   UNL     1     -13.939  60.434  49.645  0.00  0.00    +0.000 A 
ATOM     25  H   UNL     1     -14.007  54.239  50.273  0.00  0.00    +0.000 HD
ATOM     26  H   UNL     1     -11.724  57.227  48.896  0.00  0.00    +0.000 HD
ENDBRANCH   1  18
BRANCH   3  27
ATOM     27  O   UNL     1     -12.340  55.693  46.629  0.00  0.00    +0.000 OA
ATOM     28  H   UNL     1     -12.160  56.598  46.796  0.00  0.00    +0.000 HD
ENDBRANCH   3  27
BRANCH   5  29
ATOM     29  C   UNL     1     -10.009  51.566  49.780  0.00  0.00    +0.000 C 
BRANCH  29  30
ATOM     30  C   UNL     1      -8.569  51.832  50.251  0.00  0.00    +0.000 C 
BRANCH  30  31
ATOM     31  C   UNL     1      -8.388  52.253  51.718  0.00  0.00    +0.000 C 
ATOM     32  C   UNL     1      -8.493  53.765  51.906  0.00  0.00    +0.000 C 
ATOM     33  C   UNL     1      -9.459  51.546  52.558  0.00  0.00    +0.000 C 
ENDBRANCH  30  31
ENDBRANCH  29  30
ENDBRANCH   5  29
TORSDOF 5
ENDMDL
