MODEL 1
REMARK VINA RESULT:      -8.2      0.000      0.000
REMARK  Name = 298159
REMARK  7 active torsions:
REMARK  status: ('A' for Active; 'I' for Inactive)
REMARK    1  A    between atoms: C_6  and  C_10
REMARK    2  A    between atoms: C_14  and  O_18
REMARK    3  A    between atoms: N_17  and  C_21
REMARK    4  A    between atoms: C_21  and  C_24
REMARK    5  A    between atoms: C_24  and  C_27
REMARK    6  A    between atoms: C_27  and  C_28
REMARK    7  A    between atoms: C_27  and  C_29
REMARK                            x       y       z     vdW  Elec       q    Type
REMARK                         _______ _______ _______ _____ _____    ______ ____
ROOT
ATOM      1  C   UNL     1     -10.165  54.412  52.331  0.00  0.00    +0.000 A 
ATOM      2  C   UNL     1      -8.771  54.948  52.274  0.00  0.00    +0.000 A 
ATOM      3  C   UNL     1     -10.427  53.291  53.024  0.00  0.00    +0.000 A 
ATOM      4  O   UNL     1      -8.591  56.043  51.729  0.00  0.00    +0.000 OA
ATOM      5  N   UNL     1      -7.743  54.210  52.849  0.00  0.00    +0.000 N 
ATOM      6  C   UNL     1      -9.351  52.597  53.749  0.00  0.00    +0.000 A 
ATOM      7  C   UNL     1      -8.030  53.070  53.666  0.00  0.00    +0.000 A 
ATOM      8  C   UNL     1      -9.636  51.472  54.545  0.00  0.00    +0.000 A 
ATOM      9  C   UNL     1      -7.038  52.423  54.421  0.00  0.00    +0.000 A 
ATOM     10  C   UNL     1      -8.633  50.825  55.262  0.00  0.00    +0.000 A 
ATOM     11  C   UNL     1      -7.333  51.305  55.203  0.00  0.00    +0.000 A 
ENDROOT
BRANCH   1  17
ATOM     12  S   UNL     1     -12.375  56.072  49.533  0.00  0.00    +0.000 S 
ATOM     13  O   UNL     1     -13.272  55.130  48.893  0.00  0.00    +0.000 OA
ATOM     14  O   UNL     1     -11.669  57.064  48.744  0.00  0.00    +0.000 OA
ATOM     15  N   UNL     1     -11.272  55.218  50.360  0.00  0.00    +0.000 N 
ATOM     16  C   UNL     1     -13.354  56.973  50.677  0.00  0.00    +0.000 A 
ATOM     17  C   UNL     1     -11.282  55.192  51.661  0.00  0.00    +0.000 C 
ATOM     18  C   UNL     1     -13.145  56.743  52.027  0.00  0.00    +0.000 A 
ATOM     19  C   UNL     1     -14.299  57.896  50.219  0.00  0.00    +0.000 A 
ATOM     20  N   UNL     1     -12.207  55.815  52.469  0.00  0.00    +0.000 N 
ATOM     21  C   UNL     1     -13.964  57.410  52.944  0.00  0.00    +0.000 A 
ATOM     22  C   UNL     1     -15.080  58.583  51.147  0.00  0.00    +0.000 A 
ATOM     23  C   UNL     1     -14.919  58.332  52.509  0.00  0.00    +0.000 A 
ATOM     24  H   UNL     1     -10.586  54.711  49.871  0.00  0.00    +0.000 HD
ATOM     25  H   UNL     1     -12.205  55.588  53.427  0.00  0.00    +0.000 HD
ENDBRANCH   1  17
BRANCH   3  26
ATOM     26  O   UNL     1     -11.686  52.733  53.165  0.00  0.00    +0.000 OA
ATOM     27  H   UNL     1     -11.829  52.057  53.798  0.00  0.00    +0.000 HD
ENDBRANCH   3  26
BRANCH   5  28
ATOM     28  C   UNL     1      -6.376  54.728  52.721  0.00  0.00    +0.000 C 
BRANCH  28  29
ATOM     29  C   UNL     1      -5.558  54.190  51.534  0.00  0.00    +0.000 C 
BRANCH  29  30
ATOM     30  C   UNL     1      -4.184  53.578  51.856  0.00  0.00    +0.000 C 
ATOM     31  C   UNL     1      -3.847  53.642  53.345  0.00  0.00    +0.000 C 
ATOM     32  C   UNL     1      -4.175  52.116  51.390  0.00  0.00    +0.000 C 
ENDBRANCH  29  30
ENDBRANCH  28  29
ENDBRANCH   5  28
TORSDOF 5
ENDMDL
MODEL 2
REMARK VINA RESULT:      -8.1      4.086      4.935
REMARK  Name = 298159
REMARK  7 active torsions:
REMARK  status: ('A' for Active; 'I' for Inactive)
REMARK    1  A    between atoms: C_6  and  C_10
REMARK    2  A    between atoms: C_14  and  O_18
REMARK    3  A    between atoms: N_17  and  C_21
REMARK    4  A    between atoms: C_21  and  C_24
REMARK    5  A    between atoms: C_24  and  C_27
REMARK    6  A    between atoms: C_27  and  C_28
REMARK    7  A    between atoms: C_27  and  C_29
REMARK                            x       y       z     vdW  Elec       q    Type
REMARK                         _______ _______ _______ _____ _____    ______ ____
ROOT
ATOM      1  C   UNL     1     -12.535  54.225  49.701  0.00  0.00    +0.000 A 
ATOM      2  C   UNL     1     -11.999  54.151  48.308  0.00  0.00    +0.000 A 
ATOM      3  C   UNL     1     -12.264  53.245  50.579  0.00  0.00    +0.000 A 
ATOM      4  O   UNL     1     -12.168  55.126  47.568  0.00  0.00    +0.000 OA
ATOM      5  N   UNL     1     -11.319  53.005  47.909  0.00  0.00    +0.000 N 
ATOM      6  C   UNL     1     -11.422  52.105  50.184  0.00  0.00    +0.000 A 
ATOM      7  C   UNL     1     -10.948  52.006  48.864  0.00  0.00    +0.000 A 
ATOM      8  C   UNL     1     -11.066  51.120  51.124  0.00  0.00    +0.000 A 
ATOM      9  C   UNL     1     -10.094  50.940  48.537  0.00  0.00    +0.000 A 
ATOM     10  C   UNL     1     -10.242  50.054  50.773  0.00  0.00    +0.000 A 
ATOM     11  C   UNL     1      -9.752  49.967  49.478  0.00  0.00    +0.000 A 
ENDROOT
BRANCH   1  17
ATOM     12  S   UNL     1     -15.395  56.471  51.200  0.00  0.00    +0.000 S 
ATOM     13  O   UNL     1     -15.317  56.591  52.643  0.00  0.00    +0.000 OA
ATOM     14  O   UNL     1     -16.678  56.293  50.548  0.00  0.00    +0.000 OA
ATOM     15  N   UNL     1     -14.437  55.240  50.756  0.00  0.00    +0.000 N 
ATOM     16  C   UNL     1     -14.726  57.958  50.553  0.00  0.00    +0.000 A 
ATOM     17  C   UNL     1     -13.320  55.454  50.124  0.00  0.00    +0.000 C 
ATOM     18  C   UNL     1     -13.499  57.890  49.914  0.00  0.00    +0.000 A 
ATOM     19  C   UNL     1     -15.431  59.159  50.680  0.00  0.00    +0.000 A 
ATOM     20  N   UNL     1     -12.803  56.689  49.802  0.00  0.00    +0.000 N 
ATOM     21  C   UNL     1     -12.930  59.080  49.450  0.00  0.00    +0.000 A 
ATOM     22  C   UNL     1     -14.869  60.331  50.177  0.00  0.00    +0.000 A 
ATOM     23  C   UNL     1     -13.613  60.293  49.572  0.00  0.00    +0.000 A 
ATOM     24  H   UNL     1     -14.703  54.317  50.969  0.00  0.00    +0.000 HD
ATOM     25  H   UNL     1     -11.877  56.727  49.471  0.00  0.00    +0.000 HD
ENDBRANCH   1  17
BRANCH   3  26
ATOM     26  O   UNL     1     -12.684  53.235  51.898  0.00  0.00    +0.000 OA
ATOM     27  H   UNL     1     -12.988  52.439  52.287  0.00  0.00    +0.000 HD
ENDBRANCH   3  26
BRANCH   5  28
ATOM     28  C   UNL     1     -10.862  52.933  46.517  0.00  0.00    +0.000 C 
BRANCH  28  29
ATOM     29  C   UNL     1      -9.371  53.230  46.278  0.00  0.00    +0.000 C 
BRANCH  29  30
ATOM     30  C   UNL     1      -8.965  54.709  46.176  0.00  0.00    +0.000 C 
ATOM     31  C   UNL     1      -8.572  55.305  47.528  0.00  0.00    +0.000 C 
ATOM     32  C   UNL     1      -7.788  54.830  45.200  0.00  0.00    +0.000 C 
ENDBRANCH  29  30
ENDBRANCH  28  29
ENDBRANCH   5  28
TORSDOF 5
ENDMDL
MODEL 3
REMARK VINA RESULT:      -7.9      2.088      2.872
REMARK  Name = 298159
REMARK  7 active torsions:
REMARK  status: ('A' for Active; 'I' for Inactive)
REMARK    1  A    between atoms: C_6  and  C_10
REMARK    2  A    between atoms: C_14  and  O_18
REMARK    3  A    between atoms: N_17  and  C_21
REMARK    4  A    between atoms: C_21  and  C_24
REMARK    5  A    between atoms: C_24  and  C_27
REMARK    6  A    between atoms: C_27  and  C_28
REMARK    7  A    between atoms: C_27  and  C_29
REMARK                            x       y       z     vdW  Elec       q    Type
REMARK                         _______ _______ _______ _____ _____    ______ ____
ROOT
ATOM      1  C   UNL     1     -11.586  54.045  51.171  0.00  0.00    +0.000 A 
ATOM      2  C   UNL     1     -10.667  54.066  52.350  0.00  0.00    +0.000 A 
ATOM      3  C   UNL     1     -11.675  52.942  50.409  0.00  0.00    +0.000 A 
ATOM      4  O   UNL     1     -10.701  55.051  53.095  0.00  0.00    +0.000 OA
ATOM      5  N   UNL     1      -9.830  52.978  52.570  0.00  0.00    +0.000 N 
ATOM      6  C   UNL     1     -10.888  51.743  50.738  0.00  0.00    +0.000 A 
ATOM      7  C   UNL     1      -9.989  51.770  51.820  0.00  0.00    +0.000 A 
ATOM      8  C   UNL     1     -11.041  50.560  49.993  0.00  0.00    +0.000 A 
ATOM      9  C   UNL     1      -9.301  50.590  52.147  0.00  0.00    +0.000 A 
ATOM     10  C   UNL     1     -10.327  49.409  50.315  0.00  0.00    +0.000 A 
ATOM     11  C   UNL     1      -9.459  49.423  51.397  0.00  0.00    +0.000 A 
ENDROOT
BRANCH   1  17
ATOM     12  S   UNL     1     -13.288  57.053  49.295  0.00  0.00    +0.000 S 
ATOM     13  O   UNL     1     -14.391  56.637  48.451  0.00  0.00    +0.000 OA
ATOM     14  O   UNL     1     -12.349  58.058  48.833  0.00  0.00    +0.000 OA
ATOM     15  N   UNL     1     -12.442  55.727  49.690  0.00  0.00    +0.000 N 
ATOM     16  C   UNL     1     -14.012  57.705  50.755  0.00  0.00    +0.000 A 
ATOM     17  C   UNL     1     -12.465  55.252  50.901  0.00  0.00    +0.000 C 
ATOM     18  C   UNL     1     -13.876  56.976  51.924  0.00  0.00    +0.000 A 
ATOM     19  C   UNL     1     -14.690  58.927  50.716  0.00  0.00    +0.000 A 
ATOM     20  N   UNL     1     -13.206  55.756  51.947  0.00  0.00    +0.000 N 
ATOM     21  C   UNL     1     -14.504  57.457  53.078  0.00  0.00    +0.000 A 
ATOM     22  C   UNL     1     -15.276  59.413  51.884  0.00  0.00    +0.000 A 
ATOM     23  C   UNL     1     -15.192  58.673  53.062  0.00  0.00    +0.000 A 
ATOM     24  H   UNL     1     -11.905  55.273  49.002  0.00  0.00    +0.000 HD
ATOM     25  H   UNL     1     -13.267  55.216  52.768  0.00  0.00    +0.000 HD
ENDBRANCH   1  17
BRANCH   3  26
ATOM     26  O   UNL     1     -12.518  52.809  49.318  0.00  0.00    +0.000 OA
ATOM     27  H   UNL     1     -12.230  52.342  48.559  0.00  0.00    +0.000 HD
ENDBRANCH   3  26
BRANCH   5  28
ATOM     28  C   UNL     1      -8.891  53.055  53.696  0.00  0.00    +0.000 C 
BRANCH  28  29
ATOM     29  C   UNL     1      -7.489  53.598  53.371  0.00  0.00    +0.000 C 
BRANCH  29  30
ATOM     30  C   UNL     1      -6.957  54.730  54.264  0.00  0.00    +0.000 C 
ATOM     31  C   UNL     1      -5.485  54.544  54.634  0.00  0.00    +0.000 C 
ATOM     32  C   UNL     1      -7.137  56.064  53.528  0.00  0.00    +0.000 C 
ENDBRANCH  29  30
ENDBRANCH  28  29
ENDBRANCH   5  28
TORSDOF 5
ENDMDL
MODEL 4
REMARK VINA RESULT:      -7.9      3.433      4.943
REMARK  Name = 298159
REMARK  7 active torsions:
REMARK  status: ('A' for Active; 'I' for Inactive)
REMARK    1  A    between atoms: C_6  and  C_10
REMARK    2  A    between atoms: C_14  and  O_18
REMARK    3  A    between atoms: N_17  and  C_21
REMARK    4  A    between atoms: C_21  and  C_24
REMARK    5  A    between atoms: C_24  and  C_27
REMARK    6  A    between atoms: C_27  and  C_28
REMARK    7  A    between atoms: C_27  and  C_29
REMARK                            x       y       z     vdW  Elec       q    Type
REMARK                         _______ _______ _______ _____ _____    ______ ____
ROOT
ATOM      1  C   UNL     1     -11.280  56.142  48.753  0.00  0.00    +0.000 A 
ATOM      2  C   UNL     1     -10.097  55.715  49.560  0.00  0.00    +0.000 A 
ATOM      3  C   UNL     1     -11.449  55.669  47.506  0.00  0.00    +0.000 A 
ATOM      4  O   UNL     1     -10.039  56.074  50.741  0.00  0.00    +0.000 OA
ATOM      5  N   UNL     1      -9.125  54.921  48.961  0.00  0.00    +0.000 N 
ATOM      6  C   UNL     1     -10.485  54.715  46.935  0.00  0.00    +0.000 A 
ATOM      7  C   UNL     1      -9.347  54.341  47.672  0.00  0.00    +0.000 A 
ATOM      8  C   UNL     1     -10.704  54.153  45.663  0.00  0.00    +0.000 A 
ATOM      9  C   UNL     1      -8.482  53.379  47.125  0.00  0.00    +0.000 A 
ATOM     10  C   UNL     1      -9.817  53.223  45.126  0.00  0.00    +0.000 A 
ATOM     11  C   UNL     1      -8.707  52.833  45.860  0.00  0.00    +0.000 A 
ENDROOT
BRANCH   1  17
ATOM     12  S   UNL     1     -13.535  59.287  49.449  0.00  0.00    +0.000 S 
ATOM     13  O   UNL     1     -14.681  59.365  48.565  0.00  0.00    +0.000 OA
ATOM     14  O   UNL     1     -12.782  60.483  49.780  0.00  0.00    +0.000 OA
ATOM     15  N   UNL     1     -12.501  58.206  48.824  0.00  0.00    +0.000 N 
ATOM     16  C   UNL     1     -14.139  58.662  50.974  0.00  0.00    +0.000 A 
ATOM     17  C   UNL     1     -12.317  57.049  49.389  0.00  0.00    +0.000 C 
ATOM     18  C   UNL     1     -13.775  57.375  51.333  0.00  0.00    +0.000 A 
ATOM     19  C   UNL     1     -14.951  59.459  51.787  0.00  0.00    +0.000 A 
ATOM     20  N   UNL     1     -12.974  56.590  50.510  0.00  0.00    +0.000 N 
ATOM     21  C   UNL     1     -14.303  56.846  52.515  0.00  0.00    +0.000 A 
ATOM     22  C   UNL     1     -15.437  58.931  52.982  0.00  0.00    +0.000 A 
ATOM     23  C   UNL     1     -15.122  57.621  53.340  0.00  0.00    +0.000 A 
ATOM     24  H   UNL     1     -12.006  58.428  48.003  0.00  0.00    +0.000 HD
ATOM     25  H   UNL     1     -12.869  55.639  50.745  0.00  0.00    +0.000 HD
ENDBRANCH   1  17
BRANCH   3  26
ATOM     26  O   UNL     1     -12.525  55.976  46.691  0.00  0.00    +0.000 OA
ATOM     27  H   UNL     1     -12.391  56.123  45.775  0.00  0.00    +0.000 HD
ENDBRANCH   3  26
BRANCH   5  28
ATOM     28  C   UNL     1      -7.942  54.572  49.757  0.00  0.00    +0.000 C 
BRANCH  28  29
ATOM     29  C   UNL     1      -6.765  55.561  49.688  0.00  0.00    +0.000 C 
BRANCH  29  30
ATOM     30  C   UNL     1      -5.350  54.962  49.726  0.00  0.00    +0.000 C 
ATOM     31  C   UNL     1      -5.063  54.215  51.028  0.00  0.00    +0.000 C 
ATOM     32  C   UNL     1      -5.190  54.004  48.538  0.00  0.00    +0.000 C 
ENDBRANCH  29  30
ENDBRANCH  28  29
ENDBRANCH   5  28
TORSDOF 5
ENDMDL
MODEL 5
REMARK VINA RESULT:      -7.9      4.176      5.604
REMARK  Name = 298159
REMARK  7 active torsions:
REMARK  status: ('A' for Active; 'I' for Inactive)
REMARK    1  A    between atoms: C_6  and  C_10
REMARK    2  A    between atoms: C_14  and  O_18
REMARK    3  A    between atoms: N_17  and  C_21
REMARK    4  A    between atoms: C_21  and  C_24
REMARK    5  A    between atoms: C_24  and  C_27
REMARK    6  A    between atoms: C_27  and  C_28
REMARK    7  A    between atoms: C_27  and  C_29
REMARK                            x       y       z     vdW  Elec       q    Type
REMARK                         _______ _______ _______ _____ _____    ______ ____
ROOT
ATOM      1  C   UNL     1     -12.469  54.281  49.604  0.00  0.00    +0.000 A 
ATOM      2  C   UNL     1     -11.946  54.240  48.205  0.00  0.00    +0.000 A 
ATOM      3  C   UNL     1     -12.167  53.293  50.464  0.00  0.00    +0.000 A 
ATOM      4  O   UNL     1     -12.145  55.222  47.481  0.00  0.00    +0.000 OA
ATOM      5  N   UNL     1     -11.245  53.116  47.782  0.00  0.00    +0.000 N 
ATOM      6  C   UNL     1     -11.304  52.178  50.043  0.00  0.00    +0.000 A 
ATOM      7  C   UNL     1     -10.842  52.111  48.717  0.00  0.00    +0.000 A 
ATOM      8  C   UNL     1     -10.916  51.188  50.964  0.00  0.00    +0.000 A 
ATOM      9  C   UNL     1      -9.968  51.069  48.365  0.00  0.00    +0.000 A 
ATOM     10  C   UNL     1     -10.072  50.146  50.587  0.00  0.00    +0.000 A 
ATOM     11  C   UNL     1      -9.594  50.090  49.287  0.00  0.00    +0.000 A 
ENDROOT
BRANCH   1  17
ATOM     12  S   UNL     1     -15.367  56.438  51.157  0.00  0.00    +0.000 S 
ATOM     13  O   UNL     1     -15.287  56.531  52.601  0.00  0.00    +0.000 OA
ATOM     14  O   UNL     1     -16.649  56.249  50.504  0.00  0.00    +0.000 OA
ATOM     15  N   UNL     1     -14.387  55.236  50.685  0.00  0.00    +0.000 N 
ATOM     16  C   UNL     1     -14.730  57.952  50.538  0.00  0.00    +0.000 A 
ATOM     17  C   UNL     1     -13.277  55.485  50.054  0.00  0.00    +0.000 C 
ATOM     18  C   UNL     1     -13.505  57.921  49.894  0.00  0.00    +0.000 A 
ATOM     19  C   UNL     1     -15.459  59.135  50.691  0.00  0.00    +0.000 A 
ATOM     20  N   UNL     1     -12.786  56.737  49.756  0.00  0.00    +0.000 N 
ATOM     21  C   UNL     1     -12.960  59.131  49.453  0.00  0.00    +0.000 A 
ATOM     22  C   UNL     1     -14.921  60.328  50.210  0.00  0.00    +0.000 A 
ATOM     23  C   UNL     1     -13.667  60.327  49.601  0.00  0.00    +0.000 A 
ATOM     24  H   UNL     1     -14.635  54.304  50.880  0.00  0.00    +0.000 HD
ATOM     25  H   UNL     1     -11.861  56.799  49.423  0.00  0.00    +0.000 HD
ENDBRANCH   1  17
BRANCH   3  26
ATOM     26  O   UNL     1     -12.573  53.254  51.787  0.00  0.00    +0.000 OA
ATOM     27  H   UNL     1     -12.297  53.924  52.381  0.00  0.00    +0.000 HD
ENDBRANCH   3  26
BRANCH   5  28
ATOM     28  C   UNL     1     -10.801  53.075  46.383  0.00  0.00    +0.000 C 
BRANCH  28  29
ATOM     29  C   UNL     1     -11.833  52.567  45.361  0.00  0.00    +0.000 C 
BRANCH  29  30
ATOM     30  C   UNL     1     -11.611  51.157  44.791  0.00  0.00    +0.000 C 
ATOM     31  C   UNL     1     -10.137  50.854  44.528  0.00  0.00    +0.000 C 
ATOM     32  C   UNL     1     -12.177  50.131  45.782  0.00  0.00    +0.000 C 
ENDBRANCH  29  30
ENDBRANCH  28  29
ENDBRANCH   5  28
TORSDOF 5
ENDMDL
MODEL 6
REMARK VINA RESULT:      -7.8      3.371      7.331
REMARK  Name = 298159
REMARK  7 active torsions:
REMARK  status: ('A' for Active; 'I' for Inactive)
REMARK    1  A    between atoms: C_6  and  C_10
REMARK    2  A    between atoms: C_14  and  O_18
REMARK    3  A    between atoms: N_17  and  C_21
REMARK    4  A    between atoms: C_21  and  C_24
REMARK    5  A    between atoms: C_24  and  C_27
REMARK    6  A    between atoms: C_27  and  C_28
REMARK    7  A    between atoms: C_27  and  C_29
REMARK                            x       y       z     vdW  Elec       q    Type
REMARK                         _______ _______ _______ _____ _____    ______ ____
ROOT
ATOM      1  C   UNL     1     -10.255  55.187  50.807  0.00  0.00    +0.000 A 
ATOM      2  C   UNL     1      -9.848  55.116  49.370  0.00  0.00    +0.000 A 
ATOM      3  C   UNL     1     -11.463  55.671  51.140  0.00  0.00    +0.000 A 
ATOM      4  O   UNL     1      -8.782  54.556  49.095  0.00  0.00    +0.000 OA
ATOM      5  N   UNL     1     -10.688  55.661  48.406  0.00  0.00    +0.000 N 
ATOM      6  C   UNL     1     -12.402  56.113  50.097  0.00  0.00    +0.000 A 
ATOM      7  C   UNL     1     -12.011  56.089  48.746  0.00  0.00    +0.000 A 
ATOM      8  C   UNL     1     -13.698  56.541  50.436  0.00  0.00    +0.000 A 
ATOM      9  C   UNL     1     -12.952  56.457  47.770  0.00  0.00    +0.000 A 
ATOM     10  C   UNL     1     -14.607  56.930  49.456  0.00  0.00    +0.000 A 
ATOM     11  C   UNL     1     -14.235  56.883  48.121  0.00  0.00    +0.000 A 
ENDROOT
BRANCH   1  17
ATOM     12  S   UNL     1      -7.043  54.671  53.017  0.00  0.00    +0.000 S 
ATOM     13  O   UNL     1      -6.932  55.648  54.083  0.00  0.00    +0.000 OA
ATOM     14  O   UNL     1      -5.871  54.277  52.258  0.00  0.00    +0.000 OA
ATOM     15  N   UNL     1      -8.155  55.212  51.968  0.00  0.00    +0.000 N 
ATOM     16  C   UNL     1      -7.650  53.204  53.764  0.00  0.00    +0.000 A 
ATOM     17  C   UNL     1      -9.317  54.637  51.866  0.00  0.00    +0.000 C 
ATOM     18  C   UNL     1      -8.947  52.819  53.469  0.00  0.00    +0.000 A 
ATOM     19  C   UNL     1      -6.830  52.459  54.616  0.00  0.00    +0.000 A 
ATOM     20  N   UNL     1      -9.756  53.575  52.626  0.00  0.00    +0.000 N 
ATOM     21  C   UNL     1      -9.461  51.686  54.109  0.00  0.00    +0.000 A 
ATOM     22  C   UNL     1      -7.342  51.309  55.215  0.00  0.00    +0.000 A 
ATOM     23  C   UNL     1      -8.661  50.929  54.969  0.00  0.00    +0.000 A 
ATOM     24  H   UNL     1      -7.948  55.988  51.400  0.00  0.00    +0.000 HD
ATOM     25  H   UNL     1     -10.710  53.335  52.570  0.00  0.00    +0.000 HD
ENDBRANCH   1  17
BRANCH   3  26
ATOM     26  O   UNL     1     -11.947  55.748  52.435  0.00  0.00    +0.000 OA
ATOM     27  H   UNL     1     -12.181  56.579  52.798  0.00  0.00    +0.000 HD
ENDBRANCH   3  26
BRANCH   5  28
ATOM     28  C   UNL     1     -10.233  55.637  47.011  0.00  0.00    +0.000 C 
BRANCH  28  29
ATOM     29  C   UNL     1     -10.551  54.357  46.218  0.00  0.00    +0.000 C 
BRANCH  29  30
ATOM     30  C   UNL     1      -9.357  53.594  45.621  0.00  0.00    +0.000 C 
ATOM     31  C   UNL     1      -9.678  52.969  44.264  0.00  0.00    +0.000 C 
ATOM     32  C   UNL     1      -8.177  54.564  45.473  0.00  0.00    +0.000 C 
ENDBRANCH  29  30
ENDBRANCH  28  29
ENDBRANCH   5  28
TORSDOF 5
ENDMDL
MODEL 7
REMARK VINA RESULT:      -7.8      2.626      8.084
REMARK  Name = 298159
REMARK  7 active torsions:
REMARK  status: ('A' for Active; 'I' for Inactive)
REMARK    1  A    between atoms: C_6  and  C_10
REMARK    2  A    between atoms: C_14  and  O_18
REMARK    3  A    between atoms: N_17  and  C_21
REMARK    4  A    between atoms: C_21  and  C_24
REMARK    5  A    between atoms: C_24  and  C_27
REMARK    6  A    between atoms: C_27  and  C_28
REMARK    7  A    between atoms: C_27  and  C_29
REMARK                            x       y       z     vdW  Elec       q    Type
REMARK                         _______ _______ _______ _____ _____    ______ ____
ROOT
ATOM      1  C   UNL     1     -10.025  54.631  50.945  0.00  0.00    +0.000 A 
ATOM      2  C   UNL     1     -11.345  55.200  51.354  0.00  0.00    +0.000 A 
ATOM      3  C   UNL     1      -9.706  54.543  49.642  0.00  0.00    +0.000 A 
ATOM      4  O   UNL     1     -11.554  55.375  52.560  0.00  0.00    +0.000 OA
ATOM      5  N   UNL     1     -12.272  55.524  50.370  0.00  0.00    +0.000 N 
ATOM      6  C   UNL     1     -10.642  55.024  48.613  0.00  0.00    +0.000 A 
ATOM      7  C   UNL     1     -11.902  55.521  48.988  0.00  0.00    +0.000 A 
ATOM      8  C   UNL     1     -10.277  55.011  47.254  0.00  0.00    +0.000 A 
ATOM      9  C   UNL     1     -12.745  56.032  47.987  0.00  0.00    +0.000 A 
ATOM     10  C   UNL     1     -11.139  55.495  46.273  0.00  0.00    +0.000 A 
ATOM     11  C   UNL     1     -12.373  56.009  46.641  0.00  0.00    +0.000 A 
ENDROOT
BRANCH   1  17
ATOM     12  S   UNL     1      -6.746  54.514  53.111  0.00  0.00    +0.000 S 
ATOM     13  O   UNL     1      -6.687  55.573  54.100  0.00  0.00    +0.000 OA
ATOM     14  O   UNL     1      -5.561  54.150  52.357  0.00  0.00    +0.000 OA
ATOM     15  N   UNL     1      -7.913  54.894  52.052  0.00  0.00    +0.000 N 
ATOM     16  C   UNL     1      -7.230  53.067  53.977  0.00  0.00    +0.000 A 
ATOM     17  C   UNL     1      -9.031  54.230  52.019  0.00  0.00    +0.000 C 
ATOM     18  C   UNL     1      -8.500  52.568  53.742  0.00  0.00    +0.000 A 
ATOM     19  C   UNL     1      -6.342  52.448  54.862  0.00  0.00    +0.000 A 
ATOM     20  N   UNL     1      -9.377  53.199  52.864  0.00  0.00    +0.000 N 
ATOM     21  C   UNL     1      -8.917  51.452  54.474  0.00  0.00    +0.000 A 
ATOM     22  C   UNL     1      -6.758  51.312  55.555  0.00  0.00    +0.000 A 
ATOM     23  C   UNL     1      -8.049  50.821  55.369  0.00  0.00    +0.000 A 
ATOM     24  H   UNL     1      -7.773  55.638  51.424  0.00  0.00    +0.000 HD
ATOM     25  H   UNL     1     -10.311  52.887  52.848  0.00  0.00    +0.000 HD
ENDBRANCH   1  17
BRANCH   3  26
ATOM     26  O   UNL     1      -8.499  54.064  49.162  0.00  0.00    +0.000 OA
ATOM     27  H   UNL     1      -8.386  53.146  49.015  0.00  0.00    +0.000 HD
ENDBRANCH   3  26
BRANCH   5  28
ATOM     28  C   UNL     1     -13.585  56.018  50.804  0.00  0.00    +0.000 C 
BRANCH  28  29
ATOM     29  C   UNL     1     -13.662  57.514  51.156  0.00  0.00    +0.000 C 
BRANCH  29  30
ATOM     30  C   UNL     1     -15.038  58.061  51.569  0.00  0.00    +0.000 C 
ATOM     31  C   UNL     1     -15.203  58.154  53.085  0.00  0.00    +0.000 C 
ATOM     32  C   UNL     1     -15.220  59.452  50.947  0.00  0.00    +0.000 C 
ENDBRANCH  29  30
ENDBRANCH  28  29
ENDBRANCH   5  28
TORSDOF 5
ENDMDL
MODEL 8
REMARK VINA RESULT:      -7.7      4.453      6.269
REMARK  Name = 298159
REMARK  7 active torsions:
REMARK  status: ('A' for Active; 'I' for Inactive)
REMARK    1  A    between atoms: C_6  and  C_10
REMARK    2  A    between atoms: C_14  and  O_18
REMARK    3  A    between atoms: N_17  and  C_21
REMARK    4  A    between atoms: C_21  and  C_24
REMARK    5  A    between atoms: C_24  and  C_27
REMARK    6  A    between atoms: C_27  and  C_28
REMARK    7  A    between atoms: C_27  and  C_29
REMARK                            x       y       z     vdW  Elec       q    Type
REMARK                         _______ _______ _______ _____ _____    ______ ____
ROOT
ATOM      1  C   UNL     1     -10.937  55.665  48.615  0.00  0.00    +0.000 A 
ATOM      2  C   UNL     1     -11.335  55.213  47.247  0.00  0.00    +0.000 A 
ATOM      3  C   UNL     1      -9.676  55.481  49.043  0.00  0.00    +0.000 A 
ATOM      4  O   UNL     1     -12.467  55.506  46.845  0.00  0.00    +0.000 OA
ATOM      5  N   UNL     1     -10.419  54.504  46.480  0.00  0.00    +0.000 N 
ATOM      6  C   UNL     1      -8.676  54.856  48.164  0.00  0.00    +0.000 A 
ATOM      7  C   UNL     1      -9.053  54.390  46.892  0.00  0.00    +0.000 A 
ATOM      8  C   UNL     1      -7.336  54.739  48.576  0.00  0.00    +0.000 A 
ATOM      9  C   UNL     1      -8.060  53.858  46.053  0.00  0.00    +0.000 A 
ATOM     10  C   UNL     1      -6.372  54.180  47.741  0.00  0.00    +0.000 A 
ATOM     11  C   UNL     1      -6.735  53.743  46.476  0.00  0.00    +0.000 A 
ENDROOT
BRANCH   1  17
ATOM     12  S   UNL     1     -13.579  56.389  51.437  0.00  0.00    +0.000 S 
ATOM     13  O   UNL     1     -12.967  56.687  52.717  0.00  0.00    +0.000 OA
ATOM     14  O   UNL     1     -14.755  55.543  51.365  0.00  0.00    +0.000 OA
ATOM     15  N   UNL     1     -12.439  55.738  50.485  0.00  0.00    +0.000 N 
ATOM     16  C   UNL     1     -14.056  57.935  50.755  0.00  0.00    +0.000 A 
ATOM     17  C   UNL     1     -11.952  56.396  49.474  0.00  0.00    +0.000 C 
ATOM     18  C   UNL     1     -13.352  58.401  49.658  0.00  0.00    +0.000 A 
ATOM     19  C   UNL     1     -15.122  58.648  51.312  0.00  0.00    +0.000 A 
ATOM     20  N   UNL     1     -12.286  57.685  49.120  0.00  0.00    +0.000 N 
ATOM     21  C   UNL     1     -13.683  59.661  49.148  0.00  0.00    +0.000 A 
ATOM     22  C   UNL     1     -15.467  59.884  50.767  0.00  0.00    +0.000 A 
ATOM     23  C   UNL     1     -14.740  60.395  49.692  0.00  0.00    +0.000 A 
ATOM     24  H   UNL     1     -12.110  54.831  50.676  0.00  0.00    +0.000 HD
ATOM     25  H   UNL     1     -11.733  58.131  48.438  0.00  0.00    +0.000 HD
ENDBRANCH   1  17
BRANCH   3  26
ATOM     26  O   UNL     1      -9.200  55.892  50.277  0.00  0.00    +0.000 OA
ATOM     27  H   UNL     1      -8.502  56.515  50.324  0.00  0.00    +0.000 HD
ENDBRANCH   3  26
BRANCH   5  28
ATOM     28  C   UNL     1     -10.860  54.016  45.167  0.00  0.00    +0.000 C 
BRANCH  28  29
ATOM     29  C   UNL     1     -11.352  52.559  45.119  0.00  0.00    +0.000 C 
BRANCH  29  30
ATOM     30  C   UNL     1     -10.696  51.638  44.077  0.00  0.00    +0.000 C 
ATOM     31  C   UNL     1      -9.929  52.413  43.007  0.00  0.00    +0.000 C 
ATOM     32  C   UNL     1      -9.741  50.679  44.800  0.00  0.00    +0.000 C 
ENDBRANCH  29  30
ENDBRANCH  28  29
ENDBRANCH   5  28
TORSDOF 5
ENDMDL
MODEL 9
REMARK VINA RESULT:      -7.7      4.155      5.842
REMARK  Name = 298159
REMARK  7 active torsions:
REMARK  status: ('A' for Active; 'I' for Inactive)
REMARK    1  A    between atoms: C_6  and  C_10
REMARK    2  A    between atoms: C_14  and  O_18
REMARK    3  A    between atoms: N_17  and  C_21
REMARK    4  A    between atoms: C_21  and  C_24
REMARK    5  A    between atoms: C_24  and  C_27
REMARK    6  A    between atoms: C_27  and  C_28
REMARK    7  A    between atoms: C_27  and  C_29
REMARK                            x       y       z     vdW  Elec       q    Type
REMARK                         _______ _______ _______ _____ _____    ______ ____
ROOT
ATOM      1  C   UNL     1     -11.465  55.865  48.855  0.00  0.00    +0.000 A 
ATOM      2  C   UNL     1     -11.608  55.486  47.416  0.00  0.00    +0.000 A 
ATOM      3  C   UNL     1     -10.442  55.379  49.579  0.00  0.00    +0.000 A 
ATOM      4  O   UNL     1     -12.489  56.046  46.753  0.00  0.00    +0.000 OA
ATOM      5  N   UNL     1     -10.741  54.542  46.879  0.00  0.00    +0.000 N 
ATOM      6  C   UNL     1      -9.447  54.491  48.958  0.00  0.00    +0.000 A 
ATOM      7  C   UNL     1      -9.599  54.096  47.617  0.00  0.00    +0.000 A 
ATOM      8  C   UNL     1      -8.329  54.048  49.690  0.00  0.00    +0.000 A 
ATOM      9  C   UNL     1      -8.597  53.300  47.036  0.00  0.00    +0.000 A 
ATOM     10  C   UNL     1      -7.363  53.235  49.104  0.00  0.00    +0.000 A 
ATOM     11  C   UNL     1      -7.496  52.864  47.775  0.00  0.00    +0.000 A 
ENDROOT
BRANCH   1  17
ATOM     12  S   UNL     1     -13.513  59.172  49.432  0.00  0.00    +0.000 S 
ATOM     13  O   UNL     1     -14.653  59.289  48.544  0.00  0.00    +0.000 OA
ATOM     14  O   UNL     1     -12.686  60.328  49.719  0.00  0.00    +0.000 OA
ATOM     15  N   UNL     1     -12.552  58.004  48.848  0.00  0.00    +0.000 N 
ATOM     16  C   UNL     1     -14.155  58.643  50.978  0.00  0.00    +0.000 A 
ATOM     17  C   UNL     1     -12.441  56.860  49.455  0.00  0.00    +0.000 C 
ATOM     18  C   UNL     1     -13.873  57.350  51.385  0.00  0.00    +0.000 A 
ATOM     19  C   UNL     1     -14.913  59.519  51.760  0.00  0.00    +0.000 A 
ATOM     20  N   UNL     1     -13.124  56.485  50.592  0.00  0.00    +0.000 N 
ATOM     21  C   UNL     1     -14.433  56.899  52.585  0.00  0.00    +0.000 A 
ATOM     22  C   UNL     1     -15.431  59.068  52.973  0.00  0.00    +0.000 A 
ATOM     23  C   UNL     1     -15.199  57.755  53.380  0.00  0.00    +0.000 A 
ATOM     24  H   UNL     1     -12.044  58.164  48.020  0.00  0.00    +0.000 HD
ATOM     25  H   UNL     1     -13.080  55.539  50.862  0.00  0.00    +0.000 HD
ENDBRANCH   1  17
BRANCH   3  26
ATOM     26  O   UNL     1     -10.202  55.694  50.905  0.00  0.00    +0.000 OA
ATOM     27  H   UNL     1     -10.919  55.782  51.502  0.00  0.00    +0.000 HD
ENDBRANCH   3  26
BRANCH   5  28
ATOM     28  C   UNL     1     -10.948  54.140  45.483  0.00  0.00    +0.000 C 
BRANCH  28  29
ATOM     29  C   UNL     1     -11.815  52.888  45.261  0.00  0.00    +0.000 C 
BRANCH  29  30
ATOM     30  C   UNL     1     -11.212  51.768  44.398  0.00  0.00    +0.000 C 
ATOM     31  C   UNL     1     -10.111  52.272  43.465  0.00  0.00    +0.000 C 
ATOM     32  C   UNL     1     -10.643  50.686  45.325  0.00  0.00    +0.000 C 
ENDBRANCH  29  30
ENDBRANCH  28  29
ENDBRANCH   5  28
TORSDOF 5
ENDMDL
