MODEL 1
REMARK VINA RESULT:      -8.6      0.000      0.000
REMARK  Name = 338168
REMARK  5 active torsions:
REMARK  status: ('A' for Active; 'I' for Inactive)
REMARK    1  A    between atoms: C_6  and  C_10
REMARK    2  A    between atoms: C_14  and  O_18
REMARK    3  A    between atoms: N_17  and  C_21
REMARK    4  A    between atoms: C_21  and  C_24
REMARK    5  A    between atoms: C_24  and  C_27
REMARK                            x       y       z     vdW  Elec       q    Type
REMARK                         _______ _______ _______ _____ _____    ______ ____
ROOT
ATOM      1  C   UNL     1      -9.994  54.556  52.367  0.00  0.00    +0.000 A 
ATOM      2  C   UNL     1      -8.599  55.063  52.257  0.00  0.00    +0.000 A 
ATOM      3  C   UNL     1     -10.246  53.424  53.046  0.00  0.00    +0.000 A 
ATOM      4  O   UNL     1      -8.397  56.002  51.485  0.00  0.00    +0.000 OA
ATOM      5  N   UNL     1      -7.605  54.484  53.047  0.00  0.00    +0.000 N 
ATOM      6  C   UNL     1      -9.165  52.712  53.735  0.00  0.00    +0.000 A 
ATOM      7  C   UNL     1      -7.864  53.254  53.753  0.00  0.00    +0.000 A 
ATOM      8  C   UNL     1      -9.442  51.511  54.415  0.00  0.00    +0.000 A 
ATOM      9  C   UNL     1      -6.870  52.558  54.466  0.00  0.00    +0.000 A 
ATOM     10  C   UNL     1      -8.448  50.866  55.129  0.00  0.00    +0.000 A 
ATOM     11  C   UNL     1      -7.163  51.381  55.164  0.00  0.00    +0.000 A 
ATOM     12  F   UNL     1      -8.732  49.743  55.800  0.00  0.00    +0.000 F 
ENDROOT
BRANCH   1  18
ATOM     13  S   UNL     1     -12.380  55.787  49.429  0.00  0.00    +0.000 S 
ATOM     14  O   UNL     1     -13.053  54.540  49.147  0.00  0.00    +0.000 OA
ATOM     15  O   UNL     1     -11.944  56.675  48.376  0.00  0.00    +0.000 OA
ATOM     16  N   UNL     1     -11.057  55.462  50.358  0.00  0.00    +0.000 N 
ATOM     17  C   UNL     1     -13.372  56.694  50.536  0.00  0.00    +0.000 A 
ATOM     18  C   UNL     1     -11.131  55.285  51.737  0.00  0.00    +0.000 C 
ATOM     19  C   UNL     1     -13.109  56.559  51.895  0.00  0.00    +0.000 A 
ATOM     20  C   UNL     1     -14.366  57.548  50.049  0.00  0.00    +0.000 A 
ATOM     21  N   UNL     1     -12.119  55.729  52.449  0.00  0.00    +0.000 N 
ATOM     22  C   UNL     1     -13.868  57.325  52.784  0.00  0.00    +0.000 A 
ATOM     23  C   UNL     1     -15.119  58.293  50.952  0.00  0.00    +0.000 A 
ATOM     24  C   UNL     1     -14.864  58.189  52.319  0.00  0.00    +0.000 A 
ATOM     25  H   UNL     1     -10.178  55.390  49.920  0.00  0.00    +0.000 HD
ATOM     26  H   UNL     1     -12.177  55.481  53.401  0.00  0.00    +0.000 HD
ENDBRANCH   1  18
BRANCH   3  27
ATOM     27  O   UNL     1     -11.501  52.851  53.183  0.00  0.00    +0.000 OA
ATOM     28  H   UNL     1     -12.234  53.215  52.728  0.00  0.00    +0.000 HD
ENDBRANCH   3  27
BRANCH   5  29
ATOM     29  C   UNL     1      -6.227  55.027  52.982  0.00  0.00    +0.000 C 
BRANCH  29  30
ATOM     30  C   UNL     1      -5.216  54.238  52.129  0.00  0.00    +0.000 C 
BRANCH  30  31
ATOM     31  C   UNL     1      -5.347  54.510  50.657  0.00  0.00    +0.000 C 
ATOM     32  C   UNL     1      -6.142  53.639  49.718  0.00  0.00    +0.000 C 
ATOM     33  C   UNL     1      -4.642  53.584  49.695  0.00  0.00    +0.000 C 
ENDBRANCH  30  31
ENDBRANCH  29  30
ENDBRANCH   5  29
TORSDOF 5
ENDMDL
MODEL 2
REMARK VINA RESULT:      -8.3      3.859      7.421
REMARK  Name = 338168
REMARK  5 active torsions:
REMARK  status: ('A' for Active; 'I' for Inactive)
REMARK    1  A    between atoms: C_6  and  C_10
REMARK    2  A    between atoms: C_14  and  O_18
REMARK    3  A    between atoms: N_17  and  C_21
REMARK    4  A    between atoms: C_21  and  C_24
REMARK    5  A    between atoms: C_24  and  C_27
REMARK                            x       y       z     vdW  Elec       q    Type
REMARK                         _______ _______ _______ _____ _____    ______ ____
ROOT
ATOM      1  C   UNL     1     -10.166  55.108  50.851  0.00  0.00    +0.000 A 
ATOM      2  C   UNL     1      -9.818  55.171  49.405  0.00  0.00    +0.000 A 
ATOM      3  C   UNL     1     -11.357  55.565  51.277  0.00  0.00    +0.000 A 
ATOM      4  O   UNL     1      -8.658  54.902  49.090  0.00  0.00    +0.000 OA
ATOM      5  N   UNL     1     -10.816  55.492  48.483  0.00  0.00    +0.000 N 
ATOM      6  C   UNL     1     -12.346  56.070  50.319  0.00  0.00    +0.000 A 
ATOM      7  C   UNL     1     -12.082  56.009  48.935  0.00  0.00    +0.000 A 
ATOM      8  C   UNL     1     -13.576  56.573  50.785  0.00  0.00    +0.000 A 
ATOM      9  C   UNL     1     -13.082  56.463  48.054  0.00  0.00    +0.000 A 
ATOM     10  C   UNL     1     -14.546  56.987  49.891  0.00  0.00    +0.000 A 
ATOM     11  C   UNL     1     -14.311  56.934  48.528  0.00  0.00    +0.000 A 
ATOM     12  F   UNL     1     -15.724  57.432  50.345  0.00  0.00    +0.000 F 
ENDROOT
BRANCH   1  18
ATOM     13  S   UNL     1      -6.860  54.902  53.056  0.00  0.00    +0.000 S 
ATOM     14  O   UNL     1      -7.126  55.994  53.965  0.00  0.00    +0.000 OA
ATOM     15  O   UNL     1      -5.548  54.677  52.495  0.00  0.00    +0.000 OA
ATOM     16  N   UNL     1      -7.908  55.017  51.789  0.00  0.00    +0.000 N 
ATOM     17  C   UNL     1      -7.390  53.429  53.818  0.00  0.00    +0.000 A 
ATOM     18  C   UNL     1      -9.216  54.541  51.849  0.00  0.00    +0.000 C 
ATOM     19  C   UNL     1      -8.679  52.988  53.540  0.00  0.00    +0.000 A 
ATOM     20  C   UNL     1      -6.519  52.714  54.647  0.00  0.00    +0.000 A 
ATOM     21  N   UNL     1      -9.599  53.650  52.709  0.00  0.00    +0.000 N 
ATOM     22  C   UNL     1      -9.090  51.779  54.108  0.00  0.00    +0.000 A 
ATOM     23  C   UNL     1      -6.953  51.519  55.213  0.00  0.00    +0.000 A 
ATOM     24  C   UNL     1      -8.235  51.046  54.936  0.00  0.00    +0.000 A 
ATOM     25  H   UNL     1      -7.598  55.439  50.955  0.00  0.00    +0.000 HD
ATOM     26  H   UNL     1     -10.557  53.430  52.781  0.00  0.00    +0.000 HD
ENDBRANCH   1  18
BRANCH   3  27
ATOM     27  O   UNL     1     -11.767  55.579  52.601  0.00  0.00    +0.000 OA
ATOM     28  H   UNL     1     -12.669  55.444  52.813  0.00  0.00    +0.000 HD
ENDBRANCH   3  27
BRANCH   5  29
ATOM     29  C   UNL     1     -10.485  55.497  47.038  0.00  0.00    +0.000 C 
BRANCH  29  30
ATOM     30  C   UNL     1     -10.310  54.121  46.369  0.00  0.00    +0.000 C 
BRANCH  30  31
ATOM     31  C   UNL     1     -11.281  53.882  45.247  0.00  0.00    +0.000 C 
ATOM     32  C   UNL     1     -12.026  52.586  45.055  0.00  0.00    +0.000 C 
ATOM     33  C   UNL     1     -10.880  52.928  44.148  0.00  0.00    +0.000 C 
ENDBRANCH  30  31
ENDBRANCH  29  30
ENDBRANCH   5  29
TORSDOF 5
ENDMDL
MODEL 3
REMARK VINA RESULT:      -8.3      3.824      5.401
REMARK  Name = 338168
REMARK  5 active torsions:
REMARK  status: ('A' for Active; 'I' for Inactive)
REMARK    1  A    between atoms: C_6  and  C_10
REMARK    2  A    between atoms: C_14  and  O_18
REMARK    3  A    between atoms: N_17  and  C_21
REMARK    4  A    between atoms: C_21  and  C_24
REMARK    5  A    between atoms: C_24  and  C_27
REMARK                            x       y       z     vdW  Elec       q    Type
REMARK                         _______ _______ _______ _____ _____    ______ ____
ROOT
ATOM      1  C   UNL     1     -11.463  55.818  48.970  0.00  0.00    +0.000 A 
ATOM      2  C   UNL     1     -10.357  55.163  49.719  0.00  0.00    +0.000 A 
ATOM      3  C   UNL     1     -11.649  55.542  47.667  0.00  0.00    +0.000 A 
ATOM      4  O   UNL     1     -10.121  55.576  50.856  0.00  0.00    +0.000 OA
ATOM      5  N   UNL     1      -9.670  54.105  49.123  0.00  0.00    +0.000 N 
ATOM      6  C   UNL     1     -10.807  54.551  46.989  0.00  0.00    +0.000 A 
ATOM      7  C   UNL     1      -9.845  53.824  47.720  0.00  0.00    +0.000 A 
ATOM      8  C   UNL     1     -10.996  54.296  45.617  0.00  0.00    +0.000 A 
ATOM      9  C   UNL     1      -9.094  52.852  47.035  0.00  0.00    +0.000 A 
ATOM     10  C   UNL     1     -10.259  53.315  44.980  0.00  0.00    +0.000 A 
ATOM     11  C   UNL     1      -9.311  52.587  45.678  0.00  0.00    +0.000 A 
ATOM     12  F   UNL     1     -10.471  53.059  43.683  0.00  0.00    +0.000 F 
ENDROOT
BRANCH   1  18
ATOM     13  S   UNL     1     -13.518  59.192  49.448  0.00  0.00    +0.000 S 
ATOM     14  O   UNL     1     -14.506  59.006  48.411  0.00  0.00    +0.000 OA
ATOM     15  O   UNL     1     -12.891  60.473  49.685  0.00  0.00    +0.000 OA
ATOM     16  N   UNL     1     -12.304  58.103  49.209  0.00  0.00    +0.000 N 
ATOM     17  C   UNL     1     -14.201  58.632  50.949  0.00  0.00    +0.000 A 
ATOM     18  C   UNL     1     -12.383  56.781  49.638  0.00  0.00    +0.000 C 
ATOM     19  C   UNL     1     -13.946  57.317  51.320  0.00  0.00    +0.000 A 
ATOM     20  C   UNL     1     -14.946  59.503  51.750  0.00  0.00    +0.000 A 
ATOM     21  N   UNL     1     -13.198  56.394  50.570  0.00  0.00    +0.000 N 
ATOM     22  C   UNL     1     -14.449  56.879  52.548  0.00  0.00    +0.000 A 
ATOM     23  C   UNL     1     -15.449  59.043  52.964  0.00  0.00    +0.000 A 
ATOM     24  C   UNL     1     -15.193  57.734  53.368  0.00  0.00    +0.000 A 
ATOM     25  H   UNL     1     -11.487  58.400  48.744  0.00  0.00    +0.000 HD
ATOM     26  H   UNL     1     -13.293  55.432  50.757  0.00  0.00    +0.000 HD
ENDBRANCH   1  18
BRANCH   3  27
ATOM     27  O   UNL     1     -12.629  56.117  46.873  0.00  0.00    +0.000 OA
ATOM     28  H   UNL     1     -12.989  56.950  47.102  0.00  0.00    +0.000 HD
ENDBRANCH   3  27
BRANCH   5  29
ATOM     29  C   UNL     1      -8.607  53.413  49.891  0.00  0.00    +0.000 C 
BRANCH  29  30
ATOM     30  C   UNL     1      -7.406  54.272  50.329  0.00  0.00    +0.000 C 
BRANCH  30  31
ATOM     31  C   UNL     1      -6.658  54.874  49.173  0.00  0.00    +0.000 C 
ATOM     32  C   UNL     1      -5.753  54.080  48.266  0.00  0.00    +0.000 C 
ATOM     33  C   UNL     1      -5.158  55.007  49.286  0.00  0.00    +0.000 C 
ENDBRANCH  30  31
ENDBRANCH  29  30
ENDBRANCH   5  29
TORSDOF 5
ENDMDL
MODEL 4
REMARK VINA RESULT:      -8.2      3.663      7.272
REMARK  Name = 338168
REMARK  5 active torsions:
REMARK  status: ('A' for Active; 'I' for Inactive)
REMARK    1  A    between atoms: C_6  and  C_10
REMARK    2  A    between atoms: C_14  and  O_18
REMARK    3  A    between atoms: N_17  and  C_21
REMARK    4  A    between atoms: C_21  and  C_24
REMARK    5  A    between atoms: C_24  and  C_27
REMARK                            x       y       z     vdW  Elec       q    Type
REMARK                         _______ _______ _______ _____ _____    ______ ____
ROOT
ATOM      1  C   UNL     1     -10.159  55.450  50.492  0.00  0.00    +0.000 A 
ATOM      2  C   UNL     1     -10.337  55.703  49.036  0.00  0.00    +0.000 A 
ATOM      3  C   UNL     1     -11.191  55.620  51.335  0.00  0.00    +0.000 A 
ATOM      4  O   UNL     1      -9.324  55.701  48.333  0.00  0.00    +0.000 OA
ATOM      5  N   UNL     1     -11.626  55.894  48.536  0.00  0.00    +0.000 N 
ATOM      6  C   UNL     1     -12.515  55.995  50.826  0.00  0.00    +0.000 A 
ATOM      7  C   UNL     1     -12.730  56.105  49.437  0.00  0.00    +0.000 A 
ATOM      8  C   UNL     1     -13.577  56.200  51.727  0.00  0.00    +0.000 A 
ATOM      9  C   UNL     1     -14.028  56.422  48.995  0.00  0.00    +0.000 A 
ATOM     10  C   UNL     1     -14.847  56.483  51.258  0.00  0.00    +0.000 A 
ATOM     11  C   UNL     1     -15.083  56.594  49.898  0.00  0.00    +0.000 A 
ATOM     12  F   UNL     1     -15.856  56.642  52.123  0.00  0.00    +0.000 F 
ENDROOT
BRANCH   1  18
ATOM     13  S   UNL     1      -6.552  53.767  50.456  0.00  0.00    +0.000 S 
ATOM     14  O   UNL     1      -5.855  54.743  49.649  0.00  0.00    +0.000 OA
ATOM     15  O   UNL     1      -6.344  52.347  50.288  0.00  0.00    +0.000 OA
ATOM     16  N   UNL     1      -8.172  54.033  50.305  0.00  0.00    +0.000 N 
ATOM     17  C   UNL     1      -6.286  54.166  52.130  0.00  0.00    +0.000 A 
ATOM     18  C   UNL     1      -8.847  55.003  51.042  0.00  0.00    +0.000 C 
ATOM     19  C   UNL     1      -7.234  54.964  52.761  0.00  0.00    +0.000 A 
ATOM     20  C   UNL     1      -5.169  53.660  52.803  0.00  0.00    +0.000 A 
ATOM     21  N   UNL     1      -8.382  55.494  52.148  0.00  0.00    +0.000 N 
ATOM     22  C   UNL     1      -7.051  55.243  54.117  0.00  0.00    +0.000 A 
ATOM     23  C   UNL     1      -4.999  53.961  54.152  0.00  0.00    +0.000 A 
ATOM     24  C   UNL     1      -5.944  54.744  54.812  0.00  0.00    +0.000 A 
ATOM     25  H   UNL     1      -8.684  53.484  49.669  0.00  0.00    +0.000 HD
ATOM     26  H   UNL     1      -8.844  56.255  52.569  0.00  0.00    +0.000 HD
ENDBRANCH   1  18
BRANCH   3  27
ATOM     27  O   UNL     1     -11.124  55.440  52.708  0.00  0.00    +0.000 OA
ATOM     28  H   UNL     1     -11.882  55.588  53.237  0.00  0.00    +0.000 HD
ENDBRANCH   3  27
BRANCH   5  29
ATOM     29  C   UNL     1     -11.810  56.087  47.078  0.00  0.00    +0.000 C 
BRANCH  29  30
ATOM     30  C   UNL     1     -12.089  54.820  46.247  0.00  0.00    +0.000 C 
BRANCH  30  31
ATOM     31  C   UNL     1     -10.853  54.240  45.620  0.00  0.00    +0.000 C 
ATOM     32  C   UNL     1     -10.881  53.128  44.603  0.00  0.00    +0.000 C 
ATOM     33  C   UNL     1     -10.446  52.839  46.011  0.00  0.00    +0.000 C 
ENDBRANCH  30  31
ENDBRANCH  29  30
ENDBRANCH   5  29
TORSDOF 5
ENDMDL
MODEL 5
REMARK VINA RESULT:      -8.1      3.833      5.647
REMARK  Name = 338168
REMARK  5 active torsions:
REMARK  status: ('A' for Active; 'I' for Inactive)
REMARK    1  A    between atoms: C_6  and  C_10
REMARK    2  A    between atoms: C_14  and  O_18
REMARK    3  A    between atoms: N_17  and  C_21
REMARK    4  A    between atoms: C_21  and  C_24
REMARK    5  A    between atoms: C_24  and  C_27
REMARK                            x       y       z     vdW  Elec       q    Type
REMARK                         _______ _______ _______ _____ _____    ______ ____
ROOT
ATOM      1  C   UNL     1     -11.430  55.846  48.963  0.00  0.00    +0.000 A 
ATOM      2  C   UNL     1     -10.306  55.214  49.706  0.00  0.00    +0.000 A 
ATOM      3  C   UNL     1     -11.626  55.556  47.665  0.00  0.00    +0.000 A 
ATOM      4  O   UNL     1     -10.065  55.639  50.837  0.00  0.00    +0.000 OA
ATOM      5  N   UNL     1      -9.610  54.160  49.111  0.00  0.00    +0.000 N 
ATOM      6  C   UNL     1     -10.776  54.572  46.985  0.00  0.00    +0.000 A 
ATOM      7  C   UNL     1      -9.796  53.866  47.712  0.00  0.00    +0.000 A 
ATOM      8  C   UNL     1     -10.975  54.304  45.618  0.00  0.00    +0.000 A 
ATOM      9  C   UNL     1      -9.037  52.899  47.027  0.00  0.00    +0.000 A 
ATOM     10  C   UNL     1     -10.231  53.328  44.981  0.00  0.00    +0.000 A 
ATOM     11  C   UNL     1      -9.264  52.620  45.674  0.00  0.00    +0.000 A 
ATOM     12  F   UNL     1     -10.452  53.059  43.689  0.00  0.00    +0.000 F 
ENDROOT
BRANCH   1  18
ATOM     13  S   UNL     1     -13.510  59.203  49.448  0.00  0.00    +0.000 S 
ATOM     14  O   UNL     1     -14.497  59.011  48.411  0.00  0.00    +0.000 OA
ATOM     15  O   UNL     1     -12.894  60.489  49.687  0.00  0.00    +0.000 OA
ATOM     16  N   UNL     1     -12.288  58.124  49.207  0.00  0.00    +0.000 N 
ATOM     17  C   UNL     1     -14.189  58.635  50.948  0.00  0.00    +0.000 A 
ATOM     18  C   UNL     1     -12.357  56.801  49.634  0.00  0.00    +0.000 C 
ATOM     19  C   UNL     1     -13.924  57.321  51.317  0.00  0.00    +0.000 A 
ATOM     20  C   UNL     1     -14.941  59.499  51.751  0.00  0.00    +0.000 A 
ATOM     21  N   UNL     1     -13.168  56.406  50.565  0.00  0.00    +0.000 N 
ATOM     22  C   UNL     1     -14.423  56.877  52.544  0.00  0.00    +0.000 A 
ATOM     23  C   UNL     1     -15.439  59.033  52.964  0.00  0.00    +0.000 A 
ATOM     24  C   UNL     1     -15.173  57.725  53.366  0.00  0.00    +0.000 A 
ATOM     25  H   UNL     1     -11.474  58.428  48.742  0.00  0.00    +0.000 HD
ATOM     26  H   UNL     1     -13.256  55.442  50.751  0.00  0.00    +0.000 HD
ENDBRANCH   1  18
BRANCH   3  27
ATOM     27  O   UNL     1     -12.622  56.110  46.876  0.00  0.00    +0.000 OA
ATOM     28  H   UNL     1     -13.510  55.830  46.978  0.00  0.00    +0.000 HD
ENDBRANCH   3  27
BRANCH   5  29
ATOM     29  C   UNL     1      -8.529  53.491  49.873  0.00  0.00    +0.000 C 
BRANCH  29  30
ATOM     30  C   UNL     1      -8.960  52.364  50.830  0.00  0.00    +0.000 C 
BRANCH  30  31
ATOM     31  C   UNL     1      -8.764  52.711  52.279  0.00  0.00    +0.000 C 
ATOM     32  C   UNL     1      -8.392  51.700  53.332  0.00  0.00    +0.000 C 
ATOM     33  C   UNL     1      -9.795  52.231  53.273  0.00  0.00    +0.000 C 
ENDBRANCH  30  31
ENDBRANCH  29  30
ENDBRANCH   5  29
TORSDOF 5
ENDMDL
MODEL 6
REMARK VINA RESULT:      -8.0      3.494      7.964
REMARK  Name = 338168
REMARK  5 active torsions:
REMARK  status: ('A' for Active; 'I' for Inactive)
REMARK    1  A    between atoms: C_6  and  C_10
REMARK    2  A    between atoms: C_14  and  O_18
REMARK    3  A    between atoms: N_17  and  C_21
REMARK    4  A    between atoms: C_21  and  C_24
REMARK    5  A    between atoms: C_24  and  C_27
REMARK                            x       y       z     vdW  Elec       q    Type
REMARK                         _______ _______ _______ _____ _____    ______ ____
ROOT
ATOM      1  C   UNL     1      -9.998  54.475  50.747  0.00  0.00    +0.000 A 
ATOM      2  C   UNL     1     -11.148  55.376  51.036  0.00  0.00    +0.000 A 
ATOM      3  C   UNL     1      -9.781  54.043  49.493  0.00  0.00    +0.000 A 
ATOM      4  O   UNL     1     -11.405  55.603  52.220  0.00  0.00    +0.000 OA
ATOM      5  N   UNL     1     -11.848  55.941  49.969  0.00  0.00    +0.000 N 
ATOM      6  C   UNL     1     -10.632  54.501  48.390  0.00  0.00    +0.000 A 
ATOM      7  C   UNL     1     -11.638  55.460  48.628  0.00  0.00    +0.000 A 
ATOM      8  C   UNL     1     -10.409  54.015  47.088  0.00  0.00    +0.000 A 
ATOM      9  C   UNL     1     -12.398  55.903  47.529  0.00  0.00    +0.000 A 
ATOM     10  C   UNL     1     -11.156  54.491  46.026  0.00  0.00    +0.000 A 
ATOM     11  C   UNL     1     -12.148  55.434  46.234  0.00  0.00    +0.000 A 
ATOM     12  F   UNL     1     -10.913  54.045  44.787  0.00  0.00    +0.000 F 
ENDROOT
BRANCH   1  18
ATOM     13  S   UNL     1      -6.786  54.606  53.092  0.00  0.00    +0.000 S 
ATOM     14  O   UNL     1      -7.133  55.761  53.889  0.00  0.00    +0.000 OA
ATOM     15  O   UNL     1      -5.442  54.390  52.606  0.00  0.00    +0.000 OA
ATOM     16  N   UNL     1      -7.781  54.564  51.779  0.00  0.00    +0.000 N 
ATOM     17  C   UNL     1      -7.289  53.183  53.960  0.00  0.00    +0.000 A 
ATOM     18  C   UNL     1      -9.070  54.038  51.829  0.00  0.00    +0.000 C 
ATOM     19  C   UNL     1      -8.546  52.664  53.671  0.00  0.00    +0.000 A 
ATOM     20  C   UNL     1      -6.427  52.582  54.883  0.00  0.00    +0.000 A 
ATOM     21  N   UNL     1      -9.455  53.210  52.749  0.00  0.00    +0.000 N 
ATOM     22  C   UNL     1      -8.933  51.493  54.327  0.00  0.00    +0.000 A 
ATOM     23  C   UNL     1      -6.837  51.422  55.536  0.00  0.00    +0.000 A 
ATOM     24  C   UNL     1      -8.086  50.872  55.251  0.00  0.00    +0.000 A 
ATOM     25  H   UNL     1      -7.452  54.925  50.924  0.00  0.00    +0.000 HD
ATOM     26  H   UNL     1     -10.405  52.956  52.802  0.00  0.00    +0.000 HD
ENDBRANCH   1  18
BRANCH   3  27
ATOM     27  O   UNL     1      -8.760  53.181  49.123  0.00  0.00    +0.000 OA
ATOM     28  H   UNL     1      -8.494  52.494  49.701  0.00  0.00    +0.000 HD
ENDBRANCH   3  27
BRANCH   5  29
ATOM     29  C   UNL     1     -12.955  56.884  50.256  0.00  0.00    +0.000 C 
BRANCH  29  30
ATOM     30  C   UNL     1     -14.322  56.259  50.592  0.00  0.00    +0.000 C 
BRANCH  30  31
ATOM     31  C   UNL     1     -15.274  57.229  51.231  0.00  0.00    +0.000 C 
ATOM     32  C   UNL     1     -14.845  58.287  52.215  0.00  0.00    +0.000 C 
ATOM     33  C   UNL     1     -15.575  57.069  52.702  0.00  0.00    +0.000 C 
ENDBRANCH  30  31
ENDBRANCH  29  30
ENDBRANCH   5  29
TORSDOF 5
ENDMDL
MODEL 7
REMARK VINA RESULT:      -8.0      3.276      4.340
REMARK  Name = 338168
REMARK  5 active torsions:
REMARK  status: ('A' for Active; 'I' for Inactive)
REMARK    1  A    between atoms: C_6  and  C_10
REMARK    2  A    between atoms: C_14  and  O_18
REMARK    3  A    between atoms: N_17  and  C_21
REMARK    4  A    between atoms: C_21  and  C_24
REMARK    5  A    between atoms: C_24  and  C_27
REMARK                            x       y       z     vdW  Elec       q    Type
REMARK                         _______ _______ _______ _____ _____    ______ ____
ROOT
ATOM      1  C   UNL     1     -12.139  54.381  50.293  0.00  0.00    +0.000 A 
ATOM      2  C   UNL     1     -11.941  53.879  48.905  0.00  0.00    +0.000 A 
ATOM      3  C   UNL     1     -11.636  53.698  51.334  0.00  0.00    +0.000 A 
ATOM      4  O   UNL     1     -12.565  54.443  48.004  0.00  0.00    +0.000 OA
ATOM      5  N   UNL     1     -11.045  52.831  48.688  0.00  0.00    +0.000 N 
ATOM      6  C   UNL     1     -10.835  52.488  51.114  0.00  0.00    +0.000 A 
ATOM      7  C   UNL     1     -10.526  52.078  49.801  0.00  0.00    +0.000 A 
ATOM      8  C   UNL     1     -10.341  51.767  52.217  0.00  0.00    +0.000 A 
ATOM      9  C   UNL     1      -9.716  50.937  49.641  0.00  0.00    +0.000 A 
ATOM     10  C   UNL     1      -9.526  50.666  52.026  0.00  0.00    +0.000 A 
ATOM     11  C   UNL     1      -9.206  50.246  50.746  0.00  0.00    +0.000 A 
ATOM     12  F   UNL     1      -9.035  50.009  53.083  0.00  0.00    +0.000 F 
ENDROOT
BRANCH   1  18
ATOM     13  S   UNL     1     -14.437  56.922  52.318  0.00  0.00    +0.000 S 
ATOM     14  O   UNL     1     -13.508  57.285  53.363  0.00  0.00    +0.000 OA
ATOM     15  O   UNL     1     -15.836  56.680  52.589  0.00  0.00    +0.000 OA
ATOM     16  N   UNL     1     -13.860  55.581  51.553  0.00  0.00    +0.000 N 
ATOM     17  C   UNL     1     -14.323  58.120  51.058  0.00  0.00    +0.000 A 
ATOM     18  C   UNL     1     -12.890  55.642  50.556  0.00  0.00    +0.000 C 
ATOM     19  C   UNL     1     -13.457  57.863  50.002  0.00  0.00    +0.000 A 
ATOM     20  C   UNL     1     -15.113  59.273  51.113  0.00  0.00    +0.000 A 
ATOM     21  N   UNL     1     -12.646  56.721  49.880  0.00  0.00    +0.000 N 
ATOM     22  C   UNL     1     -13.401  58.796  48.964  0.00  0.00    +0.000 A 
ATOM     23  C   UNL     1     -15.033  60.197  50.075  0.00  0.00    +0.000 A 
ATOM     24  C   UNL     1     -14.184  59.954  48.995  0.00  0.00    +0.000 A 
ATOM     25  H   UNL     1     -14.215  54.699  51.812  0.00  0.00    +0.000 HD
ATOM     26  H   UNL     1     -11.877  56.741  49.265  0.00  0.00    +0.000 HD
ENDBRANCH   1  18
BRANCH   3  27
ATOM     27  O   UNL     1     -11.788  54.062  52.663  0.00  0.00    +0.000 OA
ATOM     28  H   UNL     1     -11.055  54.028  53.245  0.00  0.00    +0.000 HD
ENDBRANCH   3  27
BRANCH   5  29
ATOM     29  C   UNL     1     -10.802  52.370  47.300  0.00  0.00    +0.000 C 
BRANCH  29  30
ATOM     30  C   UNL     1      -9.454  52.768  46.670  0.00  0.00    +0.000 C 
BRANCH  30  31
ATOM     31  C   UNL     1      -9.466  54.147  46.073  0.00  0.00    +0.000 C 
ATOM     32  C   UNL     1      -8.217  54.886  45.665  0.00  0.00    +0.000 C 
ATOM     33  C   UNL     1      -8.949  55.292  46.911  0.00  0.00    +0.000 C 
ENDBRANCH  30  31
ENDBRANCH  29  30
ENDBRANCH   5  29
TORSDOF 5
ENDMDL
MODEL 8
REMARK VINA RESULT:      -7.9      3.957      5.509
REMARK  Name = 338168
REMARK  5 active torsions:
REMARK  status: ('A' for Active; 'I' for Inactive)
REMARK    1  A    between atoms: C_6  and  C_10
REMARK    2  A    between atoms: C_14  and  O_18
REMARK    3  A    between atoms: N_17  and  C_21
REMARK    4  A    between atoms: C_21  and  C_24
REMARK    5  A    between atoms: C_24  and  C_27
REMARK                            x       y       z     vdW  Elec       q    Type
REMARK                         _______ _______ _______ _____ _____    ______ ____
ROOT
ATOM      1  C   UNL     1     -10.561  55.402  48.936  0.00  0.00    +0.000 A 
ATOM      2  C   UNL     1     -10.709  54.357  47.886  0.00  0.00    +0.000 A 
ATOM      3  C   UNL     1      -9.347  55.679  49.443  0.00  0.00    +0.000 A 
ATOM      4  O   UNL     1     -11.854  54.020  47.580  0.00  0.00    +0.000 OA
ATOM      5  N   UNL     1      -9.562  53.841  47.280  0.00  0.00    +0.000 N 
ATOM      6  C   UNL     1      -8.152  55.004  48.925  0.00  0.00    +0.000 A 
ATOM      7  C   UNL     1      -8.262  54.113  47.837  0.00  0.00    +0.000 A 
ATOM      8  C   UNL     1      -6.892  55.284  49.487  0.00  0.00    +0.000 A 
ATOM      9  C   UNL     1      -7.081  53.526  47.346  0.00  0.00    +0.000 A 
ATOM     10  C   UNL     1      -5.749  54.710  48.963  0.00  0.00    +0.000 A 
ATOM     11  C   UNL     1      -5.831  53.835  47.894  0.00  0.00    +0.000 A 
ATOM     12  F   UNL     1      -4.553  55.011  49.485  0.00  0.00    +0.000 F 
ENDROOT
BRANCH   1  18
ATOM     13  S   UNL     1     -13.877  57.590  48.722  0.00  0.00    +0.000 S 
ATOM     14  O   UNL     1     -14.776  56.589  48.193  0.00  0.00    +0.000 OA
ATOM     15  O   UNL     1     -13.895  58.957  48.253  0.00  0.00    +0.000 OA
ATOM     16  N   UNL     1     -12.332  57.044  48.547  0.00  0.00    +0.000 N 
ATOM     17  C   UNL     1     -14.050  57.604  50.455  0.00  0.00    +0.000 A 
ATOM     18  C   UNL     1     -11.741  56.158  49.443  0.00  0.00    +0.000 C 
ATOM     19  C   UNL     1     -13.174  56.818  51.195  0.00  0.00    +0.000 A 
ATOM     20  C   UNL     1     -15.019  58.413  51.058  0.00  0.00    +0.000 A 
ATOM     21  N   UNL     1     -12.172  55.994  50.655  0.00  0.00    +0.000 N 
ATOM     22  C   UNL     1     -13.274  56.867  52.588  0.00  0.00    +0.000 A 
ATOM     23  C   UNL     1     -15.111  58.437  52.447  0.00  0.00    +0.000 A 
ATOM     24  C   UNL     1     -14.233  57.671  53.213  0.00  0.00    +0.000 A 
ATOM     25  H   UNL     1     -11.805  57.357  47.776  0.00  0.00    +0.000 HD
ATOM     26  H   UNL     1     -11.788  55.276  51.210  0.00  0.00    +0.000 HD
ENDBRANCH   1  18
BRANCH   3  27
ATOM     27  O   UNL     1      -9.104  56.609  50.441  0.00  0.00    +0.000 OA
ATOM     28  H   UNL     1      -9.647  56.630  51.204  0.00  0.00    +0.000 HD
ENDBRANCH   3  27
BRANCH   5  29
ATOM     29  C   UNL     1      -9.711  52.845  46.192  0.00  0.00    +0.000 C 
BRANCH  29  30
ATOM     30  C   UNL     1      -9.712  53.394  44.753  0.00  0.00    +0.000 C 
BRANCH  30  31
ATOM     31  C   UNL     1      -8.986  52.506  43.782  0.00  0.00    +0.000 C 
ATOM     32  C   UNL     1      -8.603  52.938  42.390  0.00  0.00    +0.000 C 
ATOM     33  C   UNL     1      -9.746  51.985  42.586  0.00  0.00    +0.000 C 
ENDBRANCH  30  31
ENDBRANCH  29  30
ENDBRANCH   5  29
TORSDOF 5
ENDMDL
MODEL 9
REMARK VINA RESULT:      -7.9      3.597      7.539
REMARK  Name = 338168
REMARK  5 active torsions:
REMARK  status: ('A' for Active; 'I' for Inactive)
REMARK    1  A    between atoms: C_6  and  C_10
REMARK    2  A    between atoms: C_14  and  O_18
REMARK    3  A    between atoms: N_17  and  C_21
REMARK    4  A    between atoms: C_21  and  C_24
REMARK    5  A    between atoms: C_24  and  C_27
REMARK                            x       y       z     vdW  Elec       q    Type
REMARK                         _______ _______ _______ _____ _____    ______ ____
ROOT
ATOM      1  C   UNL     1     -10.007  55.463  50.448  0.00  0.00    +0.000 A 
ATOM      2  C   UNL     1     -10.209  55.717  48.996  0.00  0.00    +0.000 A 
ATOM      3  C   UNL     1     -11.031  55.613  51.306  0.00  0.00    +0.000 A 
ATOM      4  O   UNL     1      -9.206  55.734  48.279  0.00  0.00    +0.000 OA
ATOM      5  N   UNL     1     -11.508  55.888  48.513  0.00  0.00    +0.000 N 
ATOM      6  C   UNL     1     -12.367  55.967  50.816  0.00  0.00    +0.000 A 
ATOM      7  C   UNL     1     -12.603  56.078  49.430  0.00  0.00    +0.000 A 
ATOM      8  C   UNL     1     -13.421  56.151  51.731  0.00  0.00    +0.000 A 
ATOM      9  C   UNL     1     -13.912  56.374  49.006  0.00  0.00    +0.000 A 
ATOM     10  C   UNL     1     -14.701  56.415  51.280  0.00  0.00    +0.000 A 
ATOM     11  C   UNL     1     -14.958  56.525  49.924  0.00  0.00    +0.000 A 
ATOM     12  F   UNL     1     -15.702  56.554  52.159  0.00  0.00    +0.000 F 
ENDROOT
BRANCH   1  18
ATOM     13  S   UNL     1      -7.129  54.975  53.153  0.00  0.00    +0.000 S 
ATOM     14  O   UNL     1      -7.756  53.962  53.971  0.00  0.00    +0.000 OA
ATOM     15  O   UNL     1      -6.392  56.075  53.731  0.00  0.00    +0.000 OA
ATOM     16  N   UNL     1      -8.278  55.633  52.172  0.00  0.00    +0.000 N 
ATOM     17  C   UNL     1      -6.101  54.172  51.999  0.00  0.00    +0.000 A 
ATOM     18  C   UNL     1      -8.682  55.037  50.979  0.00  0.00    +0.000 C 
ATOM     19  C   UNL     1      -6.638  53.883  50.750  0.00  0.00    +0.000 A 
ATOM     20  C   UNL     1      -4.775  53.873  52.329  0.00  0.00    +0.000 A 
ATOM     21  N   UNL     1      -7.955  54.167  50.350  0.00  0.00    +0.000 N 
ATOM     22  C   UNL     1      -5.801  53.287  49.803  0.00  0.00    +0.000 A 
ATOM     23  C   UNL     1      -3.961  53.267  51.376  0.00  0.00    +0.000 A 
ATOM     24  C   UNL     1      -4.470  52.982  50.110  0.00  0.00    +0.000 A 
ATOM     25  H   UNL     1      -8.698  56.483  52.439  0.00  0.00    +0.000 HD
ATOM     26  H   UNL     1      -8.334  53.695  49.573  0.00  0.00    +0.000 HD
ENDBRANCH   1  18
BRANCH   3  27
ATOM     27  O   UNL     1     -10.943  55.430  52.677  0.00  0.00    +0.000 OA
ATOM     28  H   UNL     1     -11.173  56.127  53.258  0.00  0.00    +0.000 HD
ENDBRANCH   3  27
BRANCH   5  29
ATOM     29  C   UNL     1     -11.714  56.082  47.059  0.00  0.00    +0.000 C 
BRANCH  29  30
ATOM     30  C   UNL     1     -12.021  54.818  46.233  0.00  0.00    +0.000 C 
BRANCH  30  31
ATOM     31  C   UNL     1     -10.800  54.219  45.595  0.00  0.00    +0.000 C 
ATOM     32  C   UNL     1     -10.855  53.111  44.574  0.00  0.00    +0.000 C 
ATOM     33  C   UNL     1     -10.414  52.810  45.977  0.00  0.00    +0.000 C 
ENDBRANCH  30  31
ENDBRANCH  29  30
ENDBRANCH   5  29
TORSDOF 5
ENDMDL
