MODEL 1
REMARK VINA RESULT:      -8.2      0.000      0.000
REMARK  Name = 338615
REMARK  9 active torsions:
REMARK  status: ('A' for Active; 'I' for Inactive)
REMARK    1  A    between atoms: C_6  and  C_10
REMARK    2  A    between atoms: C_14  and  O_18
REMARK    3  A    between atoms: N_17  and  C_21
REMARK    4  A    between atoms: C_21  and  C_24
REMARK    5  A    between atoms: C_24  and  C_27
REMARK    6  A    between atoms: C_25  and  N_28
REMARK    7  A    between atoms: C_27  and  C_29
REMARK    8  A    between atoms: C_27  and  C_30
REMARK    9  A    between atoms: C_31  and  C_33
REMARK                            x       y       z     vdW  Elec       q    Type
REMARK                         _______ _______ _______ _____ _____    ______ ____
ROOT
ATOM      1  C   UNL     1     -11.163  55.684  49.609  0.00  0.00    +0.000 A 
ATOM      2  C   UNL     1     -10.264  55.198  50.700  0.00  0.00    +0.000 A 
ATOM      3  C   UNL     1     -11.045  55.179  48.370  0.00  0.00    +0.000 A 
ATOM      4  O   UNL     1     -10.475  55.598  51.849  0.00  0.00    +0.000 OA
ATOM      5  N   UNL     1      -9.244  54.306  50.385  0.00  0.00    +0.000 N 
ATOM      6  C   UNL     1     -10.049  54.134  48.087  0.00  0.00    +0.000 A 
ATOM      7  C   UNL     1      -9.174  53.700  49.093  0.00  0.00    +0.000 A 
ATOM      8  C   UNL     1      -9.984  53.543  46.814  0.00  0.00    +0.000 A 
ATOM      9  C   UNL     1      -8.274  52.663  48.798  0.00  0.00    +0.000 A 
ATOM     10  C   UNL     1      -9.079  52.520  46.527  0.00  0.00    +0.000 A 
ATOM     11  C   UNL     1      -8.205  52.100  47.521  0.00  0.00    +0.000 A 
ENDROOT
BRANCH   1  17
ATOM     12  S   UNL     1     -13.432  58.895  49.455  0.00  0.00    +0.000 S 
ATOM     13  O   UNL     1     -14.482  58.809  48.458  0.00  0.00    +0.000 OA
ATOM     14  O   UNL     1     -12.698  60.134  49.638  0.00  0.00    +0.000 OA
ATOM     15  N   UNL     1     -12.359  57.718  49.153  0.00  0.00    +0.000 N 
ATOM     16  C   UNL     1     -14.198  58.560  51.002  0.00  0.00    +0.000 A 
ATOM     17  C   UNL     1     -12.251  56.688  49.941  0.00  0.00    +0.000 C 
ATOM     18  C   UNL     1     -13.890  57.365  51.629  0.00  0.00    +0.000 A 
ATOM     19  C   UNL     1     -15.070  59.492  51.573  0.00  0.00    +0.000 A 
ATOM     20  N   UNL     1     -13.027  56.441  51.051  0.00  0.00    +0.000 N 
ATOM     21  C   UNL     1     -14.533  57.066  52.835  0.00  0.00    +0.000 A 
ATOM     22  C   UNL     1     -15.677  59.196  52.792  0.00  0.00    +0.000 A 
ATOM     23  C   UNL     1     -15.416  57.980  53.418  0.00  0.00    +0.000 A 
ATOM     24  H   UNL     1     -11.779  57.783  48.359  0.00  0.00    +0.000 HD
ATOM     25  H   UNL     1     -12.968  55.549  51.463  0.00  0.00    +0.000 HD
ENDBRANCH   1  17
BRANCH  10  26
ATOM     26  N   UNL     1      -9.008  51.893  45.267  0.00  0.00    +0.000 N 
ATOM     27  C   UNL     1      -8.570  52.507  44.106  0.00  0.00    +0.000 C 
ATOM     28  O   UNL     1      -8.352  53.709  43.983  0.00  0.00    +0.000 OA
ATOM     29  H   UNL     1      -9.291  50.953  45.208  0.00  0.00    +0.000 HD
BRANCH  27  30
ATOM     30  C   UNL     1      -8.459  51.564  42.920  0.00  0.00    +0.000 C 
ATOM     31  C   UNL     1      -9.602  50.555  42.837  0.00  0.00    +0.000 C 
ATOM     32  C   UNL     1      -7.223  50.677  43.058  0.00  0.00    +0.000 C 
ATOM     33  C   UNL     1      -9.018  49.326  42.145  0.00  0.00    +0.000 C 
ATOM     34  C   UNL     1      -7.502  49.483  42.168  0.00  0.00    +0.000 C 
ENDBRANCH  27  30
ENDBRANCH  10  26
BRANCH   3  35
ATOM     35  O   UNL     1     -11.849  55.532  47.302  0.00  0.00    +0.000 OA
ATOM     36  H   UNL     1     -11.734  56.362  46.883  0.00  0.00    +0.000 HD
ENDBRANCH   3  35
BRANCH   5  37
ATOM     37  C   UNL     1      -8.329  53.907  51.459  0.00  0.00    +0.000 C 
BRANCH  37  38
ATOM     38  C   UNL     1      -7.050  54.752  51.595  0.00  0.00    +0.000 C 
BRANCH  38  39
ATOM     39  C   UNL     1      -6.609  55.113  53.023  0.00  0.00    +0.000 C 
ATOM     40  C   UNL     1      -7.793  55.293  53.971  0.00  0.00    +0.000 C 
ATOM     41  C   UNL     1      -5.690  54.003  53.547  0.00  0.00    +0.000 C 
ENDBRANCH  38  39
ENDBRANCH  37  38
ENDBRANCH   5  37
TORSDOF 7
ENDMDL
MODEL 2
REMARK VINA RESULT:      -7.6      3.511      8.806
REMARK  Name = 338615
REMARK  9 active torsions:
REMARK  status: ('A' for Active; 'I' for Inactive)
REMARK    1  A    between atoms: C_6  and  C_10
REMARK    2  A    between atoms: C_14  and  O_18
REMARK    3  A    between atoms: N_17  and  C_21
REMARK    4  A    between atoms: C_21  and  C_24
REMARK    5  A    between atoms: C_24  and  C_27
REMARK    6  A    between atoms: C_25  and  N_28
REMARK    7  A    between atoms: C_27  and  C_29
REMARK    8  A    between atoms: C_27  and  C_30
REMARK    9  A    between atoms: C_31  and  C_33
REMARK                            x       y       z     vdW  Elec       q    Type
REMARK                         _______ _______ _______ _____ _____    ______ ____
ROOT
ATOM      1  C   UNL     1      -8.506  53.172  51.211  0.00  0.00    +0.000 A 
ATOM      2  C   UNL     1      -8.241  52.407  49.954  0.00  0.00    +0.000 A 
ATOM      3  C   UNL     1      -9.372  54.198  51.199  0.00  0.00    +0.000 A 
ATOM      4  O   UNL     1      -7.529  51.401  50.025  0.00  0.00    +0.000 OA
ATOM      5  N   UNL     1      -8.817  52.844  48.765  0.00  0.00    +0.000 N 
ATOM      6  C   UNL     1     -10.078  54.559  49.960  0.00  0.00    +0.000 A 
ATOM      7  C   UNL     1      -9.807  53.873  48.766  0.00  0.00    +0.000 A 
ATOM      8  C   UNL     1     -11.049  55.574  49.966  0.00  0.00    +0.000 A 
ATOM      9  C   UNL     1     -10.540  54.212  47.618  0.00  0.00    +0.000 A 
ATOM     10  C   UNL     1     -11.766  55.910  48.816  0.00  0.00    +0.000 A 
ATOM     11  C   UNL     1     -11.487  55.239  47.633  0.00  0.00    +0.000 A 
ENDROOT
BRANCH   1  17
ATOM     12  S   UNL     1      -5.746  52.449  53.920  0.00  0.00    +0.000 S 
ATOM     13  O   UNL     1      -5.395  53.616  54.708  0.00  0.00    +0.000 OA
ATOM     14  O   UNL     1      -4.712  51.536  53.467  0.00  0.00    +0.000 OA
ATOM     15  N   UNL     1      -6.572  52.955  52.620  0.00  0.00    +0.000 N 
ATOM     16  C   UNL     1      -6.826  51.490  54.922  0.00  0.00    +0.000 A 
ATOM     17  C   UNL     1      -7.847  52.723  52.501  0.00  0.00    +0.000 C 
ATOM     18  C   UNL     1      -8.158  51.418  54.549  0.00  0.00    +0.000 A 
ATOM     19  C   UNL     1      -6.334  50.814  56.042  0.00  0.00    +0.000 A 
ATOM     20  N   UNL     1      -8.640  52.099  53.437  0.00  0.00    +0.000 N 
ATOM     21  C   UNL     1      -9.036  50.699  55.368  0.00  0.00    +0.000 A 
ATOM     22  C   UNL     1      -7.214  50.074  56.829  0.00  0.00    +0.000 A 
ATOM     23  C   UNL     1      -8.566  50.024  56.498  0.00  0.00    +0.000 A 
ATOM     24  H   UNL     1      -6.100  53.445  51.907  0.00  0.00    +0.000 HD
ATOM     25  H   UNL     1      -9.616  52.138  53.311  0.00  0.00    +0.000 HD
ENDBRANCH   1  17
BRANCH  10  26
ATOM     26  N   UNL     1     -12.761  56.907  48.801  0.00  0.00    +0.000 N 
ATOM     27  C   UNL     1     -13.958  56.835  49.493  0.00  0.00    +0.000 C 
ATOM     28  O   UNL     1     -14.383  55.835  50.064  0.00  0.00    +0.000 OA
ATOM     29  H   UNL     1     -12.594  57.712  48.260  0.00  0.00    +0.000 HD
BRANCH  27  30
ATOM     30  C   UNL     1     -14.786  58.107  49.417  0.00  0.00    +0.000 C 
ATOM     31  C   UNL     1     -14.052  59.270  48.754  0.00  0.00    +0.000 C 
ATOM     32  C   UNL     1     -15.081  58.636  50.819  0.00  0.00    +0.000 C 
ATOM     33  C   UNL     1     -14.637  60.536  49.378  0.00  0.00    +0.000 C 
ATOM     34  C   UNL     1     -15.410  60.101  50.618  0.00  0.00    +0.000 C 
ENDBRANCH  27  30
ENDBRANCH  10  26
BRANCH   3  35
ATOM     35  O   UNL     1      -9.716  54.945  52.311  0.00  0.00    +0.000 OA
ATOM     36  H   UNL     1      -9.505  55.857  52.346  0.00  0.00    +0.000 HD
ENDBRANCH   3  35
BRANCH   5  37
ATOM     37  C   UNL     1      -8.478  52.121  47.535  0.00  0.00    +0.000 C 
BRANCH  37  38
ATOM     38  C   UNL     1      -7.359  52.744  46.683  0.00  0.00    +0.000 C 
BRANCH  38  39
ATOM     39  C   UNL     1      -7.753  53.248  45.285  0.00  0.00    +0.000 C 
ATOM     40  C   UNL     1      -9.085  52.668  44.811  0.00  0.00    +0.000 C 
ATOM     41  C   UNL     1      -7.839  54.779  45.322  0.00  0.00    +0.000 C 
ENDBRANCH  38  39
ENDBRANCH  37  38
ENDBRANCH   5  37
TORSDOF 7
ENDMDL
MODEL 3
REMARK VINA RESULT:      -7.4      2.656      9.061
REMARK  Name = 338615
REMARK  9 active torsions:
REMARK  status: ('A' for Active; 'I' for Inactive)
REMARK    1  A    between atoms: C_6  and  C_10
REMARK    2  A    between atoms: C_14  and  O_18
REMARK    3  A    between atoms: N_17  and  C_21
REMARK    4  A    between atoms: C_21  and  C_24
REMARK    5  A    between atoms: C_24  and  C_27
REMARK    6  A    between atoms: C_25  and  N_28
REMARK    7  A    between atoms: C_27  and  C_29
REMARK    8  A    between atoms: C_27  and  C_30
REMARK    9  A    between atoms: C_31  and  C_33
REMARK                            x       y       z     vdW  Elec       q    Type
REMARK                         _______ _______ _______ _____ _____    ______ ____
ROOT
ATOM      1  C   UNL     1      -9.272  52.656  48.652  0.00  0.00    +0.000 A 
ATOM      2  C   UNL     1      -8.208  52.446  49.681  0.00  0.00    +0.000 A 
ATOM      3  C   UNL     1     -10.362  53.380  48.955  0.00  0.00    +0.000 A 
ATOM      4  O   UNL     1      -7.170  51.874  49.336  0.00  0.00    +0.000 OA
ATOM      5  N   UNL     1      -8.418  52.918  50.973  0.00  0.00    +0.000 N 
ATOM      6  C   UNL     1     -10.502  53.988  50.287  0.00  0.00    +0.000 A 
ATOM      7  C   UNL     1      -9.529  53.764  51.272  0.00  0.00    +0.000 A 
ATOM      8  C   UNL     1     -11.597  54.818  50.576  0.00  0.00    +0.000 A 
ATOM      9  C   UNL     1      -9.672  54.405  52.513  0.00  0.00    +0.000 A 
ATOM     10  C   UNL     1     -11.737  55.443  51.817  0.00  0.00    +0.000 A 
ATOM     11  C   UNL     1     -10.779  55.211  52.795  0.00  0.00    +0.000 A 
ENDROOT
BRANCH   1  17
ATOM     12  S   UNL     1      -8.502  50.152  45.716  0.00  0.00    +0.000 S 
ATOM     13  O   UNL     1      -9.638  49.325  45.353  0.00  0.00    +0.000 OA
ATOM     14  O   UNL     1      -7.170  49.578  45.777  0.00  0.00    +0.000 OA
ATOM     15  N   UNL     1      -8.819  50.833  47.153  0.00  0.00    +0.000 N 
ATOM     16  C   UNL     1      -8.419  51.426  44.507  0.00  0.00    +0.000 A 
ATOM     17  C   UNL     1      -9.064  52.108  47.253  0.00  0.00    +0.000 C 
ATOM     18  C   UNL     1      -8.738  52.714  44.903  0.00  0.00    +0.000 A 
ATOM     19  C   UNL     1      -8.021  51.131  43.199  0.00  0.00    +0.000 A 
ATOM     20  N   UNL     1      -9.138  52.996  46.204  0.00  0.00    +0.000 N 
ATOM     21  C   UNL     1      -8.725  53.726  43.937  0.00  0.00    +0.000 A 
ATOM     22  C   UNL     1      -7.979  52.156  42.256  0.00  0.00    +0.000 A 
ATOM     23  C   UNL     1      -8.339  53.450  42.622  0.00  0.00    +0.000 A 
ATOM     24  H   UNL     1      -8.826  50.274  47.963  0.00  0.00    +0.000 HD
ATOM     25  H   UNL     1      -9.501  53.893  46.388  0.00  0.00    +0.000 HD
ENDBRANCH   1  17
BRANCH  10  26
ATOM     26  N   UNL     1     -12.812  56.299  52.125  0.00  0.00    +0.000 N 
ATOM     27  C   UNL     1     -14.038  56.286  51.482  0.00  0.00    +0.000 C 
ATOM     28  O   UNL     1     -14.291  55.656  50.459  0.00  0.00    +0.000 OA
ATOM     29  H   UNL     1     -12.683  56.953  52.849  0.00  0.00    +0.000 HD
BRANCH  27  30
ATOM     30  C   UNL     1     -15.066  57.214  52.106  0.00  0.00    +0.000 C 
ATOM     31  C   UNL     1     -15.361  58.451  51.261  0.00  0.00    +0.000 C 
ATOM     32  C   UNL     1     -14.530  57.803  53.410  0.00  0.00    +0.000 C 
ATOM     33  C   UNL     1     -15.764  59.541  52.252  0.00  0.00    +0.000 C 
ATOM     34  C   UNL     1     -15.355  59.053  53.637  0.00  0.00    +0.000 C 
ENDBRANCH  27  30
ENDBRANCH  10  26
BRANCH   3  35
ATOM     35  O   UNL     1     -11.383  53.664  48.067  0.00  0.00    +0.000 OA
ATOM     36  H   UNL     1     -12.253  53.361  48.241  0.00  0.00    +0.000 HD
ENDBRANCH   3  35
BRANCH   5  37
ATOM     37  C   UNL     1      -7.393  52.630  51.981  0.00  0.00    +0.000 C 
BRANCH  37  38
ATOM     38  C   UNL     1      -6.206  53.608  52.023  0.00  0.00    +0.000 C 
BRANCH  38  39
ATOM     39  C   UNL     1      -5.813  54.159  53.404  0.00  0.00    +0.000 C 
ATOM     40  C   UNL     1      -6.447  55.519  53.691  0.00  0.00    +0.000 C 
ATOM     41  C   UNL     1      -6.244  53.149  54.475  0.00  0.00    +0.000 C 
ENDBRANCH  38  39
ENDBRANCH  37  38
ENDBRANCH   5  37
TORSDOF 7
ENDMDL
MODEL 4
REMARK VINA RESULT:      -7.3      2.316      2.928
REMARK  Name = 338615
REMARK  9 active torsions:
REMARK  status: ('A' for Active; 'I' for Inactive)
REMARK    1  A    between atoms: C_6  and  C_10
REMARK    2  A    between atoms: C_14  and  O_18
REMARK    3  A    between atoms: N_17  and  C_21
REMARK    4  A    between atoms: C_21  and  C_24
REMARK    5  A    between atoms: C_24  and  C_27
REMARK    6  A    between atoms: C_25  and  N_28
REMARK    7  A    between atoms: C_27  and  C_29
REMARK    8  A    between atoms: C_27  and  C_30
REMARK    9  A    between atoms: C_31  and  C_33
REMARK                            x       y       z     vdW  Elec       q    Type
REMARK                         _______ _______ _______ _____ _____    ______ ____
ROOT
ATOM      1  C   UNL     1     -11.663  55.124  50.520  0.00  0.00    +0.000 A 
ATOM      2  C   UNL     1     -10.862  54.587  51.663  0.00  0.00    +0.000 A 
ATOM      3  C   UNL     1     -11.499  54.610  49.290  0.00  0.00    +0.000 A 
ATOM      4  O   UNL     1     -11.119  55.001  52.798  0.00  0.00    +0.000 OA
ATOM      5  N   UNL     1      -9.879  53.636  51.409  0.00  0.00    +0.000 N 
ATOM      6  C   UNL     1     -10.552  53.507  49.066  0.00  0.00    +0.000 A 
ATOM      7  C   UNL     1      -9.767  53.024  50.123  0.00  0.00    +0.000 A 
ATOM      8  C   UNL     1     -10.444  52.911  47.799  0.00  0.00    +0.000 A 
ATOM      9  C   UNL     1      -8.915  51.935  49.881  0.00  0.00    +0.000 A 
ATOM     10  C   UNL     1      -9.586  51.835  47.565  0.00  0.00    +0.000 A 
ATOM     11  C   UNL     1      -8.801  51.366  48.610  0.00  0.00    +0.000 A 
ENDROOT
BRANCH   1  17
ATOM     12  S   UNL     1     -14.919  56.891  51.845  0.00  0.00    +0.000 S 
ATOM     13  O   UNL     1     -14.816  57.325  53.225  0.00  0.00    +0.000 OA
ATOM     14  O   UNL     1     -16.147  56.286  51.359  0.00  0.00    +0.000 OA
ATOM     15  N   UNL     1     -13.704  55.857  51.554  0.00  0.00    +0.000 N 
ATOM     16  C   UNL     1     -14.671  58.326  50.861  0.00  0.00    +0.000 A 
ATOM     17  C   UNL     1     -12.707  56.191  50.787  0.00  0.00    +0.000 C 
ATOM     18  C   UNL     1     -13.497  58.414  50.132  0.00  0.00    +0.000 A 
ATOM     19  C   UNL     1     -15.649  59.325  50.812  0.00  0.00    +0.000 A 
ATOM     20  N   UNL     1     -12.528  57.419  50.192  0.00  0.00    +0.000 N 
ATOM     21  C   UNL     1     -13.266  59.576  49.386  0.00  0.00    +0.000 A 
ATOM     22  C   UNL     1     -15.421  60.460  50.038  0.00  0.00    +0.000 A 
ATOM     23  C   UNL     1     -14.227  60.590  49.332  0.00  0.00    +0.000 A 
ATOM     24  H   UNL     1     -13.721  54.963  51.965  0.00  0.00    +0.000 HD
ATOM     25  H   UNL     1     -11.653  57.606  49.780  0.00  0.00    +0.000 HD
ENDBRANCH   1  17
BRANCH  10  26
ATOM     26  N   UNL     1      -9.477  51.203  46.311  0.00  0.00    +0.000 N 
ATOM     27  C   UNL     1     -10.436  50.369  45.764  0.00  0.00    +0.000 C 
ATOM     28  O   UNL     1     -11.416  49.934  46.361  0.00  0.00    +0.000 OA
ATOM     29  H   UNL     1      -8.661  51.367  45.786  0.00  0.00    +0.000 HD
BRANCH  27  30
ATOM     30  C   UNL     1     -10.130  49.937  44.340  0.00  0.00    +0.000 C 
ATOM     31  C   UNL     1      -8.665  49.571  44.117  0.00  0.00    +0.000 C 
ATOM     32  C   UNL     1     -10.349  51.099  43.372  0.00  0.00    +0.000 C 
ATOM     33  C   UNL     1      -8.381  49.878  42.649  0.00  0.00    +0.000 C 
ATOM     34  C   UNL     1      -9.535  50.738  42.145  0.00  0.00    +0.000 C 
ENDBRANCH  27  30
ENDBRANCH  10  26
BRANCH   3  35
ATOM     35  O   UNL     1     -12.214  55.008  48.175  0.00  0.00    +0.000 OA
ATOM     36  H   UNL     1     -12.995  54.551  47.932  0.00  0.00    +0.000 HD
ENDBRANCH   3  35
BRANCH   5  37
ATOM     37  C   UNL     1      -9.057  53.185  52.536  0.00  0.00    +0.000 C 
BRANCH  37  38
ATOM     38  C   UNL     1      -9.581  51.952  53.293  0.00  0.00    +0.000 C 
BRANCH  38  39
ATOM     39  C   UNL     1      -8.565  50.834  53.580  0.00  0.00    +0.000 C 
ATOM     40  C   UNL     1      -8.985  49.496  52.975  0.00  0.00    +0.000 C 
ATOM     41  C   UNL     1      -7.202  51.253  53.015  0.00  0.00    +0.000 C 
ENDBRANCH  38  39
ENDBRANCH  37  38
ENDBRANCH   5  37
TORSDOF 7
ENDMDL
MODEL 5
REMARK VINA RESULT:      -7.1      2.161      9.005
REMARK  Name = 338615
REMARK  9 active torsions:
REMARK  status: ('A' for Active; 'I' for Inactive)
REMARK    1  A    between atoms: C_6  and  C_10
REMARK    2  A    between atoms: C_14  and  O_18
REMARK    3  A    between atoms: N_17  and  C_21
REMARK    4  A    between atoms: C_21  and  C_24
REMARK    5  A    between atoms: C_24  and  C_27
REMARK    6  A    between atoms: C_25  and  N_28
REMARK    7  A    between atoms: C_27  and  C_29
REMARK    8  A    between atoms: C_27  and  C_30
REMARK    9  A    between atoms: C_31  and  C_33
REMARK                            x       y       z     vdW  Elec       q    Type
REMARK                         _______ _______ _______ _____ _____    ______ ____
ROOT
ATOM      1  C   UNL     1      -8.985  53.135  48.247  0.00  0.00    +0.000 A 
ATOM      2  C   UNL     1      -8.000  52.743  49.301  0.00  0.00    +0.000 A 
ATOM      3  C   UNL     1     -10.095  53.809  48.587  0.00  0.00    +0.000 A 
ATOM      4  O   UNL     1      -6.938  52.227  48.942  0.00  0.00    +0.000 OA
ATOM      5  N   UNL     1      -8.308  52.989  50.636  0.00  0.00    +0.000 N 
ATOM      6  C   UNL     1     -10.337  54.182  49.989  0.00  0.00    +0.000 A 
ATOM      7  C   UNL     1      -9.440  53.784  50.991  0.00  0.00    +0.000 A 
ATOM      8  C   UNL     1     -11.453  54.963  50.333  0.00  0.00    +0.000 A 
ATOM      9  C   UNL     1      -9.678  54.206  52.309  0.00  0.00    +0.000 A 
ATOM     10  C   UNL     1     -11.687  55.369  51.648  0.00  0.00    +0.000 A 
ATOM     11  C   UNL     1     -10.805  54.964  52.641  0.00  0.00    +0.000 A 
ENDROOT
BRANCH   1  17
ATOM     12  S   UNL     1      -8.888  53.426  44.324  0.00  0.00    +0.000 S 
ATOM     13  O   UNL     1      -7.896  54.368  43.842  0.00  0.00    +0.000 OA
ATOM     14  O   UNL     1     -10.200  53.365  43.705  0.00  0.00    +0.000 OA
ATOM     15  N   UNL     1      -9.096  53.687  45.911  0.00  0.00    +0.000 N 
ATOM     16  C   UNL     1      -8.186  51.828  44.115  0.00  0.00    +0.000 A 
ATOM     17  C   UNL     1      -8.671  52.831  46.794  0.00  0.00    +0.000 C 
ATOM     18  C   UNL     1      -7.822  51.129  45.253  0.00  0.00    +0.000 A 
ATOM     19  C   UNL     1      -8.029  51.290  42.834  0.00  0.00    +0.000 A 
ATOM     20  N   UNL     1      -7.976  51.674  46.522  0.00  0.00    +0.000 N 
ATOM     21  C   UNL     1      -7.215  49.878  45.096  0.00  0.00    +0.000 A 
ATOM     22  C   UNL     1      -7.454  50.028  42.694  0.00  0.00    +0.000 A 
ATOM     23  C   UNL     1      -7.039  49.326  43.823  0.00  0.00    +0.000 A 
ATOM     24  H   UNL     1      -9.551  54.507  46.211  0.00  0.00    +0.000 HD
ATOM     25  H   UNL     1      -7.559  51.201  47.278  0.00  0.00    +0.000 HD
ENDBRANCH   1  17
BRANCH  10  26
ATOM     26  N   UNL     1     -12.785  56.171  52.016  0.00  0.00    +0.000 N 
ATOM     27  C   UNL     1     -13.696  56.715  51.127  0.00  0.00    +0.000 C 
ATOM     28  O   UNL     1     -13.574  56.717  49.906  0.00  0.00    +0.000 OA
ATOM     29  H   UNL     1     -12.914  56.358  52.974  0.00  0.00    +0.000 HD
BRANCH  27  30
ATOM     30  C   UNL     1     -14.862  57.419  51.800  0.00  0.00    +0.000 C 
ATOM     31  C   UNL     1     -15.176  58.787  51.200  0.00  0.00    +0.000 C 
ATOM     32  C   UNL     1     -14.520  57.747  53.253  0.00  0.00    +0.000 C 
ATOM     33  C   UNL     1     -15.776  59.609  52.338  0.00  0.00    +0.000 C 
ATOM     34  C   UNL     1     -15.473  58.862  53.632  0.00  0.00    +0.000 C 
ENDBRANCH  27  30
ENDBRANCH  10  26
BRANCH   3  35
ATOM     35  O   UNL     1     -11.048  54.250  47.687  0.00  0.00    +0.000 OA
ATOM     36  H   UNL     1     -11.595  53.633  47.243  0.00  0.00    +0.000 HD
ENDBRANCH   3  35
BRANCH   5  37
ATOM     37  C   UNL     1      -7.361  52.524  51.653  0.00  0.00    +0.000 C 
BRANCH  37  38
ATOM     38  C   UNL     1      -6.289  53.540  52.082  0.00  0.00    +0.000 C 
BRANCH  38  39
ATOM     39  C   UNL     1      -6.051  53.699  53.593  0.00  0.00    +0.000 C 
ATOM     40  C   UNL     1      -6.516  55.056  54.116  0.00  0.00    +0.000 C 
ATOM     41  C   UNL     1      -6.796  52.577  54.326  0.00  0.00    +0.000 C 
ENDBRANCH  38  39
ENDBRANCH  37  38
ENDBRANCH   5  37
TORSDOF 7
ENDMDL
MODEL 6
REMARK VINA RESULT:      -7.1      3.291      9.761
REMARK  Name = 338615
REMARK  9 active torsions:
REMARK  status: ('A' for Active; 'I' for Inactive)
REMARK    1  A    between atoms: C_6  and  C_10
REMARK    2  A    between atoms: C_14  and  O_18
REMARK    3  A    between atoms: N_17  and  C_21
REMARK    4  A    between atoms: C_21  and  C_24
REMARK    5  A    between atoms: C_24  and  C_27
REMARK    6  A    between atoms: C_25  and  N_28
REMARK    7  A    between atoms: C_27  and  C_29
REMARK    8  A    between atoms: C_27  and  C_30
REMARK    9  A    between atoms: C_31  and  C_33
REMARK                            x       y       z     vdW  Elec       q    Type
REMARK                         _______ _______ _______ _____ _____    ______ ____
ROOT
ATOM      1  C   UNL     1      -8.415  53.773  48.121  0.00  0.00    +0.000 A 
ATOM      2  C   UNL     1      -8.882  53.392  46.753  0.00  0.00    +0.000 A 
ATOM      3  C   UNL     1      -9.156  54.601  48.875  0.00  0.00    +0.000 A 
ATOM      4  O   UNL     1      -8.236  52.542  46.133  0.00  0.00    +0.000 OA
ATOM      5  N   UNL     1     -10.029  53.992  46.242  0.00  0.00    +0.000 N 
ATOM      6  C   UNL     1     -10.438  55.116  48.370  0.00  0.00    +0.000 A 
ATOM      7  C   UNL     1     -10.866  54.798  47.073  0.00  0.00    +0.000 A 
ATOM      8  C   UNL     1     -11.256  55.911  49.190  0.00  0.00    +0.000 A 
ATOM      9  C   UNL     1     -12.120  55.266  46.648  0.00  0.00    +0.000 A 
ATOM     10  C   UNL     1     -12.496  56.380  48.755  0.00  0.00    +0.000 A 
ATOM     11  C   UNL     1     -12.913  56.073  47.466  0.00  0.00    +0.000 A 
ENDROOT
BRANCH   1  17
ATOM     12  S   UNL     1      -4.595  53.020  48.694  0.00  0.00    +0.000 S 
ATOM     13  O   UNL     1      -3.953  53.959  49.594  0.00  0.00    +0.000 OA
ATOM     14  O   UNL     1      -3.907  52.567  47.498  0.00  0.00    +0.000 OA
ATOM     15  N   UNL     1      -6.017  53.654  48.242  0.00  0.00    +0.000 N 
ATOM     16  C   UNL     1      -4.911  51.573  49.641  0.00  0.00    +0.000 A 
ATOM     17  C   UNL     1      -7.142  53.153  48.665  0.00  0.00    +0.000 C 
ATOM     18  C   UNL     1      -6.229  51.278  49.948  0.00  0.00    +0.000 A 
ATOM     19  C   UNL     1      -3.856  50.749  50.043  0.00  0.00    +0.000 A 
ATOM     20  N   UNL     1      -7.272  52.106  49.550  0.00  0.00    +0.000 N 
ATOM     21  C   UNL     1      -6.488  50.157  50.745  0.00  0.00    +0.000 A 
ATOM     22  C   UNL     1      -4.132  49.617  50.807  0.00  0.00    +0.000 A 
ATOM     23  C   UNL     1      -5.445  49.325  51.165  0.00  0.00    +0.000 A 
ATOM     24  H   UNL     1      -6.031  54.431  47.637  0.00  0.00    +0.000 HD
ATOM     25  H   UNL     1      -8.165  51.933  49.927  0.00  0.00    +0.000 HD
ENDBRANCH   1  17
BRANCH  10  26
ATOM     26  N   UNL     1     -13.347  57.157  49.566  0.00  0.00    +0.000 N 
ATOM     27  C   UNL     1     -14.536  56.709  50.115  0.00  0.00    +0.000 C 
ATOM     28  O   UNL     1     -15.088  55.650  49.832  0.00  0.00    +0.000 OA
ATOM     29  H   UNL     1     -13.076  58.084  49.756  0.00  0.00    +0.000 HD
BRANCH  27  30
ATOM     30  C   UNL     1     -15.183  57.703  51.064  0.00  0.00    +0.000 C 
ATOM     31  C   UNL     1     -14.322  58.934  51.335  0.00  0.00    +0.000 C 
ATOM     32  C   UNL     1     -15.352  57.085  52.451  0.00  0.00    +0.000 C 
ATOM     33  C   UNL     1     -14.704  59.405  52.737  0.00  0.00    +0.000 C 
ATOM     34  C   UNL     1     -15.483  58.268  53.388  0.00  0.00    +0.000 C 
ENDBRANCH  27  30
ENDBRANCH  10  26
BRANCH   3  35
ATOM     35  O   UNL     1      -8.834  54.985  50.164  0.00  0.00    +0.000 OA
ATOM     36  H   UNL     1      -9.029  54.418  50.884  0.00  0.00    +0.000 HD
ENDBRANCH   3  35
BRANCH   5  37
ATOM     37  C   UNL     1     -10.421  53.659  44.869  0.00  0.00    +0.000 C 
BRANCH  37  38
ATOM     38  C   UNL     1      -9.264  53.445  43.878  0.00  0.00    +0.000 C 
BRANCH  38  39
ATOM     39  C   UNL     1      -9.506  52.440  42.740  0.00  0.00    +0.000 C 
ATOM     40  C   UNL     1      -8.204  51.871  42.179  0.00  0.00    +0.000 C 
ATOM     41  C   UNL     1     -10.384  51.300  43.270  0.00  0.00    +0.000 C 
ENDBRANCH  38  39
ENDBRANCH  37  38
ENDBRANCH   5  37
TORSDOF 7
ENDMDL
MODEL 7
REMARK VINA RESULT:      -6.9      3.083      9.346
REMARK  Name = 338615
REMARK  9 active torsions:
REMARK  status: ('A' for Active; 'I' for Inactive)
REMARK    1  A    between atoms: C_6  and  C_10
REMARK    2  A    between atoms: C_14  and  O_18
REMARK    3  A    between atoms: N_17  and  C_21
REMARK    4  A    between atoms: C_21  and  C_24
REMARK    5  A    between atoms: C_24  and  C_27
REMARK    6  A    between atoms: C_25  and  N_28
REMARK    7  A    between atoms: C_27  and  C_29
REMARK    8  A    between atoms: C_27  and  C_30
REMARK    9  A    between atoms: C_31  and  C_33
REMARK                            x       y       z     vdW  Elec       q    Type
REMARK                         _______ _______ _______ _____ _____    ______ ____
ROOT
ATOM      1  C   UNL     1      -9.904  53.521  47.232  0.00  0.00    +0.000 A 
ATOM      2  C   UNL     1     -11.172  54.313  47.185  0.00  0.00    +0.000 A 
ATOM      3  C   UNL     1      -9.366  53.191  48.417  0.00  0.00    +0.000 A 
ATOM      4  O   UNL     1     -11.700  54.501  46.085  0.00  0.00    +0.000 OA
ATOM      5  N   UNL     1     -11.714  54.787  48.376  0.00  0.00    +0.000 N 
ATOM      6  C   UNL     1     -10.029  53.584  49.669  0.00  0.00    +0.000 A 
ATOM      7  C   UNL     1     -11.197  54.361  49.637  0.00  0.00    +0.000 A 
ATOM      8  C   UNL     1      -9.515  53.164  50.907  0.00  0.00    +0.000 A 
ATOM      9  C   UNL     1     -11.829  54.671  50.852  0.00  0.00    +0.000 A 
ATOM     10  C   UNL     1     -10.145  53.486  52.110  0.00  0.00    +0.000 A 
ATOM     11  C   UNL     1     -11.294  54.265  52.077  0.00  0.00    +0.000 A 
ENDROOT
BRANCH   1  17
ATOM     12  S   UNL     1      -9.063  53.224  43.400  0.00  0.00    +0.000 S 
ATOM     13  O   UNL     1      -8.074  54.186  42.952  0.00  0.00    +0.000 OA
ATOM     14  O   UNL     1     -10.218  52.925  42.573  0.00  0.00    +0.000 OA
ATOM     15  N   UNL     1      -9.598  53.697  44.855  0.00  0.00    +0.000 N 
ATOM     16  C   UNL     1      -8.208  51.700  43.595  0.00  0.00    +0.000 A 
ATOM     17  C   UNL     1      -9.288  53.037  45.933  0.00  0.00    +0.000 C 
ATOM     18  C   UNL     1      -8.020  51.226  44.882  0.00  0.00    +0.000 A 
ATOM     19  C   UNL     1      -7.759  50.995  42.474  0.00  0.00    +0.000 A 
ATOM     20  N   UNL     1      -8.463  51.937  45.991  0.00  0.00    +0.000 N 
ATOM     21  C   UNL     1      -7.296  50.040  45.052  0.00  0.00    +0.000 A 
ATOM     22  C   UNL     1      -7.070  49.798  42.656  0.00  0.00    +0.000 A 
ATOM     23  C   UNL     1      -6.830  49.325  43.944  0.00  0.00    +0.000 A 
ATOM     24  H   UNL     1     -10.168  54.498  44.924  0.00  0.00    +0.000 HD
ATOM     25  H   UNL     1      -8.166  51.633  46.880  0.00  0.00    +0.000 HD
ENDBRANCH   1  17
BRANCH  10  26
ATOM     26  N   UNL     1      -9.665  53.057  53.363  0.00  0.00    +0.000 N 
ATOM     27  C   UNL     1      -9.342  51.747  53.676  0.00  0.00    +0.000 C 
ATOM     28  O   UNL     1      -9.591  50.772  52.973  0.00  0.00    +0.000 OA
ATOM     29  H   UNL     1      -9.550  53.736  54.066  0.00  0.00    +0.000 HD
BRANCH  27  30
ATOM     30  C   UNL     1      -8.712  51.585  55.049  0.00  0.00    +0.000 C 
ATOM     31  C   UNL     1      -7.185  51.575  55.020  0.00  0.00    +0.000 C 
ATOM     32  C   UNL     1      -9.057  50.217  55.636  0.00  0.00    +0.000 C 
ATOM     33  C   UNL     1      -6.756  50.723  56.212  0.00  0.00    +0.000 C 
ATOM     34  C   UNL     1      -7.992  49.967  56.685  0.00  0.00    +0.000 C 
ENDBRANCH  27  30
ENDBRANCH  10  26
BRANCH   3  35
ATOM     35  O   UNL     1      -8.220  52.432  48.571  0.00  0.00    +0.000 OA
ATOM     36  H   UNL     1      -7.406  52.735  48.220  0.00  0.00    +0.000 HD
ENDBRANCH   3  35
BRANCH   5  37
ATOM     37  C   UNL     1     -12.914  55.626  48.294  0.00  0.00    +0.000 C 
BRANCH  37  38
ATOM     38  C   UNL     1     -12.690  57.133  48.507  0.00  0.00    +0.000 C 
BRANCH  38  39
ATOM     39  C   UNL     1     -13.379  57.769  49.726  0.00  0.00    +0.000 C 
ATOM     40  C   UNL     1     -13.679  59.252  49.517  0.00  0.00    +0.000 C 
ATOM     41  C   UNL     1     -14.683  57.010  50.003  0.00  0.00    +0.000 C 
ENDBRANCH  38  39
ENDBRANCH  37  38
ENDBRANCH   5  37
TORSDOF 7
ENDMDL
MODEL 8
REMARK VINA RESULT:      -6.7      3.160      9.084
REMARK  Name = 338615
REMARK  9 active torsions:
REMARK  status: ('A' for Active; 'I' for Inactive)
REMARK    1  A    between atoms: C_6  and  C_10
REMARK    2  A    between atoms: C_14  and  O_18
REMARK    3  A    between atoms: N_17  and  C_21
REMARK    4  A    between atoms: C_21  and  C_24
REMARK    5  A    between atoms: C_24  and  C_27
REMARK    6  A    between atoms: C_25  and  N_28
REMARK    7  A    between atoms: C_27  and  C_29
REMARK    8  A    between atoms: C_27  and  C_30
REMARK    9  A    between atoms: C_31  and  C_33
REMARK                            x       y       z     vdW  Elec       q    Type
REMARK                         _______ _______ _______ _____ _____    ______ ____
ROOT
ATOM      1  C   UNL     1     -10.872  53.819  48.004  0.00  0.00    +0.000 A 
ATOM      2  C   UNL     1     -11.796  54.984  48.159  0.00  0.00    +0.000 A 
ATOM      3  C   UNL     1     -10.250  53.311  49.080  0.00  0.00    +0.000 A 
ATOM      4  O   UNL     1     -12.438  55.354  47.172  0.00  0.00    +0.000 OA
ATOM      5  N   UNL     1     -11.910  55.591  49.407  0.00  0.00    +0.000 N 
ATOM      6  C   UNL     1     -10.491  53.880  50.415  0.00  0.00    +0.000 A 
ATOM      7  C   UNL     1     -11.325  54.998  50.566  0.00  0.00    +0.000 A 
ATOM      8  C   UNL     1      -9.911  53.294  51.552  0.00  0.00    +0.000 A 
ATOM      9  C   UNL     1     -11.572  55.479  51.862  0.00  0.00    +0.000 A 
ATOM     10  C   UNL     1     -10.154  53.786  52.836  0.00  0.00    +0.000 A 
ATOM     11  C   UNL     1     -10.970  54.900  52.983  0.00  0.00    +0.000 A 
ENDROOT
BRANCH   1  17
ATOM     12  S   UNL     1     -11.252  51.288  45.016  0.00  0.00    +0.000 S 
ATOM     13  O   UNL     1     -12.473  51.475  44.257  0.00  0.00    +0.000 OA
ATOM     14  O   UNL     1     -10.782  49.949  45.326  0.00  0.00    +0.000 OA
ATOM     15  N   UNL     1     -11.402  52.100  46.412  0.00  0.00    +0.000 N 
ATOM     16  C   UNL     1      -9.971  52.038  44.075  0.00  0.00    +0.000 A 
ATOM     17  C   UNL     1     -10.713  53.181  46.638  0.00  0.00    +0.000 C 
ATOM     18  C   UNL     1      -9.406  53.203  44.568  0.00  0.00    +0.000 A 
ATOM     19  C   UNL     1      -9.537  51.452  42.882  0.00  0.00    +0.000 A 
ATOM     20  N   UNL     1      -9.848  53.782  45.751  0.00  0.00    +0.000 N 
ATOM     21  C   UNL     1      -8.421  53.836  43.801  0.00  0.00    +0.000 A 
ATOM     22  C   UNL     1      -8.531  52.076  42.146  0.00  0.00    +0.000 A 
ATOM     23  C   UNL     1      -7.980  53.272  42.600  0.00  0.00    +0.000 A 
ATOM     24  H   UNL     1     -12.025  51.770  47.099  0.00  0.00    +0.000 HD
ATOM     25  H   UNL     1      -9.522  54.685  45.970  0.00  0.00    +0.000 HD
ENDBRANCH   1  17
BRANCH  10  26
ATOM     26  N   UNL     1      -9.605  53.203  53.995  0.00  0.00    +0.000 N 
ATOM     27  C   UNL     1      -9.259  51.867  54.115  0.00  0.00    +0.000 C 
ATOM     28  O   UNL     1      -9.541  50.990  53.305  0.00  0.00    +0.000 OA
ATOM     29  H   UNL     1      -9.456  53.785  54.773  0.00  0.00    +0.000 HD
BRANCH  27  30
ATOM     30  C   UNL     1      -8.556  51.534  55.420  0.00  0.00    +0.000 C 
ATOM     31  C   UNL     1      -7.038  51.441  55.285  0.00  0.00    +0.000 C 
ATOM     32  C   UNL     1      -8.948  50.137  55.896  0.00  0.00    +0.000 C 
ATOM     33  C   UNL     1      -6.588  50.452  56.358  0.00  0.00    +0.000 C 
ATOM     34  C   UNL     1      -7.838  49.724  56.840  0.00  0.00    +0.000 C 
ENDBRANCH  27  30
ENDBRANCH  10  26
BRANCH   3  35
ATOM     35  O   UNL     1      -9.408  52.215  49.052  0.00  0.00    +0.000 OA
ATOM     36  H   UNL     1      -9.480  51.550  49.708  0.00  0.00    +0.000 HD
ENDBRANCH   3  35
BRANCH   5  37
ATOM     37  C   UNL     1     -12.763  56.780  49.513  0.00  0.00    +0.000 C 
BRANCH  37  38
ATOM     38  C   UNL     1     -14.250  56.510  49.803  0.00  0.00    +0.000 C 
BRANCH  38  39
ATOM     39  C   UNL     1     -14.998  57.575  50.622  0.00  0.00    +0.000 C 
ATOM     40  C   UNL     1     -15.329  57.098  52.035  0.00  0.00    +0.000 C 
ATOM     41  C   UNL     1     -14.130  58.838  50.692  0.00  0.00    +0.000 C 
ENDBRANCH  38  39
ENDBRANCH  37  38
ENDBRANCH   5  37
TORSDOF 7
ENDMDL
MODEL 9
REMARK VINA RESULT:      -6.6      3.229      9.039
REMARK  Name = 338615
REMARK  9 active torsions:
REMARK  status: ('A' for Active; 'I' for Inactive)
REMARK    1  A    between atoms: C_6  and  C_10
REMARK    2  A    between atoms: C_14  and  O_18
REMARK    3  A    between atoms: N_17  and  C_21
REMARK    4  A    between atoms: C_21  and  C_24
REMARK    5  A    between atoms: C_24  and  C_27
REMARK    6  A    between atoms: C_25  and  N_28
REMARK    7  A    between atoms: C_27  and  C_29
REMARK    8  A    between atoms: C_27  and  C_30
REMARK    9  A    between atoms: C_31  and  C_33
REMARK                            x       y       z     vdW  Elec       q    Type
REMARK                         _______ _______ _______ _____ _____    ______ ____
ROOT
ATOM      1  C   UNL     1      -7.931  53.751  49.603  0.00  0.00    +0.000 A 
ATOM      2  C   UNL     1      -7.843  53.075  48.272  0.00  0.00    +0.000 A 
ATOM      3  C   UNL     1      -8.887  54.667  49.826  0.00  0.00    +0.000 A 
ATOM      4  O   UNL     1      -7.027  52.158  48.138  0.00  0.00    +0.000 OA
ATOM      5  N   UNL     1      -8.691  53.489  47.249  0.00  0.00    +0.000 N 
ATOM      6  C   UNL     1      -9.863  54.991  48.774  0.00  0.00    +0.000 A 
ATOM      7  C   UNL     1      -9.765  54.393  47.510  0.00  0.00    +0.000 A 
ATOM      8  C   UNL     1     -10.917  55.883  49.035  0.00  0.00    +0.000 A 
ATOM      9  C   UNL     1     -10.747  54.689  46.551  0.00  0.00    +0.000 A 
ATOM     10  C   UNL     1     -11.883  56.179  48.072  0.00  0.00    +0.000 A 
ATOM     11  C   UNL     1     -11.777  55.595  46.817  0.00  0.00    +0.000 A 
ENDROOT
BRANCH   1  17
ATOM     12  S   UNL     1      -4.612  52.796  51.490  0.00  0.00    +0.000 S 
ATOM     13  O   UNL     1      -3.847  53.949  51.925  0.00  0.00    +0.000 OA
ATOM     14  O   UNL     1      -3.937  51.640  50.928  0.00  0.00    +0.000 OA
ATOM     15  N   UNL     1      -5.713  53.304  50.413  0.00  0.00    +0.000 N 
ATOM     16  C   UNL     1      -5.462  52.209  52.912  0.00  0.00    +0.000 A 
ATOM     17  C   UNL     1      -6.980  53.331  50.708  0.00  0.00    +0.000 C 
ATOM     18  C   UNL     1      -6.837  52.371  52.955  0.00  0.00    +0.000 A 
ATOM     19  C   UNL     1      -4.758  51.582  53.945  0.00  0.00    +0.000 A 
ATOM     20  N   UNL     1      -7.527  53.001  51.927  0.00  0.00    +0.000 N 
ATOM     21  C   UNL     1      -7.517  51.954  54.105  0.00  0.00    +0.000 A 
ATOM     22  C   UNL     1      -5.453  51.140  55.069  0.00  0.00    +0.000 A 
ATOM     23  C   UNL     1      -6.830  51.334  55.154  0.00  0.00    +0.000 A 
ATOM     24  H   UNL     1      -5.417  53.598  49.521  0.00  0.00    +0.000 HD
ATOM     25  H   UNL     1      -8.474  53.227  52.081  0.00  0.00    +0.000 HD
ENDBRANCH   1  17
BRANCH  10  26
ATOM     26  N   UNL     1     -12.963  57.050  48.315  0.00  0.00    +0.000 N 
ATOM     27  C   UNL     1     -13.829  56.949  49.391  0.00  0.00    +0.000 C 
ATOM     28  O   UNL     1     -13.879  56.001  50.169  0.00  0.00    +0.000 OA
ATOM     29  H   UNL     1     -13.112  57.783  47.676  0.00  0.00    +0.000 HD
BRANCH  27  30
ATOM     30  C   UNL     1     -14.815  58.101  49.491  0.00  0.00    +0.000 C 
ATOM     31  C   UNL     1     -14.260  59.423  48.968  0.00  0.00    +0.000 C 
ATOM     32  C   UNL     1     -15.127  58.410  50.955  0.00  0.00    +0.000 C 
ATOM     33  C   UNL     1     -14.981  60.514  49.758  0.00  0.00    +0.000 C 
ATOM     34  C   UNL     1     -15.648  59.832  50.947  0.00  0.00    +0.000 C 
ENDBRANCH  27  30
ENDBRANCH  10  26
BRANCH   3  35
ATOM     35  O   UNL     1      -9.078  55.321  51.029  0.00  0.00    +0.000 OA
ATOM     36  H   UNL     1      -9.394  56.203  51.038  0.00  0.00    +0.000 HD
ENDBRANCH   3  35
BRANCH   5  37
ATOM     37  C   UNL     1      -8.530  52.863  45.933  0.00  0.00    +0.000 C 
BRANCH  37  38
ATOM     38  C   UNL     1      -9.237  51.510  45.747  0.00  0.00    +0.000 C 
BRANCH  38  39
ATOM     39  C   UNL     1     -10.664  51.548  45.175  0.00  0.00    +0.000 C 
ATOM     40  C   UNL     1     -10.708  51.188  43.692  0.00  0.00    +0.000 C 
ATOM     41  C   UNL     1     -11.537  50.571  45.972  0.00  0.00    +0.000 C 
ENDBRANCH  38  39
ENDBRANCH  37  38
ENDBRANCH   5  37
TORSDOF 7
ENDMDL
