MODEL 1
REMARK VINA RESULT:      -8.6      0.000      0.000
REMARK  Name = 338168
REMARK  5 active torsions:
REMARK  status: ('A' for Active; 'I' for Inactive)
REMARK    1  A    between atoms: C_6  and  C_10
REMARK    2  A    between atoms: C_14  and  O_18
REMARK    3  A    between atoms: N_17  and  C_21
REMARK    4  A    between atoms: C_21  and  C_24
REMARK    5  A    between atoms: C_24  and  C_27
REMARK                            x       y       z     vdW  Elec       q    Type
REMARK                         _______ _______ _______ _____ _____    ______ ____
ROOT
ATOM      1  C   UNL     1      -9.988  54.548  52.375  0.00  0.00    +0.000 A 
ATOM      2  C   UNL     1      -8.588  55.050  52.259  0.00  0.00    +0.000 A 
ATOM      3  C   UNL     1     -10.238  53.419  53.058  0.00  0.00    +0.000 A 
ATOM      4  O   UNL     1      -8.384  55.983  51.480  0.00  0.00    +0.000 OA
ATOM      5  N   UNL     1      -7.595  54.476  53.054  0.00  0.00    +0.000 N 
ATOM      6  C   UNL     1      -9.157  52.707  53.748  0.00  0.00    +0.000 A 
ATOM      7  C   UNL     1      -7.855  53.250  53.764  0.00  0.00    +0.000 A 
ATOM      8  C   UNL     1      -9.435  51.509  54.433  0.00  0.00    +0.000 A 
ATOM      9  C   UNL     1      -6.861  52.552  54.477  0.00  0.00    +0.000 A 
ATOM     10  C   UNL     1      -8.440  50.864  55.147  0.00  0.00    +0.000 A 
ATOM     11  C   UNL     1      -7.155  51.376  55.178  0.00  0.00    +0.000 A 
ATOM     12  F   UNL     1      -8.725  49.742  55.819  0.00  0.00    +0.000 F 
ENDROOT
BRANCH   1  18
ATOM     13  S   UNL     1     -12.364  55.792  49.434  0.00  0.00    +0.000 S 
ATOM     14  O   UNL     1     -13.042  54.547  49.148  0.00  0.00    +0.000 OA
ATOM     15  O   UNL     1     -11.922  56.687  48.386  0.00  0.00    +0.000 OA
ATOM     16  N   UNL     1     -11.044  55.462  50.365  0.00  0.00    +0.000 N 
ATOM     17  C   UNL     1     -13.356  56.699  50.541  0.00  0.00    +0.000 A 
ATOM     18  C   UNL     1     -11.124  55.279  51.742  0.00  0.00    +0.000 C 
ATOM     19  C   UNL     1     -13.099  56.553  51.900  0.00  0.00    +0.000 A 
ATOM     20  C   UNL     1     -14.347  57.557  50.055  0.00  0.00    +0.000 A 
ATOM     21  N   UNL     1     -12.114  55.720  52.454  0.00  0.00    +0.000 N 
ATOM     22  C   UNL     1     -13.864  57.314  52.789  0.00  0.00    +0.000 A 
ATOM     23  C   UNL     1     -15.106  58.296  50.959  0.00  0.00    +0.000 A 
ATOM     24  C   UNL     1     -14.859  58.181  52.327  0.00  0.00    +0.000 A 
ATOM     25  H   UNL     1     -10.164  55.394  49.929  0.00  0.00    +0.000 HD
ATOM     26  H   UNL     1     -12.175  55.467  53.403  0.00  0.00    +0.000 HD
ENDBRANCH   1  18
BRANCH   3  27
ATOM     27  O   UNL     1     -11.493  52.848  53.198  0.00  0.00    +0.000 OA
ATOM     28  H   UNL     1     -11.615  52.116  53.771  0.00  0.00    +0.000 HD
ENDBRANCH   3  27
BRANCH   5  29
ATOM     29  C   UNL     1      -6.218  55.018  52.984  0.00  0.00    +0.000 C 
BRANCH  29  30
ATOM     30  C   UNL     1      -5.210  54.226  52.133  0.00  0.00    +0.000 C 
BRANCH  30  31
ATOM     31  C   UNL     1      -5.325  54.506  50.660  0.00  0.00    +0.000 C 
ATOM     32  C   UNL     1      -6.129  53.652  49.714  0.00  0.00    +0.000 C 
ATOM     33  C   UNL     1      -4.629  53.577  49.698  0.00  0.00    +0.000 C 
ENDBRANCH  30  31
ENDBRANCH  29  30
ENDBRANCH   5  29
TORSDOF 5
ENDMDL
MODEL 2
REMARK VINA RESULT:      -8.3      3.880      7.433
REMARK  Name = 338168
REMARK  5 active torsions:
REMARK  status: ('A' for Active; 'I' for Inactive)
REMARK    1  A    between atoms: C_6  and  C_10
REMARK    2  A    between atoms: C_14  and  O_18
REMARK    3  A    between atoms: N_17  and  C_21
REMARK    4  A    between atoms: C_21  and  C_24
REMARK    5  A    between atoms: C_24  and  C_27
REMARK                            x       y       z     vdW  Elec       q    Type
REMARK                         _______ _______ _______ _____ _____    ______ ____
ROOT
ATOM      1  C   UNL     1     -10.127  55.116  50.827  0.00  0.00    +0.000 A 
ATOM      2  C   UNL     1      -9.764  55.175  49.382  0.00  0.00    +0.000 A 
ATOM      3  C   UNL     1     -11.320  55.581  51.236  0.00  0.00    +0.000 A 
ATOM      4  O   UNL     1      -8.600  54.905  49.079  0.00  0.00    +0.000 OA
ATOM      5  N   UNL     1     -10.752  55.491  48.449  0.00  0.00    +0.000 N 
ATOM      6  C   UNL     1     -12.297  56.087  50.267  0.00  0.00    +0.000 A 
ATOM      7  C   UNL     1     -12.020  56.016  48.885  0.00  0.00    +0.000 A 
ATOM      8  C   UNL     1     -13.529  56.598  50.719  0.00  0.00    +0.000 A 
ATOM      9  C   UNL     1     -13.009  56.474  47.993  0.00  0.00    +0.000 A 
ATOM     10  C   UNL     1     -14.488  57.013  49.812  0.00  0.00    +0.000 A 
ATOM     11  C   UNL     1     -14.240  56.953  48.452  0.00  0.00    +0.000 A 
ATOM     12  F   UNL     1     -15.667  57.469  50.255  0.00  0.00    +0.000 F 
ENDROOT
BRANCH   1  18
ATOM     13  S   UNL     1      -6.858  54.920  53.091  0.00  0.00    +0.000 S 
ATOM     14  O   UNL     1      -7.155  55.993  54.013  0.00  0.00    +0.000 OA
ATOM     15  O   UNL     1      -5.532  54.716  52.547  0.00  0.00    +0.000 OA
ATOM     16  N   UNL     1      -7.884  55.040  51.806  0.00  0.00    +0.000 N 
ATOM     17  C   UNL     1      -7.382  53.428  53.819  0.00  0.00    +0.000 A 
ATOM     18  C   UNL     1      -9.186  54.549  51.836  0.00  0.00    +0.000 C 
ATOM     19  C   UNL     1      -8.663  52.979  53.513  0.00  0.00    +0.000 A 
ATOM     20  C   UNL     1      -6.518  52.712  54.652  0.00  0.00    +0.000 A 
ATOM     21  N   UNL     1      -9.575  53.641  52.678  0.00  0.00    +0.000 N 
ATOM     22  C   UNL     1      -9.069  51.759  54.062  0.00  0.00    +0.000 A 
ATOM     23  C   UNL     1      -6.948  51.505  55.197  0.00  0.00    +0.000 A 
ATOM     24  C   UNL     1      -8.222  51.024  54.896  0.00  0.00    +0.000 A 
ATOM     25  H   UNL     1      -7.562  55.476  50.984  0.00  0.00    +0.000 HD
ATOM     26  H   UNL     1     -10.531  53.411  52.729  0.00  0.00    +0.000 HD
ENDBRANCH   1  18
BRANCH   3  27
ATOM     27  O   UNL     1     -11.742  55.604  52.556  0.00  0.00    +0.000 OA
ATOM     28  H   UNL     1     -11.144  55.848  53.236  0.00  0.00    +0.000 HD
ENDBRANCH   3  27
BRANCH   5  29
ATOM     29  C   UNL     1     -10.404  55.487  47.008  0.00  0.00    +0.000 C 
BRANCH  29  30
ATOM     30  C   UNL     1     -10.268  54.108  46.338  0.00  0.00    +0.000 C 
BRANCH  30  31
ATOM     31  C   UNL     1     -11.274  53.876  45.245  0.00  0.00    +0.000 C 
ATOM     32  C   UNL     1     -11.990  52.566  45.042  0.00  0.00    +0.000 C 
ATOM     33  C   UNL     1     -10.892  52.971  44.101  0.00  0.00    +0.000 C 
ENDBRANCH  30  31
ENDBRANCH  29  30
ENDBRANCH   5  29
TORSDOF 5
ENDMDL
MODEL 3
REMARK VINA RESULT:      -8.3      3.837      5.418
REMARK  Name = 338168
REMARK  5 active torsions:
REMARK  status: ('A' for Active; 'I' for Inactive)
REMARK    1  A    between atoms: C_6  and  C_10
REMARK    2  A    between atoms: C_14  and  O_18
REMARK    3  A    between atoms: N_17  and  C_21
REMARK    4  A    between atoms: C_21  and  C_24
REMARK    5  A    between atoms: C_24  and  C_27
REMARK                            x       y       z     vdW  Elec       q    Type
REMARK                         _______ _______ _______ _____ _____    ______ ____
ROOT
ATOM      1  C   UNL     1     -11.493  55.789  48.965  0.00  0.00    +0.000 A 
ATOM      2  C   UNL     1     -10.398  55.116  49.722  0.00  0.00    +0.000 A 
ATOM      3  C   UNL     1     -11.667  55.522  47.660  0.00  0.00    +0.000 A 
ATOM      4  O   UNL     1     -10.165  55.521  50.862  0.00  0.00    +0.000 OA
ATOM      5  N   UNL     1      -9.724  54.047  49.128  0.00  0.00    +0.000 N 
ATOM      6  C   UNL     1     -10.832  54.523  46.984  0.00  0.00    +0.000 A 
ATOM      7  C   UNL     1      -9.889  53.778  47.723  0.00  0.00    +0.000 A 
ATOM      8  C   UNL     1     -11.009  54.280  45.609  0.00  0.00    +0.000 A 
ATOM      9  C   UNL     1      -9.142  52.800  47.037  0.00  0.00    +0.000 A 
ATOM     10  C   UNL     1     -10.278  53.291  44.974  0.00  0.00    +0.000 A 
ATOM     11  C   UNL     1      -9.347  52.547  45.676  0.00  0.00    +0.000 A 
ATOM     12  F   UNL     1     -10.478  53.049  43.672  0.00  0.00    +0.000 F 
ENDROOT
BRANCH   1  18
ATOM     13  S   UNL     1     -13.514  59.185  49.447  0.00  0.00    +0.000 S 
ATOM     14  O   UNL     1     -14.507  59.007  48.412  0.00  0.00    +0.000 OA
ATOM     15  O   UNL     1     -12.871  60.460  49.688  0.00  0.00    +0.000 OA
ATOM     16  N   UNL     1     -12.310  58.085  49.207  0.00  0.00    +0.000 N 
ATOM     17  C   UNL     1     -14.200  58.631  50.949  0.00  0.00    +0.000 A 
ATOM     18  C   UNL     1     -12.405  56.763  49.633  0.00  0.00    +0.000 C 
ATOM     19  C   UNL     1     -13.960  57.311  51.315  0.00  0.00    +0.000 A 
ATOM     20  C   UNL     1     -14.934  59.508  51.751  0.00  0.00    +0.000 A 
ATOM     21  N   UNL     1     -13.223  56.382  50.564  0.00  0.00    +0.000 N 
ATOM     22  C   UNL     1     -14.472  56.876  52.542  0.00  0.00    +0.000 A 
ATOM     23  C   UNL     1     -15.446  59.051  52.963  0.00  0.00    +0.000 A 
ATOM     24  C   UNL     1     -15.208  57.736  53.363  0.00  0.00    +0.000 A 
ATOM     25  H   UNL     1     -11.491  58.375  48.744  0.00  0.00    +0.000 HD
ATOM     26  H   UNL     1     -13.329  55.421  50.749  0.00  0.00    +0.000 HD
ENDBRANCH   1  18
BRANCH   3  27
ATOM     27  O   UNL     1     -12.628  56.116  46.859  0.00  0.00    +0.000 OA
ATOM     28  H   UNL     1     -13.341  55.606  46.525  0.00  0.00    +0.000 HD
ENDBRANCH   3  27
BRANCH   5  29
ATOM     29  C   UNL     1      -8.680  53.338  49.905  0.00  0.00    +0.000 C 
BRANCH  29  30
ATOM     30  C   UNL     1      -7.466  54.174  50.346  0.00  0.00    +0.000 C 
BRANCH  30  31
ATOM     31  C   UNL     1      -6.769  54.860  49.203  0.00  0.00    +0.000 C 
ATOM     32  C   UNL     1      -5.849  54.148  48.247  0.00  0.00    +0.000 C 
ATOM     33  C   UNL     1      -5.278  55.062  49.292  0.00  0.00    +0.000 C 
ENDBRANCH  30  31
ENDBRANCH  29  30
ENDBRANCH   5  29
TORSDOF 5
ENDMDL
MODEL 4
REMARK VINA RESULT:      -8.2      3.677      7.282
REMARK  Name = 338168
REMARK  5 active torsions:
REMARK  status: ('A' for Active; 'I' for Inactive)
REMARK    1  A    between atoms: C_6  and  C_10
REMARK    2  A    between atoms: C_14  and  O_18
REMARK    3  A    between atoms: N_17  and  C_21
REMARK    4  A    between atoms: C_21  and  C_24
REMARK    5  A    between atoms: C_24  and  C_27
REMARK                            x       y       z     vdW  Elec       q    Type
REMARK                         _______ _______ _______ _____ _____    ______ ____
ROOT
ATOM      1  C   UNL     1     -10.166  55.454  50.473  0.00  0.00    +0.000 A 
ATOM      2  C   UNL     1     -10.340  55.711  49.015  0.00  0.00    +0.000 A 
ATOM      3  C   UNL     1     -11.203  55.624  51.310  0.00  0.00    +0.000 A 
ATOM      4  O   UNL     1      -9.325  55.715  48.316  0.00  0.00    +0.000 OA
ATOM      5  N   UNL     1     -11.628  55.894  48.509  0.00  0.00    +0.000 N 
ATOM      6  C   UNL     1     -12.525  55.998  50.796  0.00  0.00    +0.000 A 
ATOM      7  C   UNL     1     -12.735  56.105  49.405  0.00  0.00    +0.000 A 
ATOM      8  C   UNL     1     -13.591  56.202  51.693  0.00  0.00    +0.000 A 
ATOM      9  C   UNL     1     -14.033  56.423  48.959  0.00  0.00    +0.000 A 
ATOM     10  C   UNL     1     -14.860  56.485  51.217  0.00  0.00    +0.000 A 
ATOM     11  C   UNL     1     -15.091  56.595  49.858  0.00  0.00    +0.000 A 
ATOM     12  F   UNL     1     -15.872  56.647  52.080  0.00  0.00    +0.000 F 
ENDROOT
BRANCH   1  18
ATOM     13  S   UNL     1      -6.554  53.782  50.453  0.00  0.00    +0.000 S 
ATOM     14  O   UNL     1      -5.853  54.764  49.656  0.00  0.00    +0.000 OA
ATOM     15  O   UNL     1      -6.342  52.360  50.284  0.00  0.00    +0.000 OA
ATOM     16  N   UNL     1      -8.173  54.043  50.293  0.00  0.00    +0.000 N 
ATOM     17  C   UNL     1      -6.299  54.174  52.130  0.00  0.00    +0.000 A 
ATOM     18  C   UNL     1      -8.854  55.010  51.027  0.00  0.00    +0.000 C 
ATOM     19  C   UNL     1      -7.253  54.971  52.755  0.00  0.00    +0.000 A 
ATOM     20  C   UNL     1      -5.186  53.669  52.808  0.00  0.00    +0.000 A 
ATOM     21  N   UNL     1      -8.397  55.501  52.138  0.00  0.00    +0.000 N 
ATOM     22  C   UNL     1      -7.074  55.250  54.113  0.00  0.00    +0.000 A 
ATOM     23  C   UNL     1      -5.021  53.969  54.157  0.00  0.00    +0.000 A 
ATOM     24  C   UNL     1      -5.970  54.755  54.813  0.00  0.00    +0.000 A 
ATOM     25  H   UNL     1      -8.680  53.492  49.653  0.00  0.00    +0.000 HD
ATOM     26  H   UNL     1      -8.863  56.260  52.557  0.00  0.00    +0.000 HD
ENDBRANCH   1  18
BRANCH   3  27
ATOM     27  O   UNL     1     -11.141  55.446  52.683  0.00  0.00    +0.000 OA
ATOM     28  H   UNL     1     -11.251  54.591  53.051  0.00  0.00    +0.000 HD
ENDBRANCH   3  27
BRANCH   5  29
ATOM     29  C   UNL     1     -11.804  56.085  47.050  0.00  0.00    +0.000 C 
BRANCH  29  30
ATOM     30  C   UNL     1     -12.085  54.820  46.220  0.00  0.00    +0.000 C 
BRANCH  30  31
ATOM     31  C   UNL     1     -10.851  54.236  45.590  0.00  0.00    +0.000 C 
ATOM     32  C   UNL     1     -10.888  53.146  44.551  0.00  0.00    +0.000 C 
ATOM     33  C   UNL     1     -10.461  52.826  45.954  0.00  0.00    +0.000 C 
ENDBRANCH  30  31
ENDBRANCH  29  30
ENDBRANCH   5  29
TORSDOF 5
ENDMDL
MODEL 5
REMARK VINA RESULT:      -8.2      3.865      5.730
REMARK  Name = 338168
REMARK  5 active torsions:
REMARK  status: ('A' for Active; 'I' for Inactive)
REMARK    1  A    between atoms: C_6  and  C_10
REMARK    2  A    between atoms: C_14  and  O_18
REMARK    3  A    between atoms: N_17  and  C_21
REMARK    4  A    between atoms: C_21  and  C_24
REMARK    5  A    between atoms: C_24  and  C_27
REMARK                            x       y       z     vdW  Elec       q    Type
REMARK                         _______ _______ _______ _____ _____    ______ ____
ROOT
ATOM      1  C   UNL     1     -11.504  55.821  48.949  0.00  0.00    +0.000 A 
ATOM      2  C   UNL     1     -10.392  55.159  49.692  0.00  0.00    +0.000 A 
ATOM      3  C   UNL     1     -11.696  55.545  47.648  0.00  0.00    +0.000 A 
ATOM      4  O   UNL     1     -10.144  55.573  50.825  0.00  0.00    +0.000 OA
ATOM      5  N   UNL     1      -9.720  54.093  49.093  0.00  0.00    +0.000 N 
ATOM      6  C   UNL     1     -10.865  54.549  46.965  0.00  0.00    +0.000 A 
ATOM      7  C   UNL     1      -9.904  53.815  47.692  0.00  0.00    +0.000 A 
ATOM      8  C   UNL     1     -11.062  54.297  45.594  0.00  0.00    +0.000 A 
ATOM      9  C   UNL     1      -9.161  52.839  47.000  0.00  0.00    +0.000 A 
ATOM     10  C   UNL     1     -10.333  53.310  44.952  0.00  0.00    +0.000 A 
ATOM     11  C   UNL     1      -9.386  52.577  45.644  0.00  0.00    +0.000 A 
ATOM     12  F   UNL     1     -10.552  53.060  43.655  0.00  0.00    +0.000 F 
ENDROOT
BRANCH   1  18
ATOM     13  S   UNL     1     -13.525  59.213  49.456  0.00  0.00    +0.000 S 
ATOM     14  O   UNL     1     -14.524  59.038  48.426  0.00  0.00    +0.000 OA
ATOM     15  O   UNL     1     -12.882  60.487  49.697  0.00  0.00    +0.000 OA
ATOM     16  N   UNL     1     -12.322  58.115  49.204  0.00  0.00    +0.000 N 
ATOM     17  C   UNL     1     -14.201  58.652  50.959  0.00  0.00    +0.000 A 
ATOM     18  C   UNL     1     -12.412  56.792  49.626  0.00  0.00    +0.000 C 
ATOM     19  C   UNL     1     -13.958  57.331  51.320  0.00  0.00    +0.000 A 
ATOM     20  C   UNL     1     -14.931  59.526  51.770  0.00  0.00    +0.000 A 
ATOM     21  N   UNL     1     -13.225  56.406  50.561  0.00  0.00    +0.000 N 
ATOM     22  C   UNL     1     -14.462  56.892  52.547  0.00  0.00    +0.000 A 
ATOM     23  C   UNL     1     -15.435  59.064  52.982  0.00  0.00    +0.000 A 
ATOM     24  C   UNL     1     -15.194  57.748  53.376  0.00  0.00    +0.000 A 
ATOM     25  H   UNL     1     -11.506  58.407  48.737  0.00  0.00    +0.000 HD
ATOM     26  H   UNL     1     -13.329  55.444  50.742  0.00  0.00    +0.000 HD
ENDBRANCH   1  18
BRANCH   3  27
ATOM     27  O   UNL     1     -12.675  56.127  46.859  0.00  0.00    +0.000 OA
ATOM     28  H   UNL     1     -13.505  56.354  47.231  0.00  0.00    +0.000 HD
ENDBRANCH   3  27
BRANCH   5  29
ATOM     29  C   UNL     1      -8.658  53.396  49.857  0.00  0.00    +0.000 C 
BRANCH  29  30
ATOM     30  C   UNL     1      -9.106  52.208  50.728  0.00  0.00    +0.000 C 
BRANCH  30  31
ATOM     31  C   UNL     1      -9.099  52.514  52.200  0.00  0.00    +0.000 C 
ATOM     32  C   UNL     1      -9.555  51.538  53.252  0.00  0.00    +0.000 C 
ATOM     33  C   UNL     1     -10.421  52.711  52.897  0.00  0.00    +0.000 C 
ENDBRANCH  30  31
ENDBRANCH  29  30
ENDBRANCH   5  29
TORSDOF 5
ENDMDL
MODEL 6
REMARK VINA RESULT:      -8.0      3.582      7.904
REMARK  Name = 338168
REMARK  5 active torsions:
REMARK  status: ('A' for Active; 'I' for Inactive)
REMARK    1  A    between atoms: C_6  and  C_10
REMARK    2  A    between atoms: C_14  and  O_18
REMARK    3  A    between atoms: N_17  and  C_21
REMARK    4  A    between atoms: C_21  and  C_24
REMARK    5  A    between atoms: C_24  and  C_27
REMARK                            x       y       z     vdW  Elec       q    Type
REMARK                         _______ _______ _______ _____ _____    ______ ____
ROOT
ATOM      1  C   UNL     1      -9.952  54.313  50.642  0.00  0.00    +0.000 A 
ATOM      2  C   UNL     1     -11.016  55.328  50.888  0.00  0.00    +0.000 A 
ATOM      3  C   UNL     1      -9.767  53.823  49.405  0.00  0.00    +0.000 A 
ATOM      4  O   UNL     1     -11.266  55.615  52.060  0.00  0.00    +0.000 OA
ATOM      5  N   UNL     1     -11.645  55.926  49.794  0.00  0.00    +0.000 N 
ATOM      6  C   UNL     1     -10.559  54.323  48.277  0.00  0.00    +0.000 A 
ATOM      7  C   UNL     1     -11.470  55.383  48.472  0.00  0.00    +0.000 A 
ATOM      8  C   UNL     1     -10.373  53.775  46.994  0.00  0.00    +0.000 A 
ATOM      9  C   UNL     1     -12.175  55.858  47.349  0.00  0.00    +0.000 A 
ATOM     10  C   UNL     1     -11.063  54.285  45.908  0.00  0.00    +0.000 A 
ATOM     11  C   UNL     1     -11.961  55.324  46.073  0.00  0.00    +0.000 A 
ATOM     12  F   UNL     1     -10.853  53.774  44.688  0.00  0.00    +0.000 F 
ENDROOT
BRANCH   1  18
ATOM     13  S   UNL     1      -6.740  54.167  52.991  0.00  0.00    +0.000 S 
ATOM     14  O   UNL     1      -6.939  55.397  53.724  0.00  0.00    +0.000 OA
ATOM     15  O   UNL     1      -5.436  53.753  52.520  0.00  0.00    +0.000 OA
ATOM     16  N   UNL     1      -7.737  54.179  51.677  0.00  0.00    +0.000 N 
ATOM     17  C   UNL     1      -7.416  52.867  53.932  0.00  0.00    +0.000 A 
ATOM     18  C   UNL     1      -9.081  53.826  51.752  0.00  0.00    +0.000 C 
ATOM     19  C   UNL     1      -8.732  52.501  53.668  0.00  0.00    +0.000 A 
ATOM     20  C   UNL     1      -6.635  52.214  54.889  0.00  0.00    +0.000 A 
ATOM     21  N   UNL     1      -9.566  53.105  52.715  0.00  0.00    +0.000 N 
ATOM     22  C   UNL     1      -9.262  51.428  54.391  0.00  0.00    +0.000 A 
ATOM     23  C   UNL     1      -7.187  51.156  55.607  0.00  0.00    +0.000 A 
ATOM     24  C   UNL     1      -8.500  50.758  55.353  0.00  0.00    +0.000 A 
ATOM     25  H   UNL     1      -7.365  54.445  50.805  0.00  0.00    +0.000 HD
ATOM     26  H   UNL     1     -10.541  52.980  52.779  0.00  0.00    +0.000 HD
ENDBRANCH   1  18
BRANCH   3  27
ATOM     27  O   UNL     1      -8.831  52.855  49.076  0.00  0.00    +0.000 OA
ATOM     28  H   UNL     1      -8.542  52.765  48.189  0.00  0.00    +0.000 HD
ENDBRANCH   3  27
BRANCH   5  29
ATOM     29  C   UNL     1     -12.658  56.980  50.039  0.00  0.00    +0.000 C 
BRANCH  29  30
ATOM     30  C   UNL     1     -14.040  56.505  50.523  0.00  0.00    +0.000 C 
BRANCH  30  31
ATOM     31  C   UNL     1     -14.711  57.480  51.451  0.00  0.00    +0.000 C 
ATOM     32  C   UNL     1     -14.273  57.705  52.874  0.00  0.00    +0.000 C 
ATOM     33  C   UNL     1     -15.530  56.933  52.593  0.00  0.00    +0.000 C 
ENDBRANCH  30  31
ENDBRANCH  29  30
ENDBRANCH   5  29
TORSDOF 5
ENDMDL
MODEL 7
REMARK VINA RESULT:      -8.0      3.799      5.444
REMARK  Name = 338168
REMARK  5 active torsions:
REMARK  status: ('A' for Active; 'I' for Inactive)
REMARK    1  A    between atoms: C_6  and  C_10
REMARK    2  A    between atoms: C_14  and  O_18
REMARK    3  A    between atoms: N_17  and  C_21
REMARK    4  A    between atoms: C_21  and  C_24
REMARK    5  A    between atoms: C_24  and  C_27
REMARK                            x       y       z     vdW  Elec       q    Type
REMARK                         _______ _______ _______ _____ _____    ______ ____
ROOT
ATOM      1  C   UNL     1     -11.515  55.716  49.062  0.00  0.00    +0.000 A 
ATOM      2  C   UNL     1     -10.503  54.964  49.860  0.00  0.00    +0.000 A 
ATOM      3  C   UNL     1     -11.619  55.498  47.741  0.00  0.00    +0.000 A 
ATOM      4  O   UNL     1     -10.322  55.322  51.026  0.00  0.00    +0.000 OA
ATOM      5  N   UNL     1      -9.845  53.883  49.272  0.00  0.00    +0.000 N 
ATOM      6  C   UNL     1     -10.792  54.481  47.083  0.00  0.00    +0.000 A 
ATOM      7  C   UNL     1      -9.934  53.667  47.851  0.00  0.00    +0.000 A 
ATOM      8  C   UNL     1     -10.894  54.291  45.692  0.00  0.00    +0.000 A 
ATOM      9  C   UNL     1      -9.193  52.676  47.179  0.00  0.00    +0.000 A 
ATOM     10  C   UNL     1     -10.172  53.288  45.068  0.00  0.00    +0.000 A 
ATOM     11  C   UNL     1      -9.324  52.476  45.800  0.00  0.00    +0.000 A 
ATOM     12  F   UNL     1     -10.302  53.098  43.749  0.00  0.00    +0.000 F 
ENDROOT
BRANCH   1  18
ATOM     13  S   UNL     1     -13.489  59.148  49.476  0.00  0.00    +0.000 S 
ATOM     14  O   UNL     1     -14.473  58.971  48.432  0.00  0.00    +0.000 OA
ATOM     15  O   UNL     1     -12.830  60.415  49.708  0.00  0.00    +0.000 OA
ATOM     16  N   UNL     1     -12.300  58.026  49.264  0.00  0.00    +0.000 N 
ATOM     17  C   UNL     1     -14.201  58.623  50.977  0.00  0.00    +0.000 A 
ATOM     18  C   UNL     1     -12.419  56.712  49.706  0.00  0.00    +0.000 C 
ATOM     19  C   UNL     1     -13.985  57.305  51.363  0.00  0.00    +0.000 A 
ATOM     20  C   UNL     1     -14.931  59.523  51.759  0.00  0.00    +0.000 A 
ATOM     21  N   UNL     1     -13.254  56.355  50.633  0.00  0.00    +0.000 N 
ATOM     22  C   UNL     1     -14.518  56.894  52.589  0.00  0.00    +0.000 A 
ATOM     23  C   UNL     1     -15.463  59.090  52.970  0.00  0.00    +0.000 A 
ATOM     24  C   UNL     1     -15.250  57.776  53.390  0.00  0.00    +0.000 A 
ATOM     25  H   UNL     1     -11.471  58.297  48.807  0.00  0.00    +0.000 HD
ATOM     26  H   UNL     1     -13.377  55.398  50.829  0.00  0.00    +0.000 HD
ENDBRANCH   1  18
BRANCH   3  27
ATOM     27  O   UNL     1     -12.499  56.165  46.903  0.00  0.00    +0.000 OA
ATOM     28  H   UNL     1     -12.416  56.081  45.973  0.00  0.00    +0.000 HD
ENDBRANCH   3  27
BRANCH   5  29
ATOM     29  C   UNL     1      -8.887  53.099  50.086  0.00  0.00    +0.000 C 
BRANCH  29  30
ATOM     30  C   UNL     1      -7.505  53.734  50.323  0.00  0.00    +0.000 C 
BRANCH  30  31
ATOM     31  C   UNL     1      -7.012  53.577  51.735  0.00  0.00    +0.000 C 
ATOM     32  C   UNL     1      -7.924  53.562  52.934  0.00  0.00    +0.000 C 
ATOM     33  C   UNL     1      -7.079  54.772  52.653  0.00  0.00    +0.000 C 
ENDBRANCH  30  31
ENDBRANCH  29  30
ENDBRANCH   5  29
TORSDOF 5
ENDMDL
MODEL 8
REMARK VINA RESULT:      -8.0      3.600      5.239
REMARK  Name = 338168
REMARK  5 active torsions:
REMARK  status: ('A' for Active; 'I' for Inactive)
REMARK    1  A    between atoms: C_6  and  C_10
REMARK    2  A    between atoms: C_14  and  O_18
REMARK    3  A    between atoms: N_17  and  C_21
REMARK    4  A    between atoms: C_21  and  C_24
REMARK    5  A    between atoms: C_24  and  C_27
REMARK                            x       y       z     vdW  Elec       q    Type
REMARK                         _______ _______ _______ _____ _____    ______ ____
ROOT
ATOM      1  C   UNL     1     -10.397  55.847  49.037  0.00  0.00    +0.000 A 
ATOM      2  C   UNL     1     -10.277  55.364  47.631  0.00  0.00    +0.000 A 
ATOM      3  C   UNL     1      -9.358  55.718  49.879  0.00  0.00    +0.000 A 
ATOM      4  O   UNL     1     -11.304  55.340  46.951  0.00  0.00    +0.000 OA
ATOM      5  N   UNL     1      -9.020  55.003  47.145  0.00  0.00    +0.000 N 
ATOM      6  C   UNL     1      -8.082  55.165  49.413  0.00  0.00    +0.000 A 
ATOM      7  C   UNL     1      -7.913  54.836  48.051  0.00  0.00    +0.000 A 
ATOM      8  C   UNL     1      -7.016  55.009  50.319  0.00  0.00    +0.000 A 
ATOM      9  C   UNL     1      -6.655  54.350  47.645  0.00  0.00    +0.000 A 
ATOM     10  C   UNL     1      -5.785  54.555  49.878  0.00  0.00    +0.000 A 
ATOM     11  C   UNL     1      -5.594  54.226  48.548  0.00  0.00    +0.000 A 
ATOM     12  F   UNL     1      -4.771  54.440  50.745  0.00  0.00    +0.000 F 
ENDROOT
BRANCH   1  18
ATOM     13  S   UNL     1     -13.873  57.773  48.802  0.00  0.00    +0.000 S 
ATOM     14  O   UNL     1     -14.667  56.734  48.183  0.00  0.00    +0.000 OA
ATOM     15  O   UNL     1     -13.982  59.162  48.410  0.00  0.00    +0.000 OA
ATOM     16  N   UNL     1     -12.283  57.363  48.662  0.00  0.00    +0.000 N 
ATOM     17  C   UNL     1     -14.111  57.673  50.524  0.00  0.00    +0.000 A 
ATOM     18  C   UNL     1     -11.657  56.475  49.532  0.00  0.00    +0.000 C 
ATOM     19  C   UNL     1     -13.203  56.913  51.254  0.00  0.00    +0.000 A 
ATOM     20  C   UNL     1     -15.164  58.365  51.128  0.00  0.00    +0.000 A 
ATOM     21  N   UNL     1     -12.119  56.204  50.713  0.00  0.00    +0.000 N 
ATOM     22  C   UNL     1     -13.366  56.868  52.642  0.00  0.00    +0.000 A 
ATOM     23  C   UNL     1     -15.315  58.296  52.510  0.00  0.00    +0.000 A 
ATOM     24  C   UNL     1     -14.410  57.553  53.270  0.00  0.00    +0.000 A 
ATOM     25  H   UNL     1     -11.754  57.764  47.935  0.00  0.00    +0.000 HD
ATOM     26  H   UNL     1     -11.700  55.487  51.241  0.00  0.00    +0.000 HD
ENDBRANCH   1  18
BRANCH   3  27
ATOM     27  O   UNL     1      -9.375  56.102  51.211  0.00  0.00    +0.000 OA
ATOM     28  H   UNL     1      -8.933  56.883  51.479  0.00  0.00    +0.000 HD
ENDBRANCH   3  27
BRANCH   5  29
ATOM     29  C   UNL     1      -8.892  54.583  45.730  0.00  0.00    +0.000 C 
BRANCH  29  30
ATOM     30  C   UNL     1      -9.230  53.115  45.415  0.00  0.00    +0.000 C 
BRANCH  30  31
ATOM     31  C   UNL     1     -10.353  52.962  44.427  0.00  0.00    +0.000 C 
ATOM     32  C   UNL     1     -11.778  52.683  44.828  0.00  0.00    +0.000 C 
ATOM     33  C   UNL     1     -10.945  51.590  44.223  0.00  0.00    +0.000 C 
ENDBRANCH  30  31
ENDBRANCH  29  30
ENDBRANCH   5  29
TORSDOF 5
ENDMDL
MODEL 9
REMARK VINA RESULT:      -8.0      3.305      4.419
REMARK  Name = 338168
REMARK  5 active torsions:
REMARK  status: ('A' for Active; 'I' for Inactive)
REMARK    1  A    between atoms: C_6  and  C_10
REMARK    2  A    between atoms: C_14  and  O_18
REMARK    3  A    between atoms: N_17  and  C_21
REMARK    4  A    between atoms: C_21  and  C_24
REMARK    5  A    between atoms: C_24  and  C_27
REMARK                            x       y       z     vdW  Elec       q    Type
REMARK                         _______ _______ _______ _____ _____    ______ ____
ROOT
ATOM      1  C   UNL     1     -12.204  54.408  50.189  0.00  0.00    +0.000 A 
ATOM      2  C   UNL     1     -12.066  53.920  48.786  0.00  0.00    +0.000 A 
ATOM      3  C   UNL     1     -11.659  53.708  51.197  0.00  0.00    +0.000 A 
ATOM      4  O   UNL     1     -12.728  54.493  47.919  0.00  0.00    +0.000 OA
ATOM      5  N   UNL     1     -11.178  52.878  48.518  0.00  0.00    +0.000 N 
ATOM      6  C   UNL     1     -10.872  52.501  50.929  0.00  0.00    +0.000 A 
ATOM      7  C   UNL     1     -10.615  52.109  49.597  0.00  0.00    +0.000 A 
ATOM      8  C   UNL     1     -10.335  51.764  52.001  0.00  0.00    +0.000 A 
ATOM      9  C   UNL     1      -9.818  50.967  49.391  0.00  0.00    +0.000 A 
ATOM     10  C   UNL     1      -9.532  50.662  51.761  0.00  0.00    +0.000 A 
ATOM     11  C   UNL     1      -9.266  50.258  50.465  0.00  0.00    +0.000 A 
ATOM     12  F   UNL     1      -9.003  49.989  52.790  0.00  0.00    +0.000 F 
ENDROOT
BRANCH   1  18
ATOM     13  S   UNL     1     -14.429  56.927  52.323  0.00  0.00    +0.000 S 
ATOM     14  O   UNL     1     -13.464  57.277  53.340  0.00  0.00    +0.000 OA
ATOM     15  O   UNL     1     -15.822  56.682  52.633  0.00  0.00    +0.000 OA
ATOM     16  N   UNL     1     -13.881  55.595  51.522  0.00  0.00    +0.000 N 
ATOM     17  C   UNL     1     -14.355  58.140  51.075  0.00  0.00    +0.000 A 
ATOM     18  C   UNL     1     -12.942  55.668  50.497  0.00  0.00    +0.000 C 
ATOM     19  C   UNL     1     -13.520  57.895  49.991  0.00  0.00    +0.000 A 
ATOM     20  C   UNL     1     -15.140  59.293  51.170  0.00  0.00    +0.000 A 
ATOM     21  N   UNL     1     -12.717  56.756  49.827  0.00  0.00    +0.000 N 
ATOM     22  C   UNL     1     -13.493  58.847  48.967  0.00  0.00    +0.000 A 
ATOM     23  C   UNL     1     -15.088  60.233  50.145  0.00  0.00    +0.000 A 
ATOM     24  C   UNL     1     -14.270  60.007  49.038  0.00  0.00    +0.000 A 
ATOM     25  H   UNL     1     -14.231  54.711  51.780  0.00  0.00    +0.000 HD
ATOM     26  H   UNL     1     -11.967  56.782  49.190  0.00  0.00    +0.000 HD
ENDBRANCH   1  18
BRANCH   3  27
ATOM     27  O   UNL     1     -11.757  54.054  52.536  0.00  0.00    +0.000 OA
ATOM     28  H   UNL     1     -12.558  53.909  53.000  0.00  0.00    +0.000 HD
ENDBRANCH   3  27
BRANCH   5  29
ATOM     29  C   UNL     1     -10.995  52.436  47.115  0.00  0.00    +0.000 C 
BRANCH  29  30
ATOM     30  C   UNL     1     -10.222  53.393  46.189  0.00  0.00    +0.000 C 
BRANCH  30  31
ATOM     31  C   UNL     1      -8.968  53.940  46.813  0.00  0.00    +0.000 C 
ATOM     32  C   UNL     1      -8.845  55.352  47.324  0.00  0.00    +0.000 C 
ATOM     33  C   UNL     1      -8.171  54.961  46.040  0.00  0.00    +0.000 C 
ENDBRANCH  30  31
ENDBRANCH  29  30
ENDBRANCH   5  29
TORSDOF 5
ENDMDL
