MODEL 1
REMARK VINA RESULT:      -8.2      0.000      0.000
REMARK  Name = 338182
REMARK  4 active torsions:
REMARK  status: ('A' for Active; 'I' for Inactive)
REMARK    1  A    between atoms: C_6  and  C_10
REMARK    2  A    between atoms: C_14  and  O_18
REMARK    3  A    between atoms: N_17  and  C_21
REMARK    4  A    between atoms: C_21  and  C_24
REMARK                            x       y       z     vdW  Elec       q    Type
REMARK                         _______ _______ _______ _____ _____    ______ ____
ROOT
ATOM      1  C   UNL     1     -10.032  54.376  52.343  0.00  0.00    +0.000 A 
ATOM      2  C   UNL     1      -8.646  54.930  52.253  0.00  0.00    +0.000 A 
ATOM      3  C   UNL     1     -10.265  53.270  53.070  0.00  0.00    +0.000 A 
ATOM      4  O   UNL     1      -8.477  56.007  51.673  0.00  0.00    +0.000 OA
ATOM      5  N   UNL     1      -7.604  54.209  52.820  0.00  0.00    +0.000 N 
ATOM      6  C   UNL     1      -9.168  52.603  53.789  0.00  0.00    +0.000 A 
ATOM      7  C   UNL     1      -7.851  53.073  53.650  0.00  0.00    +0.000 A 
ATOM      8  C   UNL     1      -9.425  51.496  54.617  0.00  0.00    +0.000 A 
ATOM      9  C   UNL     1      -6.823  52.425  54.354  0.00  0.00    +0.000 A 
ATOM     10  C   UNL     1      -8.396  50.871  55.317  0.00  0.00    +0.000 A 
ATOM     11  C   UNL     1      -7.095  51.337  55.187  0.00  0.00    +0.000 A 
ENDROOT
BRANCH   1  17
ATOM     12  S   UNL     1     -12.303  55.862  49.497  0.00  0.00    +0.000 S 
ATOM     13  O   UNL     1     -13.175  54.866  48.908  0.00  0.00    +0.000 OA
ATOM     14  O   UNL     1     -11.634  56.840  48.659  0.00  0.00    +0.000 OA
ATOM     15  N   UNL     1     -11.172  55.081  50.353  0.00  0.00    +0.000 N 
ATOM     16  C   UNL     1     -13.300  56.784  50.611  0.00  0.00    +0.000 A 
ATOM     17  C   UNL     1     -11.170  55.108  51.654  0.00  0.00    +0.000 C 
ATOM     18  C   UNL     1     -13.074  56.621  51.969  0.00  0.00    +0.000 A 
ATOM     19  C   UNL     1     -14.278  57.653  50.121  0.00  0.00    +0.000 A 
ATOM     20  N   UNL     1     -12.101  55.745  52.444  0.00  0.00    +0.000 N 
ATOM     21  C   UNL     1     -13.907  57.302  52.862  0.00  0.00    +0.000 A 
ATOM     22  C   UNL     1     -15.076  58.351  51.021  0.00  0.00    +0.000 A 
ATOM     23  C   UNL     1     -14.898  58.168  52.392  0.00  0.00    +0.000 A 
ATOM     24  H   UNL     1     -10.472  54.576  49.880  0.00  0.00    +0.000 HD
ATOM     25  H   UNL     1     -12.077  55.570  53.412  0.00  0.00    +0.000 HD
ENDBRANCH   1  17
BRANCH   3  26
ATOM     26  O   UNL     1     -11.511  52.688  53.236  0.00  0.00    +0.000 OA
ATOM     27  H   UNL     1     -11.807  52.453  54.093  0.00  0.00    +0.000 HD
ENDBRANCH   3  26
BRANCH   5  28
ATOM     28  C   UNL     1      -6.241  54.690  52.584  0.00  0.00    +0.000 C 
ATOM     29  C   UNL     1      -5.612  54.113  51.325  0.00  0.00    +0.000 C 
ENDBRANCH   5  28
TORSDOF 3
ENDMDL
MODEL 2
REMARK VINA RESULT:      -7.9      3.824      4.776
REMARK  Name = 338182
REMARK  4 active torsions:
REMARK  status: ('A' for Active; 'I' for Inactive)
REMARK    1  A    between atoms: C_6  and  C_10
REMARK    2  A    between atoms: C_14  and  O_18
REMARK    3  A    between atoms: N_17  and  C_21
REMARK    4  A    between atoms: C_21  and  C_24
REMARK                            x       y       z     vdW  Elec       q    Type
REMARK                         _______ _______ _______ _____ _____    ______ ____
ROOT
ATOM      1  C   UNL     1     -12.530  54.229  49.662  0.00  0.00    +0.000 A 
ATOM      2  C   UNL     1     -12.004  54.144  48.265  0.00  0.00    +0.000 A 
ATOM      3  C   UNL     1     -12.261  53.247  50.540  0.00  0.00    +0.000 A 
ATOM      4  O   UNL     1     -12.169  55.110  47.513  0.00  0.00    +0.000 OA
ATOM      5  N   UNL     1     -11.357  52.983  47.868  0.00  0.00    +0.000 N 
ATOM      6  C   UNL     1     -11.444  52.091  50.141  0.00  0.00    +0.000 A 
ATOM      7  C   UNL     1     -11.008  51.967  48.810  0.00  0.00    +0.000 A 
ATOM      8  C   UNL     1     -11.091  51.106  51.080  0.00  0.00    +0.000 A 
ATOM      9  C   UNL     1     -10.220  50.859  48.456  0.00  0.00    +0.000 A 
ATOM     10  C   UNL     1     -10.301  50.019  50.716  0.00  0.00    +0.000 A 
ATOM     11  C   UNL     1      -9.863  49.897  49.404  0.00  0.00    +0.000 A 
ENDROOT
BRANCH   1  17
ATOM     12  S   UNL     1     -15.378  56.462  51.200  0.00  0.00    +0.000 S 
ATOM     13  O   UNL     1     -15.277  56.576  52.641  0.00  0.00    +0.000 OA
ATOM     14  O   UNL     1     -16.673  56.285  50.567  0.00  0.00    +0.000 OA
ATOM     15  N   UNL     1     -14.424  55.240  50.733  0.00  0.00    +0.000 N 
ATOM     16  C   UNL     1     -14.724  57.955  50.546  0.00  0.00    +0.000 A 
ATOM     17  C   UNL     1     -13.316  55.457  50.086  0.00  0.00    +0.000 C 
ATOM     18  C   UNL     1     -13.508  57.894  49.885  0.00  0.00    +0.000 A 
ATOM     19  C   UNL     1     -15.429  59.153  50.694  0.00  0.00    +0.000 A 
ATOM     20  N   UNL     1     -12.812  56.695  49.753  0.00  0.00    +0.000 N 
ATOM     21  C   UNL     1     -12.949  59.089  49.421  0.00  0.00    +0.000 A 
ATOM     22  C   UNL     1     -14.879  60.329  50.194  0.00  0.00    +0.000 A 
ATOM     23  C   UNL     1     -13.633  60.298  49.566  0.00  0.00    +0.000 A 
ATOM     24  H   UNL     1     -14.686  54.316  50.944  0.00  0.00    +0.000 HD
ATOM     25  H   UNL     1     -11.895  56.735  49.395  0.00  0.00    +0.000 HD
ENDBRANCH   1  17
BRANCH   3  26
ATOM     26  O   UNL     1     -12.681  53.237  51.859  0.00  0.00    +0.000 OA
ATOM     27  H   UNL     1     -13.255  52.561  52.162  0.00  0.00    +0.000 HD
ENDBRANCH   3  26
BRANCH   5  28
ATOM     28  C   UNL     1     -10.990  52.861  46.456  0.00  0.00    +0.000 C 
ATOM     29  C   UNL     1     -12.091  52.248  45.603  0.00  0.00    +0.000 C 
ENDBRANCH   5  28
TORSDOF 3
ENDMDL
MODEL 3
REMARK VINA RESULT:      -7.9      3.564      5.247
REMARK  Name = 338182
REMARK  4 active torsions:
REMARK  status: ('A' for Active; 'I' for Inactive)
REMARK    1  A    between atoms: C_6  and  C_10
REMARK    2  A    between atoms: C_14  and  O_18
REMARK    3  A    between atoms: N_17  and  C_21
REMARK    4  A    between atoms: C_21  and  C_24
REMARK                            x       y       z     vdW  Elec       q    Type
REMARK                         _______ _______ _______ _____ _____    ______ ____
ROOT
ATOM      1  C   UNL     1     -11.419  56.058  48.759  0.00  0.00    +0.000 A 
ATOM      2  C   UNL     1     -10.278  55.531  49.569  0.00  0.00    +0.000 A 
ATOM      3  C   UNL     1     -11.582  55.652  47.488  0.00  0.00    +0.000 A 
ATOM      4  O   UNL     1     -10.215  55.831  50.765  0.00  0.00    +0.000 OA
ATOM      5  N   UNL     1      -9.334  54.729  48.943  0.00  0.00    +0.000 N 
ATOM      6  C   UNL     1     -10.652  54.683  46.887  0.00  0.00    +0.000 A 
ATOM      7  C   UNL     1      -9.535  54.239  47.616  0.00  0.00    +0.000 A 
ATOM      8  C   UNL     1     -10.871  54.194  45.588  0.00  0.00    +0.000 A 
ATOM      9  C   UNL     1      -8.668  53.307  47.025  0.00  0.00    +0.000 A 
ATOM     10  C   UNL     1     -10.007  53.261  45.019  0.00  0.00    +0.000 A 
ATOM     11  C   UNL     1      -8.907  52.816  45.739  0.00  0.00    +0.000 A 
ENDROOT
BRANCH   1  17
ATOM     12  S   UNL     1     -13.550  59.288  49.459  0.00  0.00    +0.000 S 
ATOM     13  O   UNL     1     -14.693  59.400  48.576  0.00  0.00    +0.000 OA
ATOM     14  O   UNL     1     -12.757  60.459  49.785  0.00  0.00    +0.000 OA
ATOM     15  N   UNL     1     -12.557  58.169  48.841  0.00  0.00    +0.000 N 
ATOM     16  C   UNL     1     -14.174  58.689  50.988  0.00  0.00    +0.000 A 
ATOM     17  C   UNL     1     -12.413  57.006  49.406  0.00  0.00    +0.000 C 
ATOM     18  C   UNL     1     -13.853  57.392  51.354  0.00  0.00    +0.000 A 
ATOM     19  C   UNL     1     -14.960  59.515  51.796  0.00  0.00    +0.000 A 
ATOM     20  N   UNL     1     -13.076  56.576  50.535  0.00  0.00    +0.000 N 
ATOM     21  C   UNL     1     -14.400  56.886  52.537  0.00  0.00    +0.000 A 
ATOM     22  C   UNL     1     -15.468  59.011  52.988  0.00  0.00    +0.000 A 
ATOM     23  C   UNL     1     -15.196  57.693  53.355  0.00  0.00    +0.000 A 
ATOM     24  H   UNL     1     -12.053  58.372  48.020  0.00  0.00    +0.000 HD
ATOM     25  H   UNL     1     -12.994  55.627  50.781  0.00  0.00    +0.000 HD
ENDBRANCH   1  17
BRANCH   3  26
ATOM     26  O   UNL     1     -12.614  56.062  46.660  0.00  0.00    +0.000 OA
ATOM     27  H   UNL     1     -12.964  55.472  46.023  0.00  0.00    +0.000 HD
ENDBRANCH   3  26
BRANCH   5  28
ATOM     28  C   UNL     1      -8.147  54.355  49.714  0.00  0.00    +0.000 C 
ATOM     29  C   UNL     1      -7.008  55.355  49.584  0.00  0.00    +0.000 C 
ENDBRANCH   5  28
TORSDOF 3
ENDMDL
MODEL 4
REMARK VINA RESULT:      -7.9      4.786      7.402
REMARK  Name = 338182
REMARK  4 active torsions:
REMARK  status: ('A' for Active; 'I' for Inactive)
REMARK    1  A    between atoms: C_6  and  C_10
REMARK    2  A    between atoms: C_14  and  O_18
REMARK    3  A    between atoms: N_17  and  C_21
REMARK    4  A    between atoms: C_21  and  C_24
REMARK                            x       y       z     vdW  Elec       q    Type
REMARK                         _______ _______ _______ _____ _____    ______ ____
ROOT
ATOM      1  C   UNL     1     -12.880  56.276  49.585  0.00  0.00    +0.000 A 
ATOM      2  C   UNL     1     -13.376  57.473  48.838  0.00  0.00    +0.000 A 
ATOM      3  C   UNL     1     -13.139  56.152  50.898  0.00  0.00    +0.000 A 
ATOM      4  O   UNL     1     -13.222  57.509  47.613  0.00  0.00    +0.000 OA
ATOM      5  N   UNL     1     -13.984  58.497  49.550  0.00  0.00    +0.000 N 
ATOM      6  C   UNL     1     -13.917  57.180  51.607  0.00  0.00    +0.000 A 
ATOM      7  C   UNL     1     -14.323  58.343  50.930  0.00  0.00    +0.000 A 
ATOM      8  C   UNL     1     -14.261  57.010  52.960  0.00  0.00    +0.000 A 
ATOM      9  C   UNL     1     -15.073  59.305  51.626  0.00  0.00    +0.000 A 
ATOM     10  C   UNL     1     -15.014  57.968  53.633  0.00  0.00    +0.000 A 
ATOM     11  C   UNL     1     -15.423  59.115  52.965  0.00  0.00    +0.000 A 
ENDROOT
BRANCH   1  17
ATOM     12  S   UNL     1     -11.752  52.708  48.379  0.00  0.00    +0.000 S 
ATOM     13  O   UNL     1     -12.665  52.135  47.411  0.00  0.00    +0.000 OA
ATOM     14  O   UNL     1     -11.182  51.883  49.429  0.00  0.00    +0.000 OA
ATOM     15  N   UNL     1     -12.497  53.962  49.079  0.00  0.00    +0.000 N 
ATOM     16  C   UNL     1     -10.388  53.320  47.456  0.00  0.00    +0.000 A 
ATOM     17  C   UNL     1     -12.135  55.187  48.833  0.00  0.00    +0.000 C 
ATOM     18  C   UNL     1     -10.236  54.694  47.362  0.00  0.00    +0.000 A 
ATOM     19  C   UNL     1      -9.495  52.431  46.852  0.00  0.00    +0.000 A 
ATOM     20  N   UNL     1     -11.138  55.569  47.962  0.00  0.00    +0.000 N 
ATOM     21  C   UNL     1      -9.191  55.189  46.575  0.00  0.00    +0.000 A 
ATOM     22  C   UNL     1      -8.439  52.938  46.102  0.00  0.00    +0.000 A 
ATOM     23  C   UNL     1      -8.293  54.318  45.955  0.00  0.00    +0.000 A 
ATOM     24  H   UNL     1     -13.240  53.795  49.702  0.00  0.00    +0.000 HD
ATOM     25  H   UNL     1     -11.057  56.527  47.750  0.00  0.00    +0.000 HD
ENDBRANCH   1  17
BRANCH   3  26
ATOM     26  O   UNL     1     -12.745  55.077  51.677  0.00  0.00    +0.000 OA
ATOM     27  H   UNL     1     -13.374  54.627  52.205  0.00  0.00    +0.000 HD
ENDBRANCH   3  26
BRANCH   5  28
ATOM     28  C   UNL     1     -14.319  59.722  48.822  0.00  0.00    +0.000 C 
ATOM     29  C   UNL     1     -13.462  60.912  49.227  0.00  0.00    +0.000 C 
ENDBRANCH   5  28
TORSDOF 3
ENDMDL
MODEL 5
REMARK VINA RESULT:      -7.7      4.678      7.530
REMARK  Name = 338182
REMARK  4 active torsions:
REMARK  status: ('A' for Active; 'I' for Inactive)
REMARK    1  A    between atoms: C_6  and  C_10
REMARK    2  A    between atoms: C_14  and  O_18
REMARK    3  A    between atoms: N_17  and  C_21
REMARK    4  A    between atoms: C_21  and  C_24
REMARK                            x       y       z     vdW  Elec       q    Type
REMARK                         _______ _______ _______ _____ _____    ______ ____
ROOT
ATOM      1  C   UNL     1     -12.374  56.399  49.203  0.00  0.00    +0.000 A 
ATOM      2  C   UNL     1     -13.225  57.381  48.463  0.00  0.00    +0.000 A 
ATOM      3  C   UNL     1     -12.477  56.298  50.539  0.00  0.00    +0.000 A 
ATOM      4  O   UNL     1     -13.193  57.377  47.228  0.00  0.00    +0.000 OA
ATOM      5  N   UNL     1     -14.012  58.261  49.192  0.00  0.00    +0.000 N 
ATOM      6  C   UNL     1     -13.429  57.138  51.282  0.00  0.00    +0.000 A 
ATOM      7  C   UNL     1     -14.179  58.114  50.604  0.00  0.00    +0.000 A 
ATOM      8  C   UNL     1     -13.598  56.973  52.668  0.00  0.00    +0.000 A 
ATOM      9  C   UNL     1     -15.089  58.897  51.333  0.00  0.00    +0.000 A 
ATOM     10  C   UNL     1     -14.512  57.750  53.375  0.00  0.00    +0.000 A 
ATOM     11  C   UNL     1     -15.259  58.710  52.707  0.00  0.00    +0.000 A 
ENDROOT
BRANCH   1  17
ATOM     12  S   UNL     1      -9.127  54.462  48.121  0.00  0.00    +0.000 S 
ATOM     13  O   UNL     1      -8.897  53.276  48.921  0.00  0.00    +0.000 OA
ATOM     14  O   UNL     1      -8.020  55.326  47.754  0.00  0.00    +0.000 OA
ATOM     15  N   UNL     1     -10.232  55.365  48.886  0.00  0.00    +0.000 N 
ATOM     16  C   UNL     1      -9.822  53.902  46.609  0.00  0.00    +0.000 A 
ATOM     17  C   UNL     1     -11.442  55.489  48.423  0.00  0.00    +0.000 C 
ATOM     18  C   UNL     1     -11.157  54.184  46.366  0.00  0.00    +0.000 A 
ATOM     19  C   UNL     1      -9.033  53.202  45.692  0.00  0.00    +0.000 A 
ATOM     20  N   UNL     1     -11.934  54.874  47.293  0.00  0.00    +0.000 N 
ATOM     21  C   UNL     1     -11.734  53.684  45.195  0.00  0.00    +0.000 A 
ATOM     22  C   UNL     1      -9.611  52.742  44.513  0.00  0.00    +0.000 A 
ATOM     23  C   UNL     1     -10.965  52.974  44.269  0.00  0.00    +0.000 A 
ATOM     24  H   UNL     1      -9.984  55.829  49.717  0.00  0.00    +0.000 HD
ATOM     25  H   UNL     1     -12.903  54.927  47.128  0.00  0.00    +0.000 HD
ENDBRANCH   1  17
BRANCH   3  26
ATOM     26  O   UNL     1     -11.752  55.410  51.317  0.00  0.00    +0.000 OA
ATOM     27  H   UNL     1     -10.892  55.639  51.609  0.00  0.00    +0.000 HD
ENDBRANCH   3  26
BRANCH   5  28
ATOM     28  C   UNL     1     -14.715  59.312  48.454  0.00  0.00    +0.000 C 
ATOM     29  C   UNL     1     -14.380  60.713  48.943  0.00  0.00    +0.000 C 
ENDBRANCH   5  28
TORSDOF 3
ENDMDL
MODEL 6
REMARK VINA RESULT:      -7.7      1.648      2.390
REMARK  Name = 338182
REMARK  4 active torsions:
REMARK  status: ('A' for Active; 'I' for Inactive)
REMARK    1  A    between atoms: C_6  and  C_10
REMARK    2  A    between atoms: C_14  and  O_18
REMARK    3  A    between atoms: N_17  and  C_21
REMARK    4  A    between atoms: C_21  and  C_24
REMARK                            x       y       z     vdW  Elec       q    Type
REMARK                         _______ _______ _______ _____ _____    ______ ____
ROOT
ATOM      1  C   UNL     1     -10.154  54.539  52.161  0.00  0.00    +0.000 A 
ATOM      2  C   UNL     1      -8.753  55.062  52.136  0.00  0.00    +0.000 A 
ATOM      3  C   UNL     1     -10.441  53.427  52.860  0.00  0.00    +0.000 A 
ATOM      4  O   UNL     1      -8.538  56.144  51.582  0.00  0.00    +0.000 OA
ATOM      5  N   UNL     1      -7.752  54.309  52.733  0.00  0.00    +0.000 N 
ATOM      6  C   UNL     1      -9.389  52.723  53.611  0.00  0.00    +0.000 A 
ATOM      7  C   UNL     1      -8.057  53.165  53.533  0.00  0.00    +0.000 A 
ATOM      8  C   UNL     1      -9.704  51.610  54.409  0.00  0.00    +0.000 A 
ATOM      9  C   UNL     1      -7.073  52.483  54.267  0.00  0.00    +0.000 A 
ATOM     10  C   UNL     1      -8.719  50.950  55.139  0.00  0.00    +0.000 A 
ATOM     11  C   UNL     1      -7.403  51.389  55.070  0.00  0.00    +0.000 A 
ENDROOT
BRANCH   1  17
ATOM     12  S   UNL     1     -13.501  56.496  51.507  0.00  0.00    +0.000 S 
ATOM     13  O   UNL     1     -13.429  57.877  51.938  0.00  0.00    +0.000 OA
ATOM     14  O   UNL     1     -14.699  55.713  51.750  0.00  0.00    +0.000 OA
ATOM     15  N   UNL     1     -12.249  55.708  52.165  0.00  0.00    +0.000 N 
ATOM     16  C   UNL     1     -13.286  56.518  49.764  0.00  0.00    +0.000 A 
ATOM     17  C   UNL     1     -11.247  55.307  51.439  0.00  0.00    +0.000 C 
ATOM     18  C   UNL     1     -12.103  56.012  49.251  0.00  0.00    +0.000 A 
ATOM     19  C   UNL     1     -14.293  57.029  48.940  0.00  0.00    +0.000 A 
ATOM     20  N   UNL     1     -11.104  55.514  50.084  0.00  0.00    +0.000 N 
ATOM     21  C   UNL     1     -11.897  56.087  47.871  0.00  0.00    +0.000 A 
ATOM     22  C   UNL     1     -14.090  57.064  47.565  0.00  0.00    +0.000 A 
ATOM     23  C   UNL     1     -12.887  56.602  47.030  0.00  0.00    +0.000 A 
ATOM     24  H   UNL     1     -12.246  55.530  53.132  0.00  0.00    +0.000 HD
ATOM     25  H   UNL     1     -10.236  55.294  49.676  0.00  0.00    +0.000 HD
ENDBRANCH   1  17
BRANCH   3  26
ATOM     26  O   UNL     1     -11.705  52.870  52.965  0.00  0.00    +0.000 OA
ATOM     27  H   UNL     1     -12.461  53.423  52.952  0.00  0.00    +0.000 HD
ENDBRANCH   3  26
BRANCH   5  28
ATOM     28  C   UNL     1      -6.370  54.763  52.560  0.00  0.00    +0.000 C 
ATOM     29  C   UNL     1      -5.703  54.191  51.318  0.00  0.00    +0.000 C 
ENDBRANCH   5  28
TORSDOF 3
ENDMDL
MODEL 7
REMARK VINA RESULT:      -7.6      3.762      5.416
REMARK  Name = 338182
REMARK  4 active torsions:
REMARK  status: ('A' for Active; 'I' for Inactive)
REMARK    1  A    between atoms: C_6  and  C_10
REMARK    2  A    between atoms: C_14  and  O_18
REMARK    3  A    between atoms: N_17  and  C_21
REMARK    4  A    between atoms: C_21  and  C_24
REMARK                            x       y       z     vdW  Elec       q    Type
REMARK                         _______ _______ _______ _____ _____    ______ ____
ROOT
ATOM      1  C   UNL     1     -10.946  55.375  48.634  0.00  0.00    +0.000 A 
ATOM      2  C   UNL     1      -9.697  54.861  49.275  0.00  0.00    +0.000 A 
ATOM      3  C   UNL     1     -11.204  55.090  47.346  0.00  0.00    +0.000 A 
ATOM      4  O   UNL     1      -9.538  55.041  50.486  0.00  0.00    +0.000 OA
ATOM      5  N   UNL     1      -8.764  54.208  48.483  0.00  0.00    +0.000 N 
ATOM      6  C   UNL     1     -10.271  54.267  46.561  0.00  0.00    +0.000 A 
ATOM      7  C   UNL     1      -9.060  53.842  47.133  0.00  0.00    +0.000 A 
ATOM      8  C   UNL     1     -10.581  53.898  45.240  0.00  0.00    +0.000 A 
ATOM      9  C   UNL     1      -8.190  53.048  46.367  0.00  0.00    +0.000 A 
ATOM     10  C   UNL     1      -9.713  53.102  44.497  0.00  0.00    +0.000 A 
ATOM     11  C   UNL     1      -8.519  52.675  45.062  0.00  0.00    +0.000 A 
ENDROOT
BRANCH   1  17
ATOM     12  S   UNL     1     -13.542  56.278  51.446  0.00  0.00    +0.000 S 
ATOM     13  O   UNL     1     -12.905  56.592  52.709  0.00  0.00    +0.000 OA
ATOM     14  O   UNL     1     -14.751  55.475  51.414  0.00  0.00    +0.000 OA
ATOM     15  N   UNL     1     -12.440  55.560  50.503  0.00  0.00    +0.000 N 
ATOM     16  C   UNL     1     -13.970  57.820  50.722  0.00  0.00    +0.000 A 
ATOM     17  C   UNL     1     -11.937  56.168  49.469  0.00  0.00    +0.000 C 
ATOM     18  C   UNL     1     -13.262  58.227  49.602  0.00  0.00    +0.000 A 
ATOM     19  C   UNL     1     -14.999  58.591  51.270  0.00  0.00    +0.000 A 
ATOM     20  N   UNL     1     -12.233  57.454  49.071  0.00  0.00    +0.000 N 
ATOM     21  C   UNL     1     -13.552  59.483  49.060  0.00  0.00    +0.000 A 
ATOM     22  C   UNL     1     -15.302  59.822  50.698  0.00  0.00    +0.000 A 
ATOM     23  C   UNL     1     -14.571  60.273  49.598  0.00  0.00    +0.000 A 
ATOM     24  H   UNL     1     -12.145  54.646  50.716  0.00  0.00    +0.000 HD
ATOM     25  H   UNL     1     -11.679  57.853  48.362  0.00  0.00    +0.000 HD
ENDBRANCH   1  17
BRANCH   3  26
ATOM     26  O   UNL     1     -12.338  55.499  46.664  0.00  0.00    +0.000 OA
ATOM     27  H   UNL     1     -13.083  55.809  47.140  0.00  0.00    +0.000 HD
ENDBRANCH   3  26
BRANCH   5  28
ATOM     28  C   UNL     1      -7.484  53.853  49.098  0.00  0.00    +0.000 C 
ATOM     29  C   UNL     1      -6.425  54.935  48.942  0.00  0.00    +0.000 C 
ENDBRANCH   5  28
TORSDOF 3
ENDMDL
MODEL 8
REMARK VINA RESULT:      -7.5      0.765      2.691
REMARK  Name = 338182
REMARK  4 active torsions:
REMARK  status: ('A' for Active; 'I' for Inactive)
REMARK    1  A    between atoms: C_6  and  C_10
REMARK    2  A    between atoms: C_14  and  O_18
REMARK    3  A    between atoms: N_17  and  C_21
REMARK    4  A    between atoms: C_21  and  C_24
REMARK                            x       y       z     vdW  Elec       q    Type
REMARK                         _______ _______ _______ _____ _____    ______ ____
ROOT
ATOM      1  C   UNL     1      -9.862  54.491  52.304  0.00  0.00    +0.000 A 
ATOM      2  C   UNL     1     -10.042  53.216  53.066  0.00  0.00    +0.000 A 
ATOM      3  C   UNL     1      -8.638  55.034  52.189  0.00  0.00    +0.000 A 
ATOM      4  O   UNL     1     -11.154  52.679  53.063  0.00  0.00    +0.000 OA
ATOM      5  N   UNL     1      -8.954  52.691  53.749  0.00  0.00    +0.000 N 
ATOM      6  C   UNL     1      -7.469  54.381  52.796  0.00  0.00    +0.000 A 
ATOM      7  C   UNL     1      -7.640  53.223  53.576  0.00  0.00    +0.000 A 
ATOM      8  C   UNL     1      -6.178  54.902  52.604  0.00  0.00    +0.000 A 
ATOM      9  C   UNL     1      -6.507  52.612  54.137  0.00  0.00    +0.000 A 
ATOM     10  C   UNL     1      -5.063  54.278  53.159  0.00  0.00    +0.000 A 
ATOM     11  C   UNL     1      -5.228  53.131  53.923  0.00  0.00    +0.000 A 
ENDROOT
BRANCH   1  17
ATOM     12  S   UNL     1     -12.299  55.726  49.476  0.00  0.00    +0.000 S 
ATOM     13  O   UNL     1     -13.124  54.657  48.949  0.00  0.00    +0.000 OA
ATOM     14  O   UNL     1     -11.716  56.711  48.584  0.00  0.00    +0.000 OA
ATOM     15  N   UNL     1     -11.098  55.049  50.325  0.00  0.00    +0.000 N 
ATOM     16  C   UNL     1     -13.321  56.626  50.585  0.00  0.00    +0.000 A 
ATOM     17  C   UNL     1     -11.062  55.125  51.623  0.00  0.00    +0.000 C 
ATOM     18  C   UNL     1     -13.048  56.529  51.941  0.00  0.00    +0.000 A 
ATOM     19  C   UNL     1     -14.365  57.414  50.094  0.00  0.00    +0.000 A 
ATOM     20  N   UNL     1     -12.010  55.733  52.418  0.00  0.00    +0.000 N 
ATOM     21  C   UNL     1     -13.897  57.190  52.833  0.00  0.00    +0.000 A 
ATOM     22  C   UNL     1     -15.180  58.096  50.991  0.00  0.00    +0.000 A 
ATOM     23  C   UNL     1     -14.952  57.975  52.363  0.00  0.00    +0.000 A 
ATOM     24  H   UNL     1     -10.382  54.570  49.850  0.00  0.00    +0.000 HD
ATOM     25  H   UNL     1     -11.948  55.596  53.391  0.00  0.00    +0.000 HD
ENDBRANCH   1  17
BRANCH   3  26
ATOM     26  O   UNL     1      -8.359  56.198  51.491  0.00  0.00    +0.000 OA
ATOM     27  H   UNL     1      -7.846  56.161  50.708  0.00  0.00    +0.000 HD
ENDBRANCH   3  26
BRANCH   5  28
ATOM     28  C   UNL     1      -9.193  51.532  54.612  0.00  0.00    +0.000 C 
ATOM     29  C   UNL     1      -8.993  50.204  53.898  0.00  0.00    +0.000 C 
ENDBRANCH   5  28
TORSDOF 3
ENDMDL
MODEL 9
REMARK VINA RESULT:      -7.5      2.579      7.124
REMARK  Name = 338182
REMARK  4 active torsions:
REMARK  status: ('A' for Active; 'I' for Inactive)
REMARK    1  A    between atoms: C_6  and  C_10
REMARK    2  A    between atoms: C_14  and  O_18
REMARK    3  A    between atoms: N_17  and  C_21
REMARK    4  A    between atoms: C_21  and  C_24
REMARK                            x       y       z     vdW  Elec       q    Type
REMARK                         _______ _______ _______ _____ _____    ______ ____
ROOT
ATOM      1  C   UNL     1     -10.304  55.094  50.820  0.00  0.00    +0.000 A 
ATOM      2  C   UNL     1      -9.946  54.964  49.374  0.00  0.00    +0.000 A 
ATOM      3  C   UNL     1     -11.485  55.630  51.172  0.00  0.00    +0.000 A 
ATOM      4  O   UNL     1      -8.907  54.368  49.074  0.00  0.00    +0.000 OA
ATOM      5  N   UNL     1     -10.793  55.523  48.427  0.00  0.00    +0.000 N 
ATOM      6  C   UNL     1     -12.437  56.082  50.146  0.00  0.00    +0.000 A 
ATOM      7  C   UNL     1     -12.079  56.032  48.787  0.00  0.00    +0.000 A 
ATOM      8  C   UNL     1     -13.707  56.563  50.511  0.00  0.00    +0.000 A 
ATOM      9  C   UNL     1     -13.009  56.459  47.826  0.00  0.00    +0.000 A 
ATOM     10  C   UNL     1     -14.622  56.974  49.544  0.00  0.00    +0.000 A 
ATOM     11  C   UNL     1     -14.274  56.919  48.201  0.00  0.00    +0.000 A 
ENDROOT
BRANCH   1  17
ATOM     12  S   UNL     1      -7.064  54.666  53.007  0.00  0.00    +0.000 S 
ATOM     13  O   UNL     1      -6.969  55.659  54.058  0.00  0.00    +0.000 OA
ATOM     14  O   UNL     1      -5.886  54.286  52.249  0.00  0.00    +0.000 OA
ATOM     15  N   UNL     1      -8.193  55.163  51.959  0.00  0.00    +0.000 N 
ATOM     16  C   UNL     1      -7.636  53.195  53.778  0.00  0.00    +0.000 A 
ATOM     17  C   UNL     1      -9.345  54.565  51.872  0.00  0.00    +0.000 C 
ATOM     18  C   UNL     1      -8.926  52.776  53.496  0.00  0.00    +0.000 A 
ATOM     19  C   UNL     1      -6.796  52.483  54.640  0.00  0.00    +0.000 A 
ATOM     20  N   UNL     1      -9.755  53.499  52.643  0.00  0.00    +0.000 N 
ATOM     21  C   UNL     1      -9.410  51.643  54.157  0.00  0.00    +0.000 A 
ATOM     22  C   UNL     1      -7.279  51.337  55.262  0.00  0.00    +0.000 A 
ATOM     23  C   UNL     1      -8.590  50.922  55.029  0.00  0.00    +0.000 A 
ATOM     24  H   UNL     1      -8.005  55.934  51.377  0.00  0.00    +0.000 HD
ATOM     25  H   UNL     1     -10.700  53.229  52.586  0.00  0.00    +0.000 HD
ENDBRANCH   1  17
BRANCH   3  26
ATOM     26  O   UNL     1     -11.921  55.778  52.478  0.00  0.00    +0.000 OA
ATOM     27  H   UNL     1     -12.825  55.950  52.652  0.00  0.00    +0.000 HD
ENDBRANCH   3  26
BRANCH   5  28
ATOM     28  C   UNL     1     -10.346  55.520  47.033  0.00  0.00    +0.000 C 
ATOM     29  C   UNL     1     -10.812  54.297  46.258  0.00  0.00    +0.000 C 
ENDBRANCH   5  28
TORSDOF 3
ENDMDL
