MODEL 1
REMARK VINA RESULT:      -8.2      0.000      0.000
REMARK  Name = 338298
REMARK  5 active torsions:
REMARK  status: ('A' for Active; 'I' for Inactive)
REMARK    1  A    between atoms: C_6  and  C_10
REMARK    2  A    between atoms: C_14  and  O_18
REMARK    3  A    between atoms: N_17  and  C_21
REMARK    4  A    between atoms: C_21  and  C_24
REMARK    5  A    between atoms: C_24  and  C_27
REMARK                            x       y       z     vdW  Elec       q    Type
REMARK                         _______ _______ _______ _____ _____    ______ ____
ROOT
ATOM      1  C   UNL     1     -10.099  54.405  52.304  0.00  0.00    +0.000 A 
ATOM      2  C   UNL     1      -8.722  54.953  52.158  0.00  0.00    +0.000 A 
ATOM      3  C   UNL     1     -10.313  53.307  53.044  0.00  0.00    +0.000 A 
ATOM      4  O   UNL     1      -8.601  55.951  51.442  0.00  0.00    +0.000 OA
ATOM      5  N   UNL     1      -7.664  54.353  52.830  0.00  0.00    +0.000 N 
ATOM      6  C   UNL     1      -9.197  52.661  53.748  0.00  0.00    +0.000 A 
ATOM      7  C   UNL     1      -7.886  53.169  53.621  0.00  0.00    +0.000 A 
ATOM      8  C   UNL     1      -9.438  51.535  54.559  0.00  0.00    +0.000 A 
ATOM      9  C   UNL     1      -6.851  52.499  54.297  0.00  0.00    +0.000 A 
ATOM     10  C   UNL     1      -8.403  50.911  55.248  0.00  0.00    +0.000 A 
ATOM     11  C   UNL     1      -7.109  51.390  55.112  0.00  0.00    +0.000 A 
ENDROOT
BRANCH   1  17
ATOM     12  S   UNL     1     -12.403  55.961  49.521  0.00  0.00    +0.000 S 
ATOM     13  O   UNL     1     -13.309  54.997  48.926  0.00  0.00    +0.000 OA
ATOM     14  O   UNL     1     -11.727  56.937  48.691  0.00  0.00    +0.000 OA
ATOM     15  N   UNL     1     -11.275  55.132  50.339  0.00  0.00    +0.000 N 
ATOM     16  C   UNL     1     -13.362  56.880  50.668  0.00  0.00    +0.000 A 
ATOM     17  C   UNL     1     -11.246  55.148  51.638  0.00  0.00    +0.000 C 
ATOM     18  C   UNL     1     -13.108  56.698  52.017  0.00  0.00    +0.000 A 
ATOM     19  C   UNL     1     -14.333  57.778  50.214  0.00  0.00    +0.000 A 
ATOM     20  N   UNL     1     -12.150  55.787  52.459  0.00  0.00    +0.000 N 
ATOM     21  C   UNL     1     -13.904  57.384  52.943  0.00  0.00    +0.000 A 
ATOM     22  C   UNL     1     -15.096  58.483  51.146  0.00  0.00    +0.000 A 
ATOM     23  C   UNL     1     -14.887  58.278  52.509  0.00  0.00    +0.000 A 
ATOM     24  H   UNL     1     -10.603  54.609  49.845  0.00  0.00    +0.000 HD
ATOM     25  H   UNL     1     -12.118  55.586  53.422  0.00  0.00    +0.000 HD
ENDBRANCH   1  17
BRANCH   3  26
ATOM     26  O   UNL     1     -11.553  52.721  53.225  0.00  0.00    +0.000 OA
ATOM     27  H   UNL     1     -11.731  51.877  52.859  0.00  0.00    +0.000 HD
ENDBRANCH   3  26
BRANCH   5  28
ATOM     28  C   UNL     1      -6.291  54.852  52.584  0.00  0.00    +0.000 C 
BRANCH  28  29
ATOM     29  C   UNL     1      -5.507  54.172  51.447  0.00  0.00    +0.000 C 
BRANCH  29  30
ATOM     30  C   UNL     1      -5.528  54.946  50.158  0.00  0.00    +0.000 C 
ATOM     31  C   UNL     1      -6.382  54.565  48.979  0.00  0.00    +0.000 C 
ATOM     32  C   UNL     1      -4.900  54.320  48.939  0.00  0.00    +0.000 C 
ENDBRANCH  29  30
ENDBRANCH  28  29
ENDBRANCH   5  28
TORSDOF 5
ENDMDL
MODEL 2
REMARK VINA RESULT:      -8.0      3.684      4.604
REMARK  Name = 338298
REMARK  5 active torsions:
REMARK  status: ('A' for Active; 'I' for Inactive)
REMARK    1  A    between atoms: C_6  and  C_10
REMARK    2  A    between atoms: C_14  and  O_18
REMARK    3  A    between atoms: N_17  and  C_21
REMARK    4  A    between atoms: C_21  and  C_24
REMARK    5  A    between atoms: C_24  and  C_27
REMARK                            x       y       z     vdW  Elec       q    Type
REMARK                         _______ _______ _______ _____ _____    ______ ____
ROOT
ATOM      1  C   UNL     1     -12.567  54.212  49.624  0.00  0.00    +0.000 A 
ATOM      2  C   UNL     1     -12.146  54.130  48.198  0.00  0.00    +0.000 A 
ATOM      3  C   UNL     1     -12.238  53.236  50.482  0.00  0.00    +0.000 A 
ATOM      4  O   UNL     1     -12.508  55.055  47.465  0.00  0.00    +0.000 OA
ATOM      5  N   UNL     1     -11.368  53.063  47.768  0.00  0.00    +0.000 N 
ATOM      6  C   UNL     1     -11.425  52.098  50.030  0.00  0.00    +0.000 A 
ATOM      7  C   UNL     1     -11.017  52.006  48.682  0.00  0.00    +0.000 A 
ATOM      8  C   UNL     1     -11.045  51.099  50.948  0.00  0.00    +0.000 A 
ATOM      9  C   UNL     1     -10.260  50.885  48.297  0.00  0.00    +0.000 A 
ATOM     10  C   UNL     1     -10.265  50.017  50.551  0.00  0.00    +0.000 A 
ATOM     11  C   UNL     1      -9.878  49.909  49.225  0.00  0.00    +0.000 A 
ENDROOT
BRANCH   1  17
ATOM     12  S   UNL     1     -15.362  56.479  51.213  0.00  0.00    +0.000 S 
ATOM     13  O   UNL     1     -15.251  56.595  52.655  0.00  0.00    +0.000 OA
ATOM     14  O   UNL     1     -16.660  56.316  50.591  0.00  0.00    +0.000 OA
ATOM     15  N   UNL     1     -14.424  55.240  50.749  0.00  0.00    +0.000 N 
ATOM     16  C   UNL     1     -14.692  57.963  50.557  0.00  0.00    +0.000 A 
ATOM     17  C   UNL     1     -13.329  55.446  50.083  0.00  0.00    +0.000 C 
ATOM     18  C   UNL     1     -13.488  57.884  49.876  0.00  0.00    +0.000 A 
ATOM     19  C   UNL     1     -15.377  59.173  50.710  0.00  0.00    +0.000 A 
ATOM     20  N   UNL     1     -12.806  56.676  49.746  0.00  0.00    +0.000 N 
ATOM     21  C   UNL     1     -12.917  59.069  49.397  0.00  0.00    +0.000 A 
ATOM     22  C   UNL     1     -14.814  60.341  50.196  0.00  0.00    +0.000 A 
ATOM     23  C   UNL     1     -13.581  60.290  49.548  0.00  0.00    +0.000 A 
ATOM     24  H   UNL     1     -14.690  54.319  50.975  0.00  0.00    +0.000 HD
ATOM     25  H   UNL     1     -11.889  56.704  49.390  0.00  0.00    +0.000 HD
ENDBRANCH   1  17
BRANCH   3  26
ATOM     26  O   UNL     1     -12.595  53.221  51.819  0.00  0.00    +0.000 OA
ATOM     27  H   UNL     1     -13.402  53.609  52.093  0.00  0.00    +0.000 HD
ENDBRANCH   3  26
BRANCH   5  28
ATOM     28  C   UNL     1     -11.052  52.950  46.324  0.00  0.00    +0.000 C 
BRANCH  28  29
ATOM     29  C   UNL     1      -9.942  53.874  45.790  0.00  0.00    +0.000 C 
BRANCH  29  30
ATOM     30  C   UNL     1      -8.706  53.882  46.646  0.00  0.00    +0.000 C 
ATOM     31  C   UNL     1      -8.249  55.086  47.425  0.00  0.00    +0.000 C 
ATOM     32  C   UNL     1      -7.518  54.681  46.176  0.00  0.00    +0.000 C 
ENDBRANCH  29  30
ENDBRANCH  28  29
ENDBRANCH   5  28
TORSDOF 5
ENDMDL
MODEL 3
REMARK VINA RESULT:      -8.0      3.183      7.131
REMARK  Name = 338298
REMARK  5 active torsions:
REMARK  status: ('A' for Active; 'I' for Inactive)
REMARK    1  A    between atoms: C_6  and  C_10
REMARK    2  A    between atoms: C_14  and  O_18
REMARK    3  A    between atoms: N_17  and  C_21
REMARK    4  A    between atoms: C_21  and  C_24
REMARK    5  A    between atoms: C_24  and  C_27
REMARK                            x       y       z     vdW  Elec       q    Type
REMARK                         _______ _______ _______ _____ _____    ______ ____
ROOT
ATOM      1  C   UNL     1     -10.244  55.193  50.845  0.00  0.00    +0.000 A 
ATOM      2  C   UNL     1      -9.788  55.157  49.428  0.00  0.00    +0.000 A 
ATOM      3  C   UNL     1     -11.466  55.652  51.150  0.00  0.00    +0.000 A 
ATOM      4  O   UNL     1      -8.643  54.743  49.230  0.00  0.00    +0.000 OA
ATOM      5  N   UNL     1     -10.652  55.554  48.414  0.00  0.00    +0.000 N 
ATOM      6  C   UNL     1     -12.380  56.086  50.083  0.00  0.00    +0.000 A 
ATOM      7  C   UNL     1     -11.963  56.056  48.734  0.00  0.00    +0.000 A 
ATOM      8  C   UNL     1     -13.678  56.525  50.407  0.00  0.00    +0.000 A 
ATOM      9  C   UNL     1     -12.868  56.504  47.755  0.00  0.00    +0.000 A 
ATOM     10  C   UNL     1     -14.569  56.929  49.417  0.00  0.00    +0.000 A 
ATOM     11  C   UNL     1     -14.161  56.923  48.092  0.00  0.00    +0.000 A 
ENDROOT
BRANCH   1  17
ATOM     12  S   UNL     1      -7.064  54.719  53.112  0.00  0.00    +0.000 S 
ATOM     13  O   UNL     1      -6.993  55.673  54.202  0.00  0.00    +0.000 OA
ATOM     14  O   UNL     1      -5.871  54.370  52.368  0.00  0.00    +0.000 OA
ATOM     15  N   UNL     1      -8.172  55.260  52.059  0.00  0.00    +0.000 N 
ATOM     16  C   UNL     1      -7.649  53.223  53.819  0.00  0.00    +0.000 A 
ATOM     17  C   UNL     1      -9.311  54.653  51.918  0.00  0.00    +0.000 C 
ATOM     18  C   UNL     1      -8.926  52.804  53.482  0.00  0.00    +0.000 A 
ATOM     19  C   UNL     1      -6.831  52.481  54.676  0.00  0.00    +0.000 A 
ATOM     20  N   UNL     1      -9.740  53.560  52.641  0.00  0.00    +0.000 N 
ATOM     21  C   UNL     1      -9.425  51.642  54.082  0.00  0.00    +0.000 A 
ATOM     22  C   UNL     1      -7.327  51.305  55.240  0.00  0.00    +0.000 A 
ATOM     23  C   UNL     1      -8.625  50.891  54.950  0.00  0.00    +0.000 A 
ATOM     24  H   UNL     1      -7.978  56.061  51.519  0.00  0.00    +0.000 HD
ATOM     25  H   UNL     1     -10.685  53.297  52.558  0.00  0.00    +0.000 HD
ENDBRANCH   1  17
BRANCH   3  26
ATOM     26  O   UNL     1     -11.970  55.735  52.436  0.00  0.00    +0.000 OA
ATOM     27  H   UNL     1     -11.472  55.400  53.156  0.00  0.00    +0.000 HD
ENDBRANCH   3  26
BRANCH   5  28
ATOM     28  C   UNL     1     -10.138  55.609  47.025  0.00  0.00    +0.000 C 
BRANCH  28  29
ATOM     29  C   UNL     1     -10.048  54.268  46.274  0.00  0.00    +0.000 C 
BRANCH  29  30
ATOM     30  C   UNL     1     -11.270  53.957  45.454  0.00  0.00    +0.000 C 
ATOM     31  C   UNL     1     -11.979  52.630  45.500  0.00  0.00    +0.000 C 
ATOM     32  C   UNL     1     -11.132  52.984  44.311  0.00  0.00    +0.000 C 
ENDBRANCH  29  30
ENDBRANCH  28  29
ENDBRANCH   5  28
TORSDOF 5
ENDMDL
MODEL 4
REMARK VINA RESULT:      -7.9      2.620      7.728
REMARK  Name = 338298
REMARK  5 active torsions:
REMARK  status: ('A' for Active; 'I' for Inactive)
REMARK    1  A    between atoms: C_6  and  C_10
REMARK    2  A    between atoms: C_14  and  O_18
REMARK    3  A    between atoms: N_17  and  C_21
REMARK    4  A    between atoms: C_21  and  C_24
REMARK    5  A    between atoms: C_24  and  C_27
REMARK                            x       y       z     vdW  Elec       q    Type
REMARK                         _______ _______ _______ _____ _____    ______ ____
ROOT
ATOM      1  C   UNL     1     -10.107  54.750  50.949  0.00  0.00    +0.000 A 
ATOM      2  C   UNL     1     -11.416  55.322  51.368  0.00  0.00    +0.000 A 
ATOM      3  C   UNL     1      -9.797  54.654  49.649  0.00  0.00    +0.000 A 
ATOM      4  O   UNL     1     -11.638  55.355  52.582  0.00  0.00    +0.000 OA
ATOM      5  N   UNL     1     -12.299  55.802  50.409  0.00  0.00    +0.000 N 
ATOM      6  C   UNL     1     -10.732  55.149  48.628  0.00  0.00    +0.000 A 
ATOM      7  C   UNL     1     -11.976  55.695  49.009  0.00  0.00    +0.000 A 
ATOM      8  C   UNL     1     -10.380  55.086  47.266  0.00  0.00    +0.000 A 
ATOM      9  C   UNL     1     -12.843  56.133  47.991  0.00  0.00    +0.000 A 
ATOM     10  C   UNL     1     -11.239  55.559  46.279  0.00  0.00    +0.000 A 
ATOM     11  C   UNL     1     -12.472  56.078  46.642  0.00  0.00    +0.000 A 
ENDROOT
BRANCH   1  17
ATOM     12  S   UNL     1      -6.855  54.586  53.157  0.00  0.00    +0.000 S 
ATOM     13  O   UNL     1      -6.805  55.616  54.177  0.00  0.00    +0.000 OA
ATOM     14  O   UNL     1      -5.663  54.244  52.406  0.00  0.00    +0.000 OA
ATOM     15  N   UNL     1      -8.012  55.000  52.100  0.00  0.00    +0.000 N 
ATOM     16  C   UNL     1      -7.348  53.117  53.979  0.00  0.00    +0.000 A 
ATOM     17  C   UNL     1      -9.123  54.330  52.031  0.00  0.00    +0.000 C 
ATOM     18  C   UNL     1      -8.610  52.615  53.707  0.00  0.00    +0.000 A 
ATOM     19  C   UNL     1      -6.474  52.476  54.863  0.00  0.00    +0.000 A 
ATOM     20  N   UNL     1      -9.480  53.271  52.838  0.00  0.00    +0.000 N 
ATOM     21  C   UNL     1      -9.036  51.474  54.398  0.00  0.00    +0.000 A 
ATOM     22  C   UNL     1      -6.898  51.319  55.519  0.00  0.00    +0.000 A 
ATOM     23  C   UNL     1      -8.181  50.825  55.293  0.00  0.00    +0.000 A 
ATOM     24  H   UNL     1      -7.871  55.769  51.502  0.00  0.00    +0.000 HD
ATOM     25  H   UNL     1     -10.412  52.958  52.799  0.00  0.00    +0.000 HD
ENDBRANCH   1  17
BRANCH   3  26
ATOM     26  O   UNL     1      -8.612  54.126  49.167  0.00  0.00    +0.000 OA
ATOM     27  H   UNL     1      -8.055  54.646  48.621  0.00  0.00    +0.000 HD
ENDBRANCH   3  26
BRANCH   5  28
ATOM     28  C   UNL     1     -13.637  56.268  50.844  0.00  0.00    +0.000 C 
BRANCH  28  29
ATOM     29  C   UNL     1     -13.744  57.743  51.271  0.00  0.00    +0.000 C 
BRANCH  29  30
ATOM     30  C   UNL     1     -14.150  58.663  50.153  0.00  0.00    +0.000 C 
ATOM     31  C   UNL     1     -13.645  60.075  50.020  0.00  0.00    +0.000 C 
ATOM     32  C   UNL     1     -15.054  59.825  50.478  0.00  0.00    +0.000 C 
ENDBRANCH  29  30
ENDBRANCH  28  29
ENDBRANCH   5  28
TORSDOF 5
ENDMDL
MODEL 5
REMARK VINA RESULT:      -7.8      3.156      4.950
REMARK  Name = 338298
REMARK  5 active torsions:
REMARK  status: ('A' for Active; 'I' for Inactive)
REMARK    1  A    between atoms: C_6  and  C_10
REMARK    2  A    between atoms: C_14  and  O_18
REMARK    3  A    between atoms: N_17  and  C_21
REMARK    4  A    between atoms: C_21  and  C_24
REMARK    5  A    between atoms: C_24  and  C_27
REMARK                            x       y       z     vdW  Elec       q    Type
REMARK                         _______ _______ _______ _____ _____    ______ ____
ROOT
ATOM      1  C   UNL     1     -11.546  56.006  48.734  0.00  0.00    +0.000 A 
ATOM      2  C   UNL     1     -10.467  55.423  49.578  0.00  0.00    +0.000 A 
ATOM      3  C   UNL     1     -11.674  55.636  47.451  0.00  0.00    +0.000 A 
ATOM      4  O   UNL     1     -10.398  55.831  50.741  0.00  0.00    +0.000 OA
ATOM      5  N   UNL     1      -9.621  54.456  49.048  0.00  0.00    +0.000 N 
ATOM      6  C   UNL     1     -10.774  54.623  46.881  0.00  0.00    +0.000 A 
ATOM      7  C   UNL     1      -9.747  54.060  47.669  0.00  0.00    +0.000 A 
ATOM      8  C   UNL     1     -10.943  54.207  45.546  0.00  0.00    +0.000 A 
ATOM      9  C   UNL     1      -8.899  53.112  47.067  0.00  0.00    +0.000 A 
ATOM     10  C   UNL     1     -10.115  53.241  44.984  0.00  0.00    +0.000 A 
ATOM     11  C   UNL     1      -9.090  52.698  45.744  0.00  0.00    +0.000 A 
ENDROOT
BRANCH   1  17
ATOM     12  S   UNL     1     -13.574  59.297  49.460  0.00  0.00    +0.000 S 
ATOM     13  O   UNL     1     -14.724  59.463  48.591  0.00  0.00    +0.000 OA
ATOM     14  O   UNL     1     -12.735  60.433  49.785  0.00  0.00    +0.000 OA
ATOM     15  N   UNL     1     -12.633  58.147  48.813  0.00  0.00    +0.000 N 
ATOM     16  C   UNL     1     -14.206  58.708  50.988  0.00  0.00    +0.000 A 
ATOM     17  C   UNL     1     -12.518  56.983  49.377  0.00  0.00    +0.000 C 
ATOM     18  C   UNL     1     -13.918  57.400  51.346  0.00  0.00    +0.000 A 
ATOM     19  C   UNL     1     -14.956  59.551  51.813  0.00  0.00    +0.000 A 
ATOM     20  N   UNL     1     -13.185  56.563  50.508  0.00  0.00    +0.000 N 
ATOM     21  C   UNL     1     -14.462  56.902  52.536  0.00  0.00    +0.000 A 
ATOM     22  C   UNL     1     -15.463  59.052  53.014  0.00  0.00    +0.000 A 
ATOM     23  C   UNL     1     -15.223  57.727  53.369  0.00  0.00    +0.000 A 
ATOM     24  H   UNL     1     -12.141  58.334  47.980  0.00  0.00    +0.000 HD
ATOM     25  H   UNL     1     -13.142  55.607  50.738  0.00  0.00    +0.000 HD
ENDBRANCH   1  17
BRANCH   3  26
ATOM     26  O   UNL     1     -12.636  56.132  46.590  0.00  0.00    +0.000 OA
ATOM     27  H   UNL     1     -13.486  55.738  46.560  0.00  0.00    +0.000 HD
ENDBRANCH   3  26
BRANCH   5  28
ATOM     28  C   UNL     1      -8.490  53.971  49.874  0.00  0.00    +0.000 C 
BRANCH  28  29
ATOM     29  C   UNL     1      -7.334  54.962  50.105  0.00  0.00    +0.000 C 
BRANCH  29  30
ATOM     30  C   UNL     1      -6.336  54.991  48.981  0.00  0.00    +0.000 C 
ATOM     31  C   UNL     1      -5.565  53.779  48.531  0.00  0.00    +0.000 C 
ATOM     32  C   UNL     1      -4.874  54.853  49.322  0.00  0.00    +0.000 C 
ENDBRANCH  29  30
ENDBRANCH  28  29
ENDBRANCH   5  28
TORSDOF 5
ENDMDL
MODEL 6
REMARK VINA RESULT:      -7.8      1.959      2.576
REMARK  Name = 338298
REMARK  5 active torsions:
REMARK  status: ('A' for Active; 'I' for Inactive)
REMARK    1  A    between atoms: C_6  and  C_10
REMARK    2  A    between atoms: C_14  and  O_18
REMARK    3  A    between atoms: N_17  and  C_21
REMARK    4  A    between atoms: C_21  and  C_24
REMARK    5  A    between atoms: C_24  and  C_27
REMARK                            x       y       z     vdW  Elec       q    Type
REMARK                         _______ _______ _______ _____ _____    ______ ____
ROOT
ATOM      1  C   UNL     1     -11.186  54.525  50.919  0.00  0.00    +0.000 A 
ATOM      2  C   UNL     1      -9.759  54.918  50.759  0.00  0.00    +0.000 A 
ATOM      3  C   UNL     1     -11.510  53.256  51.206  0.00  0.00    +0.000 A 
ATOM      4  O   UNL     1      -9.543  56.099  50.473  0.00  0.00    +0.000 OA
ATOM      5  N   UNL     1      -8.757  53.975  50.957  0.00  0.00    +0.000 N 
ATOM      6  C   UNL     1     -10.455  52.252  51.403  0.00  0.00    +0.000 A 
ATOM      7  C   UNL     1      -9.097  52.608  51.257  0.00  0.00    +0.000 A 
ATOM      8  C   UNL     1     -10.801  50.931  51.748  0.00  0.00    +0.000 A 
ATOM      9  C   UNL     1      -8.129  51.603  51.434  0.00  0.00    +0.000 A 
ATOM     10  C   UNL     1      -9.824  49.962  51.954  0.00  0.00    +0.000 A 
ATOM     11  C   UNL     1      -8.488  50.298  51.792  0.00  0.00    +0.000 A 
ENDROOT
BRANCH   1  17
ATOM     12  S   UNL     1     -13.472  57.338  49.390  0.00  0.00    +0.000 S 
ATOM     13  O   UNL     1     -14.596  56.815  48.638  0.00  0.00    +0.000 OA
ATOM     14  O   UNL     1     -12.730  58.480  48.894  0.00  0.00    +0.000 OA
ATOM     15  N   UNL     1     -12.426  56.121  49.619  0.00  0.00    +0.000 N 
ATOM     16  C   UNL     1     -14.118  57.821  50.949  0.00  0.00    +0.000 A 
ATOM     17  C   UNL     1     -12.250  55.606  50.799  0.00  0.00    +0.000 C 
ATOM     18  C   UNL     1     -13.751  57.078  52.060  0.00  0.00    +0.000 A 
ATOM     19  C   UNL     1     -14.958  58.935  51.050  0.00  0.00    +0.000 A 
ATOM     20  N   UNL     1     -12.928  55.959  51.945  0.00  0.00    +0.000 N 
ATOM     21  C   UNL     1     -14.304  57.419  53.300  0.00  0.00    +0.000 A 
ATOM     22  C   UNL     1     -15.473  59.286  52.299  0.00  0.00    +0.000 A 
ATOM     23  C   UNL     1     -15.153  58.523  53.420  0.00  0.00    +0.000 A 
ATOM     24  H   UNL     1     -11.918  55.768  48.854  0.00  0.00    +0.000 HD
ATOM     25  H   UNL     1     -12.825  55.383  52.736  0.00  0.00    +0.000 HD
ENDBRANCH   1  17
BRANCH   3  26
ATOM     26  O   UNL     1     -12.807  52.798  51.359  0.00  0.00    +0.000 OA
ATOM     27  H   UNL     1     -13.053  52.343  52.140  0.00  0.00    +0.000 HD
ENDBRANCH   3  26
BRANCH   5  28
ATOM     28  C   UNL     1      -7.352  54.365  50.688  0.00  0.00    +0.000 C 
BRANCH  28  29
ATOM     29  C   UNL     1      -6.582  55.003  51.858  0.00  0.00    +0.000 C 
BRANCH  29  30
ATOM     30  C   UNL     1      -7.076  54.567  53.210  0.00  0.00    +0.000 C 
ATOM     31  C   UNL     1      -7.718  55.506  54.196  0.00  0.00    +0.000 C 
ATOM     32  C   UNL     1      -6.315  55.022  54.428  0.00  0.00    +0.000 C 
ENDBRANCH  29  30
ENDBRANCH  28  29
ENDBRANCH   5  28
TORSDOF 5
ENDMDL
MODEL 7
REMARK VINA RESULT:      -7.6      2.967      5.247
REMARK  Name = 338298
REMARK  5 active torsions:
REMARK  status: ('A' for Active; 'I' for Inactive)
REMARK    1  A    between atoms: C_6  and  C_10
REMARK    2  A    between atoms: C_14  and  O_18
REMARK    3  A    between atoms: N_17  and  C_21
REMARK    4  A    between atoms: C_21  and  C_24
REMARK    5  A    between atoms: C_24  and  C_27
REMARK                            x       y       z     vdW  Elec       q    Type
REMARK                         _______ _______ _______ _____ _____    ______ ____
ROOT
ATOM      1  C   UNL     1     -10.752  55.685  48.388  0.00  0.00    +0.000 A 
ATOM      2  C   UNL     1      -9.328  55.614  48.818  0.00  0.00    +0.000 A 
ATOM      3  C   UNL     1     -11.134  55.140  47.225  0.00  0.00    +0.000 A 
ATOM      4  O   UNL     1      -9.050  56.159  49.890  0.00  0.00    +0.000 OA
ATOM      5  N   UNL     1      -8.402  54.937  48.033  0.00  0.00    +0.000 N 
ATOM      6  C   UNL     1     -10.156  54.434  46.383  0.00  0.00    +0.000 A 
ATOM      7  C   UNL     1      -8.803  54.357  46.777  0.00  0.00    +0.000 A 
ATOM      8  C   UNL     1     -10.575  53.826  45.184  0.00  0.00    +0.000 A 
ATOM      9  C   UNL     1      -7.906  53.690  45.924  0.00  0.00    +0.000 A 
ATOM     10  C   UNL     1      -9.675  53.140  44.374  0.00  0.00    +0.000 A 
ATOM     11  C   UNL     1      -8.340  53.077  44.743  0.00  0.00    +0.000 A 
ENDROOT
BRANCH   1  17
ATOM     12  S   UNL     1     -13.300  56.196  51.341  0.00  0.00    +0.000 S 
ATOM     13  O   UNL     1     -12.655  56.472  52.611  0.00  0.00    +0.000 OA
ATOM     14  O   UNL     1     -14.441  55.304  51.281  0.00  0.00    +0.000 OA
ATOM     15  N   UNL     1     -12.167  55.630  50.329  0.00  0.00    +0.000 N 
ATOM     16  C   UNL     1     -13.864  57.745  50.740  0.00  0.00    +0.000 A 
ATOM     17  C   UNL     1     -11.756  56.342  49.323  0.00  0.00    +0.000 C 
ATOM     18  C   UNL     1     -13.232  58.276  49.627  0.00  0.00    +0.000 A 
ATOM     19  C   UNL     1     -14.931  58.398  51.364  0.00  0.00    +0.000 A 
ATOM     20  N   UNL     1     -12.157  57.626  49.023  0.00  0.00    +0.000 N 
ATOM     21  C   UNL     1     -13.635  59.536  49.171  0.00  0.00    +0.000 A 
ATOM     22  C   UNL     1     -15.347  59.638  50.878  0.00  0.00    +0.000 A 
ATOM     23  C   UNL     1     -14.694  60.210  49.788  0.00  0.00    +0.000 A 
ATOM     24  H   UNL     1     -11.786  54.735  50.479  0.00  0.00    +0.000 HD
ATOM     25  H   UNL     1     -11.651  58.116  48.337  0.00  0.00    +0.000 HD
ENDBRANCH   1  17
BRANCH   3  26
ATOM     26  O   UNL     1     -12.429  55.168  46.739  0.00  0.00    +0.000 OA
ATOM     27  H   UNL     1     -13.153  55.114  47.332  0.00  0.00    +0.000 HD
ENDBRANCH   3  26
BRANCH   5  28
ATOM     28  C   UNL     1      -6.974  54.972  48.429  0.00  0.00    +0.000 C 
BRANCH  28  29
ATOM     29  C   UNL     1      -6.539  53.971  49.515  0.00  0.00    +0.000 C 
BRANCH  29  30
ATOM     30  C   UNL     1      -5.672  54.582  50.580  0.00  0.00    +0.000 C 
ATOM     31  C   UNL     1      -4.427  53.923  51.110  0.00  0.00    +0.000 C 
ATOM     32  C   UNL     1      -5.673  53.951  51.949  0.00  0.00    +0.000 C 
ENDBRANCH  29  30
ENDBRANCH  28  29
ENDBRANCH   5  28
TORSDOF 5
ENDMDL
MODEL 8
REMARK VINA RESULT:      -7.5      3.225      7.236
REMARK  Name = 338298
REMARK  5 active torsions:
REMARK  status: ('A' for Active; 'I' for Inactive)
REMARK    1  A    between atoms: C_6  and  C_10
REMARK    2  A    between atoms: C_14  and  O_18
REMARK    3  A    between atoms: N_17  and  C_21
REMARK    4  A    between atoms: C_21  and  C_24
REMARK    5  A    between atoms: C_24  and  C_27
REMARK                            x       y       z     vdW  Elec       q    Type
REMARK                         _______ _______ _______ _____ _____    ______ ____
ROOT
ATOM      1  C   UNL     1     -10.620  54.740  50.362  0.00  0.00    +0.000 A 
ATOM      2  C   UNL     1     -10.268  54.592  48.922  0.00  0.00    +0.000 A 
ATOM      3  C   UNL     1     -11.643  55.524  50.730  0.00  0.00    +0.000 A 
ATOM      4  O   UNL     1      -9.300  53.872  48.665  0.00  0.00    +0.000 OA
ATOM      5  N   UNL     1     -11.034  55.231  47.955  0.00  0.00    +0.000 N 
ATOM      6  C   UNL     1     -12.450  56.213  49.711  0.00  0.00    +0.000 A 
ATOM      7  C   UNL     1     -12.130  56.082  48.343  0.00  0.00    +0.000 A 
ATOM      8  C   UNL     1     -13.550  56.999  50.103  0.00  0.00    +0.000 A 
ATOM      9  C   UNL     1     -12.920  56.781  47.412  0.00  0.00    +0.000 A 
ATOM     10  C   UNL     1     -14.339  57.652  49.162  0.00  0.00    +0.000 A 
ATOM     11  C   UNL     1     -14.020  57.546  47.817  0.00  0.00    +0.000 A 
ENDROOT
BRANCH   1  17
ATOM     12  S   UNL     1      -9.734  52.125  53.164  0.00  0.00    +0.000 S 
ATOM     13  O   UNL     1      -9.499  50.791  52.646  0.00  0.00    +0.000 OA
ATOM     14  O   UNL     1     -10.488  52.311  54.387  0.00  0.00    +0.000 OA
ATOM     15  N   UNL     1     -10.456  52.985  51.994  0.00  0.00    +0.000 N 
ATOM     16  C   UNL     1      -8.147  52.812  53.464  0.00  0.00    +0.000 A 
ATOM     17  C   UNL     1      -9.825  53.943  51.385  0.00  0.00    +0.000 C 
ATOM     18  C   UNL     1      -7.724  53.847  52.645  0.00  0.00    +0.000 A 
ATOM     19  C   UNL     1      -7.357  52.330  54.512  0.00  0.00    +0.000 A 
ATOM     20  N   UNL     1      -8.512  54.307  51.592  0.00  0.00    +0.000 N 
ATOM     21  C   UNL     1      -6.439  54.366  52.839  0.00  0.00    +0.000 A 
ATOM     22  C   UNL     1      -6.091  52.880  54.717  0.00  0.00    +0.000 A 
ATOM     23  C   UNL     1      -5.630  53.890  53.876  0.00  0.00    +0.000 A 
ATOM     24  H   UNL     1     -11.385  52.777  51.742  0.00  0.00    +0.000 HD
ATOM     25  H   UNL     1      -8.103  54.934  50.953  0.00  0.00    +0.000 HD
ENDBRANCH   1  17
BRANCH   3  26
ATOM     26  O   UNL     1     -12.034  55.731  52.041  0.00  0.00    +0.000 OA
ATOM     27  H   UNL     1     -12.417  56.549  52.292  0.00  0.00    +0.000 HD
ENDBRANCH   3  26
BRANCH   5  28
ATOM     28  C   UNL     1     -10.600  55.155  46.540  0.00  0.00    +0.000 C 
BRANCH  28  29
ATOM     29  C   UNL     1     -11.296  54.095  45.666  0.00  0.00    +0.000 C 
BRANCH  29  30
ATOM     30  C   UNL     1     -10.377  52.993  45.216  0.00  0.00    +0.000 C 
ATOM     31  C   UNL     1      -9.133  53.235  44.404  0.00  0.00    +0.000 C 
ATOM     32  C   UNL     1     -10.349  52.642  43.750  0.00  0.00    +0.000 C 
ENDBRANCH  29  30
ENDBRANCH  28  29
ENDBRANCH   5  28
TORSDOF 5
ENDMDL
MODEL 9
REMARK VINA RESULT:      -7.4      3.940      4.679
REMARK  Name = 338298
REMARK  5 active torsions:
REMARK  status: ('A' for Active; 'I' for Inactive)
REMARK    1  A    between atoms: C_6  and  C_10
REMARK    2  A    between atoms: C_14  and  O_18
REMARK    3  A    between atoms: N_17  and  C_21
REMARK    4  A    between atoms: C_21  and  C_24
REMARK    5  A    between atoms: C_24  and  C_27
REMARK                            x       y       z     vdW  Elec       q    Type
REMARK                         _______ _______ _______ _____ _____    ______ ____
ROOT
ATOM      1  C   UNL     1     -12.492  54.489  49.122  0.00  0.00    +0.000 A 
ATOM      2  C   UNL     1     -12.163  54.316  47.680  0.00  0.00    +0.000 A 
ATOM      3  C   UNL     1     -12.223  53.510  49.998  0.00  0.00    +0.000 A 
ATOM      4  O   UNL     1     -12.462  55.251  46.932  0.00  0.00    +0.000 OA
ATOM      5  N   UNL     1     -11.530  53.155  47.250  0.00  0.00    +0.000 N 
ATOM      6  C   UNL     1     -11.565  52.275  49.547  0.00  0.00    +0.000 A 
ATOM      7  C   UNL     1     -11.246  52.096  48.184  0.00  0.00    +0.000 A 
ATOM      8  C   UNL     1     -11.245  51.271  50.481  0.00  0.00    +0.000 A 
ATOM      9  C   UNL     1     -10.638  50.886  47.803  0.00  0.00    +0.000 A 
ATOM     10  C   UNL     1     -10.611  50.097  50.085  0.00  0.00    +0.000 A 
ATOM     11  C   UNL     1     -10.312  49.904  48.745  0.00  0.00    +0.000 A 
ENDROOT
BRANCH   1  17
ATOM     12  S   UNL     1     -13.304  58.334  49.291  0.00  0.00    +0.000 S 
ATOM     13  O   UNL     1     -14.315  58.747  48.338  0.00  0.00    +0.000 OA
ATOM     14  O   UNL     1     -12.137  59.161  49.521  0.00  0.00    +0.000 OA
ATOM     15  N   UNL     1     -12.794  56.857  48.857  0.00  0.00    +0.000 N 
ATOM     16  C   UNL     1     -14.122  58.210  50.839  0.00  0.00    +0.000 A 
ATOM     17  C   UNL     1     -13.088  55.813  49.572  0.00  0.00    +0.000 C 
ATOM     18  C   UNL     1     -14.299  56.946  51.379  0.00  0.00    +0.000 A 
ATOM     19  C   UNL     1     -14.558  59.362  51.500  0.00  0.00    +0.000 A 
ATOM     20  N   UNL     1     -13.877  55.803  50.702  0.00  0.00    +0.000 N 
ATOM     21  C   UNL     1     -14.999  56.830  52.585  0.00  0.00    +0.000 A 
ATOM     22  C   UNL     1     -15.223  59.235  52.720  0.00  0.00    +0.000 A 
ATOM     23  C   UNL     1     -15.451  57.970  53.257  0.00  0.00    +0.000 A 
ATOM     24  H   UNL     1     -12.255  56.751  48.040  0.00  0.00    +0.000 HD
ATOM     25  H   UNL     1     -14.162  54.930  51.056  0.00  0.00    +0.000 HD
ENDBRANCH   1  17
BRANCH   3  26
ATOM     26  O   UNL     1     -12.504  53.577  51.351  0.00  0.00    +0.000 OA
ATOM     27  H   UNL     1     -12.373  54.379  51.818  0.00  0.00    +0.000 HD
ENDBRANCH   3  26
BRANCH   5  28
ATOM     28  C   UNL     1     -11.310  52.962  45.797  0.00  0.00    +0.000 C 
BRANCH  28  29
ATOM     29  C   UNL     1     -10.014  53.556  45.215  0.00  0.00    +0.000 C 
BRANCH  29  30
ATOM     30  C   UNL     1      -9.001  53.926  46.263  0.00  0.00    +0.000 C 
ATOM     31  C   UNL     1      -8.779  55.338  46.734  0.00  0.00    +0.000 C 
ATOM     32  C   UNL     1      -7.772  54.684  45.830  0.00  0.00    +0.000 C 
ENDBRANCH  29  30
ENDBRANCH  28  29
ENDBRANCH   5  28
TORSDOF 5
ENDMDL
