MODEL 1
REMARK VINA RESULT:      -8.6      0.000      0.000
REMARK  Name = 338168
REMARK  5 active torsions:
REMARK  status: ('A' for Active; 'I' for Inactive)
REMARK    1  A    between atoms: C_6  and  C_10
REMARK    2  A    between atoms: C_14  and  O_18
REMARK    3  A    between atoms: N_17  and  C_21
REMARK    4  A    between atoms: C_21  and  C_24
REMARK    5  A    between atoms: C_24  and  C_27
REMARK                            x       y       z     vdW  Elec       q    Type
REMARK                         _______ _______ _______ _____ _____    ______ ____
ROOT
ATOM      1  C   UNL     1      -9.979  54.550  52.381  0.00  0.00    +0.000 A 
ATOM      2  C   UNL     1      -8.586  55.061  52.273  0.00  0.00    +0.000 A 
ATOM      3  C   UNL     1     -10.232  53.418  53.057  0.00  0.00    +0.000 A 
ATOM      4  O   UNL     1      -8.383  56.001  51.503  0.00  0.00    +0.000 OA
ATOM      5  N   UNL     1      -7.593  54.483  53.067  0.00  0.00    +0.000 N 
ATOM      6  C   UNL     1      -9.152  52.708  53.748  0.00  0.00    +0.000 A 
ATOM      7  C   UNL     1      -7.850  53.252  53.771  0.00  0.00    +0.000 A 
ATOM      8  C   UNL     1      -9.429  51.507  54.429  0.00  0.00    +0.000 A 
ATOM      9  C   UNL     1      -6.858  52.558  54.487  0.00  0.00    +0.000 A 
ATOM     10  C   UNL     1      -8.435  50.864  55.146  0.00  0.00    +0.000 A 
ATOM     11  C   UNL     1      -7.151  51.380  55.182  0.00  0.00    +0.000 A 
ATOM     12  F   UNL     1      -8.719  49.740  55.816  0.00  0.00    +0.000 F 
ENDROOT
BRANCH   1  18
ATOM     13  S   UNL     1     -12.360  55.777  49.437  0.00  0.00    +0.000 S 
ATOM     14  O   UNL     1     -13.032  54.524  49.156  0.00  0.00    +0.000 OA
ATOM     15  O   UNL     1     -11.925  56.664  48.383  0.00  0.00    +0.000 OA
ATOM     16  N   UNL     1     -11.042  55.453  50.368  0.00  0.00    +0.000 N 
ATOM     17  C   UNL     1     -13.357  56.685  50.536  0.00  0.00    +0.000 A 
ATOM     18  C   UNL     1     -11.117  55.278  51.748  0.00  0.00    +0.000 C 
ATOM     19  C   UNL     1     -13.096  56.550  51.896  0.00  0.00    +0.000 A 
ATOM     20  C   UNL     1     -14.349  57.536  50.045  0.00  0.00    +0.000 A 
ATOM     21  N   UNL     1     -12.109  55.723  52.455  0.00  0.00    +0.000 N 
ATOM     22  C   UNL     1     -13.862  57.318  52.780  0.00  0.00    +0.000 A 
ATOM     23  C   UNL     1     -15.106  58.281  50.943  0.00  0.00    +0.000 A 
ATOM     24  C   UNL     1     -14.858  58.179  52.311  0.00  0.00    +0.000 A 
ATOM     25  H   UNL     1     -10.163  55.381  49.932  0.00  0.00    +0.000 HD
ATOM     26  H   UNL     1     -12.172  55.475  53.405  0.00  0.00    +0.000 HD
ENDBRANCH   1  18
BRANCH   3  27
ATOM     27  O   UNL     1     -11.486  52.843  53.190  0.00  0.00    +0.000 OA
ATOM     28  H   UNL     1     -12.002  52.664  52.430  0.00  0.00    +0.000 HD
ENDBRANCH   3  27
BRANCH   5  29
ATOM     29  C   UNL     1      -6.216  55.030  53.005  0.00  0.00    +0.000 C 
BRANCH  29  30
ATOM     30  C   UNL     1      -5.198  54.236  52.163  0.00  0.00    +0.000 C 
BRANCH  30  31
ATOM     31  C   UNL     1      -5.333  54.480  50.686  0.00  0.00    +0.000 C 
ATOM     32  C   UNL     1      -6.136  53.592  49.770  0.00  0.00    +0.000 C 
ATOM     33  C   UNL     1      -4.635  53.535  49.739  0.00  0.00    +0.000 C 
ENDBRANCH  30  31
ENDBRANCH  29  30
ENDBRANCH   5  29
TORSDOF 5
ENDMDL
MODEL 2
REMARK VINA RESULT:      -8.3      3.870      7.424
REMARK  Name = 338168
REMARK  5 active torsions:
REMARK  status: ('A' for Active; 'I' for Inactive)
REMARK    1  A    between atoms: C_6  and  C_10
REMARK    2  A    between atoms: C_14  and  O_18
REMARK    3  A    between atoms: N_17  and  C_21
REMARK    4  A    between atoms: C_21  and  C_24
REMARK    5  A    between atoms: C_24  and  C_27
REMARK                            x       y       z     vdW  Elec       q    Type
REMARK                         _______ _______ _______ _____ _____    ______ ____
ROOT
ATOM      1  C   UNL     1     -10.153  55.084  50.796  0.00  0.00    +0.000 A 
ATOM      2  C   UNL     1      -9.757  55.179  49.365  0.00  0.00    +0.000 A 
ATOM      3  C   UNL     1     -11.361  55.515  51.192  0.00  0.00    +0.000 A 
ATOM      4  O   UNL     1      -8.583  54.933  49.083  0.00  0.00    +0.000 OA
ATOM      5  N   UNL     1     -10.730  55.502  48.417  0.00  0.00    +0.000 N 
ATOM      6  C   UNL     1     -12.326  56.024  50.213  0.00  0.00    +0.000 A 
ATOM      7  C   UNL     1     -12.018  55.993  48.836  0.00  0.00    +0.000 A 
ATOM      8  C   UNL     1     -13.579  56.499  50.647  0.00  0.00    +0.000 A 
ATOM      9  C   UNL     1     -12.995  56.449  47.932  0.00  0.00    +0.000 A 
ATOM     10  C   UNL     1     -14.526  56.914  49.728  0.00  0.00    +0.000 A 
ATOM     11  C   UNL     1     -14.246  56.893  48.374  0.00  0.00    +0.000 A 
ATOM     12  F   UNL     1     -15.725  57.333  50.153  0.00  0.00    +0.000 F 
ENDROOT
BRANCH   1  18
ATOM     13  S   UNL     1      -6.906  54.874  53.089  0.00  0.00    +0.000 S 
ATOM     14  O   UNL     1      -7.206  55.958  54.001  0.00  0.00    +0.000 OA
ATOM     15  O   UNL     1      -5.577  54.662  52.564  0.00  0.00    +0.000 OA
ATOM     16  N   UNL     1      -7.920  54.995  51.798  0.00  0.00    +0.000 N 
ATOM     17  C   UNL     1      -7.443  53.391  53.823  0.00  0.00    +0.000 A 
ATOM     18  C   UNL     1      -9.225  54.511  51.815  0.00  0.00    +0.000 C 
ATOM     19  C   UNL     1      -8.723  52.947  53.505  0.00  0.00    +0.000 A 
ATOM     20  C   UNL     1      -6.590  52.676  54.667  0.00  0.00    +0.000 A 
ATOM     21  N   UNL     1      -9.624  53.609  52.658  0.00  0.00    +0.000 N 
ATOM     22  C   UNL     1      -9.138  51.728  54.053  0.00  0.00    +0.000 A 
ATOM     23  C   UNL     1      -7.029  51.473  55.210  0.00  0.00    +0.000 A 
ATOM     24  C   UNL     1      -8.301  50.994  54.897  0.00  0.00    +0.000 A 
ATOM     25  H   UNL     1      -7.589  55.429  50.978  0.00  0.00    +0.000 HD
ATOM     26  H   UNL     1     -10.581  53.385  52.704  0.00  0.00    +0.000 HD
ENDBRANCH   1  18
BRANCH   3  27
ATOM     27  O   UNL     1     -11.814  55.499  52.502  0.00  0.00    +0.000 OA
ATOM     28  H   UNL     1     -11.542  54.818  53.083  0.00  0.00    +0.000 HD
ENDBRANCH   3  27
BRANCH   5  29
ATOM     29  C   UNL     1     -10.350  55.539  46.984  0.00  0.00    +0.000 C 
BRANCH  29  30
ATOM     30  C   UNL     1     -10.183  54.177  46.282  0.00  0.00    +0.000 C 
BRANCH  30  31
ATOM     31  C   UNL     1     -11.278  53.881  45.295  0.00  0.00    +0.000 C 
ATOM     32  C   UNL     1     -12.022  52.572  45.253  0.00  0.00    +0.000 C 
ATOM     33  C   UNL     1     -11.000  52.884  44.198  0.00  0.00    +0.000 C 
ENDBRANCH  30  31
ENDBRANCH  29  30
ENDBRANCH   5  29
TORSDOF 5
ENDMDL
MODEL 3
REMARK VINA RESULT:      -8.3      3.824      5.401
REMARK  Name = 338168
REMARK  5 active torsions:
REMARK  status: ('A' for Active; 'I' for Inactive)
REMARK    1  A    between atoms: C_6  and  C_10
REMARK    2  A    between atoms: C_14  and  O_18
REMARK    3  A    between atoms: N_17  and  C_21
REMARK    4  A    between atoms: C_21  and  C_24
REMARK    5  A    between atoms: C_24  and  C_27
REMARK                            x       y       z     vdW  Elec       q    Type
REMARK                         _______ _______ _______ _____ _____    ______ ____
ROOT
ATOM      1  C   UNL     1     -11.461  55.789  48.989  0.00  0.00    +0.000 A 
ATOM      2  C   UNL     1     -10.377  55.116  49.753  0.00  0.00    +0.000 A 
ATOM      3  C   UNL     1     -11.626  55.530  47.682  0.00  0.00    +0.000 A 
ATOM      4  O   UNL     1     -10.157  55.514  50.899  0.00  0.00    +0.000 OA
ATOM      5  N   UNL     1      -9.692  54.054  49.159  0.00  0.00    +0.000 N 
ATOM      6  C   UNL     1     -10.784  54.536  47.009  0.00  0.00    +0.000 A 
ATOM      7  C   UNL     1      -9.843  53.790  47.751  0.00  0.00    +0.000 A 
ATOM      8  C   UNL     1     -10.951  54.296  45.632  0.00  0.00    +0.000 A 
ATOM      9  C   UNL     1      -9.092  52.815  47.069  0.00  0.00    +0.000 A 
ATOM     10  C   UNL     1     -10.214  53.311  44.999  0.00  0.00    +0.000 A 
ATOM     11  C   UNL     1      -9.286  52.567  45.706  0.00  0.00    +0.000 A 
ATOM     12  F   UNL     1     -10.405  53.070  43.696  0.00  0.00    +0.000 F 
ENDROOT
BRANCH   1  18
ATOM     13  S   UNL     1     -13.517  59.167  49.440  0.00  0.00    +0.000 S 
ATOM     14  O   UNL     1     -14.507  58.967  48.401  0.00  0.00    +0.000 OA
ATOM     15  O   UNL     1     -12.894  60.451  49.665  0.00  0.00    +0.000 OA
ATOM     16  N   UNL     1     -12.306  58.077  49.210  0.00  0.00    +0.000 N 
ATOM     17  C   UNL     1     -14.202  58.624  50.945  0.00  0.00    +0.000 A 
ATOM     18  C   UNL     1     -12.383  56.759  49.651  0.00  0.00    +0.000 C 
ATOM     19  C   UNL     1     -13.945  57.311  51.327  0.00  0.00    +0.000 A 
ATOM     20  C   UNL     1     -14.946  59.502  51.736  0.00  0.00    +0.000 A 
ATOM     21  N   UNL     1     -13.198  56.382  50.587  0.00  0.00    +0.000 N 
ATOM     22  C   UNL     1     -14.450  56.887  52.561  0.00  0.00    +0.000 A 
ATOM     23  C   UNL     1     -15.448  59.055  52.953  0.00  0.00    +0.000 A 
ATOM     24  C   UNL     1     -15.194  57.749  53.371  0.00  0.00    +0.000 A 
ATOM     25  H   UNL     1     -11.491  58.370  48.740  0.00  0.00    +0.000 HD
ATOM     26  H   UNL     1     -13.295  55.422  50.782  0.00  0.00    +0.000 HD
ENDBRANCH   1  18
BRANCH   3  27
ATOM     27  O   UNL     1     -12.583  56.125  46.875  0.00  0.00    +0.000 OA
ATOM     28  H   UNL     1     -12.345  56.835  46.312  0.00  0.00    +0.000 HD
ENDBRANCH   3  27
BRANCH   5  29
ATOM     29  C   UNL     1      -8.652  53.343  49.941  0.00  0.00    +0.000 C 
BRANCH  29  30
ATOM     30  C   UNL     1      -7.434  54.179  50.383  0.00  0.00    +0.000 C 
BRANCH  30  31
ATOM     31  C   UNL     1      -6.725  54.843  49.237  0.00  0.00    +0.000 C 
ATOM     32  C   UNL     1      -5.769  54.120  48.324  0.00  0.00    +0.000 C 
ATOM     33  C   UNL     1      -5.239  55.075  49.355  0.00  0.00    +0.000 C 
ENDBRANCH  30  31
ENDBRANCH  29  30
ENDBRANCH   5  29
TORSDOF 5
ENDMDL
MODEL 4
REMARK VINA RESULT:      -8.2      3.675      7.282
REMARK  Name = 338168
REMARK  5 active torsions:
REMARK  status: ('A' for Active; 'I' for Inactive)
REMARK    1  A    between atoms: C_6  and  C_10
REMARK    2  A    between atoms: C_14  and  O_18
REMARK    3  A    between atoms: N_17  and  C_21
REMARK    4  A    between atoms: C_21  and  C_24
REMARK    5  A    between atoms: C_24  and  C_27
REMARK                            x       y       z     vdW  Elec       q    Type
REMARK                         _______ _______ _______ _____ _____    ______ ____
ROOT
ATOM      1  C   UNL     1     -10.169  55.444  50.484  0.00  0.00    +0.000 A 
ATOM      2  C   UNL     1     -10.336  55.698  49.028  0.00  0.00    +0.000 A 
ATOM      3  C   UNL     1     -11.204  55.617  51.322  0.00  0.00    +0.000 A 
ATOM      4  O   UNL     1      -9.321  55.692  48.330  0.00  0.00    +0.000 OA
ATOM      5  N   UNL     1     -11.623  55.890  48.520  0.00  0.00    +0.000 N 
ATOM      6  C   UNL     1     -12.523  55.995  50.806  0.00  0.00    +0.000 A 
ATOM      7  C   UNL     1     -12.732  56.105  49.415  0.00  0.00    +0.000 A 
ATOM      8  C   UNL     1     -13.591  56.201  51.701  0.00  0.00    +0.000 A 
ATOM      9  C   UNL     1     -14.027  56.424  48.967  0.00  0.00    +0.000 A 
ATOM     10  C   UNL     1     -14.858  56.486  51.224  0.00  0.00    +0.000 A 
ATOM     11  C   UNL     1     -15.086  56.599  49.864  0.00  0.00    +0.000 A 
ATOM     12  F   UNL     1     -15.872  56.648  52.084  0.00  0.00    +0.000 F 
ENDROOT
BRANCH   1  18
ATOM     13  S   UNL     1      -6.565  53.754  50.469  0.00  0.00    +0.000 S 
ATOM     14  O   UNL     1      -5.862  54.733  49.666  0.00  0.00    +0.000 OA
ATOM     15  O   UNL     1      -6.356  52.335  50.301  0.00  0.00    +0.000 OA
ATOM     16  N   UNL     1      -8.181  54.025  50.309  0.00  0.00    +0.000 N 
ATOM     17  C   UNL     1      -6.304  54.147  52.144  0.00  0.00    +0.000 A 
ATOM     18  C   UNL     1      -8.860  54.994  51.043  0.00  0.00    +0.000 C 
ATOM     19  C   UNL     1      -7.256  54.947  52.769  0.00  0.00    +0.000 A 
ATOM     20  C   UNL     1      -5.194  53.638  52.820  0.00  0.00    +0.000 A 
ATOM     21  N   UNL     1      -8.398  55.481  52.152  0.00  0.00    +0.000 N 
ATOM     22  C   UNL     1      -7.076  55.222  54.129  0.00  0.00    +0.000 A 
ATOM     23  C   UNL     1      -5.029  53.934  54.170  0.00  0.00    +0.000 A 
ATOM     24  C   UNL     1      -5.975  54.720  54.827  0.00  0.00    +0.000 A 
ATOM     25  H   UNL     1      -8.689  53.478  49.667  0.00  0.00    +0.000 HD
ATOM     26  H   UNL     1      -8.859  56.244  52.571  0.00  0.00    +0.000 HD
ENDBRANCH   1  18
BRANCH   3  27
ATOM     27  O   UNL     1     -11.145  55.439  52.695  0.00  0.00    +0.000 OA
ATOM     28  H   UNL     1     -11.574  54.707  53.092  0.00  0.00    +0.000 HD
ENDBRANCH   3  27
BRANCH   5  29
ATOM     29  C   UNL     1     -11.797  56.083  47.060  0.00  0.00    +0.000 C 
BRANCH  29  30
ATOM     30  C   UNL     1     -12.081  54.817  46.229  0.00  0.00    +0.000 C 
BRANCH  30  31
ATOM     31  C   UNL     1     -10.845  54.227  45.609  0.00  0.00    +0.000 C 
ATOM     32  C   UNL     1     -10.880  53.122  44.585  0.00  0.00    +0.000 C 
ATOM     33  C   UNL     1     -10.454  52.821  45.994  0.00  0.00    +0.000 C 
ENDBRANCH  30  31
ENDBRANCH  29  30
ENDBRANCH   5  29
TORSDOF 5
ENDMDL
MODEL 5
REMARK VINA RESULT:      -8.2      4.029      5.843
REMARK  Name = 338168
REMARK  5 active torsions:
REMARK  status: ('A' for Active; 'I' for Inactive)
REMARK    1  A    between atoms: C_6  and  C_10
REMARK    2  A    between atoms: C_14  and  O_18
REMARK    3  A    between atoms: N_17  and  C_21
REMARK    4  A    between atoms: C_21  and  C_24
REMARK    5  A    between atoms: C_24  and  C_27
REMARK                            x       y       z     vdW  Elec       q    Type
REMARK                         _______ _______ _______ _____ _____    ______ ____
ROOT
ATOM      1  C   UNL     1     -11.522  55.842  48.893  0.00  0.00    +0.000 A 
ATOM      2  C   UNL     1     -10.378  55.208  49.601  0.00  0.00    +0.000 A 
ATOM      3  C   UNL     1     -11.760  55.555  47.603  0.00  0.00    +0.000 A 
ATOM      4  O   UNL     1     -10.100  55.631  50.724  0.00  0.00    +0.000 OA
ATOM      5  N   UNL     1      -9.705  54.151  48.984  0.00  0.00    +0.000 N 
ATOM      6  C   UNL     1     -10.936  54.569  46.897  0.00  0.00    +0.000 A 
ATOM      7  C   UNL     1      -9.935  53.858  47.592  0.00  0.00    +0.000 A 
ATOM      8  C   UNL     1     -11.180  54.300  45.536  0.00  0.00    +0.000 A 
ATOM      9  C   UNL     1      -9.203  52.888  46.882  0.00  0.00    +0.000 A 
ATOM     10  C   UNL     1     -10.459  53.321  44.877  0.00  0.00    +0.000 A 
ATOM     11  C   UNL     1      -9.473  52.611  45.538  0.00  0.00    +0.000 A 
ATOM     12  F   UNL     1     -10.723  53.052  43.591  0.00  0.00    +0.000 F 
ENDROOT
BRANCH   1  18
ATOM     13  S   UNL     1     -13.524  59.234  49.472  0.00  0.00    +0.000 S 
ATOM     14  O   UNL     1     -14.523  59.084  48.433  0.00  0.00    +0.000 OA
ATOM     15  O   UNL     1     -12.880  60.499  49.736  0.00  0.00    +0.000 OA
ATOM     16  N   UNL     1     -12.330  58.134  49.197  0.00  0.00    +0.000 N 
ATOM     17  C   UNL     1     -14.208  58.650  50.961  0.00  0.00    +0.000 A 
ATOM     18  C   UNL     1     -12.425  56.802  49.593  0.00  0.00    +0.000 C 
ATOM     19  C   UNL     1     -13.969  57.321  51.297  0.00  0.00    +0.000 A 
ATOM     20  C   UNL     1     -14.933  59.512  51.787  0.00  0.00    +0.000 A 
ATOM     21  N   UNL     1     -13.240  56.406  50.521  0.00  0.00    +0.000 N 
ATOM     22  C   UNL     1     -14.473  56.862  52.519  0.00  0.00    +0.000 A 
ATOM     23  C   UNL     1     -15.436  59.031  52.992  0.00  0.00    +0.000 A 
ATOM     24  C   UNL     1     -15.199  57.708  53.362  0.00  0.00    +0.000 A 
ATOM     25  H   UNL     1     -11.514  58.430  48.733  0.00  0.00    +0.000 HD
ATOM     26  H   UNL     1     -13.351  55.442  50.684  0.00  0.00    +0.000 HD
ENDBRANCH   1  18
BRANCH   3  27
ATOM     27  O   UNL     1     -12.777  56.114  46.846  0.00  0.00    +0.000 OA
ATOM     28  H   UNL     1     -13.669  56.020  47.116  0.00  0.00    +0.000 HD
ENDBRANCH   3  27
BRANCH   5  29
ATOM     29  C   UNL     1      -8.603  53.478  49.714  0.00  0.00    +0.000 C 
BRANCH  29  30
ATOM     30  C   UNL     1      -9.012  52.387  50.721  0.00  0.00    +0.000 C 
BRANCH  30  31
ATOM     31  C   UNL     1     -10.145  51.526  50.234  0.00  0.00    +0.000 C 
ATOM     32  C   UNL     1     -11.591  51.801  50.555  0.00  0.00    +0.000 C 
ATOM     33  C   UNL     1     -10.876  50.671  51.240  0.00  0.00    +0.000 C 
ENDBRANCH  30  31
ENDBRANCH  29  30
ENDBRANCH   5  29
TORSDOF 5
ENDMDL
MODEL 6
REMARK VINA RESULT:      -8.0      3.550      7.938
REMARK  Name = 338168
REMARK  5 active torsions:
REMARK  status: ('A' for Active; 'I' for Inactive)
REMARK    1  A    between atoms: C_6  and  C_10
REMARK    2  A    between atoms: C_14  and  O_18
REMARK    3  A    between atoms: N_17  and  C_21
REMARK    4  A    between atoms: C_21  and  C_24
REMARK    5  A    between atoms: C_24  and  C_27
REMARK                            x       y       z     vdW  Elec       q    Type
REMARK                         _______ _______ _______ _____ _____    ______ ____
ROOT
ATOM      1  C   UNL     1      -9.978  54.412  50.649  0.00  0.00    +0.000 A 
ATOM      2  C   UNL     1     -11.080  55.378  50.905  0.00  0.00    +0.000 A 
ATOM      3  C   UNL     1      -9.775  53.935  49.411  0.00  0.00    +0.000 A 
ATOM      4  O   UNL     1     -11.333  55.652  52.080  0.00  0.00    +0.000 OA
ATOM      5  N   UNL     1     -11.742  55.951  49.817  0.00  0.00    +0.000 N 
ATOM      6  C   UNL     1     -10.592  54.406  48.288  0.00  0.00    +0.000 A 
ATOM      7  C   UNL     1     -11.549  55.423  48.491  0.00  0.00    +0.000 A 
ATOM      8  C   UNL     1     -10.385  53.874  47.001  0.00  0.00    +0.000 A 
ATOM      9  C   UNL     1     -12.276  55.874  47.373  0.00  0.00    +0.000 A 
ATOM     10  C   UNL     1     -11.099  54.361  45.920  0.00  0.00    +0.000 A 
ATOM     11  C   UNL     1     -12.043  55.357  46.095  0.00  0.00    +0.000 A 
ATOM     12  F   UNL     1     -10.870  53.869  44.696  0.00  0.00    +0.000 F 
ENDROOT
BRANCH   1  18
ATOM     13  S   UNL     1      -6.777  54.437  53.014  0.00  0.00    +0.000 S 
ATOM     14  O   UNL     1      -7.072  55.633  53.777  0.00  0.00    +0.000 OA
ATOM     15  O   UNL     1      -5.443  54.138  52.547  0.00  0.00    +0.000 OA
ATOM     16  N   UNL     1      -7.766  54.412  51.698  0.00  0.00    +0.000 N 
ATOM     17  C   UNL     1      -7.356  53.068  53.919  0.00  0.00    +0.000 A 
ATOM     18  C   UNL     1      -9.081  53.957  51.751  0.00  0.00    +0.000 C 
ATOM     19  C   UNL     1      -8.638  52.610  53.633  0.00  0.00    +0.000 A 
ATOM     20  C   UNL     1      -6.532  52.450  54.862  0.00  0.00    +0.000 A 
ATOM     21  N   UNL     1      -9.512  53.175  52.691  0.00  0.00    +0.000 N 
ATOM     22  C   UNL     1      -9.087  51.477  54.322  0.00  0.00    +0.000 A 
ATOM     23  C   UNL     1      -7.004  51.333  55.543  0.00  0.00    +0.000 A 
ATOM     24  C   UNL     1      -8.279  50.840  55.267  0.00  0.00    +0.000 A 
ATOM     25  H   UNL     1      -7.413  54.734  50.837  0.00  0.00    +0.000 HD
ATOM     26  H   UNL     1     -10.474  52.975  52.746  0.00  0.00    +0.000 HD
ENDBRANCH   1  18
BRANCH   3  27
ATOM     27  O   UNL     1      -8.799  53.010  49.073  0.00  0.00    +0.000 OA
ATOM     28  H   UNL     1      -8.869  52.526  48.274  0.00  0.00    +0.000 HD
ENDBRANCH   3  27
BRANCH   5  29
ATOM     29  C   UNL     1     -12.800  56.959  50.070  0.00  0.00    +0.000 C 
BRANCH  29  30
ATOM     30  C   UNL     1     -14.188  56.415  50.460  0.00  0.00    +0.000 C 
BRANCH  30  31
ATOM     31  C   UNL     1     -15.009  57.398  51.247  0.00  0.00    +0.000 C 
ATOM     32  C   UNL     1     -14.543  58.021  52.537  0.00  0.00    +0.000 C 
ATOM     33  C   UNL     1     -15.594  56.948  52.563  0.00  0.00    +0.000 C 
ENDBRANCH  30  31
ENDBRANCH  29  30
ENDBRANCH   5  29
TORSDOF 5
ENDMDL
MODEL 7
REMARK VINA RESULT:      -8.0      3.797      7.401
REMARK  Name = 338168
REMARK  5 active torsions:
REMARK  status: ('A' for Active; 'I' for Inactive)
REMARK    1  A    between atoms: C_6  and  C_10
REMARK    2  A    between atoms: C_14  and  O_18
REMARK    3  A    between atoms: N_17  and  C_21
REMARK    4  A    between atoms: C_21  and  C_24
REMARK    5  A    between atoms: C_24  and  C_27
REMARK                            x       y       z     vdW  Elec       q    Type
REMARK                         _______ _______ _______ _____ _____    ______ ____
ROOT
ATOM      1  C   UNL     1     -10.438  55.104  50.698  0.00  0.00    +0.000 A 
ATOM      2  C   UNL     1     -10.141  55.177  49.243  0.00  0.00    +0.000 A 
ATOM      3  C   UNL     1     -11.566  55.647  51.185  0.00  0.00    +0.000 A 
ATOM      4  O   UNL     1      -9.022  54.819  48.872  0.00  0.00    +0.000 OA
ATOM      5  N   UNL     1     -11.144  55.606  48.371  0.00  0.00    +0.000 N 
ATOM      6  C   UNL     1     -12.544  56.262  50.282  0.00  0.00    +0.000 A 
ATOM      7  C   UNL     1     -12.342  56.217  48.886  0.00  0.00    +0.000 A 
ATOM      8  C   UNL     1     -13.708  56.853  50.811  0.00  0.00    +0.000 A 
ATOM      9  C   UNL     1     -13.333  56.779  48.059  0.00  0.00    +0.000 A 
ATOM     10  C   UNL     1     -14.674  57.372  49.967  0.00  0.00    +0.000 A 
ATOM     11  C   UNL     1     -14.497  57.339  48.595  0.00  0.00    +0.000 A 
ATOM     12  F   UNL     1     -15.791  57.902  50.481  0.00  0.00    +0.000 F 
ENDROOT
BRANCH   1  18
ATOM     13  S   UNL     1      -8.898  52.108  52.818  0.00  0.00    +0.000 S 
ATOM     14  O   UNL     1      -8.325  51.337  51.733  0.00  0.00    +0.000 OA
ATOM     15  O   UNL     1      -9.588  51.479  53.920  0.00  0.00    +0.000 OA
ATOM     16  N   UNL     1      -9.930  53.215  52.171  0.00  0.00    +0.000 N 
ATOM     17  C   UNL     1      -7.647  53.128  53.469  0.00  0.00    +0.000 A 
ATOM     18  C   UNL     1      -9.501  54.429  51.643  0.00  0.00    +0.000 C 
ATOM     19  C   UNL     1      -7.547  54.419  52.962  0.00  0.00    +0.000 A 
ATOM     20  C   UNL     1      -6.814  52.655  54.486  0.00  0.00    +0.000 A 
ATOM     21  N   UNL     1      -8.358  54.960  51.952  0.00  0.00    +0.000 N 
ATOM     22  C   UNL     1      -6.577  55.259  53.520  0.00  0.00    +0.000 A 
ATOM     23  C   UNL     1      -5.848  53.504  55.017  0.00  0.00    +0.000 A 
ATOM     24  C   UNL     1      -5.735  54.809  54.540  0.00  0.00    +0.000 A 
ATOM     25  H   UNL     1     -10.893  53.009  52.157  0.00  0.00    +0.000 HD
ATOM     26  H   UNL     1      -8.053  55.760  51.466  0.00  0.00    +0.000 HD
ENDBRANCH   1  18
BRANCH   3  27
ATOM     27  O   UNL     1     -11.920  55.661  52.525  0.00  0.00    +0.000 OA
ATOM     28  H   UNL     1     -11.257  55.620  53.185  0.00  0.00    +0.000 HD
ENDBRANCH   3  27
BRANCH   5  29
ATOM     29  C   UNL     1     -10.868  55.623  46.913  0.00  0.00    +0.000 C 
BRANCH  29  30
ATOM     30  C   UNL     1     -11.550  54.525  46.073  0.00  0.00    +0.000 C 
BRANCH  30  31
ATOM     31  C   UNL     1     -10.631  53.386  45.730  0.00  0.00    +0.000 C 
ATOM     32  C   UNL     1      -9.348  53.560  44.959  0.00  0.00    +0.000 C 
ATOM     33  C   UNL     1     -10.545  52.946  44.290  0.00  0.00    +0.000 C 
ENDBRANCH  30  31
ENDBRANCH  29  30
ENDBRANCH   5  29
TORSDOF 5
ENDMDL
MODEL 8
REMARK VINA RESULT:      -7.9      3.601      7.547
REMARK  Name = 338168
REMARK  5 active torsions:
REMARK  status: ('A' for Active; 'I' for Inactive)
REMARK    1  A    between atoms: C_6  and  C_10
REMARK    2  A    between atoms: C_14  and  O_18
REMARK    3  A    between atoms: N_17  and  C_21
REMARK    4  A    between atoms: C_21  and  C_24
REMARK    5  A    between atoms: C_24  and  C_27
REMARK                            x       y       z     vdW  Elec       q    Type
REMARK                         _______ _______ _______ _____ _____    ______ ____
ROOT
ATOM      1  C   UNL     1      -9.997  55.453  50.437  0.00  0.00    +0.000 A 
ATOM      2  C   UNL     1     -10.198  55.709  48.986  0.00  0.00    +0.000 A 
ATOM      3  C   UNL     1     -11.018  55.604  51.297  0.00  0.00    +0.000 A 
ATOM      4  O   UNL     1      -9.197  55.725  48.268  0.00  0.00    +0.000 OA
ATOM      5  N   UNL     1     -11.498  55.880  48.505  0.00  0.00    +0.000 N 
ATOM      6  C   UNL     1     -12.354  55.960  50.809  0.00  0.00    +0.000 A 
ATOM      7  C   UNL     1     -12.593  56.071  49.423  0.00  0.00    +0.000 A 
ATOM      8  C   UNL     1     -13.408  56.142  51.726  0.00  0.00    +0.000 A 
ATOM      9  C   UNL     1     -13.902  56.368  49.002  0.00  0.00    +0.000 A 
ATOM     10  C   UNL     1     -14.689  56.406  51.275  0.00  0.00    +0.000 A 
ATOM     11  C   UNL     1     -14.946  56.520  49.921  0.00  0.00    +0.000 A 
ATOM     12  F   UNL     1     -15.688  56.546  52.156  0.00  0.00    +0.000 F 
ENDROOT
BRANCH   1  18
ATOM     13  S   UNL     1      -7.118  54.959  53.141  0.00  0.00    +0.000 S 
ATOM     14  O   UNL     1      -7.748  53.939  53.955  0.00  0.00    +0.000 OA
ATOM     15  O   UNL     1      -6.382  56.055  53.725  0.00  0.00    +0.000 OA
ATOM     16  N   UNL     1      -8.267  55.616  52.163  0.00  0.00    +0.000 N 
ATOM     17  C   UNL     1      -6.086  54.161  51.989  0.00  0.00    +0.000 A 
ATOM     18  C   UNL     1      -8.670  55.025  50.968  0.00  0.00    +0.000 C 
ATOM     19  C   UNL     1      -6.625  53.876  50.738  0.00  0.00    +0.000 A 
ATOM     20  C   UNL     1      -4.762  53.864  52.320  0.00  0.00    +0.000 A 
ATOM     21  N   UNL     1      -7.940  54.158  50.337  0.00  0.00    +0.000 N 
ATOM     22  C   UNL     1      -5.782  53.283  49.792  0.00  0.00    +0.000 A 
ATOM     23  C   UNL     1      -3.946  53.263  51.367  0.00  0.00    +0.000 A 
ATOM     24  C   UNL     1      -4.453  52.979  50.100  0.00  0.00    +0.000 A 
ATOM     25  H   UNL     1      -8.689  56.463  52.435  0.00  0.00    +0.000 HD
ATOM     26  H   UNL     1      -8.317  53.687  49.560  0.00  0.00    +0.000 HD
ENDBRANCH   1  18
BRANCH   3  27
ATOM     27  O   UNL     1     -10.928  55.421  52.668  0.00  0.00    +0.000 OA
ATOM     28  H   UNL     1     -11.003  56.155  53.244  0.00  0.00    +0.000 HD
ENDBRANCH   3  27
BRANCH   5  29
ATOM     29  C   UNL     1     -11.705  56.076  47.050  0.00  0.00    +0.000 C 
BRANCH  29  30
ATOM     30  C   UNL     1     -12.015  54.812  46.224  0.00  0.00    +0.000 C 
BRANCH  30  31
ATOM     31  C   UNL     1     -10.793  54.197  45.602  0.00  0.00    +0.000 C 
ATOM     32  C   UNL     1     -10.852  53.095  44.576  0.00  0.00    +0.000 C 
ATOM     33  C   UNL     1     -10.431  52.783  45.985  0.00  0.00    +0.000 C 
ENDBRANCH  30  31
ENDBRANCH  29  30
ENDBRANCH   5  29
TORSDOF 5
ENDMDL
MODEL 9
REMARK VINA RESULT:      -7.9      3.229      4.309
REMARK  Name = 338168
REMARK  5 active torsions:
REMARK  status: ('A' for Active; 'I' for Inactive)
REMARK    1  A    between atoms: C_6  and  C_10
REMARK    2  A    between atoms: C_14  and  O_18
REMARK    3  A    between atoms: N_17  and  C_21
REMARK    4  A    between atoms: C_21  and  C_24
REMARK    5  A    between atoms: C_24  and  C_27
REMARK                            x       y       z     vdW  Elec       q    Type
REMARK                         _______ _______ _______ _____ _____    ______ ____
ROOT
ATOM      1  C   UNL     1     -12.147  54.346  50.302  0.00  0.00    +0.000 A 
ATOM      2  C   UNL     1     -11.987  53.817  48.922  0.00  0.00    +0.000 A 
ATOM      3  C   UNL     1     -11.618  53.683  51.344  0.00  0.00    +0.000 A 
ATOM      4  O   UNL     1     -12.633  54.363  48.025  0.00  0.00    +0.000 OA
ATOM      5  N   UNL     1     -11.097  52.763  48.702  0.00  0.00    +0.000 N 
ATOM      6  C   UNL     1     -10.826  52.469  51.128  0.00  0.00    +0.000 A 
ATOM      7  C   UNL     1     -10.550  52.030  49.815  0.00  0.00    +0.000 A 
ATOM      8  C   UNL     1     -10.302  51.770  52.232  0.00  0.00    +0.000 A 
ATOM      9  C   UNL     1      -9.746  50.886  49.658  0.00  0.00    +0.000 A 
ATOM     10  C   UNL     1      -9.493  50.664  52.040  0.00  0.00    +0.000 A 
ATOM     11  C   UNL     1      -9.209  50.216  50.763  0.00  0.00    +0.000 A 
ATOM     12  F   UNL     1      -8.975  50.027  53.099  0.00  0.00    +0.000 F 
ENDROOT
BRANCH   1  18
ATOM     13  S   UNL     1     -14.417  56.916  52.323  0.00  0.00    +0.000 S 
ATOM     14  O   UNL     1     -13.472  57.284  53.358  0.00  0.00    +0.000 OA
ATOM     15  O   UNL     1     -15.813  56.685  52.611  0.00  0.00    +0.000 OA
ATOM     16  N   UNL     1     -13.851  55.568  51.567  0.00  0.00    +0.000 N 
ATOM     17  C   UNL     1     -14.311  58.103  51.055  0.00  0.00    +0.000 A 
ATOM     18  C   UNL     1     -12.890  55.614  50.561  0.00  0.00    +0.000 C 
ATOM     19  C   UNL     1     -13.454  57.831  49.994  0.00  0.00    +0.000 A 
ATOM     20  C   UNL     1     -15.095  59.258  51.108  0.00  0.00    +0.000 A 
ATOM     21  N   UNL     1     -12.649  56.687  49.873  0.00  0.00    +0.000 N 
ATOM     22  C   UNL     1     -13.406  58.759  48.948  0.00  0.00    +0.000 A 
ATOM     23  C   UNL     1     -15.022  60.173  50.062  0.00  0.00    +0.000 A 
ATOM     24  C   UNL     1     -14.184  59.920  48.977  0.00  0.00    +0.000 A 
ATOM     25  H   UNL     1     -14.206  54.691  51.839  0.00  0.00    +0.000 HD
ATOM     26  H   UNL     1     -11.885  56.700  49.254  0.00  0.00    +0.000 HD
ENDBRANCH   1  18
BRANCH   3  27
ATOM     27  O   UNL     1     -11.736  54.074  52.669  0.00  0.00    +0.000 OA
ATOM     28  H   UNL     1     -10.971  54.282  53.166  0.00  0.00    +0.000 HD
ENDBRANCH   3  27
BRANCH   5  29
ATOM     29  C   UNL     1     -10.892  52.274  47.317  0.00  0.00    +0.000 C 
BRANCH  29  30
ATOM     30  C   UNL     1      -9.593  52.719  46.617  0.00  0.00    +0.000 C 
BRANCH  30  31
ATOM     31  C   UNL     1      -9.017  53.985  47.186  0.00  0.00    +0.000 C 
ATOM     32  C   UNL     1      -9.408  55.360  46.708  0.00  0.00    +0.000 C 
ATOM     33  C   UNL     1      -8.072  54.789  46.327  0.00  0.00    +0.000 C 
ENDBRANCH  30  31
ENDBRANCH  29  30
ENDBRANCH   5  29
TORSDOF 5
ENDMDL
