MODEL 1
REMARK VINA RESULT:      -8.2      0.000      0.000
REMARK  Name = 338488
REMARK  8 active torsions:
REMARK  status: ('A' for Active; 'I' for Inactive)
REMARK    1  A    between atoms: C_6  and  C_10
REMARK    2  A    between atoms: C_14  and  O_18
REMARK    3  A    between atoms: N_17  and  C_21
REMARK    4  A    between atoms: C_21  and  C_24
REMARK    5  A    between atoms: C_24  and  C_27
REMARK    6  A    between atoms: C_26  and  N_28
REMARK    7  A    between atoms: C_27  and  C_29
REMARK    8  A    between atoms: C_27  and  C_30
REMARK                            x       y       z     vdW  Elec       q    Type
REMARK                         _______ _______ _______ _____ _____    ______ ____
ROOT
ATOM      1  C   UNL     1     -10.858  54.948  48.268  0.00  0.00    +0.000 A 
ATOM      2  C   UNL     1     -10.329  54.829  49.661  0.00  0.00    +0.000 A 
ATOM      3  C   UNL     1     -11.986  55.641  48.033  0.00  0.00    +0.000 A 
ATOM      4  O   UNL     1      -9.248  54.259  49.833  0.00  0.00    +0.000 OA
ATOM      5  N   UNL     1     -11.064  55.379  50.703  0.00  0.00    +0.000 N 
ATOM      6  C   UNL     1     -12.751  56.224  49.144  0.00  0.00    +0.000 A 
ATOM      7  C   UNL     1     -12.292  56.075  50.467  0.00  0.00    +0.000 A 
ATOM      8  C   UNL     1     -13.961  56.900  48.891  0.00  0.00    +0.000 A 
ATOM      9  C   UNL     1     -13.057  56.614  51.513  0.00  0.00    +0.000 A 
ATOM     10  C   UNL     1     -14.721  57.425  49.933  0.00  0.00    +0.000 A 
ATOM     11  C   UNL     1     -14.263  57.281  51.242  0.00  0.00    +0.000 A 
ENDROOT
BRANCH   1  17
ATOM     12  S   UNL     1      -7.972  54.184  45.716  0.00  0.00    +0.000 S 
ATOM     13  O   UNL     1      -6.954  53.315  46.271  0.00  0.00    +0.000 OA
ATOM     14  O   UNL     1      -7.597  55.325  44.904  0.00  0.00    +0.000 OA
ATOM     15  N   UNL     1      -8.876  54.727  46.946  0.00  0.00    +0.000 N 
ATOM     16  C   UNL     1      -8.984  53.171  44.700  0.00  0.00    +0.000 A 
ATOM     17  C   UNL     1     -10.093  54.306  47.126  0.00  0.00    +0.000 C 
ATOM     18  C   UNL     1     -10.265  52.885  45.142  0.00  0.00    +0.000 A 
ATOM     19  C   UNL     1      -8.495  52.696  43.481  0.00  0.00    +0.000 A 
ATOM     20  N   UNL     1     -10.738  53.360  46.363  0.00  0.00    +0.000 N 
ATOM     21  C   UNL     1     -11.055  52.032  44.367  0.00  0.00    +0.000 A 
ATOM     22  C   UNL     1      -9.307  51.876  42.701  0.00  0.00    +0.000 A 
ATOM     23  C   UNL     1     -10.583  51.537  43.148  0.00  0.00    +0.000 A 
ATOM     24  H   UNL     1      -8.496  55.387  47.569  0.00  0.00    +0.000 HD
ATOM     25  H   UNL     1     -11.588  52.995  46.702  0.00  0.00    +0.000 HD
ENDBRANCH   1  17
BRANCH  11  26
ATOM     26  N   UNL     1     -15.054  57.828  52.354  0.00  0.00    +0.000 N 
ATOM     27  O   UNL     1     -15.837  57.063  52.932  0.00  0.00    +0.000 OA
ATOM     28  O   UNL     1     -14.887  59.020  52.645  0.00  0.00    +0.000 OA
ENDBRANCH  11  26
BRANCH   3  29
ATOM     29  O   UNL     1     -12.525  55.860  46.778  0.00  0.00    +0.000 OA
ATOM     30  H   UNL     1     -11.960  55.988  46.041  0.00  0.00    +0.000 HD
ENDBRANCH   3  29
BRANCH   5  31
ATOM     31  C   UNL     1     -10.557  55.179  52.071  0.00  0.00    +0.000 C 
BRANCH  31  32
ATOM     32  C   UNL     1     -10.972  53.817  52.645  0.00  0.00    +0.000 C 
BRANCH  32  33
ATOM     33  C   UNL     1      -9.841  53.070  53.380  0.00  0.00    +0.000 C 
ATOM     34  C   UNL     1      -9.521  51.714  52.748  0.00  0.00    +0.000 C 
ATOM     35  C   UNL     1      -8.574  53.933  53.395  0.00  0.00    +0.000 C 
ENDBRANCH  32  33
ENDBRANCH  31  32
ENDBRANCH   5  31
TORSDOF 6
ENDMDL
MODEL 2
REMARK VINA RESULT:      -8.1      2.760      7.809
REMARK  Name = 338488
REMARK  8 active torsions:
REMARK  status: ('A' for Active; 'I' for Inactive)
REMARK    1  A    between atoms: C_6  and  C_10
REMARK    2  A    between atoms: C_14  and  O_18
REMARK    3  A    between atoms: N_17  and  C_21
REMARK    4  A    between atoms: C_21  and  C_24
REMARK    5  A    between atoms: C_24  and  C_27
REMARK    6  A    between atoms: C_26  and  N_28
REMARK    7  A    between atoms: C_27  and  C_29
REMARK    8  A    between atoms: C_27  and  C_30
REMARK                            x       y       z     vdW  Elec       q    Type
REMARK                         _______ _______ _______ _____ _____    ______ ____
ROOT
ATOM      1  C   UNL     1     -11.736  55.877  48.734  0.00  0.00    +0.000 A 
ATOM      2  C   UNL     1     -10.618  55.293  49.536  0.00  0.00    +0.000 A 
ATOM      3  C   UNL     1     -11.925  55.490  47.460  0.00  0.00    +0.000 A 
ATOM      4  O   UNL     1     -10.522  55.605  50.726  0.00  0.00    +0.000 OA
ATOM      5  N   UNL     1      -9.741  54.411  48.915  0.00  0.00    +0.000 N 
ATOM      6  C   UNL     1     -10.995  54.550  46.818  0.00  0.00    +0.000 A 
ATOM      7  C   UNL     1      -9.906  54.033  47.545  0.00  0.00    +0.000 A 
ATOM      8  C   UNL     1     -11.170  54.196  45.466  0.00  0.00    +0.000 A 
ATOM      9  C   UNL     1      -9.014  53.162  46.899  0.00  0.00    +0.000 A 
ATOM     10  C   UNL     1     -10.277  53.339  44.827  0.00  0.00    +0.000 A 
ATOM     11  C   UNL     1      -9.202  52.823  45.550  0.00  0.00    +0.000 A 
ENDROOT
BRANCH   1  17
ATOM     12  S   UNL     1     -13.617  59.247  49.461  0.00  0.00    +0.000 S 
ATOM     13  O   UNL     1     -14.761  59.444  48.594  0.00  0.00    +0.000 OA
ATOM     14  O   UNL     1     -12.730  60.353  49.767  0.00  0.00    +0.000 OA
ATOM     15  N   UNL     1     -12.721  58.055  48.827  0.00  0.00    +0.000 N 
ATOM     16  C   UNL     1     -14.254  58.691  51.000  0.00  0.00    +0.000 A 
ATOM     17  C   UNL     1     -12.668  56.881  49.383  0.00  0.00    +0.000 C 
ATOM     18  C   UNL     1     -14.039  57.369  51.350  0.00  0.00    +0.000 A 
ATOM     19  C   UNL     1     -14.937  59.579  51.834  0.00  0.00    +0.000 A 
ATOM     20  N   UNL     1     -13.361  56.492  50.507  0.00  0.00    +0.000 N 
ATOM     21  C   UNL     1     -14.593  56.905  52.547  0.00  0.00    +0.000 A 
ATOM     22  C   UNL     1     -15.453  59.112  53.040  0.00  0.00    +0.000 A 
ATOM     23  C   UNL     1     -15.289  57.773  53.393  0.00  0.00    +0.000 A 
ATOM     24  H   UNL     1     -12.208  58.223  48.004  0.00  0.00    +0.000 HD
ATOM     25  H   UNL     1     -13.379  55.532  50.728  0.00  0.00    +0.000 HD
ENDBRANCH   1  17
BRANCH  11  26
ATOM     26  N   UNL     1      -8.249  51.919  44.891  0.00  0.00    +0.000 N 
ATOM     27  O   UNL     1      -7.515  51.231  45.613  0.00  0.00    +0.000 OA
ATOM     28  O   UNL     1      -8.240  51.898  43.653  0.00  0.00    +0.000 OA
ENDBRANCH  11  26
BRANCH   3  29
ATOM     29  O   UNL     1     -12.963  55.923  46.654  0.00  0.00    +0.000 OA
ATOM     30  H   UNL     1     -13.438  55.307  46.132  0.00  0.00    +0.000 HD
ENDBRANCH   3  29
BRANCH   5  31
ATOM     31  C   UNL     1      -8.606  53.913  49.709  0.00  0.00    +0.000 C 
BRANCH  31  32
ATOM     32  C   UNL     1      -7.354  54.785  49.532  0.00  0.00    +0.000 C 
BRANCH  32  33
ATOM     33  C   UNL     1      -6.931  55.548  50.803  0.00  0.00    +0.000 C 
ATOM     34  C   UNL     1      -7.542  56.948  50.882  0.00  0.00    +0.000 C 
ATOM     35  C   UNL     1      -7.335  54.748  52.046  0.00  0.00    +0.000 C 
ENDBRANCH  32  33
ENDBRANCH  31  32
ENDBRANCH   5  31
TORSDOF 6
ENDMDL
MODEL 3
REMARK VINA RESULT:      -7.7      2.833      8.411
REMARK  Name = 338488
REMARK  8 active torsions:
REMARK  status: ('A' for Active; 'I' for Inactive)
REMARK    1  A    between atoms: C_6  and  C_10
REMARK    2  A    between atoms: C_14  and  O_18
REMARK    3  A    between atoms: N_17  and  C_21
REMARK    4  A    between atoms: C_21  and  C_24
REMARK    5  A    between atoms: C_24  and  C_27
REMARK    6  A    between atoms: C_26  and  N_28
REMARK    7  A    between atoms: C_27  and  C_29
REMARK    8  A    between atoms: C_27  and  C_30
REMARK                            x       y       z     vdW  Elec       q    Type
REMARK                         _______ _______ _______ _____ _____    ______ ____
ROOT
ATOM      1  C   UNL     1     -11.399  56.008  48.774  0.00  0.00    +0.000 A 
ATOM      2  C   UNL     1     -11.582  55.559  47.360  0.00  0.00    +0.000 A 
ATOM      3  C   UNL     1     -10.327  55.603  49.476  0.00  0.00    +0.000 A 
ATOM      4  O   UNL     1     -12.531  56.015  46.716  0.00  0.00    +0.000 OA
ATOM      5  N   UNL     1     -10.670  54.660  46.823  0.00  0.00    +0.000 N 
ATOM      6  C   UNL     1      -9.364  54.658  48.893  0.00  0.00    +0.000 A 
ATOM      7  C   UNL     1      -9.553  54.184  47.581  0.00  0.00    +0.000 A 
ATOM      8  C   UNL     1      -8.275  54.197  49.658  0.00  0.00    +0.000 A 
ATOM      9  C   UNL     1      -8.637  53.258  47.058  0.00  0.00    +0.000 A 
ATOM     10  C   UNL     1      -7.374  53.270  49.138  0.00  0.00    +0.000 A 
ATOM     11  C   UNL     1      -7.559  52.806  47.836  0.00  0.00    +0.000 A 
ENDROOT
BRANCH   1  17
ATOM     12  S   UNL     1     -13.540  59.238  49.420  0.00  0.00    +0.000 S 
ATOM     13  O   UNL     1     -14.677  59.339  48.528  0.00  0.00    +0.000 OA
ATOM     14  O   UNL     1     -12.744  60.410  49.728  0.00  0.00    +0.000 OA
ATOM     15  N   UNL     1     -12.545  58.109  48.820  0.00  0.00    +0.000 N 
ATOM     16  C   UNL     1     -14.165  58.654  50.953  0.00  0.00    +0.000 A 
ATOM     17  C   UNL     1     -12.417  56.948  49.392  0.00  0.00    +0.000 C 
ATOM     18  C   UNL     1     -13.860  57.356  51.325  0.00  0.00    +0.000 A 
ATOM     19  C   UNL     1     -14.930  59.499  51.761  0.00  0.00    +0.000 A 
ATOM     20  N   UNL     1     -13.102  56.522  50.507  0.00  0.00    +0.000 N 
ATOM     21  C   UNL     1     -14.402  56.866  52.516  0.00  0.00    +0.000 A 
ATOM     22  C   UNL     1     -15.434  59.009  52.964  0.00  0.00    +0.000 A 
ATOM     23  C   UNL     1     -15.178  57.690  53.337  0.00  0.00    +0.000 A 
ATOM     24  H   UNL     1     -12.029  58.305  48.004  0.00  0.00    +0.000 HD
ATOM     25  H   UNL     1     -13.053  55.566  50.740  0.00  0.00    +0.000 HD
ENDBRANCH   1  17
BRANCH  11  26
ATOM     26  N   UNL     1      -6.619  51.827  47.273  0.00  0.00    +0.000 N 
ATOM     27  O   UNL     1      -5.409  52.041  47.420  0.00  0.00    +0.000 OA
ATOM     28  O   UNL     1      -7.095  50.845  46.688  0.00  0.00    +0.000 OA
ENDBRANCH  11  26
BRANCH   3  29
ATOM     29  O   UNL     1     -10.034  56.009  50.767  0.00  0.00    +0.000 OA
ATOM     30  H   UNL     1     -10.064  55.390  51.470  0.00  0.00    +0.000 HD
ENDBRANCH   3  29
BRANCH   5  31
ATOM     31  C   UNL     1     -10.919  54.177  45.455  0.00  0.00    +0.000 C 
BRANCH  31  32
ATOM     32  C   UNL     1     -11.793  52.914  45.442  0.00  0.00    +0.000 C 
BRANCH  32  33
ATOM     33  C   UNL     1     -11.297  51.813  44.482  0.00  0.00    +0.000 C 
ATOM     34  C   UNL     1     -10.249  52.321  43.491  0.00  0.00    +0.000 C 
ATOM     35  C   UNL     1     -10.709  50.649  45.289  0.00  0.00    +0.000 C 
ENDBRANCH  32  33
ENDBRANCH  31  32
ENDBRANCH   5  31
TORSDOF 6
ENDMDL
MODEL 4
REMARK VINA RESULT:      -7.6      1.903      2.336
REMARK  Name = 338488
REMARK  8 active torsions:
REMARK  status: ('A' for Active; 'I' for Inactive)
REMARK    1  A    between atoms: C_6  and  C_10
REMARK    2  A    between atoms: C_14  and  O_18
REMARK    3  A    between atoms: N_17  and  C_21
REMARK    4  A    between atoms: C_21  and  C_24
REMARK    5  A    between atoms: C_24  and  C_27
REMARK    6  A    between atoms: C_26  and  N_28
REMARK    7  A    between atoms: C_27  and  C_29
REMARK    8  A    between atoms: C_27  and  C_30
REMARK                            x       y       z     vdW  Elec       q    Type
REMARK                         _______ _______ _______ _____ _____    ______ ____
ROOT
ATOM      1  C   UNL     1     -10.664  54.178  47.391  0.00  0.00    +0.000 A 
ATOM      2  C   UNL     1     -10.134  54.437  48.764  0.00  0.00    +0.000 A 
ATOM      3  C   UNL     1     -11.628  54.964  46.882  0.00  0.00    +0.000 A 
ATOM      4  O   UNL     1      -9.191  53.752  49.170  0.00  0.00    +0.000 OA
ATOM      5  N   UNL     1     -10.712  55.448  49.523  0.00  0.00    +0.000 N 
ATOM      6  C   UNL     1     -12.226  56.035  47.692  0.00  0.00    +0.000 A 
ATOM      7  C   UNL     1     -11.774  56.256  49.006  0.00  0.00    +0.000 A 
ATOM      8  C   UNL     1     -13.275  56.816  47.168  0.00  0.00    +0.000 A 
ATOM      9  C   UNL     1     -12.383  57.264  49.771  0.00  0.00    +0.000 A 
ATOM     10  C   UNL     1     -13.882  57.808  47.933  0.00  0.00    +0.000 A 
ATOM     11  C   UNL     1     -13.430  58.030  49.233  0.00  0.00    +0.000 A 
ENDROOT
BRANCH   1  17
ATOM     12  S   UNL     1      -9.095  50.692  46.488  0.00  0.00    +0.000 S 
ATOM     13  O   UNL     1     -10.093  49.649  46.361  0.00  0.00    +0.000 OA
ATOM     14  O   UNL     1      -7.840  50.427  47.162  0.00  0.00    +0.000 OA
ATOM     15  N   UNL     1      -9.796  51.955  47.223  0.00  0.00    +0.000 N 
ATOM     16  C   UNL     1      -8.679  51.176  44.852  0.00  0.00    +0.000 A 
ATOM     17  C   UNL     1     -10.078  53.044  46.572  0.00  0.00    +0.000 C 
ATOM     18  C   UNL     1      -9.109  52.418  44.414  0.00  0.00    +0.000 A 
ATOM     19  C   UNL     1      -7.921  50.325  44.044  0.00  0.00    +0.000 A 
ATOM     20  N   UNL     1      -9.870  53.254  45.227  0.00  0.00    +0.000 N 
ATOM     21  C   UNL     1      -8.831  52.784  43.095  0.00  0.00    +0.000 A 
ATOM     22  C   UNL     1      -7.620  50.719  42.743  0.00  0.00    +0.000 A 
ATOM     23  C   UNL     1      -8.083  51.944  42.264  0.00  0.00    +0.000 A 
ATOM     24  H   UNL     1     -10.014  51.895  48.181  0.00  0.00    +0.000 HD
ATOM     25  H   UNL     1     -10.285  54.046  44.815  0.00  0.00    +0.000 HD
ENDBRANCH   1  17
BRANCH  11  26
ATOM     26  N   UNL     1     -14.061  59.072  50.055  0.00  0.00    +0.000 N 
ATOM     27  O   UNL     1     -15.064  58.760  50.709  0.00  0.00    +0.000 OA
ATOM     28  O   UNL     1     -13.549  60.200  50.044  0.00  0.00    +0.000 OA
ENDBRANCH  11  26
BRANCH   3  29
ATOM     29  O   UNL     1     -12.142  54.847  45.602  0.00  0.00    +0.000 OA
ATOM     30  H   UNL     1     -11.907  55.471  44.944  0.00  0.00    +0.000 HD
ENDBRANCH   3  29
BRANCH   5  31
ATOM     31  C   UNL     1     -10.221  55.628  50.899  0.00  0.00    +0.000 C 
BRANCH  31  32
ATOM     32  C   UNL     1     -11.092  54.883  51.922  0.00  0.00    +0.000 C 
BRANCH  32  33
ATOM     33  C   UNL     1     -10.291  54.142  53.012  0.00  0.00    +0.000 C 
ATOM     34  C   UNL     1     -10.054  52.670  52.672  0.00  0.00    +0.000 C 
ATOM     35  C   UNL     1      -8.941  54.837  53.225  0.00  0.00    +0.000 C 
ENDBRANCH  32  33
ENDBRANCH  31  32
ENDBRANCH   5  31
TORSDOF 6
ENDMDL
MODEL 5
REMARK VINA RESULT:      -7.5      2.640      7.684
REMARK  Name = 338488
REMARK  8 active torsions:
REMARK  status: ('A' for Active; 'I' for Inactive)
REMARK    1  A    between atoms: C_6  and  C_10
REMARK    2  A    between atoms: C_14  and  O_18
REMARK    3  A    between atoms: N_17  and  C_21
REMARK    4  A    between atoms: C_21  and  C_24
REMARK    5  A    between atoms: C_24  and  C_27
REMARK    6  A    between atoms: C_26  and  N_28
REMARK    7  A    between atoms: C_27  and  C_29
REMARK    8  A    between atoms: C_27  and  C_30
REMARK                            x       y       z     vdW  Elec       q    Type
REMARK                         _______ _______ _______ _____ _____    ______ ____
ROOT
ATOM      1  C   UNL     1     -11.847  54.741  48.738  0.00  0.00    +0.000 A 
ATOM      2  C   UNL     1     -11.150  53.697  49.548  0.00  0.00    +0.000 A 
ATOM      3  C   UNL     1     -11.695  54.770  47.402  0.00  0.00    +0.000 A 
ATOM      4  O   UNL     1     -11.376  53.645  50.761  0.00  0.00    +0.000 OA
ATOM      5  N   UNL     1     -10.287  52.818  48.904  0.00  0.00    +0.000 N 
ATOM      6  C   UNL     1     -10.786  53.830  46.732  0.00  0.00    +0.000 A 
ATOM      7  C   UNL     1     -10.081  52.875  47.489  0.00  0.00    +0.000 A 
ATOM      8  C   UNL     1     -10.591  53.906  45.339  0.00  0.00    +0.000 A 
ATOM      9  C   UNL     1      -9.195  52.009  46.830  0.00  0.00    +0.000 A 
ATOM     10  C   UNL     1      -9.704  53.051  44.691  0.00  0.00    +0.000 A 
ATOM     11  C   UNL     1      -9.010  52.102  45.441  0.00  0.00    +0.000 A 
ENDROOT
BRANCH   1  17
ATOM     12  S   UNL     1     -14.827  56.197  50.842  0.00  0.00    +0.000 S 
ATOM     13  O   UNL     1     -14.592  56.117  52.269  0.00  0.00    +0.000 OA
ATOM     14  O   UNL     1     -16.133  55.882  50.296  0.00  0.00    +0.000 OA
ATOM     15  N   UNL     1     -13.741  55.242  50.112  0.00  0.00    +0.000 N 
ATOM     16  C   UNL     1     -14.492  57.857  50.379  0.00  0.00    +0.000 A 
ATOM     17  C   UNL     1     -12.750  55.741  49.435  0.00  0.00    +0.000 C 
ATOM     18  C   UNL     1     -13.349  58.105  49.637  0.00  0.00    +0.000 A 
ATOM     19  C   UNL     1     -15.374  58.876  50.746  0.00  0.00    +0.000 A 
ATOM     20  N   UNL     1     -12.473  57.081  49.284  0.00  0.00    +0.000 N 
ATOM     21  C   UNL     1     -13.045  59.431  49.315  0.00  0.00    +0.000 A 
ATOM     22  C   UNL     1     -15.078  60.189  50.387  0.00  0.00    +0.000 A 
ATOM     23  C   UNL     1     -13.909  60.468  49.680  0.00  0.00    +0.000 A 
ATOM     24  H   UNL     1     -13.833  54.265  50.184  0.00  0.00    +0.000 HD
ATOM     25  H   UNL     1     -11.601  57.332  48.902  0.00  0.00    +0.000 HD
ENDBRANCH   1  17
BRANCH  11  26
ATOM     26  N   UNL     1      -8.069  51.193  44.772  0.00  0.00    +0.000 N 
ATOM     27  O   UNL     1      -7.462  50.375  45.476  0.00  0.00    +0.000 OA
ATOM     28  O   UNL     1      -7.942  51.299  43.545  0.00  0.00    +0.000 OA
ENDBRANCH  11  26
BRANCH   3  29
ATOM     29  O   UNL     1     -12.342  55.655  46.558  0.00  0.00    +0.000 OA
ATOM     30  H   UNL     1     -12.771  55.338  45.787  0.00  0.00    +0.000 HD
ENDBRANCH   3  29
BRANCH   5  31
ATOM     31  C   UNL     1      -9.556  51.851  49.739  0.00  0.00    +0.000 C 
BRANCH  31  32
ATOM     32  C   UNL     1      -8.197  52.400  50.198  0.00  0.00    +0.000 C 
BRANCH  32  33
ATOM     33  C   UNL     1      -7.985  52.367  51.725  0.00  0.00    +0.000 C 
ATOM     34  C   UNL     1      -8.309  53.704  52.395  0.00  0.00    +0.000 C 
ATOM     35  C   UNL     1      -8.853  51.266  52.345  0.00  0.00    +0.000 C 
ENDBRANCH  32  33
ENDBRANCH  31  32
ENDBRANCH   5  31
TORSDOF 6
ENDMDL
MODEL 6
REMARK VINA RESULT:      -7.5      2.807      8.294
REMARK  Name = 338488
REMARK  8 active torsions:
REMARK  status: ('A' for Active; 'I' for Inactive)
REMARK    1  A    between atoms: C_6  and  C_10
REMARK    2  A    between atoms: C_14  and  O_18
REMARK    3  A    between atoms: N_17  and  C_21
REMARK    4  A    between atoms: C_21  and  C_24
REMARK    5  A    between atoms: C_24  and  C_27
REMARK    6  A    between atoms: C_26  and  N_28
REMARK    7  A    between atoms: C_27  and  C_29
REMARK    8  A    between atoms: C_27  and  C_30
REMARK                            x       y       z     vdW  Elec       q    Type
REMARK                         _______ _______ _______ _____ _____    ______ ____
ROOT
ATOM      1  C   UNL     1     -11.315  55.366  49.430  0.00  0.00    +0.000 A 
ATOM      2  C   UNL     1     -11.441  54.678  48.109  0.00  0.00    +0.000 A 
ATOM      3  C   UNL     1     -10.299  55.060  50.255  0.00  0.00    +0.000 A 
ATOM      4  O   UNL     1     -12.336  55.041  47.340  0.00  0.00    +0.000 OA
ATOM      5  N   UNL     1     -10.540  53.670  47.793  0.00  0.00    +0.000 N 
ATOM      6  C   UNL     1      -9.346  53.996  49.905  0.00  0.00    +0.000 A 
ATOM      7  C   UNL     1      -9.484  53.303  48.688  0.00  0.00    +0.000 A 
ATOM      8  C   UNL     1      -8.318  53.645  50.802  0.00  0.00    +0.000 A 
ATOM      9  C   UNL     1      -8.581  52.270  48.391  0.00  0.00    +0.000 A 
ATOM     10  C   UNL     1      -7.430  52.614  50.508  0.00  0.00    +0.000 A 
ATOM     11  C   UNL     1      -7.565  51.931  49.299  0.00  0.00    +0.000 A 
ENDROOT
BRANCH   1  17
ATOM     12  S   UNL     1     -13.339  58.732  49.382  0.00  0.00    +0.000 S 
ATOM     13  O   UNL     1     -14.412  58.722  48.409  0.00  0.00    +0.000 OA
ATOM     14  O   UNL     1     -12.511  59.911  49.547  0.00  0.00    +0.000 OA
ATOM     15  N   UNL     1     -12.362  57.484  49.047  0.00  0.00    +0.000 N 
ATOM     16  C   UNL     1     -14.086  58.437  50.943  0.00  0.00    +0.000 A 
ATOM     17  C   UNL     1     -12.325  56.432  49.811  0.00  0.00    +0.000 C 
ATOM     18  C   UNL     1     -13.866  57.209  51.545  0.00  0.00    +0.000 A 
ATOM     19  C   UNL     1     -14.860  59.431  51.545  0.00  0.00    +0.000 A 
ATOM     20  N   UNL     1     -13.098  56.223  50.930  0.00  0.00    +0.000 N 
ATOM     21  C   UNL     1     -14.505  56.946  52.760  0.00  0.00    +0.000 A 
ATOM     22  C   UNL     1     -15.462  59.169  52.774  0.00  0.00    +0.000 A 
ATOM     23  C   UNL     1     -15.292  57.923  53.377  0.00  0.00    +0.000 A 
ATOM     24  H   UNL     1     -11.787  57.521  48.249  0.00  0.00    +0.000 HD
ATOM     25  H   UNL     1     -13.109  55.319  51.321  0.00  0.00    +0.000 HD
ENDBRANCH   1  17
BRANCH  11  26
ATOM     26  N   UNL     1      -6.637  50.839  48.974  0.00  0.00    +0.000 N 
ATOM     27  O   UNL     1      -5.497  50.891  49.453  0.00  0.00    +0.000 OA
ATOM     28  O   UNL     1      -7.054  49.931  48.241  0.00  0.00    +0.000 OA
ENDBRANCH  11  26
BRANCH   3  29
ATOM     29  O   UNL     1     -10.058  55.679  51.468  0.00  0.00    +0.000 OA
ATOM     30  H   UNL     1      -9.381  56.324  51.539  0.00  0.00    +0.000 HD
ENDBRANCH   3  29
BRANCH   5  31
ATOM     31  C   UNL     1     -10.736  52.958  46.519  0.00  0.00    +0.000 C 
BRANCH  31  32
ATOM     32  C   UNL     1     -10.212  53.766  45.323  0.00  0.00    +0.000 C 
BRANCH  32  33
ATOM     33  C   UNL     1      -8.745  53.467  44.953  0.00  0.00    +0.000 C 
ATOM     34  C   UNL     1      -8.570  53.105  43.478  0.00  0.00    +0.000 C 
ATOM     35  C   UNL     1      -7.870  54.681  45.284  0.00  0.00    +0.000 C 
ENDBRANCH  32  33
ENDBRANCH  31  32
ENDBRANCH   5  31
TORSDOF 6
ENDMDL
MODEL 7
REMARK VINA RESULT:      -7.3      3.528      6.467
REMARK  Name = 338488
REMARK  8 active torsions:
REMARK  status: ('A' for Active; 'I' for Inactive)
REMARK    1  A    between atoms: C_6  and  C_10
REMARK    2  A    between atoms: C_14  and  O_18
REMARK    3  A    between atoms: N_17  and  C_21
REMARK    4  A    between atoms: C_21  and  C_24
REMARK    5  A    between atoms: C_24  and  C_27
REMARK    6  A    between atoms: C_26  and  N_28
REMARK    7  A    between atoms: C_27  and  C_29
REMARK    8  A    between atoms: C_27  and  C_30
REMARK                            x       y       z     vdW  Elec       q    Type
REMARK                         _______ _______ _______ _____ _____    ______ ____
ROOT
ATOM      1  C   UNL     1      -8.791  54.172  51.234  0.00  0.00    +0.000 A 
ATOM      2  C   UNL     1      -8.638  54.525  49.790  0.00  0.00    +0.000 A 
ATOM      3  C   UNL     1      -9.913  54.506  51.895  0.00  0.00    +0.000 A 
ATOM      4  O   UNL     1      -7.634  54.131  49.190  0.00  0.00    +0.000 OA
ATOM      5  N   UNL     1      -9.638  55.269  49.176  0.00  0.00    +0.000 N 
ATOM      6  C   UNL     1     -10.967  55.286  51.232  0.00  0.00    +0.000 A 
ATOM      7  C   UNL     1     -10.814  55.673  49.887  0.00  0.00    +0.000 A 
ATOM      8  C   UNL     1     -12.113  55.679  51.950  0.00  0.00    +0.000 A 
ATOM      9  C   UNL     1     -11.821  56.444  49.285  0.00  0.00    +0.000 A 
ATOM     10  C   UNL     1     -13.105  56.452  51.352  0.00  0.00    +0.000 A 
ATOM     11  C   UNL     1     -12.955  56.830  50.018  0.00  0.00    +0.000 A 
ENDROOT
BRANCH   1  17
ATOM     12  S   UNL     1      -5.908  53.315  53.761  0.00  0.00    +0.000 S 
ATOM     13  O   UNL     1      -6.408  52.831  55.032  0.00  0.00    +0.000 OA
ATOM     14  O   UNL     1      -4.800  54.249  53.718  0.00  0.00    +0.000 OA
ATOM     15  N   UNL     1      -7.152  53.985  52.968  0.00  0.00    +0.000 N 
ATOM     16  C   UNL     1      -5.389  51.898  52.864  0.00  0.00    +0.000 A 
ATOM     17  C   UNL     1      -7.682  53.406  51.931  0.00  0.00    +0.000 C 
ATOM     18  C   UNL     1      -6.151  51.504  51.776  0.00  0.00    +0.000 A 
ATOM     19  C   UNL     1      -4.230  51.217  53.244  0.00  0.00    +0.000 A 
ATOM     20  N   UNL     1      -7.308  52.188  51.411  0.00  0.00    +0.000 N 
ATOM     21  C   UNL     1      -5.776  50.344  51.093  0.00  0.00    +0.000 A 
ATOM     22  C   UNL     1      -3.847  50.083  52.532  0.00  0.00    +0.000 A 
ATOM     23  C   UNL     1      -4.625  49.641  51.462  0.00  0.00    +0.000 A 
ATOM     24  H   UNL     1      -7.515  54.845  53.279  0.00  0.00    +0.000 HD
ATOM     25  H   UNL     1      -7.896  51.774  50.739  0.00  0.00    +0.000 HD
ENDBRANCH   1  17
BRANCH  11  26
ATOM     26  N   UNL     1     -13.990  57.648  49.372  0.00  0.00    +0.000 N 
ATOM     27  O   UNL     1     -14.416  58.631  49.992  0.00  0.00    +0.000 OA
ATOM     28  O   UNL     1     -14.374  57.304  48.246  0.00  0.00    +0.000 OA
ENDBRANCH  11  26
BRANCH   3  29
ATOM     29  O   UNL     1     -10.177  54.173  53.212  0.00  0.00    +0.000 OA
ATOM     30  H   UNL     1     -10.187  53.274  53.474  0.00  0.00    +0.000 HD
ENDBRANCH   3  29
BRANCH   5  31
ATOM     31  C   UNL     1      -9.425  55.668  47.775  0.00  0.00    +0.000 C 
BRANCH  31  32
ATOM     32  C   UNL     1     -10.114  54.710  46.793  0.00  0.00    +0.000 C 
BRANCH  32  33
ATOM     33  C   UNL     1      -9.140  53.866  45.945  0.00  0.00    +0.000 C 
ATOM     34  C   UNL     1      -9.767  53.376  44.639  0.00  0.00    +0.000 C 
ATOM     35  C   UNL     1      -7.885  54.687  45.628  0.00  0.00    +0.000 C 
ENDBRANCH  32  33
ENDBRANCH  31  32
ENDBRANCH   5  31
TORSDOF 6
ENDMDL
MODEL 8
REMARK VINA RESULT:      -7.3      2.898      8.440
REMARK  Name = 338488
REMARK  8 active torsions:
REMARK  status: ('A' for Active; 'I' for Inactive)
REMARK    1  A    between atoms: C_6  and  C_10
REMARK    2  A    between atoms: C_14  and  O_18
REMARK    3  A    between atoms: N_17  and  C_21
REMARK    4  A    between atoms: C_21  and  C_24
REMARK    5  A    between atoms: C_24  and  C_27
REMARK    6  A    between atoms: C_26  and  N_28
REMARK    7  A    between atoms: C_27  and  C_29
REMARK    8  A    between atoms: C_27  and  C_30
REMARK                            x       y       z     vdW  Elec       q    Type
REMARK                         _______ _______ _______ _____ _____    ______ ____
ROOT
ATOM      1  C   UNL     1     -10.605  55.261  48.804  0.00  0.00    +0.000 A 
ATOM      2  C   UNL     1     -10.687  54.305  47.658  0.00  0.00    +0.000 A 
ATOM      3  C   UNL     1      -9.421  55.516  49.387  0.00  0.00    +0.000 A 
ATOM      4  O   UNL     1     -11.773  54.157  47.091  0.00  0.00    +0.000 OA
ATOM      5  N   UNL     1      -9.535  53.633  47.267  0.00  0.00    +0.000 N 
ATOM      6  C   UNL     1      -8.209  54.804  48.958  0.00  0.00    +0.000 A 
ATOM      7  C   UNL     1      -8.280  53.861  47.916  0.00  0.00    +0.000 A 
ATOM      8  C   UNL     1      -6.983  55.037  49.614  0.00  0.00    +0.000 A 
ATOM      9  C   UNL     1      -7.114  53.171  47.546  0.00  0.00    +0.000 A 
ATOM     10  C   UNL     1      -5.832  54.344  49.249  0.00  0.00    +0.000 A 
ATOM     11  C   UNL     1      -5.902  53.413  48.213  0.00  0.00    +0.000 A 
ENDROOT
BRANCH   1  17
ATOM     12  S   UNL     1     -13.913  57.377  48.726  0.00  0.00    +0.000 S 
ATOM     13  O   UNL     1     -15.061  56.600  48.305  0.00  0.00    +0.000 OA
ATOM     14  O   UNL     1     -13.727  58.731  48.240  0.00  0.00    +0.000 OA
ATOM     15  N   UNL     1     -12.584  56.530  48.355  0.00  0.00    +0.000 N 
ATOM     16  C   UNL     1     -14.013  57.496  50.475  0.00  0.00    +0.000 A 
ATOM     17  C   UNL     1     -11.865  55.962  49.277  0.00  0.00    +0.000 C 
ATOM     18  C   UNL     1     -13.097  56.778  51.227  0.00  0.00    +0.000 A 
ATOM     19  C   UNL     1     -14.984  58.308  51.066  0.00  0.00    +0.000 A 
ATOM     20  N   UNL     1     -12.139  55.966  50.626  0.00  0.00    +0.000 N 
ATOM     21  C   UNL     1     -13.208  56.821  52.619  0.00  0.00    +0.000 A 
ATOM     22  C   UNL     1     -15.060  58.371  52.455  0.00  0.00    +0.000 A 
ATOM     23  C   UNL     1     -14.178  57.620  53.232  0.00  0.00    +0.000 A 
ATOM     24  H   UNL     1     -12.317  56.441  47.411  0.00  0.00    +0.000 HD
ATOM     25  H   UNL     1     -11.624  55.356  51.202  0.00  0.00    +0.000 HD
ENDBRANCH   1  17
BRANCH  11  26
ATOM     26  N   UNL     1      -4.697  52.672  47.818  0.00  0.00    +0.000 N 
ATOM     27  O   UNL     1      -3.848  53.272  47.145  0.00  0.00    +0.000 OA
ATOM     28  O   UNL     1      -4.603  51.492  48.183  0.00  0.00    +0.000 OA
ENDBRANCH  11  26
BRANCH   3  29
ATOM     29  O   UNL     1      -9.229  56.426  50.411  0.00  0.00    +0.000 OA
ATOM     30  H   UNL     1      -9.962  56.739  50.903  0.00  0.00    +0.000 HD
ENDBRANCH   3  29
BRANCH   5  31
ATOM     31  C   UNL     1      -9.663  52.641  46.187  0.00  0.00    +0.000 C 
BRANCH  31  32
ATOM     32  C   UNL     1      -9.573  53.290  44.798  0.00  0.00    +0.000 C 
BRANCH  32  33
ATOM     33  C   UNL     1      -8.604  52.580  43.830  0.00  0.00    +0.000 C 
ATOM     34  C   UNL     1      -8.272  51.153  44.269  0.00  0.00    +0.000 C 
ATOM     35  C   UNL     1      -9.210  52.548  42.422  0.00  0.00    +0.000 C 
ENDBRANCH  32  33
ENDBRANCH  31  32
ENDBRANCH   5  31
TORSDOF 6
ENDMDL
MODEL 9
REMARK VINA RESULT:      -7.3      2.844      8.308
REMARK  Name = 338488
REMARK  8 active torsions:
REMARK  status: ('A' for Active; 'I' for Inactive)
REMARK    1  A    between atoms: C_6  and  C_10
REMARK    2  A    between atoms: C_14  and  O_18
REMARK    3  A    between atoms: N_17  and  C_21
REMARK    4  A    between atoms: C_21  and  C_24
REMARK    5  A    between atoms: C_24  and  C_27
REMARK    6  A    between atoms: C_26  and  N_28
REMARK    7  A    between atoms: C_27  and  C_29
REMARK    8  A    between atoms: C_27  and  C_30
REMARK                            x       y       z     vdW  Elec       q    Type
REMARK                         _______ _______ _______ _____ _____    ______ ____
ROOT
ATOM      1  C   UNL     1     -11.252  55.166  49.817  0.00  0.00    +0.000 A 
ATOM      2  C   UNL     1     -11.456  54.617  48.442  0.00  0.00    +0.000 A 
ATOM      3  C   UNL     1     -10.201  54.766  50.554  0.00  0.00    +0.000 A 
ATOM      4  O   UNL     1     -12.381  55.066  47.760  0.00  0.00    +0.000 OA
ATOM      5  N   UNL     1     -10.587  53.635  47.981  0.00  0.00    +0.000 N 
ATOM      6  C   UNL     1      -9.285  53.733  50.051  0.00  0.00    +0.000 A 
ATOM      7  C   UNL     1      -9.495  53.167  48.779  0.00  0.00    +0.000 A 
ATOM      8  C   UNL     1      -8.220  53.281  50.855  0.00  0.00    +0.000 A 
ATOM      9  C   UNL     1      -8.625  52.159  48.334  0.00  0.00    +0.000 A 
ATOM     10  C   UNL     1      -7.365  52.274  50.413  0.00  0.00    +0.000 A 
ATOM     11  C   UNL     1      -7.570  51.719  49.150  0.00  0.00    +0.000 A 
ENDROOT
BRANCH   1  17
ATOM     12  S   UNL     1     -14.013  56.837  52.057  0.00  0.00    +0.000 S 
ATOM     13  O   UNL     1     -13.477  57.382  53.288  0.00  0.00    +0.000 OA
ATOM     14  O   UNL     1     -15.272  56.118  52.062  0.00  0.00    +0.000 OA
ATOM     15  N   UNL     1     -12.887  55.861  51.421  0.00  0.00    +0.000 N 
ATOM     16  C   UNL     1     -14.232  58.198  50.970  0.00  0.00    +0.000 A 
ATOM     17  C   UNL     1     -12.224  56.199  50.355  0.00  0.00    +0.000 C 
ATOM     18  C   UNL     1     -13.373  58.308  49.889  0.00  0.00    +0.000 A 
ATOM     19  C   UNL     1     -15.257  59.118  51.200  0.00  0.00    +0.000 A 
ATOM     20  N   UNL     1     -12.350  57.389  49.674  0.00  0.00    +0.000 N 
ATOM     21  C   UNL     1     -13.504  59.420  49.052  0.00  0.00    +0.000 A 
ATOM     22  C   UNL     1     -15.400  60.202  50.338  0.00  0.00    +0.000 A 
ATOM     23  C   UNL     1     -14.518  60.359  49.269  0.00  0.00    +0.000 A 
ATOM     24  H   UNL     1     -12.700  54.996  51.852  0.00  0.00    +0.000 HD
ATOM     25  H   UNL     1     -11.673  57.603  48.991  0.00  0.00    +0.000 HD
ENDBRANCH   1  17
BRANCH  11  26
ATOM     26  N   UNL     1      -6.679  50.655  48.670  0.00  0.00    +0.000 N 
ATOM     27  O   UNL     1      -5.596  50.505  49.252  0.00  0.00    +0.000 OA
ATOM     28  O   UNL     1      -7.065  49.970  47.713  0.00  0.00    +0.000 OA
ENDBRANCH  11  26
BRANCH   3  29
ATOM     29  O   UNL     1      -9.891  55.257  51.810  0.00  0.00    +0.000 OA
ATOM     30  H   UNL     1      -8.997  55.294  52.090  0.00  0.00    +0.000 HD
ENDBRANCH   3  29
BRANCH   5  31
ATOM     31  C   UNL     1     -10.859  53.059  46.654  0.00  0.00    +0.000 C 
BRANCH  31  32
ATOM     32  C   UNL     1     -10.281  53.922  45.523  0.00  0.00    +0.000 C 
BRANCH  32  33
ATOM     33  C   UNL     1      -8.840  53.552  45.119  0.00  0.00    +0.000 C 
ATOM     34  C   UNL     1      -8.725  53.147  43.649  0.00  0.00    +0.000 C 
ATOM     35  C   UNL     1      -7.905  54.737  45.392  0.00  0.00    +0.000 C 
ENDBRANCH  32  33
ENDBRANCH  31  32
ENDBRANCH   5  31
TORSDOF 6
ENDMDL
