MODEL 1
REMARK VINA RESULT:      -8.1      0.000      0.000
REMARK  Name = 298159
REMARK  7 active torsions:
REMARK  status: ('A' for Active; 'I' for Inactive)
REMARK    1  A    between atoms: C_6  and  C_10
REMARK    2  A    between atoms: C_14  and  O_18
REMARK    3  A    between atoms: N_17  and  C_21
REMARK    4  A    between atoms: C_21  and  C_24
REMARK    5  A    between atoms: C_24  and  C_27
REMARK    6  A    between atoms: C_27  and  C_28
REMARK    7  A    between atoms: C_27  and  C_29
REMARK                            x       y       z     vdW  Elec       q    Type
REMARK                         _______ _______ _______ _____ _____    ______ ____
ROOT
ATOM      1  C   UNL     1     -12.521  54.208  49.715  0.00  0.00    +0.000 A 
ATOM      2  C   UNL     1     -11.982  54.133  48.323  0.00  0.00    +0.000 A 
ATOM      3  C   UNL     1     -12.250  53.228  50.594  0.00  0.00    +0.000 A 
ATOM      4  O   UNL     1     -12.144  55.109  47.583  0.00  0.00    +0.000 OA
ATOM      5  N   UNL     1     -11.307  52.984  47.924  0.00  0.00    +0.000 N 
ATOM      6  C   UNL     1     -11.410  52.086  50.199  0.00  0.00    +0.000 A 
ATOM      7  C   UNL     1     -10.938  51.984  48.879  0.00  0.00    +0.000 A 
ATOM      8  C   UNL     1     -11.051  51.104  51.141  0.00  0.00    +0.000 A 
ATOM      9  C   UNL     1     -10.085  50.918  48.552  0.00  0.00    +0.000 A 
ATOM     10  C   UNL     1     -10.227  50.037  50.788  0.00  0.00    +0.000 A 
ATOM     11  C   UNL     1      -9.740  49.948  49.493  0.00  0.00    +0.000 A 
ENDROOT
BRANCH   1  17
ATOM     12  S   UNL     1     -15.390  56.458  51.190  0.00  0.00    +0.000 S 
ATOM     13  O   UNL     1     -15.333  56.584  52.633  0.00  0.00    +0.000 OA
ATOM     14  O   UNL     1     -16.664  56.280  50.522  0.00  0.00    +0.000 OA
ATOM     15  N   UNL     1     -14.425  55.226  50.762  0.00  0.00    +0.000 N 
ATOM     16  C   UNL     1     -14.712  57.945  50.545  0.00  0.00    +0.000 A 
ATOM     17  C   UNL     1     -13.306  55.438  50.133  0.00  0.00    +0.000 C 
ATOM     18  C   UNL     1     -13.482  57.873  49.915  0.00  0.00    +0.000 A 
ATOM     19  C   UNL     1     -15.414  59.148  50.667  0.00  0.00    +0.000 A 
ATOM     20  N   UNL     1     -12.787  56.673  49.811  0.00  0.00    +0.000 N 
ATOM     21  C   UNL     1     -12.906  59.063  49.451  0.00  0.00    +0.000 A 
ATOM     22  C   UNL     1     -14.846  60.318  50.170  0.00  0.00    +0.000 A 
ATOM     23  C   UNL     1     -13.587  60.276  49.571  0.00  0.00    +0.000 A 
ATOM     24  H   UNL     1     -14.691  54.304  50.983  0.00  0.00    +0.000 HD
ATOM     25  H   UNL     1     -11.859  56.707  49.483  0.00  0.00    +0.000 HD
ENDBRANCH   1  17
BRANCH   3  26
ATOM     26  O   UNL     1     -12.670  53.222  51.913  0.00  0.00    +0.000 OA
ATOM     27  H   UNL     1     -13.459  53.664  52.155  0.00  0.00    +0.000 HD
ENDBRANCH   3  26
BRANCH   5  28
ATOM     28  C   UNL     1     -10.851  52.910  46.530  0.00  0.00    +0.000 C 
BRANCH  28  29
ATOM     29  C   UNL     1      -9.363  53.217  46.288  0.00  0.00    +0.000 C 
BRANCH  29  30
ATOM     30  C   UNL     1      -8.965  54.700  46.200  0.00  0.00    +0.000 C 
ATOM     31  C   UNL     1      -8.541  55.276  47.549  0.00  0.00    +0.000 C 
ATOM     32  C   UNL     1      -7.812  54.839  45.196  0.00  0.00    +0.000 C 
ENDBRANCH  29  30
ENDBRANCH  28  29
ENDBRANCH   5  28
TORSDOF 5
ENDMDL
MODEL 2
REMARK VINA RESULT:      -8.0      3.022      3.886
REMARK  Name = 298159
REMARK  7 active torsions:
REMARK  status: ('A' for Active; 'I' for Inactive)
REMARK    1  A    between atoms: C_6  and  C_10
REMARK    2  A    between atoms: C_14  and  O_18
REMARK    3  A    between atoms: N_17  and  C_21
REMARK    4  A    between atoms: C_21  and  C_24
REMARK    5  A    between atoms: C_24  and  C_27
REMARK    6  A    between atoms: C_27  and  C_28
REMARK    7  A    between atoms: C_27  and  C_29
REMARK                            x       y       z     vdW  Elec       q    Type
REMARK                         _______ _______ _______ _____ _____    ______ ____
ROOT
ATOM      1  C   UNL     1     -11.442  56.297  48.513  0.00  0.00    +0.000 A 
ATOM      2  C   UNL     1     -11.831  55.690  47.203  0.00  0.00    +0.000 A 
ATOM      3  C   UNL     1     -10.198  56.123  48.991  0.00  0.00    +0.000 A 
ATOM      4  O   UNL     1     -12.938  55.975  46.736  0.00  0.00    +0.000 OA
ATOM      5  N   UNL     1     -10.929  54.850  46.558  0.00  0.00    +0.000 N 
ATOM      6  C   UNL     1      -9.207  55.352  48.224  0.00  0.00    +0.000 A 
ATOM      7  C   UNL     1      -9.578  54.738  47.014  0.00  0.00    +0.000 A 
ATOM      8  C   UNL     1      -7.879  55.242  48.678  0.00  0.00    +0.000 A 
ATOM      9  C   UNL     1      -8.593  54.065  46.275  0.00  0.00    +0.000 A 
ATOM     10  C   UNL     1      -6.924  54.544  47.943  0.00  0.00    +0.000 A 
ATOM     11  C   UNL     1      -7.281  53.959  46.738  0.00  0.00    +0.000 A 
ENDROOT
BRANCH   1  17
ATOM     12  S   UNL     1     -13.638  59.407  49.498  0.00  0.00    +0.000 S 
ATOM     13  O   UNL     1     -14.821  59.556  48.673  0.00  0.00    +0.000 OA
ATOM     14  O   UNL     1     -12.857  60.569  49.873  0.00  0.00    +0.000 OA
ATOM     15  N   UNL     1     -12.648  58.357  48.758  0.00  0.00    +0.000 N 
ATOM     16  C   UNL     1     -14.185  58.689  51.005  0.00  0.00    +0.000 A 
ATOM     17  C   UNL     1     -12.446  57.168  49.245  0.00  0.00    +0.000 C 
ATOM     18  C   UNL     1     -13.817  57.381  51.267  0.00  0.00    +0.000 A 
ATOM     19  C   UNL     1     -14.958  59.436  51.900  0.00  0.00    +0.000 A 
ATOM     20  N   UNL     1     -13.057  56.644  50.364  0.00  0.00    +0.000 N 
ATOM     21  C   UNL     1     -14.297  56.781  52.437  0.00  0.00    +0.000 A 
ATOM     22  C   UNL     1     -15.401  58.837  53.076  0.00  0.00    +0.000 A 
ATOM     23  C   UNL     1     -15.078  57.506  53.340  0.00  0.00    +0.000 A 
ATOM     24  H   UNL     1     -12.192  58.625  47.927  0.00  0.00    +0.000 HD
ATOM     25  H   UNL     1     -12.947  55.681  50.536  0.00  0.00    +0.000 HD
ENDBRANCH   1  17
BRANCH   3  26
ATOM     26  O   UNL     1      -9.730  56.673  50.173  0.00  0.00    +0.000 OA
ATOM     27  H   UNL     1      -9.390  56.118  50.846  0.00  0.00    +0.000 HD
ENDBRANCH   3  26
BRANCH   5  28
ATOM     28  C   UNL     1     -11.366  54.212  45.309  0.00  0.00    +0.000 C 
BRANCH  28  29
ATOM     29  C   UNL     1     -11.872  52.765  45.431  0.00  0.00    +0.000 C 
BRANCH  29  30
ATOM     30  C   UNL     1     -11.173  51.708  44.559  0.00  0.00    +0.000 C 
ATOM     31  C   UNL     1     -10.285  52.327  43.482  0.00  0.00    +0.000 C 
ATOM     32  C   UNL     1     -10.326  50.806  45.468  0.00  0.00    +0.000 C 
ENDBRANCH  29  30
ENDBRANCH  28  29
ENDBRANCH   5  28
TORSDOF 5
ENDMDL
MODEL 3
REMARK VINA RESULT:      -7.9      3.069      4.244
REMARK  Name = 298159
REMARK  7 active torsions:
REMARK  status: ('A' for Active; 'I' for Inactive)
REMARK    1  A    between atoms: C_6  and  C_10
REMARK    2  A    between atoms: C_14  and  O_18
REMARK    3  A    between atoms: N_17  and  C_21
REMARK    4  A    between atoms: C_21  and  C_24
REMARK    5  A    between atoms: C_24  and  C_27
REMARK    6  A    between atoms: C_27  and  C_28
REMARK    7  A    between atoms: C_27  and  C_29
REMARK                            x       y       z     vdW  Elec       q    Type
REMARK                         _______ _______ _______ _____ _____    ______ ____
ROOT
ATOM      1  C   UNL     1     -11.648  54.058  51.088  0.00  0.00    +0.000 A 
ATOM      2  C   UNL     1     -10.725  54.063  52.264  0.00  0.00    +0.000 A 
ATOM      3  C   UNL     1     -11.735  52.967  50.307  0.00  0.00    +0.000 A 
ATOM      4  O   UNL     1     -10.764  55.031  53.030  0.00  0.00    +0.000 OA
ATOM      5  N   UNL     1      -9.878  52.977  52.458  0.00  0.00    +0.000 N 
ATOM      6  C   UNL     1     -10.939  51.768  50.612  0.00  0.00    +0.000 A 
ATOM      7  C   UNL     1     -10.033  51.781  51.687  0.00  0.00    +0.000 A 
ATOM      8  C   UNL     1     -11.093  50.595  49.850  0.00  0.00    +0.000 A 
ATOM      9  C   UNL     1      -9.337  50.601  51.992  0.00  0.00    +0.000 A 
ATOM     10  C   UNL     1     -10.370  49.443  50.151  0.00  0.00    +0.000 A 
ATOM     11  C   UNL     1      -9.495  49.445  51.226  0.00  0.00    +0.000 A 
ENDROOT
BRANCH   1  17
ATOM     12  S   UNL     1     -13.382  57.083  49.268  0.00  0.00    +0.000 S 
ATOM     13  O   UNL     1     -14.505  56.686  48.442  0.00  0.00    +0.000 OA
ATOM     14  O   UNL     1     -12.447  58.086  48.798  0.00  0.00    +0.000 OA
ATOM     15  N   UNL     1     -12.539  55.746  49.633  0.00  0.00    +0.000 N 
ATOM     16  C   UNL     1     -14.073  57.727  50.749  0.00  0.00    +0.000 A 
ATOM     17  C   UNL     1     -12.531  55.268  50.843  0.00  0.00    +0.000 C 
ATOM     18  C   UNL     1     -13.912  56.990  51.910  0.00  0.00    +0.000 A 
ATOM     19  C   UNL     1     -14.751  58.950  50.735  0.00  0.00    +0.000 A 
ATOM     20  N   UNL     1     -13.245  55.769  51.910  0.00  0.00    +0.000 N 
ATOM     21  C   UNL     1     -14.510  57.466  53.083  0.00  0.00    +0.000 A 
ATOM     22  C   UNL     1     -15.312  59.428  51.917  0.00  0.00    +0.000 A 
ATOM     23  C   UNL     1     -15.200  58.680  53.089  0.00  0.00    +0.000 A 
ATOM     24  H   UNL     1     -12.025  55.291  48.928  0.00  0.00    +0.000 HD
ATOM     25  H   UNL     1     -13.285  55.225  52.729  0.00  0.00    +0.000 HD
ENDBRANCH   1  17
BRANCH   3  26
ATOM     26  O   UNL     1     -12.584  52.850  49.220  0.00  0.00    +0.000 OA
ATOM     27  H   UNL     1     -13.365  53.365  49.177  0.00  0.00    +0.000 HD
ENDBRANCH   3  26
BRANCH   5  28
ATOM     28  C   UNL     1      -8.933  53.042  53.580  0.00  0.00    +0.000 C 
BRANCH  28  29
ATOM     29  C   UNL     1      -7.568  53.685  53.278  0.00  0.00    +0.000 C 
BRANCH  29  30
ATOM     30  C   UNL     1      -7.107  54.810  54.218  0.00  0.00    +0.000 C 
ATOM     31  C   UNL     1      -5.736  54.538  54.834  0.00  0.00    +0.000 C 
ATOM     32  C   UNL     1      -7.062  56.124  53.426  0.00  0.00    +0.000 C 
ENDBRANCH  29  30
ENDBRANCH  28  29
ENDBRANCH   5  28
TORSDOF 5
ENDMDL
MODEL 4
REMARK VINA RESULT:      -7.9      4.141      7.857
REMARK  Name = 298159
REMARK  7 active torsions:
REMARK  status: ('A' for Active; 'I' for Inactive)
REMARK    1  A    between atoms: C_6  and  C_10
REMARK    2  A    between atoms: C_14  and  O_18
REMARK    3  A    between atoms: N_17  and  C_21
REMARK    4  A    between atoms: C_21  and  C_24
REMARK    5  A    between atoms: C_24  and  C_27
REMARK    6  A    between atoms: C_27  and  C_28
REMARK    7  A    between atoms: C_27  and  C_29
REMARK                            x       y       z     vdW  Elec       q    Type
REMARK                         _______ _______ _______ _____ _____    ______ ____
ROOT
ATOM      1  C   UNL     1     -10.040  54.647  50.951  0.00  0.00    +0.000 A 
ATOM      2  C   UNL     1     -11.374  55.169  51.377  0.00  0.00    +0.000 A 
ATOM      3  C   UNL     1      -9.726  54.594  49.644  0.00  0.00    +0.000 A 
ATOM      4  O   UNL     1     -11.580  55.321  52.586  0.00  0.00    +0.000 OA
ATOM      5  N   UNL     1     -12.318  55.478  50.403  0.00  0.00    +0.000 N 
ATOM      6  C   UNL     1     -10.682  55.063  48.630  0.00  0.00    +0.000 A 
ATOM      7  C   UNL     1     -11.957  55.511  49.019  0.00  0.00    +0.000 A 
ATOM      8  C   UNL     1     -10.324  55.092  47.269  0.00  0.00    +0.000 A 
ATOM      9  C   UNL     1     -12.821  56.013  48.034  0.00  0.00    +0.000 A 
ATOM     10  C   UNL     1     -11.208  55.567  46.303  0.00  0.00    +0.000 A 
ATOM     11  C   UNL     1     -12.456  56.032  46.687  0.00  0.00    +0.000 A 
ENDROOT
BRANCH   1  17
ATOM     12  S   UNL     1      -6.733  54.557  53.076  0.00  0.00    +0.000 S 
ATOM     13  O   UNL     1      -6.661  55.613  54.067  0.00  0.00    +0.000 OA
ATOM     14  O   UNL     1      -5.560  54.199  52.303  0.00  0.00    +0.000 OA
ATOM     15  N   UNL     1      -7.920  54.933  52.037  0.00  0.00    +0.000 N 
ATOM     16  C   UNL     1      -7.196  53.104  53.948  0.00  0.00    +0.000 A 
ATOM     17  C   UNL     1      -9.031  54.256  52.014  0.00  0.00    +0.000 C 
ATOM     18  C   UNL     1      -8.464  52.596  53.727  0.00  0.00    +0.000 A 
ATOM     19  C   UNL     1      -6.294  52.493  54.825  0.00  0.00    +0.000 A 
ATOM     20  N   UNL     1      -9.357  53.220  52.861  0.00  0.00    +0.000 N 
ATOM     21  C   UNL     1      -8.864  51.473  54.462  0.00  0.00    +0.000 A 
ATOM     22  C   UNL     1      -6.693  51.356  55.523  0.00  0.00    +0.000 A 
ATOM     23  C   UNL     1      -7.982  50.852  55.349  0.00  0.00    +0.000 A 
ATOM     24  H   UNL     1      -7.797  55.686  51.414  0.00  0.00    +0.000 HD
ATOM     25  H   UNL     1     -10.288  52.898  52.852  0.00  0.00    +0.000 HD
ENDBRANCH   1  17
BRANCH   3  26
ATOM     26  O   UNL     1      -8.506  54.164  49.150  0.00  0.00    +0.000 OA
ATOM     27  H   UNL     1      -8.288  54.306  48.251  0.00  0.00    +0.000 HD
ENDBRANCH   3  26
BRANCH   5  28
ATOM     28  C   UNL     1     -13.644  55.920  50.855  0.00  0.00    +0.000 C 
BRANCH  28  29
ATOM     29  C   UNL     1     -13.781  57.416  51.185  0.00  0.00    +0.000 C 
BRANCH  29  30
ATOM     30  C   UNL     1     -14.498  57.775  52.497  0.00  0.00    +0.000 C 
ATOM     31  C   UNL     1     -14.916  59.243  52.557  0.00  0.00    +0.000 C 
ATOM     32  C   UNL     1     -15.738  56.882  52.638  0.00  0.00    +0.000 C 
ENDBRANCH  29  30
ENDBRANCH  28  29
ENDBRANCH   5  28
TORSDOF 5
ENDMDL
MODEL 5
REMARK VINA RESULT:      -7.9      2.924      4.132
REMARK  Name = 298159
REMARK  7 active torsions:
REMARK  status: ('A' for Active; 'I' for Inactive)
REMARK    1  A    between atoms: C_6  and  C_10
REMARK    2  A    between atoms: C_14  and  O_18
REMARK    3  A    between atoms: N_17  and  C_21
REMARK    4  A    between atoms: C_21  and  C_24
REMARK    5  A    between atoms: C_24  and  C_27
REMARK    6  A    between atoms: C_27  and  C_28
REMARK    7  A    between atoms: C_27  and  C_29
REMARK                            x       y       z     vdW  Elec       q    Type
REMARK                         _______ _______ _______ _____ _____    ______ ____
ROOT
ATOM      1  C   UNL     1     -11.326  56.152  48.737  0.00  0.00    +0.000 A 
ATOM      2  C   UNL     1     -10.143  55.717  49.541  0.00  0.00    +0.000 A 
ATOM      3  C   UNL     1     -11.499  55.684  47.489  0.00  0.00    +0.000 A 
ATOM      4  O   UNL     1     -10.084  56.066  50.725  0.00  0.00    +0.000 OA
ATOM      5  N   UNL     1      -9.173  54.926  48.935  0.00  0.00    +0.000 N 
ATOM      6  C   UNL     1     -10.538  54.730  46.913  0.00  0.00    +0.000 A 
ATOM      7  C   UNL     1      -9.398  54.353  47.644  0.00  0.00    +0.000 A 
ATOM      8  C   UNL     1     -10.762  54.170  45.641  0.00  0.00    +0.000 A 
ATOM      9  C   UNL     1      -8.536  53.392  47.093  0.00  0.00    +0.000 A 
ATOM     10  C   UNL     1      -9.878  53.240  45.099  0.00  0.00    +0.000 A 
ATOM     11  C   UNL     1      -8.767  52.847  45.829  0.00  0.00    +0.000 A 
ENDROOT
BRANCH   1  17
ATOM     12  S   UNL     1     -13.555  59.310  49.463  0.00  0.00    +0.000 S 
ATOM     13  O   UNL     1     -14.705  59.411  48.586  0.00  0.00    +0.000 OA
ATOM     14  O   UNL     1     -12.788  60.492  49.802  0.00  0.00    +0.000 OA
ATOM     15  N   UNL     1     -12.539  58.221  48.821  0.00  0.00    +0.000 N 
ATOM     16  C   UNL     1     -14.160  58.676  50.986  0.00  0.00    +0.000 A 
ATOM     17  C   UNL     1     -12.357  57.061  49.381  0.00  0.00    +0.000 C 
ATOM     18  C   UNL     1     -13.803  57.384  51.334  0.00  0.00    +0.000 A 
ATOM     19  C   UNL     1     -14.966  59.470  51.807  0.00  0.00    +0.000 A 
ATOM     20  N   UNL     1     -13.010  56.600  50.503  0.00  0.00    +0.000 N 
ATOM     21  C   UNL     1     -14.329  56.850  52.517  0.00  0.00    +0.000 A 
ATOM     22  C   UNL     1     -15.454  58.937  52.998  0.00  0.00    +0.000 A 
ATOM     23  C   UNL     1     -15.143  57.623  53.347  0.00  0.00    +0.000 A 
ATOM     24  H   UNL     1     -12.051  58.443  47.995  0.00  0.00    +0.000 HD
ATOM     25  H   UNL     1     -12.908  55.648  50.733  0.00  0.00    +0.000 HD
ENDBRANCH   1  17
BRANCH   3  26
ATOM     26  O   UNL     1     -12.578  55.996  46.679  0.00  0.00    +0.000 OA
ATOM     27  H   UNL     1     -13.394  55.554  46.796  0.00  0.00    +0.000 HD
ENDBRANCH   3  26
BRANCH   5  28
ATOM     28  C   UNL     1      -7.987  54.574  49.728  0.00  0.00    +0.000 C 
BRANCH  28  29
ATOM     29  C   UNL     1      -6.816  55.569  49.670  0.00  0.00    +0.000 C 
BRANCH  29  30
ATOM     30  C   UNL     1      -5.398  54.976  49.712  0.00  0.00    +0.000 C 
ATOM     31  C   UNL     1      -5.105  54.244  51.020  0.00  0.00    +0.000 C 
ATOM     32  C   UNL     1      -5.236  54.007  48.533  0.00  0.00    +0.000 C 
ENDBRANCH  29  30
ENDBRANCH  28  29
ENDBRANCH   5  28
TORSDOF 5
ENDMDL
MODEL 6
REMARK VINA RESULT:      -7.8      3.884      6.838
REMARK  Name = 298159
REMARK  7 active torsions:
REMARK  status: ('A' for Active; 'I' for Inactive)
REMARK    1  A    between atoms: C_6  and  C_10
REMARK    2  A    between atoms: C_14  and  O_18
REMARK    3  A    between atoms: N_17  and  C_21
REMARK    4  A    between atoms: C_21  and  C_24
REMARK    5  A    between atoms: C_24  and  C_27
REMARK    6  A    between atoms: C_27  and  C_28
REMARK    7  A    between atoms: C_27  and  C_29
REMARK                            x       y       z     vdW  Elec       q    Type
REMARK                         _______ _______ _______ _____ _____    ______ ____
ROOT
ATOM      1  C   UNL     1     -10.245  55.180  50.803  0.00  0.00    +0.000 A 
ATOM      2  C   UNL     1      -9.824  55.106  49.371  0.00  0.00    +0.000 A 
ATOM      3  C   UNL     1     -11.459  55.662  51.123  0.00  0.00    +0.000 A 
ATOM      4  O   UNL     1      -8.758  54.543  49.106  0.00  0.00    +0.000 OA
ATOM      5  N   UNL     1     -10.654  55.655  48.398  0.00  0.00    +0.000 N 
ATOM      6  C   UNL     1     -12.385  56.103  50.070  0.00  0.00    +0.000 A 
ATOM      7  C   UNL     1     -11.980  56.083  48.723  0.00  0.00    +0.000 A 
ATOM      8  C   UNL     1     -13.688  56.525  50.394  0.00  0.00    +0.000 A 
ATOM      9  C   UNL     1     -12.909  56.448  47.737  0.00  0.00    +0.000 A 
ATOM     10  C   UNL     1     -14.586  56.912  49.402  0.00  0.00    +0.000 A 
ATOM     11  C   UNL     1     -14.197  56.869  48.072  0.00  0.00    +0.000 A 
ENDROOT
BRANCH   1  17
ATOM     12  S   UNL     1      -7.049  54.670  53.038  0.00  0.00    +0.000 S 
ATOM     13  O   UNL     1      -6.941  55.640  54.110  0.00  0.00    +0.000 OA
ATOM     14  O   UNL     1      -5.874  54.280  52.284  0.00  0.00    +0.000 OA
ATOM     15  N   UNL     1      -8.158  55.216  51.988  0.00  0.00    +0.000 N 
ATOM     16  C   UNL     1      -7.659  53.197  53.776  0.00  0.00    +0.000 A 
ATOM     17  C   UNL     1      -9.315  54.632  51.870  0.00  0.00    +0.000 C 
ATOM     18  C   UNL     1      -8.951  52.808  53.468  0.00  0.00    +0.000 A 
ATOM     19  C   UNL     1      -6.845  52.453  54.635  0.00  0.00    +0.000 A 
ATOM     20  N   UNL     1      -9.756  53.564  52.621  0.00  0.00    +0.000 N 
ATOM     21  C   UNL     1      -9.466  51.669  54.098  0.00  0.00    +0.000 A 
ATOM     22  C   UNL     1      -7.359  51.302  55.228  0.00  0.00    +0.000 A 
ATOM     23  C   UNL     1      -8.673  50.915  54.966  0.00  0.00    +0.000 A 
ATOM     24  H   UNL     1      -7.952  56.001  51.431  0.00  0.00    +0.000 HD
ATOM     25  H   UNL     1     -10.707  53.318  52.552  0.00  0.00    +0.000 HD
ENDBRANCH   1  17
BRANCH   3  26
ATOM     26  O   UNL     1     -11.955  55.736  52.414  0.00  0.00    +0.000 OA
ATOM     27  H   UNL     1     -11.933  56.549  52.878  0.00  0.00    +0.000 HD
ENDBRANCH   3  26
BRANCH   5  28
ATOM     28  C   UNL     1     -10.181  55.632  47.007  0.00  0.00    +0.000 C 
BRANCH  28  29
ATOM     29  C   UNL     1     -10.455  54.338  46.222  0.00  0.00    +0.000 C 
BRANCH  29  30
ATOM     30  C   UNL     1      -9.237  53.622  45.615  0.00  0.00    +0.000 C 
ATOM     31  C   UNL     1      -9.534  53.012  44.247  0.00  0.00    +0.000 C 
ATOM     32  C   UNL     1      -8.088  54.632  45.489  0.00  0.00    +0.000 C 
ENDBRANCH  29  30
ENDBRANCH  28  29
ENDBRANCH   5  28
TORSDOF 5
ENDMDL
MODEL 7
REMARK VINA RESULT:      -7.7      2.562      3.303
REMARK  Name = 298159
REMARK  7 active torsions:
REMARK  status: ('A' for Active; 'I' for Inactive)
REMARK    1  A    between atoms: C_6  and  C_10
REMARK    2  A    between atoms: C_14  and  O_18
REMARK    3  A    between atoms: N_17  and  C_21
REMARK    4  A    between atoms: C_21  and  C_24
REMARK    5  A    between atoms: C_24  and  C_27
REMARK    6  A    between atoms: C_27  and  C_28
REMARK    7  A    between atoms: C_27  and  C_29
REMARK                            x       y       z     vdW  Elec       q    Type
REMARK                         _______ _______ _______ _____ _____    ______ ____
ROOT
ATOM      1  C   UNL     1     -10.919  55.660  48.612  0.00  0.00    +0.000 A 
ATOM      2  C   UNL     1     -11.322  55.211  47.244  0.00  0.00    +0.000 A 
ATOM      3  C   UNL     1      -9.656  55.475  49.035  0.00  0.00    +0.000 A 
ATOM      4  O   UNL     1     -12.451  55.510  46.843  0.00  0.00    +0.000 OA
ATOM      5  N   UNL     1     -10.409  54.495  46.476  0.00  0.00    +0.000 N 
ATOM      6  C   UNL     1      -8.661  54.847  48.152  0.00  0.00    +0.000 A 
ATOM      7  C   UNL     1      -9.043  54.378  46.883  0.00  0.00    +0.000 A 
ATOM      8  C   UNL     1      -7.318  54.731  48.558  0.00  0.00    +0.000 A 
ATOM      9  C   UNL     1      -8.056  53.844  46.040  0.00  0.00    +0.000 A 
ATOM     10  C   UNL     1      -6.359  54.171  47.717  0.00  0.00    +0.000 A 
ATOM     11  C   UNL     1      -6.728  53.731  46.455  0.00  0.00    +0.000 A 
ENDROOT
BRANCH   1  17
ATOM     12  S   UNL     1     -13.560  56.381  51.435  0.00  0.00    +0.000 S 
ATOM     13  O   UNL     1     -12.957  56.682  52.719  0.00  0.00    +0.000 OA
ATOM     14  O   UNL     1     -14.732  55.531  51.360  0.00  0.00    +0.000 OA
ATOM     15  N   UNL     1     -12.412  55.734  50.489  0.00  0.00    +0.000 N 
ATOM     16  C   UNL     1     -14.041  57.926  50.751  0.00  0.00    +0.000 A 
ATOM     17  C   UNL     1     -11.933  56.390  49.473  0.00  0.00    +0.000 C 
ATOM     18  C   UNL     1     -13.339  58.391  49.652  0.00  0.00    +0.000 A 
ATOM     19  C   UNL     1     -15.105  58.641  51.308  0.00  0.00    +0.000 A 
ATOM     20  N   UNL     1     -12.273  57.677  49.114  0.00  0.00    +0.000 N 
ATOM     21  C   UNL     1     -13.675  59.649  49.137  0.00  0.00    +0.000 A 
ATOM     22  C   UNL     1     -15.452  59.875  50.764  0.00  0.00    +0.000 A 
ATOM     23  C   UNL     1     -14.730  60.383  49.684  0.00  0.00    +0.000 A 
ATOM     24  H   UNL     1     -12.074  54.831  50.687  0.00  0.00    +0.000 HD
ATOM     25  H   UNL     1     -11.723  58.120  48.428  0.00  0.00    +0.000 HD
ENDBRANCH   1  17
BRANCH   3  26
ATOM     26  O   UNL     1      -9.176  55.887  50.266  0.00  0.00    +0.000 OA
ATOM     27  H   UNL     1      -9.698  56.441  50.811  0.00  0.00    +0.000 HD
ENDBRANCH   3  26
BRANCH   5  28
ATOM     28  C   UNL     1     -10.858  54.006  45.165  0.00  0.00    +0.000 C 
BRANCH  28  29
ATOM     29  C   UNL     1     -11.322  52.540  45.115  0.00  0.00    +0.000 C 
BRANCH  29  30
ATOM     30  C   UNL     1     -10.673  51.642  44.047  0.00  0.00    +0.000 C 
ATOM     31  C   UNL     1      -9.916  52.440  42.989  0.00  0.00    +0.000 C 
ATOM     32  C   UNL     1      -9.712  50.669  44.744  0.00  0.00    +0.000 C 
ENDBRANCH  29  30
ENDBRANCH  28  29
ENDBRANCH   5  28
TORSDOF 5
ENDMDL
MODEL 8
REMARK VINA RESULT:      -7.7      3.659      4.409
REMARK  Name = 298159
REMARK  7 active torsions:
REMARK  status: ('A' for Active; 'I' for Inactive)
REMARK    1  A    between atoms: C_6  and  C_10
REMARK    2  A    between atoms: C_14  and  O_18
REMARK    3  A    between atoms: N_17  and  C_21
REMARK    4  A    between atoms: C_21  and  C_24
REMARK    5  A    between atoms: C_24  and  C_27
REMARK    6  A    between atoms: C_27  and  C_28
REMARK    7  A    between atoms: C_27  and  C_29
REMARK                            x       y       z     vdW  Elec       q    Type
REMARK                         _______ _______ _______ _____ _____    ______ ____
ROOT
ATOM      1  C   UNL     1     -10.110  54.525  52.156  0.00  0.00    +0.000 A 
ATOM      2  C   UNL     1      -8.712  55.055  52.133  0.00  0.00    +0.000 A 
ATOM      3  C   UNL     1     -10.393  53.409  52.850  0.00  0.00    +0.000 A 
ATOM      4  O   UNL     1      -8.514  56.148  51.594  0.00  0.00    +0.000 OA
ATOM      5  N   UNL     1      -7.701  54.311  52.733  0.00  0.00    +0.000 N 
ATOM      6  C   UNL     1      -9.338  52.712  53.602  0.00  0.00    +0.000 A 
ATOM      7  C   UNL     1      -8.012  53.177  53.547  0.00  0.00    +0.000 A 
ATOM      8  C   UNL     1      -9.648  51.595  54.400  0.00  0.00    +0.000 A 
ATOM      9  C   UNL     1      -7.042  52.530  54.328  0.00  0.00    +0.000 A 
ATOM     10  C   UNL     1      -8.664  50.948  55.145  0.00  0.00    +0.000 A 
ATOM     11  C   UNL     1      -7.361  51.420  55.112  0.00  0.00    +0.000 A 
ENDROOT
BRANCH   1  17
ATOM     12  S   UNL     1     -13.465  56.482  51.539  0.00  0.00    +0.000 S 
ATOM     13  O   UNL     1     -13.410  57.863  51.976  0.00  0.00    +0.000 OA
ATOM     14  O   UNL     1     -14.651  55.685  51.782  0.00  0.00    +0.000 OA
ATOM     15  N   UNL     1     -12.199  55.706  52.191  0.00  0.00    +0.000 N 
ATOM     16  C   UNL     1     -13.258  56.516  49.794  0.00  0.00    +0.000 A 
ATOM     17  C   UNL     1     -11.204  55.308  51.454  0.00  0.00    +0.000 C 
ATOM     18  C   UNL     1     -12.075  56.020  49.275  0.00  0.00    +0.000 A 
ATOM     19  C   UNL     1     -14.272  57.024  48.977  0.00  0.00    +0.000 A 
ATOM     20  N   UNL     1     -11.068  55.529  50.100  0.00  0.00    +0.000 N 
ATOM     21  C   UNL     1     -11.876  56.098  47.892  0.00  0.00    +0.000 A 
ATOM     22  C   UNL     1     -14.075  57.064  47.598  0.00  0.00    +0.000 A 
ATOM     23  C   UNL     1     -12.873  56.610  47.057  0.00  0.00    +0.000 A 
ATOM     24  H   UNL     1     -12.184  55.533  53.160  0.00  0.00    +0.000 HD
ATOM     25  H   UNL     1     -10.197  55.323  49.688  0.00  0.00    +0.000 HD
ENDBRANCH   1  17
BRANCH   3  26
ATOM     26  O   UNL     1     -11.659  52.859  52.964  0.00  0.00    +0.000 OA
ATOM     27  H   UNL     1     -11.771  52.018  53.360  0.00  0.00    +0.000 HD
ENDBRANCH   3  26
BRANCH   5  28
ATOM     28  C   UNL     1      -6.328  54.822  52.632  0.00  0.00    +0.000 C 
BRANCH  28  29
ATOM     29  C   UNL     1      -5.388  54.051  51.690  0.00  0.00    +0.000 C 
BRANCH  29  30
ATOM     30  C   UNL     1      -5.800  53.968  50.211  0.00  0.00    +0.000 C 
ATOM     31  C   UNL     1      -5.738  55.321  49.506  0.00  0.00    +0.000 C 
ATOM     32  C   UNL     1      -4.874  52.973  49.499  0.00  0.00    +0.000 C 
ENDBRANCH  29  30
ENDBRANCH  28  29
ENDBRANCH   5  28
TORSDOF 5
ENDMDL
MODEL 9
REMARK VINA RESULT:      -7.7      4.421      7.905
REMARK  Name = 298159
REMARK  7 active torsions:
REMARK  status: ('A' for Active; 'I' for Inactive)
REMARK    1  A    between atoms: C_6  and  C_10
REMARK    2  A    between atoms: C_14  and  O_18
REMARK    3  A    between atoms: N_17  and  C_21
REMARK    4  A    between atoms: C_21  and  C_24
REMARK    5  A    between atoms: C_24  and  C_27
REMARK    6  A    between atoms: C_27  and  C_28
REMARK    7  A    between atoms: C_27  and  C_29
REMARK                            x       y       z     vdW  Elec       q    Type
REMARK                         _______ _______ _______ _____ _____    ______ ____
ROOT
ATOM      1  C   UNL     1     -10.039  55.018  50.417  0.00  0.00    +0.000 A 
ATOM      2  C   UNL     1     -11.108  55.301  51.424  0.00  0.00    +0.000 A 
ATOM      3  C   UNL     1     -10.267  55.251  49.112  0.00  0.00    +0.000 A 
ATOM      4  O   UNL     1     -10.822  55.195  52.620  0.00  0.00    +0.000 OA
ATOM      5  N   UNL     1     -12.368  55.686  50.976  0.00  0.00    +0.000 N 
ATOM      6  C   UNL     1     -11.558  55.800  48.669  0.00  0.00    +0.000 A 
ATOM      7  C   UNL     1     -12.585  56.023  49.603  0.00  0.00    +0.000 A 
ATOM      8  C   UNL     1     -11.768  56.128  47.316  0.00  0.00    +0.000 A 
ATOM      9  C   UNL     1     -13.780  56.609  49.158  0.00  0.00    +0.000 A 
ATOM     10  C   UNL     1     -12.973  56.681  46.890  0.00  0.00    +0.000 A 
ATOM     11  C   UNL     1     -13.979  56.925  47.813  0.00  0.00    +0.000 A 
ENDROOT
BRANCH   1  17
ATOM     12  S   UNL     1      -6.802  52.823  50.823  0.00  0.00    +0.000 S 
ATOM     13  O   UNL     1      -5.824  53.048  49.776  0.00  0.00    +0.000 OA
ATOM     14  O   UNL     1      -7.071  51.479  51.295  0.00  0.00    +0.000 OA
ATOM     15  N   UNL     1      -8.206  53.472  50.335  0.00  0.00    +0.000 N 
ATOM     16  C   UNL     1      -6.230  53.719  52.222  0.00  0.00    +0.000 A 
ATOM     17  C   UNL     1      -8.682  54.542  50.901  0.00  0.00    +0.000 C 
ATOM     18  C   UNL     1      -6.944  54.841  52.605  0.00  0.00    +0.000 A 
ATOM     19  C   UNL     1      -5.095  53.289  52.916  0.00  0.00    +0.000 A 
ATOM     20  N   UNL     1      -8.066  55.265  51.899  0.00  0.00    +0.000 N 
ATOM     21  C   UNL     1      -6.463  55.595  53.682  0.00  0.00    +0.000 A 
ATOM     22  C   UNL     1      -4.647  54.030  54.006  0.00  0.00    +0.000 A 
ATOM     23  C   UNL     1      -5.325  55.188  54.383  0.00  0.00    +0.000 A 
ATOM     24  H   UNL     1      -8.705  53.049  49.600  0.00  0.00    +0.000 HD
ATOM     25  H   UNL     1      -8.447  56.144  52.129  0.00  0.00    +0.000 HD
ENDBRANCH   1  17
BRANCH   3  26
ATOM     26  O   UNL     1      -9.332  55.058  48.109  0.00  0.00    +0.000 OA
ATOM     27  H   UNL     1      -9.258  55.679  47.412  0.00  0.00    +0.000 HD
ENDBRANCH   3  26
BRANCH   5  28
ATOM     28  C   UNL     1     -13.417  55.888  51.985  0.00  0.00    +0.000 C 
BRANCH  28  29
ATOM     29  C   UNL     1     -13.487  57.289  52.615  0.00  0.00    +0.000 C 
BRANCH  29  30
ATOM     30  C   UNL     1     -14.864  57.974  52.635  0.00  0.00    +0.000 C 
ATOM     31  C   UNL     1     -14.916  59.217  51.750  0.00  0.00    +0.000 C 
ATOM     32  C   UNL     1     -15.920  56.964  52.166  0.00  0.00    +0.000 C 
ENDBRANCH  29  30
ENDBRANCH  28  29
ENDBRANCH   5  28
TORSDOF 5
ENDMDL
