MODEL 1
REMARK VINA RESULT:      -9.2      0.000      0.000
REMARK  Name = 338125
REMARK  3 active torsions:
REMARK  status: ('A' for Active; 'I' for Inactive)
REMARK    1  A    between atoms: C_6  and  C_10
REMARK    2  A    between atoms: C_14  and  O_18
REMARK    3  A    between atoms: N_17  and  C_21
REMARK                            x       y       z     vdW  Elec       q    Type
REMARK                         _______ _______ _______ _____ _____    ______ ____
ROOT
ATOM      1  C   UNL     1     -12.443  54.315  49.563  0.00  0.00    +0.000 A 
ATOM      2  C   UNL     1     -11.836  54.326  48.199  0.00  0.00    +0.000 A 
ATOM      3  C   UNL     1     -12.220  53.283  50.394  0.00  0.00    +0.000 A 
ATOM      4  O   UNL     1     -12.006  55.332  47.503  0.00  0.00    +0.000 OA
ATOM      5  N   UNL     1     -11.136  53.197  47.786  0.00  0.00    +0.000 N 
ATOM      6  C   UNL     1     -11.365  52.160  49.982  0.00  0.00    +0.000 A 
ATOM      7  C   UNL     1     -10.837  52.120  48.678  0.00  0.00    +0.000 A 
ATOM      8  C   UNL     1     -11.043  51.145  50.900  0.00  0.00    +0.000 A 
ATOM      9  C   UNL     1      -9.963  51.072  48.342  0.00  0.00    +0.000 A 
ATOM     10  C   UNL     1     -10.175  50.115  50.550  0.00  0.00    +0.000 A 
ATOM     11  C   UNL     1      -9.631  50.083  49.273  0.00  0.00    +0.000 A 
ENDROOT
BRANCH   1  17
ATOM     12  S   UNL     1     -15.343  56.430  51.149  0.00  0.00    +0.000 S 
ATOM     13  O   UNL     1     -15.211  56.494  52.594  0.00  0.00    +0.000 OA
ATOM     14  O   UNL     1     -16.647  56.247  50.541  0.00  0.00    +0.000 OA
ATOM     15  N   UNL     1     -14.375  55.246  50.625  0.00  0.00    +0.000 N 
ATOM     16  C   UNL     1     -14.727  57.954  50.536  0.00  0.00    +0.000 A 
ATOM     17  C   UNL     1     -13.257  55.510  50.016  0.00  0.00    +0.000 C 
ATOM     18  C   UNL     1     -13.501  57.943  49.889  0.00  0.00    +0.000 A 
ATOM     19  C   UNL     1     -15.474  59.123  50.696  0.00  0.00    +0.000 A 
ATOM     20  N   UNL     1     -12.765  56.770  49.749  0.00  0.00    +0.000 N 
ATOM     21  C   UNL     1     -12.977  59.162  49.447  0.00  0.00    +0.000 A 
ATOM     22  C   UNL     1     -14.954  60.325  50.220  0.00  0.00    +0.000 A 
ATOM     23  C   UNL     1     -13.701  60.345  49.605  0.00  0.00    +0.000 A 
ATOM     24  H   UNL     1     -14.636  54.309  50.771  0.00  0.00    +0.000 HD
ATOM     25  H   UNL     1     -11.833  56.845  49.440  0.00  0.00    +0.000 HD
ENDBRANCH   1  17
BRANCH   5  26
ATOM     26  C   UNL     1     -10.646  53.168  46.450  0.00  0.00    +0.000 A 
ATOM     27  C   UNL     1     -11.395  52.538  45.448  0.00  0.00    +0.000 A 
ATOM     28  C   UNL     1      -9.359  53.637  46.153  0.00  0.00    +0.000 A 
ATOM     29  C   UNL     1     -10.873  52.383  44.164  0.00  0.00    +0.000 A 
ATOM     30  C   UNL     1      -8.832  53.466  44.869  0.00  0.00    +0.000 A 
ATOM     31  C   UNL     1      -9.589  52.841  43.877  0.00  0.00    +0.000 A 
ENDBRANCH   5  26
BRANCH   3  32
ATOM     32  O   UNL     1     -12.708  53.201  51.687  0.00  0.00    +0.000 OA
ATOM     33  H   UNL     1     -12.245  52.704  52.332  0.00  0.00    +0.000 HD
ENDBRANCH   3  32
TORSDOF 3
ENDMDL
MODEL 2
REMARK VINA RESULT:      -9.0      4.467      5.829
REMARK  Name = 338125
REMARK  3 active torsions:
REMARK  status: ('A' for Active; 'I' for Inactive)
REMARK    1  A    between atoms: C_6  and  C_10
REMARK    2  A    between atoms: C_14  and  O_18
REMARK    3  A    between atoms: N_17  and  C_21
REMARK                            x       y       z     vdW  Elec       q    Type
REMARK                         _______ _______ _______ _____ _____    ______ ____
ROOT
ATOM      1  C   UNL     1     -10.268  54.122  52.425  0.00  0.00    +0.000 A 
ATOM      2  C   UNL     1      -8.865  54.621  52.537  0.00  0.00    +0.000 A 
ATOM      3  C   UNL     1     -10.634  52.989  53.048  0.00  0.00    +0.000 A 
ATOM      4  O   UNL     1      -8.598  55.707  52.012  0.00  0.00    +0.000 OA
ATOM      5  N   UNL     1      -7.940  53.825  53.204  0.00  0.00    +0.000 N 
ATOM      6  C   UNL     1      -9.668  52.234  53.859  0.00  0.00    +0.000 A 
ATOM      7  C   UNL     1      -8.326  52.652  53.924  0.00  0.00    +0.000 A 
ATOM      8  C   UNL     1     -10.091  51.117  54.601  0.00  0.00    +0.000 A 
ATOM      9  C   UNL     1      -7.447  51.952  54.768  0.00  0.00    +0.000 A 
ATOM     10  C   UNL     1      -9.207  50.436  55.432  0.00  0.00    +0.000 A 
ATOM     11  C   UNL     1      -7.887  50.858  55.520  0.00  0.00    +0.000 A 
ENDROOT
BRANCH   1  17
ATOM     12  S   UNL     1     -12.129  55.842  49.429  0.00  0.00    +0.000 S 
ATOM     13  O   UNL     1     -12.983  54.895  48.734  0.00  0.00    +0.000 OA
ATOM     14  O   UNL     1     -11.341  56.802  48.681  0.00  0.00    +0.000 OA
ATOM     15  N   UNL     1     -11.123  54.991  50.366  0.00  0.00    +0.000 N 
ATOM     16  C   UNL     1     -13.185  56.780  50.468  0.00  0.00    +0.000 A 
ATOM     17  C   UNL     1     -11.282  54.944  51.656  0.00  0.00    +0.000 C 
ATOM     18  C   UNL     1     -13.128  56.544  51.833  0.00  0.00    +0.000 A 
ATOM     19  C   UNL     1     -14.038  57.737  49.915  0.00  0.00    +0.000 A 
ATOM     20  N   UNL     1     -12.280  55.576  52.366  0.00  0.00    +0.000 N 
ATOM     21  C   UNL     1     -14.007  57.246  52.663  0.00  0.00    +0.000 A 
ATOM     22  C   UNL     1     -14.884  58.455  50.758  0.00  0.00    +0.000 A 
ATOM     23  C   UNL     1     -14.875  58.201  52.131  0.00  0.00    +0.000 A 
ATOM     24  H   UNL     1     -10.379  54.499  49.953  0.00  0.00    +0.000 HD
ATOM     25  H   UNL     1     -12.401  55.328  53.311  0.00  0.00    +0.000 HD
ENDBRANCH   1  17
BRANCH   5  26
ATOM     26  C   UNL     1      -6.582  54.253  53.221  0.00  0.00    +0.000 A 
ATOM     27  C   UNL     1      -5.707  53.831  52.211  0.00  0.00    +0.000 A 
ATOM     28  C   UNL     1      -6.076  54.974  54.311  0.00  0.00    +0.000 A 
ATOM     29  C   UNL     1      -4.347  54.130  52.282  0.00  0.00    +0.000 A 
ATOM     30  C   UNL     1      -4.709  55.259  54.387  0.00  0.00    +0.000 A 
ATOM     31  C   UNL     1      -3.847  54.837  53.373  0.00  0.00    +0.000 A 
ENDBRANCH   5  26
BRANCH   3  32
ATOM     32  O   UNL     1     -11.917  52.469  53.033  0.00  0.00    +0.000 OA
ATOM     33  H   UNL     1     -12.198  51.935  52.316  0.00  0.00    +0.000 HD
ENDBRANCH   3  32
TORSDOF 3
ENDMDL
MODEL 3
REMARK VINA RESULT:      -8.8      2.937      4.471
REMARK  Name = 338125
REMARK  3 active torsions:
REMARK  status: ('A' for Active; 'I' for Inactive)
REMARK    1  A    between atoms: C_6  and  C_10
REMARK    2  A    between atoms: C_14  and  O_18
REMARK    3  A    between atoms: N_17  and  C_21
REMARK                            x       y       z     vdW  Elec       q    Type
REMARK                         _______ _______ _______ _____ _____    ______ ____
ROOT
ATOM      1  C   UNL     1     -11.491  56.147  48.663  0.00  0.00    +0.000 A 
ATOM      2  C   UNL     1     -10.276  55.692  49.402  0.00  0.00    +0.000 A 
ATOM      3  C   UNL     1     -11.731  55.701  47.419  0.00  0.00    +0.000 A 
ATOM      4  O   UNL     1     -10.140  56.068  50.571  0.00  0.00    +0.000 OA
ATOM      5  N   UNL     1      -9.360  54.893  48.726  0.00  0.00    +0.000 N 
ATOM      6  C   UNL     1     -10.814  54.750  46.773  0.00  0.00    +0.000 A 
ATOM      7  C   UNL     1      -9.630  54.360  47.427  0.00  0.00    +0.000 A 
ATOM      8  C   UNL     1     -11.136  54.200  45.520  0.00  0.00    +0.000 A 
ATOM      9  C   UNL     1      -8.815  53.392  46.815  0.00  0.00    +0.000 A 
ATOM     10  C   UNL     1     -10.317  53.242  44.929  0.00  0.00    +0.000 A 
ATOM     11  C   UNL     1      -9.161  52.835  45.580  0.00  0.00    +0.000 A 
ENDROOT
BRANCH   1  17
ATOM     12  S   UNL     1     -13.601  59.341  49.526  0.00  0.00    +0.000 S 
ATOM     13  O   UNL     1     -14.745  59.464  48.640  0.00  0.00    +0.000 OA
ATOM     14  O   UNL     1     -12.828  60.512  49.890  0.00  0.00    +0.000 OA
ATOM     15  N   UNL     1     -12.593  58.261  48.869  0.00  0.00    +0.000 N 
ATOM     16  C   UNL     1     -14.216  58.674  51.027  0.00  0.00    +0.000 A 
ATOM     17  C   UNL     1     -12.476  57.063  49.361  0.00  0.00    +0.000 C 
ATOM     18  C   UNL     1     -13.911  57.355  51.323  0.00  0.00    +0.000 A 
ATOM     19  C   UNL     1     -14.975  59.472  51.885  0.00  0.00    +0.000 A 
ATOM     20  N   UNL     1     -13.162  56.570  50.449  0.00  0.00    +0.000 N 
ATOM     21  C   UNL     1     -14.445  56.799  52.490  0.00  0.00    +0.000 A 
ATOM     22  C   UNL     1     -15.472  58.915  53.061  0.00  0.00    +0.000 A 
ATOM     23  C   UNL     1     -15.215  57.575  53.358  0.00  0.00    +0.000 A 
ATOM     24  H   UNL     1     -12.059  58.514  48.083  0.00  0.00    +0.000 HD
ATOM     25  H   UNL     1     -13.121  55.602  50.621  0.00  0.00    +0.000 HD
ENDBRANCH   1  17
BRANCH   5  26
ATOM     26  C   UNL     1      -8.154  54.545  49.398  0.00  0.00    +0.000 A 
ATOM     27  C   UNL     1      -8.156  53.501  50.333  0.00  0.00    +0.000 A 
ATOM     28  C   UNL     1      -7.000  55.325  49.242  0.00  0.00    +0.000 A 
ATOM     29  C   UNL     1      -7.020  53.233  51.097  0.00  0.00    +0.000 A 
ATOM     30  C   UNL     1      -5.868  55.063  50.020  0.00  0.00    +0.000 A 
ATOM     31  C   UNL     1      -5.880  54.018  50.945  0.00  0.00    +0.000 A 
ENDBRANCH   5  26
BRANCH   3  32
ATOM     32  O   UNL     1     -12.847  56.036  46.671  0.00  0.00    +0.000 OA
ATOM     33  H   UNL     1     -13.433  56.701  46.975  0.00  0.00    +0.000 HD
ENDBRANCH   3  32
TORSDOF 3
ENDMDL
MODEL 4
REMARK VINA RESULT:      -8.6      3.917      7.847
REMARK  Name = 338125
REMARK  3 active torsions:
REMARK  status: ('A' for Active; 'I' for Inactive)
REMARK    1  A    between atoms: C_6  and  C_10
REMARK    2  A    between atoms: C_14  and  O_18
REMARK    3  A    between atoms: N_17  and  C_21
REMARK                            x       y       z     vdW  Elec       q    Type
REMARK                         _______ _______ _______ _____ _____    ______ ____
ROOT
ATOM      1  C   UNL     1     -10.699  54.732  50.721  0.00  0.00    +0.000 A 
ATOM      2  C   UNL     1     -11.682  55.600  51.436  0.00  0.00    +0.000 A 
ATOM      3  C   UNL     1     -10.719  54.652  49.381  0.00  0.00    +0.000 A 
ATOM      4  O   UNL     1     -11.573  55.702  52.662  0.00  0.00    +0.000 OA
ATOM      5  N   UNL     1     -12.673  56.222  50.684  0.00  0.00    +0.000 N 
ATOM      6  C   UNL     1     -11.694  55.425  48.597  0.00  0.00    +0.000 A 
ATOM      7  C   UNL     1     -12.670  56.198  49.255  0.00  0.00    +0.000 A 
ATOM      8  C   UNL     1     -11.630  55.425  47.193  0.00  0.00    +0.000 A 
ATOM      9  C   UNL     1     -13.537  56.983  48.477  0.00  0.00    +0.000 A 
ATOM     10  C   UNL     1     -12.497  56.210  46.438  0.00  0.00    +0.000 A 
ATOM     11  C   UNL     1     -13.446  56.993  47.081  0.00  0.00    +0.000 A 
ENDROOT
BRANCH   1  17
ATOM     12  S   UNL     1      -8.636  51.800  52.315  0.00  0.00    +0.000 S 
ATOM     13  O   UNL     1      -7.706  51.234  51.353  0.00  0.00    +0.000 OA
ATOM     14  O   UNL     1      -9.381  50.935  53.209  0.00  0.00    +0.000 OA
ATOM     15  N   UNL     1      -9.696  52.701  51.493  0.00  0.00    +0.000 N 
ATOM     16  C   UNL     1      -7.690  52.864  53.339  0.00  0.00    +0.000 A 
ATOM     17  C   UNL     1      -9.643  54.000  51.525  0.00  0.00    +0.000 C 
ATOM     18  C   UNL     1      -7.855  54.231  53.181  0.00  0.00    +0.000 A 
ATOM     19  C   UNL     1      -6.815  52.325  54.286  0.00  0.00    +0.000 A 
ATOM     20  N   UNL     1      -8.722  54.750  52.223  0.00  0.00    +0.000 N 
ATOM     21  C   UNL     1      -7.063  55.086  53.953  0.00  0.00    +0.000 A 
ATOM     22  C   UNL     1      -6.058  53.190  55.073  0.00  0.00    +0.000 A 
ATOM     23  C   UNL     1      -6.175  54.570  54.899  0.00  0.00    +0.000 A 
ATOM     24  H   UNL     1     -10.393  52.259  50.958  0.00  0.00    +0.000 HD
ATOM     25  H   UNL     1      -8.674  55.715  52.034  0.00  0.00    +0.000 HD
ENDBRANCH   1  17
BRANCH   5  26
ATOM     26  C   UNL     1     -13.669  56.966  51.379  0.00  0.00    +0.000 A 
ATOM     27  C   UNL     1     -13.476  58.333  51.617  0.00  0.00    +0.000 A 
ATOM     28  C   UNL     1     -14.773  56.318  51.950  0.00  0.00    +0.000 A 
ATOM     29  C   UNL     1     -14.374  59.048  52.408  0.00  0.00    +0.000 A 
ATOM     30  C   UNL     1     -15.664  57.035  52.755  0.00  0.00    +0.000 A 
ATOM     31  C   UNL     1     -15.464  58.397  52.983  0.00  0.00    +0.000 A 
ENDBRANCH   5  26
BRANCH   3  32
ATOM     32  O   UNL     1      -9.827  53.906  48.629  0.00  0.00    +0.000 OA
ATOM     33  H   UNL     1     -10.145  53.318  47.972  0.00  0.00    +0.000 HD
ENDBRANCH   3  32
TORSDOF 3
ENDMDL
MODEL 5
REMARK VINA RESULT:      -8.5      2.586      4.084
REMARK  Name = 338125
REMARK  3 active torsions:
REMARK  status: ('A' for Active; 'I' for Inactive)
REMARK    1  A    between atoms: C_6  and  C_10
REMARK    2  A    between atoms: C_14  and  O_18
REMARK    3  A    between atoms: N_17  and  C_21
REMARK                            x       y       z     vdW  Elec       q    Type
REMARK                         _______ _______ _______ _____ _____    ______ ____
ROOT
ATOM      1  C   UNL     1     -10.828  55.502  48.594  0.00  0.00    +0.000 A 
ATOM      2  C   UNL     1      -9.536  55.091  49.219  0.00  0.00    +0.000 A 
ATOM      3  C   UNL     1     -11.100  55.165  47.322  0.00  0.00    +0.000 A 
ATOM      4  O   UNL     1      -9.366  55.357  50.414  0.00  0.00    +0.000 OA
ATOM      5  N   UNL     1      -8.594  54.456  48.417  0.00  0.00    +0.000 N 
ATOM      6  C   UNL     1     -10.143  54.376  46.534  0.00  0.00    +0.000 A 
ATOM      7  C   UNL     1      -8.892  54.034  47.084  0.00  0.00    +0.000 A 
ATOM      8  C   UNL     1     -10.488  53.929  45.247  0.00  0.00    +0.000 A 
ATOM      9  C   UNL     1      -8.032  53.216  46.332  0.00  0.00    +0.000 A 
ATOM     10  C   UNL     1      -9.623  53.118  44.517  0.00  0.00    +0.000 A 
ATOM     11  C   UNL     1      -8.399  52.757  45.063  0.00  0.00    +0.000 A 
ENDROOT
BRANCH   1  17
ATOM     12  S   UNL     1     -13.487  56.249  51.381  0.00  0.00    +0.000 S 
ATOM     13  O   UNL     1     -12.844  56.534  52.651  0.00  0.00    +0.000 OA
ATOM     14  O   UNL     1     -14.680  55.426  51.334  0.00  0.00    +0.000 OA
ATOM     15  N   UNL     1     -12.378  55.578  50.415  0.00  0.00    +0.000 N 
ATOM     16  C   UNL     1     -13.937  57.802  50.702  0.00  0.00    +0.000 A 
ATOM     17  C   UNL     1     -11.848  56.245  49.433  0.00  0.00    +0.000 C 
ATOM     18  C   UNL     1     -13.210  58.271  49.619  0.00  0.00    +0.000 A 
ATOM     19  C   UNL     1     -15.007  58.517  51.246  0.00  0.00    +0.000 A 
ATOM     20  N   UNL     1     -12.139  57.549  49.098  0.00  0.00    +0.000 N 
ATOM     21  C   UNL     1     -13.526  59.534  49.108  0.00  0.00    +0.000 A 
ATOM     22  C   UNL     1     -15.332  59.759  50.704  0.00  0.00    +0.000 A 
ATOM     23  C   UNL     1     -14.584  60.271  49.642  0.00  0.00    +0.000 A 
ATOM     24  H   UNL     1     -12.098  54.648  50.575  0.00  0.00    +0.000 HD
ATOM     25  H   UNL     1     -11.553  58.001  48.449  0.00  0.00    +0.000 HD
ENDBRANCH   1  17
BRANCH   5  26
ATOM     26  C   UNL     1      -7.325  54.157  48.988  0.00  0.00    +0.000 A 
ATOM     27  C   UNL     1      -7.155  52.978  49.726  0.00  0.00    +0.000 A 
ATOM     28  C   UNL     1      -6.284  55.093  48.941  0.00  0.00    +0.000 A 
ATOM     29  C   UNL     1      -5.961  52.731  50.403  0.00  0.00    +0.000 A 
ATOM     30  C   UNL     1      -5.093  54.850  49.634  0.00  0.00    +0.000 A 
ATOM     31  C   UNL     1      -4.934  53.671  50.362  0.00  0.00    +0.000 A 
ENDBRANCH   5  26
BRANCH   3  32
ATOM     32  O   UNL     1     -12.284  55.467  46.670  0.00  0.00    +0.000 OA
ATOM     33  H   UNL     1     -12.729  56.271  46.856  0.00  0.00    +0.000 HD
ENDBRANCH   3  32
TORSDOF 3
ENDMDL
MODEL 6
REMARK VINA RESULT:      -8.5      3.971      7.752
REMARK  Name = 338125
REMARK  3 active torsions:
REMARK  status: ('A' for Active; 'I' for Inactive)
REMARK    1  A    between atoms: C_6  and  C_10
REMARK    2  A    between atoms: C_14  and  O_18
REMARK    3  A    between atoms: N_17  and  C_21
REMARK                            x       y       z     vdW  Elec       q    Type
REMARK                         _______ _______ _______ _____ _____    ______ ____
ROOT
ATOM      1  C   UNL     1      -9.993  54.518  50.762  0.00  0.00    +0.000 A 
ATOM      2  C   UNL     1     -11.167  55.388  51.070  0.00  0.00    +0.000 A 
ATOM      3  C   UNL     1      -9.725  54.170  49.493  0.00  0.00    +0.000 A 
ATOM      4  O   UNL     1     -11.326  55.745  52.242  0.00  0.00    +0.000 OA
ATOM      5  N   UNL     1     -12.022  55.725  50.026  0.00  0.00    +0.000 N 
ATOM      6  C   UNL     1     -10.569  54.649  48.390  0.00  0.00    +0.000 A 
ATOM      7  C   UNL     1     -11.717  55.416  48.664  0.00  0.00    +0.000 A 
ATOM      8  C   UNL     1     -10.211  54.376  47.058  0.00  0.00    +0.000 A 
ATOM      9  C   UNL     1     -12.459  55.921  47.583  0.00  0.00    +0.000 A 
ATOM     10  C   UNL     1     -10.957  54.885  45.999  0.00  0.00    +0.000 A 
ATOM     11  C   UNL     1     -12.076  55.663  46.262  0.00  0.00    +0.000 A 
ENDROOT
BRANCH   1  17
ATOM     12  S   UNL     1      -6.844  54.311  53.094  0.00  0.00    +0.000 S 
ATOM     13  O   UNL     1      -6.826  55.409  54.044  0.00  0.00    +0.000 OA
ATOM     14  O   UNL     1      -5.619  53.887  52.443  0.00  0.00    +0.000 OA
ATOM     15  N   UNL     1      -7.919  54.681  51.945  0.00  0.00    +0.000 N 
ATOM     16  C   UNL     1      -7.439  52.915  53.973  0.00  0.00    +0.000 A 
ATOM     17  C   UNL     1      -9.077  54.092  51.892  0.00  0.00    +0.000 C 
ATOM     18  C   UNL     1      -8.723  52.473  53.694  0.00  0.00    +0.000 A 
ATOM     19  C   UNL     1      -6.621  52.280  54.910  0.00  0.00    +0.000 A 
ATOM     20  N   UNL     1      -9.529  53.126  52.765  0.00  0.00    +0.000 N 
ATOM     21  C   UNL     1      -9.225  51.396  54.431  0.00  0.00    +0.000 A 
ATOM     22  C   UNL     1      -7.123  51.186  55.612  0.00  0.00    +0.000 A 
ATOM     23  C   UNL     1      -8.429  50.751  55.379  0.00  0.00    +0.000 A 
ATOM     24  H   UNL     1      -7.693  55.364  51.274  0.00  0.00    +0.000 HD
ATOM     25  H   UNL     1     -10.481  52.881  52.730  0.00  0.00    +0.000 HD
ENDBRANCH   1  17
BRANCH   5  26
ATOM     26  C   UNL     1     -13.196  56.468  50.339  0.00  0.00    +0.000 A 
ATOM     27  C   UNL     1     -13.174  57.867  50.259  0.00  0.00    +0.000 A 
ATOM     28  C   UNL     1     -14.327  55.828  50.861  0.00  0.00    +0.000 A 
ATOM     29  C   UNL     1     -14.268  58.618  50.688  0.00  0.00    +0.000 A 
ATOM     30  C   UNL     1     -15.417  56.584  51.304  0.00  0.00    +0.000 A 
ATOM     31  C   UNL     1     -15.386  57.977  51.216  0.00  0.00    +0.000 A 
ENDBRANCH   5  26
BRANCH   3  32
ATOM     32  O   UNL     1      -8.640  53.400  49.107  0.00  0.00    +0.000 OA
ATOM     33  H   UNL     1      -8.295  52.751  49.689  0.00  0.00    +0.000 HD
ENDBRANCH   3  32
TORSDOF 3
ENDMDL
MODEL 7
REMARK VINA RESULT:      -8.4      2.278      2.733
REMARK  Name = 338125
REMARK  3 active torsions:
REMARK  status: ('A' for Active; 'I' for Inactive)
REMARK    1  A    between atoms: C_6  and  C_10
REMARK    2  A    between atoms: C_14  and  O_18
REMARK    3  A    between atoms: N_17  and  C_21
REMARK                            x       y       z     vdW  Elec       q    Type
REMARK                         _______ _______ _______ _____ _____    ______ ____
ROOT
ATOM      1  C   UNL     1     -11.391  55.394  49.386  0.00  0.00    +0.000 A 
ATOM      2  C   UNL     1     -11.508  54.801  48.020  0.00  0.00    +0.000 A 
ATOM      3  C   UNL     1     -10.400  55.008  50.206  0.00  0.00    +0.000 A 
ATOM      4  O   UNL     1     -12.387  55.245  47.275  0.00  0.00    +0.000 OA
ATOM      5  N   UNL     1     -10.638  53.772  47.677  0.00  0.00    +0.000 N 
ATOM      6  C   UNL     1      -9.410  54.013  49.771  0.00  0.00    +0.000 A 
ATOM      7  C   UNL     1      -9.540  53.395  48.513  0.00  0.00    +0.000 A 
ATOM      8  C   UNL     1      -8.311  53.705  50.592  0.00  0.00    +0.000 A 
ATOM      9  C   UNL     1      -8.536  52.505  48.097  0.00  0.00    +0.000 A 
ATOM     10  C   UNL     1      -7.325  52.821  50.164  0.00  0.00    +0.000 A 
ATOM     11  C   UNL     1      -7.435  52.227  48.914  0.00  0.00    +0.000 A 
ENDROOT
BRANCH   1  17
ATOM     12  S   UNL     1     -13.361  58.787  49.407  0.00  0.00    +0.000 S 
ATOM     13  O   UNL     1     -14.437  58.771  48.431  0.00  0.00    +0.000 OA
ATOM     14  O   UNL     1     -12.546  59.974  49.578  0.00  0.00    +0.000 OA
ATOM     15  N   UNL     1     -12.378  57.550  49.066  0.00  0.00    +0.000 N 
ATOM     16  C   UNL     1     -14.110  58.480  50.963  0.00  0.00    +0.000 A 
ATOM     17  C   UNL     1     -12.364  56.479  49.802  0.00  0.00    +0.000 C 
ATOM     18  C   UNL     1     -13.902  57.240  51.548  0.00  0.00    +0.000 A 
ATOM     19  C   UNL     1     -14.875  59.474  51.578  0.00  0.00    +0.000 A 
ATOM     20  N   UNL     1     -13.146  56.257  50.915  0.00  0.00    +0.000 N 
ATOM     21  C   UNL     1     -14.542  56.967  52.761  0.00  0.00    +0.000 A 
ATOM     22  C   UNL     1     -15.478  59.199  52.803  0.00  0.00    +0.000 A 
ATOM     23  C   UNL     1     -15.319  57.942  53.390  0.00  0.00    +0.000 A 
ATOM     24  H   UNL     1     -11.780  57.609  48.287  0.00  0.00    +0.000 HD
ATOM     25  H   UNL     1     -13.173  55.346  51.286  0.00  0.00    +0.000 HD
ENDBRANCH   1  17
BRANCH   5  26
ATOM     26  C   UNL     1     -10.817  53.139  46.415  0.00  0.00    +0.000 A 
ATOM     27  C   UNL     1     -11.587  51.972  46.325  0.00  0.00    +0.000 A 
ATOM     28  C   UNL     1     -10.117  53.589  45.287  0.00  0.00    +0.000 A 
ATOM     29  C   UNL     1     -11.666  51.266  45.125  0.00  0.00    +0.000 A 
ATOM     30  C   UNL     1     -10.185  52.870  44.089  0.00  0.00    +0.000 A 
ATOM     31  C   UNL     1     -10.959  51.711  44.010  0.00  0.00    +0.000 A 
ENDBRANCH   5  26
BRANCH   3  32
ATOM     32  O   UNL     1     -10.188  55.527  51.473  0.00  0.00    +0.000 OA
ATOM     33  H   UNL     1     -10.918  55.719  52.029  0.00  0.00    +0.000 HD
ENDBRANCH   3  32
TORSDOF 3
ENDMDL
MODEL 8
REMARK VINA RESULT:      -8.4      4.019      6.862
REMARK  Name = 338125
REMARK  3 active torsions:
REMARK  status: ('A' for Active; 'I' for Inactive)
REMARK    1  A    between atoms: C_6  and  C_10
REMARK    2  A    between atoms: C_14  and  O_18
REMARK    3  A    between atoms: N_17  and  C_21
REMARK                            x       y       z     vdW  Elec       q    Type
REMARK                         _______ _______ _______ _____ _____    ______ ____
ROOT
ATOM      1  C   UNL     1      -9.684  54.562  50.750  0.00  0.00    +0.000 A 
ATOM      2  C   UNL     1      -9.286  54.173  49.364  0.00  0.00    +0.000 A 
ATOM      3  C   UNL     1     -10.765  55.332  50.951  0.00  0.00    +0.000 A 
ATOM      4  O   UNL     1      -8.332  53.399  49.236  0.00  0.00    +0.000 OA
ATOM      5  N   UNL     1      -9.997  54.721  48.302  0.00  0.00    +0.000 N 
ATOM      6  C   UNL     1     -11.581  55.791  49.818  0.00  0.00    +0.000 A 
ATOM      7  C   UNL     1     -11.186  55.490  48.500  0.00  0.00    +0.000 A 
ATOM      8  C   UNL     1     -12.774  56.497  50.047  0.00  0.00    +0.000 A 
ATOM      9  C   UNL     1     -12.029  55.878  47.444  0.00  0.00    +0.000 A 
ATOM     10  C   UNL     1     -13.597  56.873  48.989  0.00  0.00    +0.000 A 
ATOM     11  C   UNL     1     -13.226  56.558  47.689  0.00  0.00    +0.000 A 
ENDROOT
BRANCH   1  17
ATOM     12  S   UNL     1      -6.717  53.966  53.249  0.00  0.00    +0.000 S 
ATOM     13  O   UNL     1      -6.627  55.045  54.216  0.00  0.00    +0.000 OA
ATOM     14  O   UNL     1      -5.515  53.409  52.659  0.00  0.00    +0.000 OA
ATOM     15  N   UNL     1      -7.675  54.470  52.048  0.00  0.00    +0.000 N 
ATOM     16  C   UNL     1      -7.519  52.640  54.071  0.00  0.00    +0.000 A 
ATOM     17  C   UNL     1      -8.889  54.021  51.922  0.00  0.00    +0.000 C 
ATOM     18  C   UNL     1      -8.827  52.353  53.713  0.00  0.00    +0.000 A 
ATOM     19  C   UNL     1      -6.834  51.905  55.041  0.00  0.00    +0.000 A 
ATOM     20  N   UNL     1      -9.498  53.105  52.752  0.00  0.00    +0.000 N 
ATOM     21  C   UNL     1      -9.492  51.335  54.404  0.00  0.00    +0.000 A 
ATOM     22  C   UNL     1      -7.499  50.870  55.696  0.00  0.00    +0.000 A 
ATOM     23  C   UNL     1      -8.831  50.593  55.384  0.00  0.00    +0.000 A 
ATOM     24  H   UNL     1      -7.334  55.128  51.402  0.00  0.00    +0.000 HD
ATOM     25  H   UNL     1     -10.469  52.973  52.661  0.00  0.00    +0.000 HD
ENDBRANCH   1  17
BRANCH   5  26
ATOM     26  C   UNL     1      -9.553  54.430  46.981  0.00  0.00    +0.000 A 
ATOM     27  C   UNL     1     -10.060  53.310  46.308  0.00  0.00    +0.000 A 
ATOM     28  C   UNL     1      -8.513  55.167  46.400  0.00  0.00    +0.000 A 
ATOM     29  C   UNL     1      -9.541  52.933  45.070  0.00  0.00    +0.000 A 
ATOM     30  C   UNL     1      -7.984  54.778  45.165  0.00  0.00    +0.000 A 
ATOM     31  C   UNL     1      -8.499  53.663  44.502  0.00  0.00    +0.000 A 
ENDBRANCH   5  26
BRANCH   3  32
ATOM     32  O   UNL     1     -11.232  55.713  52.198  0.00  0.00    +0.000 OA
ATOM     33  H   UNL     1     -10.644  56.087  52.825  0.00  0.00    +0.000 HD
ENDBRANCH   3  32
TORSDOF 3
ENDMDL
MODEL 9
REMARK VINA RESULT:      -8.4      2.934      3.683
REMARK  Name = 338125
REMARK  3 active torsions:
REMARK  status: ('A' for Active; 'I' for Inactive)
REMARK    1  A    between atoms: C_6  and  C_10
REMARK    2  A    between atoms: C_14  and  O_18
REMARK    3  A    between atoms: N_17  and  C_21
REMARK                            x       y       z     vdW  Elec       q    Type
REMARK                         _______ _______ _______ _____ _____    ______ ____
ROOT
ATOM      1  C   UNL     1     -11.215  54.529  50.760  0.00  0.00    +0.000 A 
ATOM      2  C   UNL     1      -9.808  54.882  50.407  0.00  0.00    +0.000 A 
ATOM      3  C   UNL     1     -11.516  53.289  51.179  0.00  0.00    +0.000 A 
ATOM      4  O   UNL     1      -9.568  56.055  50.104  0.00  0.00    +0.000 OA
ATOM      5  N   UNL     1      -8.857  53.866  50.418  0.00  0.00    +0.000 N 
ATOM      6  C   UNL     1     -10.468  52.266  51.310  0.00  0.00    +0.000 A 
ATOM      7  C   UNL     1      -9.147  52.559  50.920  0.00  0.00    +0.000 A 
ATOM      8  C   UNL     1     -10.773  51.009  51.860  0.00  0.00    +0.000 A 
ATOM      9  C   UNL     1      -8.156  51.586  51.130  0.00  0.00    +0.000 A 
ATOM     10  C   UNL     1      -9.778  50.057  52.061  0.00  0.00    +0.000 A 
ATOM     11  C   UNL     1      -8.469  50.349  51.701  0.00  0.00    +0.000 A 
ENDROOT
BRANCH   1  17
ATOM     12  S   UNL     1     -13.612  57.289  49.333  0.00  0.00    +0.000 S 
ATOM     13  O   UNL     1     -14.764  56.691  48.682  0.00  0.00    +0.000 OA
ATOM     14  O   UNL     1     -12.950  58.436  48.741  0.00  0.00    +0.000 OA
ATOM     15  N   UNL     1     -12.509  56.123  49.532  0.00  0.00    +0.000 N 
ATOM     16  C   UNL     1     -14.158  57.803  50.918  0.00  0.00    +0.000 A 
ATOM     17  C   UNL     1     -12.280  55.606  50.702  0.00  0.00    +0.000 C 
ATOM     18  C   UNL     1     -13.730  57.075  52.018  0.00  0.00    +0.000 A 
ATOM     19  C   UNL     1     -14.986  58.920  51.042  0.00  0.00    +0.000 A 
ATOM     20  N   UNL     1     -12.914  55.956  51.874  0.00  0.00    +0.000 N 
ATOM     21  C   UNL     1     -14.207  57.444  53.280  0.00  0.00    +0.000 A 
ATOM     22  C   UNL     1     -15.426  59.296  52.310  0.00  0.00    +0.000 A 
ATOM     23  C   UNL     1     -15.044  58.552  53.427  0.00  0.00    +0.000 A 
ATOM     24  H   UNL     1     -12.003  55.800  48.753  0.00  0.00    +0.000 HD
ATOM     25  H   UNL     1     -12.782  55.379  52.661  0.00  0.00    +0.000 HD
ENDBRANCH   1  17
BRANCH   5  26
ATOM     26  C   UNL     1      -7.539  54.182  49.983  0.00  0.00    +0.000 A 
ATOM     27  C   UNL     1      -7.196  54.026  48.633  0.00  0.00    +0.000 A 
ATOM     28  C   UNL     1      -6.541  54.511  50.911  0.00  0.00    +0.000 A 
ATOM     29  C   UNL     1      -5.879  54.203  48.212  0.00  0.00    +0.000 A 
ATOM     30  C   UNL     1      -5.218  54.672  50.488  0.00  0.00    +0.000 A 
ATOM     31  C   UNL     1      -4.889  54.519  49.140  0.00  0.00    +0.000 A 
ENDBRANCH   5  26
BRANCH   3  32
ATOM     32  O   UNL     1     -12.782  52.879  51.563  0.00  0.00    +0.000 OA
ATOM     33  H   UNL     1     -12.945  52.636  52.454  0.00  0.00    +0.000 HD
ENDBRANCH   3  32
TORSDOF 3
ENDMDL
