MODEL 1
REMARK VINA RESULT:      -8.3      0.000      0.000
REMARK  Name = 338241
REMARK  8 active torsions:
REMARK  status: ('A' for Active; 'I' for Inactive)
REMARK    1  A    between atoms: C_6  and  C_10
REMARK    2  A    between atoms: C_14  and  O_18
REMARK    3  A    between atoms: N_17  and  C_21
REMARK    4  A    between atoms: C_21  and  C_24
REMARK    5  A    between atoms: C_24  and  C_27
REMARK    6  A    between atoms: C_25  and  O_28
REMARK    7  A    between atoms: C_27  and  C_29
REMARK    8  A    between atoms: C_27  and  C_30
REMARK                            x       y       z     vdW  Elec       q    Type
REMARK                         _______ _______ _______ _____ _____    ______ ____
ROOT
ATOM      1  C   UNL     1     -10.180  54.368  52.281  0.00  0.00    +0.000 A 
ATOM      2  C   UNL     1      -8.786  54.906  52.219  0.00  0.00    +0.000 A 
ATOM      3  C   UNL     1     -10.441  53.255  52.989  0.00  0.00    +0.000 A 
ATOM      4  O   UNL     1      -8.606  55.989  51.654  0.00  0.00    +0.000 OA
ATOM      5  N   UNL     1      -7.760  54.181  52.815  0.00  0.00    +0.000 N 
ATOM      6  C   UNL     1      -9.365  52.569  53.721  0.00  0.00    +0.000 A 
ATOM      7  C   UNL     1      -8.045  53.053  53.646  0.00  0.00    +0.000 A 
ATOM      8  C   UNL     1      -9.652  51.442  54.515  0.00  0.00    +0.000 A 
ATOM      9  C   UNL     1      -7.055  52.424  54.417  0.00  0.00    +0.000 A 
ATOM     10  C   UNL     1      -8.641  50.815  55.238  0.00  0.00    +0.000 A 
ATOM     11  C   UNL     1      -7.346  51.305  55.198  0.00  0.00    +0.000 A 
ENDROOT
BRANCH   1  17
ATOM     12  S   UNL     1     -12.360  55.999  49.447  0.00  0.00    +0.000 S 
ATOM     13  O   UNL     1     -13.240  55.055  48.790  0.00  0.00    +0.000 OA
ATOM     14  O   UNL     1     -11.644  56.994  48.670  0.00  0.00    +0.000 OA
ATOM     15  N   UNL     1     -11.271  55.153  50.294  0.00  0.00    +0.000 N 
ATOM     16  C   UNL     1     -13.364  56.899  50.574  0.00  0.00    +0.000 A 
ATOM     17  C   UNL     1     -11.294  55.137  51.594  0.00  0.00    +0.000 C 
ATOM     18  C   UNL     1     -13.171  56.678  51.927  0.00  0.00    +0.000 A 
ATOM     19  C   UNL     1     -14.313  57.809  50.097  0.00  0.00    +0.000 A 
ATOM     20  N   UNL     1     -12.232  55.760  52.387  0.00  0.00    +0.000 N 
ATOM     21  C   UNL     1     -14.007  57.345  52.830  0.00  0.00    +0.000 A 
ATOM     22  C   UNL     1     -15.112  58.495  51.010  0.00  0.00    +0.000 A 
ATOM     23  C   UNL     1     -14.965  58.256  52.376  0.00  0.00    +0.000 A 
ATOM     24  H   UNL     1     -10.578  54.642  49.818  0.00  0.00    +0.000 HD
ATOM     25  H   UNL     1     -12.240  55.539  53.347  0.00  0.00    +0.000 HD
ENDBRANCH   1  17
BRANCH   3  26
ATOM     26  O   UNL     1     -11.699  52.697  53.135  0.00  0.00    +0.000 OA
ATOM     27  H   UNL     1     -12.077  52.610  53.988  0.00  0.00    +0.000 HD
ENDBRANCH   3  26
BRANCH  10  28
ATOM     28  O   UNL     1      -8.883  49.723  56.009  0.00  0.00    +0.000 OA
ATOM     29  H   UNL     1      -8.478  48.903  55.802  0.00  0.00    +0.000 HD
ENDBRANCH  10  28
BRANCH   5  30
ATOM     30  C   UNL     1      -6.392  54.698  52.679  0.00  0.00    +0.000 C 
BRANCH  30  31
ATOM     31  C   UNL     1      -5.565  54.132  51.512  0.00  0.00    +0.000 C 
BRANCH  31  32
ATOM     32  C   UNL     1      -4.179  53.560  51.852  0.00  0.00    +0.000 C 
ATOM     33  C   UNL     1      -3.848  53.669  53.340  0.00  0.00    +0.000 C 
ATOM     34  C   UNL     1      -4.136  52.087  51.423  0.00  0.00    +0.000 C 
ENDBRANCH  31  32
ENDBRANCH  30  31
ENDBRANCH   5  30
TORSDOF 6
ENDMDL
MODEL 2
REMARK VINA RESULT:      -8.1      4.767      6.466
REMARK  Name = 338241
REMARK  8 active torsions:
REMARK  status: ('A' for Active; 'I' for Inactive)
REMARK    1  A    between atoms: C_6  and  C_10
REMARK    2  A    between atoms: C_14  and  O_18
REMARK    3  A    between atoms: N_17  and  C_21
REMARK    4  A    between atoms: C_21  and  C_24
REMARK    5  A    between atoms: C_24  and  C_27
REMARK    6  A    between atoms: C_25  and  O_28
REMARK    7  A    between atoms: C_27  and  C_29
REMARK    8  A    between atoms: C_27  and  C_30
REMARK                            x       y       z     vdW  Elec       q    Type
REMARK                         _______ _______ _______ _____ _____    ______ ____
ROOT
ATOM      1  C   UNL     1     -11.453  56.326  48.480  0.00  0.00    +0.000 A 
ATOM      2  C   UNL     1     -11.867  55.687  47.193  0.00  0.00    +0.000 A 
ATOM      3  C   UNL     1     -10.192  56.185  48.926  0.00  0.00    +0.000 A 
ATOM      4  O   UNL     1     -12.997  55.932  46.760  0.00  0.00    +0.000 OA
ATOM      5  N   UNL     1     -10.961  54.868  46.529  0.00  0.00    +0.000 N 
ATOM      6  C   UNL     1      -9.207  55.419  48.146  0.00  0.00    +0.000 A 
ATOM      7  C   UNL     1      -9.596  54.792  46.947  0.00  0.00    +0.000 A 
ATOM      8  C   UNL     1      -7.871  55.328  48.581  0.00  0.00    +0.000 A 
ATOM      9  C   UNL     1      -8.617  54.135  46.186  0.00  0.00    +0.000 A 
ATOM     10  C   UNL     1      -6.931  54.635  47.825  0.00  0.00    +0.000 A 
ATOM     11  C   UNL     1      -7.296  54.045  46.626  0.00  0.00    +0.000 A 
ENDROOT
BRANCH   1  17
ATOM     12  S   UNL     1     -13.653  59.419  49.501  0.00  0.00    +0.000 S 
ATOM     13  O   UNL     1     -14.838  59.571  48.682  0.00  0.00    +0.000 OA
ATOM     14  O   UNL     1     -12.872  60.581  49.880  0.00  0.00    +0.000 OA
ATOM     15  N   UNL     1     -12.664  58.378  48.752  0.00  0.00    +0.000 N 
ATOM     16  C   UNL     1     -14.192  58.688  51.006  0.00  0.00    +0.000 A 
ATOM     17  C   UNL     1     -12.456  57.187  49.228  0.00  0.00    +0.000 C 
ATOM     18  C   UNL     1     -13.816  57.379  51.258  0.00  0.00    +0.000 A 
ATOM     19  C   UNL     1     -14.964  59.426  51.908  0.00  0.00    +0.000 A 
ATOM     20  N   UNL     1     -13.058  56.652  50.345  0.00  0.00    +0.000 N 
ATOM     21  C   UNL     1     -14.290  56.770  52.425  0.00  0.00    +0.000 A 
ATOM     22  C   UNL     1     -15.397  58.818  53.085  0.00  0.00    +0.000 A 
ATOM     23  C   UNL     1     -15.067  57.487  53.338  0.00  0.00    +0.000 A 
ATOM     24  H   UNL     1     -12.212  58.653  47.922  0.00  0.00    +0.000 HD
ATOM     25  H   UNL     1     -12.944  55.688  50.509  0.00  0.00    +0.000 HD
ENDBRANCH   1  17
BRANCH   3  26
ATOM     26  O   UNL     1      -9.703  56.762  50.085  0.00  0.00    +0.000 OA
ATOM     27  H   UNL     1      -9.662  56.263  50.876  0.00  0.00    +0.000 HD
ENDBRANCH   3  26
BRANCH  10  28
ATOM     28  O   UNL     1      -5.635  54.524  48.218  0.00  0.00    +0.000 OA
ATOM     29  H   UNL     1      -5.414  53.994  48.958  0.00  0.00    +0.000 HD
ENDBRANCH  10  28
BRANCH   5  30
ATOM     30  C   UNL     1     -11.418  54.199  45.303  0.00  0.00    +0.000 C 
BRANCH  30  31
ATOM     31  C   UNL     1     -11.797  52.714  45.441  0.00  0.00    +0.000 C 
BRANCH  31  32
ATOM     32  C   UNL     1     -11.158  51.736  44.441  0.00  0.00    +0.000 C 
ATOM     33  C   UNL     1     -10.268  52.440  43.419  0.00  0.00    +0.000 C 
ATOM     34  C   UNL     1     -10.329  50.707  45.222  0.00  0.00    +0.000 C 
ENDBRANCH  31  32
ENDBRANCH  30  31
ENDBRANCH   5  30
TORSDOF 6
ENDMDL
MODEL 3
REMARK VINA RESULT:      -8.1      3.607      5.720
REMARK  Name = 338241
REMARK  8 active torsions:
REMARK  status: ('A' for Active; 'I' for Inactive)
REMARK    1  A    between atoms: C_6  and  C_10
REMARK    2  A    between atoms: C_14  and  O_18
REMARK    3  A    between atoms: N_17  and  C_21
REMARK    4  A    between atoms: C_21  and  C_24
REMARK    5  A    between atoms: C_24  and  C_27
REMARK    6  A    between atoms: C_25  and  O_28
REMARK    7  A    between atoms: C_27  and  C_29
REMARK    8  A    between atoms: C_27  and  C_30
REMARK                            x       y       z     vdW  Elec       q    Type
REMARK                         _______ _______ _______ _____ _____    ______ ____
ROOT
ATOM      1  C   UNL     1     -11.764  56.053  48.653  0.00  0.00    +0.000 A 
ATOM      2  C   UNL     1     -10.650  55.423  49.428  0.00  0.00    +0.000 A 
ATOM      3  C   UNL     1     -11.978  55.697  47.374  0.00  0.00    +0.000 A 
ATOM      4  O   UNL     1     -10.554  55.692  50.629  0.00  0.00    +0.000 OA
ATOM      5  N   UNL     1      -9.787  54.551  48.774  0.00  0.00    +0.000 N 
ATOM      6  C   UNL     1     -11.134  54.675  46.733  0.00  0.00    +0.000 A 
ATOM      7  C   UNL     1     -10.068  54.098  47.447  0.00  0.00    +0.000 A 
ATOM      8  C   UNL     1     -11.402  54.256  45.416  0.00  0.00    +0.000 A 
ATOM      9  C   UNL     1      -9.330  53.071  46.837  0.00  0.00    +0.000 A 
ATOM     10  C   UNL     1     -10.628  53.264  44.823  0.00  0.00    +0.000 A 
ATOM     11  C   UNL     1      -9.598  52.665  45.530  0.00  0.00    +0.000 A 
ENDROOT
BRANCH   1  17
ATOM     12  S   UNL     1     -13.644  59.390  49.531  0.00  0.00    +0.000 S 
ATOM     13  O   UNL     1     -14.798  59.633  48.689  0.00  0.00    +0.000 OA
ATOM     14  O   UNL     1     -12.752  60.479  49.880  0.00  0.00    +0.000 OA
ATOM     15  N   UNL     1     -12.759  58.227  48.834  0.00  0.00    +0.000 N 
ATOM     16  C   UNL     1     -14.272  58.774  51.052  0.00  0.00    +0.000 A 
ATOM     17  C   UNL     1     -12.680  57.039  49.355  0.00  0.00    +0.000 C 
ATOM     18  C   UNL     1     -14.036  57.444  51.356  0.00  0.00    +0.000 A 
ATOM     19  C   UNL     1     -14.974  59.621  51.917  0.00  0.00    +0.000 A 
ATOM     20  N   UNL     1     -13.347  56.610  50.481  0.00  0.00    +0.000 N 
ATOM     21  C   UNL     1     -14.584  56.930  52.537  0.00  0.00    +0.000 A 
ATOM     22  C   UNL     1     -15.481  59.104  53.108  0.00  0.00    +0.000 A 
ATOM     23  C   UNL     1     -15.293  57.756  53.413  0.00  0.00    +0.000 A 
ATOM     24  H   UNL     1     -12.272  58.423  48.002  0.00  0.00    +0.000 HD
ATOM     25  H   UNL     1     -13.335  55.646  50.681  0.00  0.00    +0.000 HD
ENDBRANCH   1  17
BRANCH   3  26
ATOM     26  O   UNL     1     -13.000  56.195  46.584  0.00  0.00    +0.000 OA
ATOM     27  H   UNL     1     -13.209  57.108  46.610  0.00  0.00    +0.000 HD
ENDBRANCH   3  26
BRANCH  10  28
ATOM     28  O   UNL     1     -10.856  52.839  43.552  0.00  0.00    +0.000 OA
ATOM     29  H   UNL     1     -10.650  51.958  43.309  0.00  0.00    +0.000 HD
ENDBRANCH  10  28
BRANCH   5  30
ATOM     30  C   UNL     1      -8.662  54.001  49.542  0.00  0.00    +0.000 C 
BRANCH  30  31
ATOM     31  C   UNL     1      -7.348  54.799  49.487  0.00  0.00    +0.000 C 
BRANCH  31  32
ATOM     32  C   UNL     1      -6.921  55.530  50.771  0.00  0.00    +0.000 C 
ATOM     33  C   UNL     1      -7.514  56.934  50.871  0.00  0.00    +0.000 C 
ATOM     34  C   UNL     1      -7.364  54.697  51.981  0.00  0.00    +0.000 C 
ENDBRANCH  31  32
ENDBRANCH  30  31
ENDBRANCH   5  30
TORSDOF 6
ENDMDL
MODEL 4
REMARK VINA RESULT:      -7.8      1.521      2.208
REMARK  Name = 338241
REMARK  8 active torsions:
REMARK  status: ('A' for Active; 'I' for Inactive)
REMARK    1  A    between atoms: C_6  and  C_10
REMARK    2  A    between atoms: C_14  and  O_18
REMARK    3  A    between atoms: N_17  and  C_21
REMARK    4  A    between atoms: C_21  and  C_24
REMARK    5  A    between atoms: C_24  and  C_27
REMARK    6  A    between atoms: C_25  and  O_28
REMARK    7  A    between atoms: C_27  and  C_29
REMARK    8  A    between atoms: C_27  and  C_30
REMARK                            x       y       z     vdW  Elec       q    Type
REMARK                         _______ _______ _______ _____ _____    ______ ____
ROOT
ATOM      1  C   UNL     1     -10.167  54.474  52.242  0.00  0.00    +0.000 A 
ATOM      2  C   UNL     1      -8.767  54.999  52.233  0.00  0.00    +0.000 A 
ATOM      3  C   UNL     1     -10.458  53.349  52.919  0.00  0.00    +0.000 A 
ATOM      4  O   UNL     1      -8.561  56.092  51.696  0.00  0.00    +0.000 OA
ATOM      5  N   UNL     1      -7.766  54.253  52.845  0.00  0.00    +0.000 N 
ATOM      6  C   UNL     1      -9.411  52.638  53.670  0.00  0.00    +0.000 A 
ATOM      7  C   UNL     1      -8.085  53.112  53.644  0.00  0.00    +0.000 A 
ATOM      8  C   UNL     1      -9.731  51.499  54.432  0.00  0.00    +0.000 A 
ATOM      9  C   UNL     1      -7.124  52.459  54.432  0.00  0.00    +0.000 A 
ATOM     10  C   UNL     1      -8.748  50.848  55.172  0.00  0.00    +0.000 A 
ATOM     11  C   UNL     1      -7.448  51.328  55.180  0.00  0.00    +0.000 A 
ENDROOT
BRANCH   1  17
ATOM     12  S   UNL     1     -13.496  56.470  51.631  0.00  0.00    +0.000 S 
ATOM     13  O   UNL     1     -13.422  57.850  52.066  0.00  0.00    +0.000 OA
ATOM     14  O   UNL     1     -14.692  55.688  51.884  0.00  0.00    +0.000 OA
ATOM     15  N   UNL     1     -12.239  55.680  52.277  0.00  0.00    +0.000 N 
ATOM     16  C   UNL     1     -13.298  56.498  49.885  0.00  0.00    +0.000 A 
ATOM     17  C   UNL     1     -11.253  55.266  51.538  0.00  0.00    +0.000 C 
ATOM     18  C   UNL     1     -12.124  55.983  49.362  0.00  0.00    +0.000 A 
ATOM     19  C   UNL     1     -14.310  57.018  49.072  0.00  0.00    +0.000 A 
ATOM     20  N   UNL     1     -11.120  55.480  50.184  0.00  0.00    +0.000 N 
ATOM     21  C   UNL     1     -11.932  56.055  47.977  0.00  0.00    +0.000 A 
ATOM     22  C   UNL     1     -14.120  57.048  47.691  0.00  0.00    +0.000 A 
ATOM     23  C   UNL     1     -12.927  56.575  47.146  0.00  0.00    +0.000 A 
ATOM     24  H   UNL     1     -12.222  55.509  53.246  0.00  0.00    +0.000 HD
ATOM     25  H   UNL     1     -10.254  55.263  49.769  0.00  0.00    +0.000 HD
ENDBRANCH   1  17
BRANCH   3  26
ATOM     26  O   UNL     1     -11.725  52.800  53.017  0.00  0.00    +0.000 OA
ATOM     27  H   UNL     1     -12.162  52.490  52.248  0.00  0.00    +0.000 HD
ENDBRANCH   3  26
BRANCH  10  28
ATOM     28  O   UNL     1      -9.022  49.743  55.914  0.00  0.00    +0.000 OA
ATOM     29  H   UNL     1      -8.971  48.893  55.524  0.00  0.00    +0.000 HD
ENDBRANCH  10  28
BRANCH   5  30
ATOM     30  C   UNL     1      -6.389  54.761  52.760  0.00  0.00    +0.000 C 
BRANCH  30  31
ATOM     31  C   UNL     1      -5.536  54.218  51.602  0.00  0.00    +0.000 C 
BRANCH  31  32
ATOM     32  C   UNL     1      -4.230  53.496  51.976  0.00  0.00    +0.000 C 
ATOM     33  C   UNL     1      -3.848  53.699  53.441  0.00  0.00    +0.000 C 
ATOM     34  C   UNL     1      -4.397  51.998  51.691  0.00  0.00    +0.000 C 
ENDBRANCH  31  32
ENDBRANCH  30  31
ENDBRANCH   5  30
TORSDOF 6
ENDMDL
MODEL 5
REMARK VINA RESULT:      -7.8      3.653      4.940
REMARK  Name = 338241
REMARK  8 active torsions:
REMARK  status: ('A' for Active; 'I' for Inactive)
REMARK    1  A    between atoms: C_6  and  C_10
REMARK    2  A    between atoms: C_14  and  O_18
REMARK    3  A    between atoms: N_17  and  C_21
REMARK    4  A    between atoms: C_21  and  C_24
REMARK    5  A    between atoms: C_24  and  C_27
REMARK    6  A    between atoms: C_25  and  O_28
REMARK    7  A    between atoms: C_27  and  C_29
REMARK    8  A    between atoms: C_27  and  C_30
REMARK                            x       y       z     vdW  Elec       q    Type
REMARK                         _______ _______ _______ _____ _____    ______ ____
ROOT
ATOM      1  C   UNL     1     -12.223  54.243  50.254  0.00  0.00    +0.000 A 
ATOM      2  C   UNL     1     -11.938  53.842  48.842  0.00  0.00    +0.000 A 
ATOM      3  C   UNL     1     -11.664  53.564  51.272  0.00  0.00    +0.000 A 
ATOM      4  O   UNL     1     -12.378  54.556  47.935  0.00  0.00    +0.000 OA
ATOM      5  N   UNL     1     -11.176  52.702  48.609  0.00  0.00    +0.000 N 
ATOM      6  C   UNL     1     -10.756  52.438  51.006  0.00  0.00    +0.000 A 
ATOM      7  C   UNL     1     -10.504  52.037  49.681  0.00  0.00    +0.000 A 
ATOM      8  C   UNL     1     -10.120  51.771  52.071  0.00  0.00    +0.000 A 
ATOM      9  C   UNL     1      -9.573  51.011  49.456  0.00  0.00    +0.000 A 
ATOM     10  C   UNL     1      -9.232  50.730  51.819  0.00  0.00    +0.000 A 
ATOM     11  C   UNL     1      -8.950  50.352  50.516  0.00  0.00    +0.000 A 
ENDROOT
BRANCH   1  17
ATOM     12  S   UNL     1     -15.289  56.453  51.330  0.00  0.00    +0.000 S 
ATOM     13  O   UNL     1     -15.346  56.692  52.758  0.00  0.00    +0.000 OA
ATOM     14  O   UNL     1     -16.501  56.157  50.590  0.00  0.00    +0.000 OA
ATOM     15  N   UNL     1     -14.242  55.246  51.073  0.00  0.00    +0.000 N 
ATOM     16  C   UNL     1     -14.634  57.919  50.617  0.00  0.00    +0.000 A 
ATOM     17  C   UNL     1     -13.091  55.462  50.509  0.00  0.00    +0.000 C 
ATOM     18  C   UNL     1     -13.358  57.861  50.082  0.00  0.00    +0.000 A 
ATOM     19  C   UNL     1     -15.398  59.090  50.592  0.00  0.00    +0.000 A 
ATOM     20  N   UNL     1     -12.604  56.692  50.124  0.00  0.00    +0.000 N 
ATOM     21  C   UNL     1     -12.806  59.038  49.565  0.00  0.00    +0.000 A 
ATOM     22  C   UNL     1     -14.848  60.246  50.039  0.00  0.00    +0.000 A 
ATOM     23  C   UNL     1     -13.548  60.221  49.534  0.00  0.00    +0.000 A 
ATOM     24  H   UNL     1     -14.481  54.332  51.347  0.00  0.00    +0.000 HD
ATOM     25  H   UNL     1     -11.657  56.748  49.862  0.00  0.00    +0.000 HD
ENDBRANCH   1  17
BRANCH   3  26
ATOM     26  O   UNL     1     -11.839  53.876  52.609  0.00  0.00    +0.000 OA
ATOM     27  H   UNL     1     -11.986  54.765  52.868  0.00  0.00    +0.000 HD
ENDBRANCH   3  26
BRANCH  10  28
ATOM     28  O   UNL     1      -8.605  50.063  52.823  0.00  0.00    +0.000 OA
ATOM     29  H   UNL     1      -8.244  49.212  52.666  0.00  0.00    +0.000 HD
ENDBRANCH  10  28
BRANCH   5  30
ATOM     30  C   UNL     1     -10.970  52.294  47.212  0.00  0.00    +0.000 C 
BRANCH  30  31
ATOM     31  C   UNL     1      -9.716  52.854  46.519  0.00  0.00    +0.000 C 
BRANCH  31  32
ATOM     32  C   UNL     1      -9.930  53.616  45.201  0.00  0.00    +0.000 C 
ATOM     33  C   UNL     1      -8.922  53.220  44.124  0.00  0.00    +0.000 C 
ATOM     34  C   UNL     1     -11.354  53.341  44.699  0.00  0.00    +0.000 C 
ENDBRANCH  31  32
ENDBRANCH  30  31
ENDBRANCH   5  30
TORSDOF 6
ENDMDL
MODEL 6
REMARK VINA RESULT:      -7.8      3.290      7.526
REMARK  Name = 338241
REMARK  8 active torsions:
REMARK  status: ('A' for Active; 'I' for Inactive)
REMARK    1  A    between atoms: C_6  and  C_10
REMARK    2  A    between atoms: C_14  and  O_18
REMARK    3  A    between atoms: N_17  and  C_21
REMARK    4  A    between atoms: C_21  and  C_24
REMARK    5  A    between atoms: C_24  and  C_27
REMARK    6  A    between atoms: C_25  and  O_28
REMARK    7  A    between atoms: C_27  and  C_29
REMARK    8  A    between atoms: C_27  and  C_30
REMARK                            x       y       z     vdW  Elec       q    Type
REMARK                         _______ _______ _______ _____ _____    ______ ____
ROOT
ATOM      1  C   UNL     1     -10.201  55.189  50.938  0.00  0.00    +0.000 A 
ATOM      2  C   UNL     1      -9.866  55.150  49.481  0.00  0.00    +0.000 A 
ATOM      3  C   UNL     1     -11.416  55.607  51.337  0.00  0.00    +0.000 A 
ATOM      4  O   UNL     1      -8.784  54.656  49.148  0.00  0.00    +0.000 OA
ATOM      5  N   UNL     1     -10.788  55.646  48.566  0.00  0.00    +0.000 N 
ATOM      6  C   UNL     1     -12.428  56.009  50.347  0.00  0.00    +0.000 A 
ATOM      7  C   UNL     1     -12.111  55.999  48.976  0.00  0.00    +0.000 A 
ATOM      8  C   UNL     1     -13.721  56.382  50.763  0.00  0.00    +0.000 A 
ATOM      9  C   UNL     1     -13.120  56.312  48.052  0.00  0.00    +0.000 A 
ATOM     10  C   UNL     1     -14.689  56.727  49.826  0.00  0.00    +0.000 A 
ATOM     11  C   UNL     1     -14.397  56.686  48.472  0.00  0.00    +0.000 A 
ENDROOT
BRANCH   1  17
ATOM     12  S   UNL     1      -6.841  54.830  52.943  0.00  0.00    +0.000 S 
ATOM     13  O   UNL     1      -6.694  55.818  53.991  0.00  0.00    +0.000 OA
ATOM     14  O   UNL     1      -5.707  54.475  52.109  0.00  0.00    +0.000 OA
ATOM     15  N   UNL     1      -8.040  55.315  51.970  0.00  0.00    +0.000 N 
ATOM     16  C   UNL     1      -7.337  53.344  53.739  0.00  0.00    +0.000 A 
ATOM     17  C   UNL     1      -9.178  54.688  51.941  0.00  0.00    +0.000 C 
ATOM     18  C   UNL     1      -8.632  52.901  53.527  0.00  0.00    +0.000 A 
ATOM     19  C   UNL     1      -6.435  52.644  54.547  0.00  0.00    +0.000 A 
ATOM     20  N   UNL     1      -9.523  53.614  52.731  0.00  0.00    +0.000 N 
ATOM     21  C   UNL     1      -9.054  51.752  54.205  0.00  0.00    +0.000 A 
ATOM     22  C   UNL     1      -6.859  51.480  55.185  0.00  0.00    +0.000 A 
ATOM     23  C   UNL     1      -8.172  51.039  55.021  0.00  0.00    +0.000 A 
ATOM     24  H   UNL     1      -7.906  56.099  51.391  0.00  0.00    +0.000 HD
ATOM     25  H   UNL     1     -10.466  53.331  52.733  0.00  0.00    +0.000 HD
ENDBRANCH   1  17
BRANCH   3  26
ATOM     26  O   UNL     1     -11.834  55.650  52.656  0.00  0.00    +0.000 OA
ATOM     27  H   UNL     1     -11.997  54.854  53.122  0.00  0.00    +0.000 HD
ENDBRANCH   3  26
BRANCH  10  28
ATOM     28  O   UNL     1     -15.944  57.096  50.193  0.00  0.00    +0.000 OA
ATOM     29  H   UNL     1     -16.445  57.666  49.643  0.00  0.00    +0.000 HD
ENDBRANCH  10  28
BRANCH   5  30
ATOM     30  C   UNL     1     -10.403  55.657  47.148  0.00  0.00    +0.000 C 
BRANCH  30  31
ATOM     31  C   UNL     1     -10.719  54.381  46.349  0.00  0.00    +0.000 C 
BRANCH  31  32
ATOM     32  C   UNL     1      -9.526  53.630  45.734  0.00  0.00    +0.000 C 
ATOM     33  C   UNL     1      -9.852  53.031  44.367  0.00  0.00    +0.000 C 
ATOM     34  C   UNL     1      -8.348  54.604  45.601  0.00  0.00    +0.000 C 
ENDBRANCH  31  32
ENDBRANCH  30  31
ENDBRANCH   5  30
TORSDOF 6
ENDMDL
MODEL 7
REMARK VINA RESULT:      -7.6      3.937      5.776
REMARK  Name = 338241
REMARK  8 active torsions:
REMARK  status: ('A' for Active; 'I' for Inactive)
REMARK    1  A    between atoms: C_6  and  C_10
REMARK    2  A    between atoms: C_14  and  O_18
REMARK    3  A    between atoms: N_17  and  C_21
REMARK    4  A    between atoms: C_21  and  C_24
REMARK    5  A    between atoms: C_24  and  C_27
REMARK    6  A    between atoms: C_25  and  O_28
REMARK    7  A    between atoms: C_27  and  C_29
REMARK    8  A    between atoms: C_27  and  C_30
REMARK                            x       y       z     vdW  Elec       q    Type
REMARK                         _______ _______ _______ _____ _____    ______ ____
ROOT
ATOM      1  C   UNL     1     -11.019  55.374  48.473  0.00  0.00    +0.000 A 
ATOM      2  C   UNL     1      -9.724  54.886  49.039  0.00  0.00    +0.000 A 
ATOM      3  C   UNL     1     -11.360  55.063  47.209  0.00  0.00    +0.000 A 
ATOM      4  O   UNL     1      -9.498  55.096  50.235  0.00  0.00    +0.000 OA
ATOM      5  N   UNL     1      -8.844  54.202  48.208  0.00  0.00    +0.000 N 
ATOM      6  C   UNL     1     -10.474  54.229  46.382  0.00  0.00    +0.000 A 
ATOM      7  C   UNL     1      -9.241  53.788  46.899  0.00  0.00    +0.000 A 
ATOM      8  C   UNL     1     -10.863  53.849  45.083  0.00  0.00    +0.000 A 
ATOM      9  C   UNL     1      -8.454  52.930  46.116  0.00  0.00    +0.000 A 
ATOM     10  C   UNL     1     -10.043  53.030  44.314  0.00  0.00    +0.000 A 
ATOM     11  C   UNL     1      -8.844  52.562  44.828  0.00  0.00    +0.000 A 
ENDROOT
BRANCH   1  17
ATOM     12  S   UNL     1     -13.488  56.239  51.405  0.00  0.00    +0.000 S 
ATOM     13  O   UNL     1     -12.812  56.530  52.653  0.00  0.00    +0.000 OA
ATOM     14  O   UNL     1     -14.695  55.434  51.399  0.00  0.00    +0.000 OA
ATOM     15  N   UNL     1     -12.418  55.537  50.414  0.00  0.00    +0.000 N 
ATOM     16  C   UNL     1     -13.942  57.793  50.723  0.00  0.00    +0.000 A 
ATOM     17  C   UNL     1     -11.963  56.158  49.367  0.00  0.00    +0.000 C 
ATOM     18  C   UNL     1     -13.278  58.215  49.582  0.00  0.00    +0.000 A 
ATOM     19  C   UNL     1     -14.949  58.556  51.321  0.00  0.00    +0.000 A 
ATOM     20  N   UNL     1     -12.269  57.451  49.004  0.00  0.00    +0.000 N 
ATOM     21  C   UNL     1     -13.591  59.477  49.067  0.00  0.00    +0.000 A 
ATOM     22  C   UNL     1     -15.277  59.795  50.774  0.00  0.00    +0.000 A 
ATOM     23  C   UNL     1     -14.591  60.259  49.651  0.00  0.00    +0.000 A 
ATOM     24  H   UNL     1     -12.106  54.624  50.608  0.00  0.00    +0.000 HD
ATOM     25  H   UNL     1     -11.737  57.863  48.286  0.00  0.00    +0.000 HD
ENDBRANCH   1  17
BRANCH   3  26
ATOM     26  O   UNL     1     -12.548  55.437  46.605  0.00  0.00    +0.000 OA
ATOM     27  H   UNL     1     -12.631  56.287  46.220  0.00  0.00    +0.000 HD
ENDBRANCH   3  26
BRANCH  10  28
ATOM     28  O   UNL     1     -10.386  52.649  43.056  0.00  0.00    +0.000 OA
ATOM     29  H   UNL     1      -9.728  52.337  42.465  0.00  0.00    +0.000 HD
ENDBRANCH  10  28
BRANCH   5  30
ATOM     30  C   UNL     1      -7.550  53.795  48.773  0.00  0.00    +0.000 C 
BRANCH  30  31
ATOM     31  C   UNL     1      -6.423  54.840  48.710  0.00  0.00    +0.000 C 
BRANCH  31  32
ATOM     32  C   UNL     1      -4.979  54.314  48.784  0.00  0.00    +0.000 C 
ATOM     33  C   UNL     1      -4.614  53.796  50.173  0.00  0.00    +0.000 C 
ATOM     34  C   UNL     1      -4.814  53.188  47.755  0.00  0.00    +0.000 C 
ENDBRANCH  31  32
ENDBRANCH  30  31
ENDBRANCH   5  30
TORSDOF 6
ENDMDL
MODEL 8
REMARK VINA RESULT:      -7.6      3.746      7.792
REMARK  Name = 338241
REMARK  8 active torsions:
REMARK  status: ('A' for Active; 'I' for Inactive)
REMARK    1  A    between atoms: C_6  and  C_10
REMARK    2  A    between atoms: C_14  and  O_18
REMARK    3  A    between atoms: N_17  and  C_21
REMARK    4  A    between atoms: C_21  and  C_24
REMARK    5  A    between atoms: C_24  and  C_27
REMARK    6  A    between atoms: C_25  and  O_28
REMARK    7  A    between atoms: C_27  and  C_29
REMARK    8  A    between atoms: C_27  and  C_30
REMARK                            x       y       z     vdW  Elec       q    Type
REMARK                         _______ _______ _______ _____ _____    ______ ____
ROOT
ATOM      1  C   UNL     1      -9.441  54.897  50.392  0.00  0.00    +0.000 A 
ATOM      2  C   UNL     1      -8.949  54.643  49.003  0.00  0.00    +0.000 A 
ATOM      3  C   UNL     1     -10.643  55.469  50.585  0.00  0.00    +0.000 A 
ATOM      4  O   UNL     1      -7.893  54.016  48.867  0.00  0.00    +0.000 OA
ATOM      5  N   UNL     1      -9.704  55.100  47.929  0.00  0.00    +0.000 N 
ATOM      6  C   UNL     1     -11.489  55.831  49.437  0.00  0.00    +0.000 A 
ATOM      7  C   UNL     1     -11.021  55.620  48.127  0.00  0.00    +0.000 A 
ATOM      8  C   UNL     1     -12.774  56.368  49.643  0.00  0.00    +0.000 A 
ATOM      9  C   UNL     1     -11.881  55.903  47.054  0.00  0.00    +0.000 A 
ATOM     10  C   UNL     1     -13.589  56.677  48.558  0.00  0.00    +0.000 A 
ATOM     11  C   UNL     1     -13.151  56.439  47.265  0.00  0.00    +0.000 A 
ENDROOT
BRANCH   1  17
ATOM     12  S   UNL     1      -6.408  54.544  52.866  0.00  0.00    +0.000 S 
ATOM     13  O   UNL     1      -6.336  55.617  53.837  0.00  0.00    +0.000 OA
ATOM     14  O   UNL     1      -5.200  54.051  52.231  0.00  0.00    +0.000 OA
ATOM     15  N   UNL     1      -7.433  55.001  51.699  0.00  0.00    +0.000 N 
ATOM     16  C   UNL     1      -7.104  53.169  53.710  0.00  0.00    +0.000 A 
ATOM     17  C   UNL     1      -8.596  54.436  51.566  0.00  0.00    +0.000 C 
ATOM     18  C   UNL     1      -8.386  52.779  53.360  0.00  0.00    +0.000 A 
ATOM     19  C   UNL     1      -6.366  52.500  54.692  0.00  0.00    +0.000 A 
ATOM     20  N   UNL     1      -9.114  53.461  52.390  0.00  0.00    +0.000 N 
ATOM     21  C   UNL     1      -8.970  51.723  54.068  0.00  0.00    +0.000 A 
ATOM     22  C   UNL     1      -6.947  51.425  55.362  0.00  0.00    +0.000 A 
ATOM     23  C   UNL     1      -8.253  51.043  55.056  0.00  0.00    +0.000 A 
ATOM     24  H   UNL     1      -7.170  55.718  51.079  0.00  0.00    +0.000 HD
ATOM     25  H   UNL     1     -10.065  53.232  52.286  0.00  0.00    +0.000 HD
ENDBRANCH   1  17
BRANCH   3  26
ATOM     26  O   UNL     1     -11.201  55.715  51.828  0.00  0.00    +0.000 OA
ATOM     27  H   UNL     1     -11.769  55.082  52.220  0.00  0.00    +0.000 HD
ENDBRANCH   3  26
BRANCH  10  28
ATOM     28  O   UNL     1     -14.832  57.201  48.720  0.00  0.00    +0.000 OA
ATOM     29  H   UNL     1     -15.015  57.754  49.454  0.00  0.00    +0.000 HD
ENDBRANCH  10  28
BRANCH   5  30
ATOM     30  C   UNL     1      -9.162  54.897  46.579  0.00  0.00    +0.000 C 
BRANCH  30  31
ATOM     31  C   UNL     1      -9.409  53.516  45.948  0.00  0.00    +0.000 C 
BRANCH  31  32
ATOM     32  C   UNL     1     -10.375  53.459  44.752  0.00  0.00    +0.000 C 
ATOM     33  C   UNL     1      -9.771  52.745  43.545  0.00  0.00    +0.000 C 
ATOM     34  C   UNL     1     -11.656  52.736  45.189  0.00  0.00    +0.000 C 
ENDBRANCH  31  32
ENDBRANCH  30  31
ENDBRANCH   5  30
TORSDOF 6
ENDMDL
MODEL 9
REMARK VINA RESULT:      -7.5      4.653      7.241
REMARK  Name = 338241
REMARK  8 active torsions:
REMARK  status: ('A' for Active; 'I' for Inactive)
REMARK    1  A    between atoms: C_6  and  C_10
REMARK    2  A    between atoms: C_14  and  O_18
REMARK    3  A    between atoms: N_17  and  C_21
REMARK    4  A    between atoms: C_21  and  C_24
REMARK    5  A    between atoms: C_24  and  C_27
REMARK    6  A    between atoms: C_25  and  O_28
REMARK    7  A    between atoms: C_27  and  C_29
REMARK    8  A    between atoms: C_27  and  C_30
REMARK                            x       y       z     vdW  Elec       q    Type
REMARK                         _______ _______ _______ _____ _____    ______ ____
ROOT
ATOM      1  C   UNL     1     -10.863  54.441  48.583  0.00  0.00    +0.000 A 
ATOM      2  C   UNL     1     -10.390  54.023  49.939  0.00  0.00    +0.000 A 
ATOM      3  C   UNL     1     -11.886  55.306  48.465  0.00  0.00    +0.000 A 
ATOM      4  O   UNL     1      -9.379  53.318  50.009  0.00  0.00    +0.000 OA
ATOM      5  N   UNL     1     -11.090  54.461  51.058  0.00  0.00    +0.000 N 
ATOM      6  C   UNL     1     -12.535  55.861  49.663  0.00  0.00    +0.000 A 
ATOM      7  C   UNL     1     -12.113  55.452  50.942  0.00  0.00    +0.000 A 
ATOM      8  C   UNL     1     -13.561  56.817  49.538  0.00  0.00    +0.000 A 
ATOM      9  C   UNL     1     -12.697  56.056  52.066  0.00  0.00    +0.000 A 
ATOM     10  C   UNL     1     -14.150  57.369  50.672  0.00  0.00    +0.000 A 
ATOM     11  C   UNL     1     -13.717  56.999  51.935  0.00  0.00    +0.000 A 
ENDROOT
BRANCH   1  17
ATOM     12  S   UNL     1      -8.047  53.949  45.886  0.00  0.00    +0.000 S 
ATOM     13  O   UNL     1      -6.995  53.052  46.317  0.00  0.00    +0.000 OA
ATOM     14  O   UNL     1      -7.721  55.165  45.165  0.00  0.00    +0.000 OA
ATOM     15  N   UNL     1      -8.912  54.362  47.191  0.00  0.00    +0.000 N 
ATOM     16  C   UNL     1      -9.076  53.012  44.812  0.00  0.00    +0.000 A 
ATOM     17  C   UNL     1     -10.126  53.929  47.359  0.00  0.00    +0.000 C 
ATOM     18  C   UNL     1     -10.346  52.685  45.258  0.00  0.00    +0.000 A 
ATOM     19  C   UNL     1      -8.610  52.630  43.550  0.00  0.00    +0.000 A 
ATOM     20  N   UNL     1     -10.792  53.062  46.522  0.00  0.00    +0.000 N 
ATOM     21  C   UNL     1     -11.149  51.890  44.434  0.00  0.00    +0.000 A 
ATOM     22  C   UNL     1      -9.437  51.870  42.724  0.00  0.00    +0.000 A 
ATOM     23  C   UNL     1     -10.703  51.492  43.171  0.00  0.00    +0.000 A 
ATOM     24  H   UNL     1      -8.510  54.950  47.870  0.00  0.00    +0.000 HD
ATOM     25  H   UNL     1     -11.642  52.681  46.839  0.00  0.00    +0.000 HD
ENDBRANCH   1  17
BRANCH   3  26
ATOM     26  O   UNL     1     -12.376  55.779  47.260  0.00  0.00    +0.000 OA
ATOM     27  H   UNL     1     -12.192  56.657  46.992  0.00  0.00    +0.000 HD
ENDBRANCH   3  26
BRANCH  10  28
ATOM     28  O   UNL     1     -15.146  58.290  50.586  0.00  0.00    +0.000 OA
ATOM     29  H   UNL     1     -15.787  58.225  49.906  0.00  0.00    +0.000 HD
ENDBRANCH  10  28
BRANCH   5  30
ATOM     30  C   UNL     1     -10.644  53.978  52.372  0.00  0.00    +0.000 C 
BRANCH  30  31
ATOM     31  C   UNL     1      -9.782  54.951  53.196  0.00  0.00    +0.000 C 
BRANCH  31  32
ATOM     32  C   UNL     1      -8.269  54.949  52.918  0.00  0.00    +0.000 C 
ATOM     33  C   UNL     1      -7.874  55.935  51.820  0.00  0.00    +0.000 C 
ATOM     34  C   UNL     1      -7.530  55.301  54.216  0.00  0.00    +0.000 C 
ENDBRANCH  31  32
ENDBRANCH  30  31
ENDBRANCH   5  30
TORSDOF 6
ENDMDL
