MODEL 1
REMARK VINA RESULT:      -7.7      0.000      0.000
REMARK  Name = 338630
REMARK  6 active torsions:
REMARK  status: ('A' for Active; 'I' for Inactive)
REMARK    1  A    between atoms: C_6  and  C_10
REMARK    2  A    between atoms: C_14  and  O_18
REMARK    3  A    between atoms: N_17  and  C_21
REMARK    4  A    between atoms: C_21  and  C_24
REMARK    5  A    between atoms: C_24  and  C_27
REMARK    6  A    between atoms: C_27  and  C_28
REMARK                            x       y       z     vdW  Elec       q    Type
REMARK                         _______ _______ _______ _____ _____    ______ ____
ROOT
ATOM      1  C   UNL     1     -10.097  54.413  52.197  0.00  0.00    +0.000 A 
ATOM      2  C   UNL     1      -8.708  54.922  51.991  0.00  0.00    +0.000 A 
ATOM      3  C   UNL     1     -10.310  53.344  52.983  0.00  0.00    +0.000 A 
ATOM      4  O   UNL     1      -8.549  55.950  51.325  0.00  0.00    +0.000 OA
ATOM      5  N   UNL     1      -7.648  54.235  52.569  0.00  0.00    +0.000 N 
ATOM      6  C   UNL     1      -9.185  52.671  53.651  0.00  0.00    +0.000 A 
ATOM      7  C   UNL     1      -7.866  53.107  53.420  0.00  0.00    +0.000 A 
ATOM      8  C   UNL     1      -9.420  51.604  54.536  0.00  0.00    +0.000 A 
ATOM      9  C   UNL     1      -6.814  52.439  54.068  0.00  0.00    +0.000 A 
ATOM     10  C   UNL     1      -8.367  50.977  55.198  0.00  0.00    +0.000 A 
ATOM     11  C   UNL     1      -7.065  51.394  54.962  0.00  0.00    +0.000 A 
ENDROOT
BRANCH   1  17
ATOM     12  S   UNL     1     -12.471  55.973  49.479  0.00  0.00    +0.000 S 
ATOM     13  O   UNL     1     -13.383  55.001  48.911  0.00  0.00    +0.000 OA
ATOM     14  O   UNL     1     -11.827  56.958  48.631  0.00  0.00    +0.000 OA
ATOM     15  N   UNL     1     -11.312  55.162  50.270  0.00  0.00    +0.000 N 
ATOM     16  C   UNL     1     -13.404  56.887  50.655  0.00  0.00    +0.000 A 
ATOM     17  C   UNL     1     -11.258  55.161  51.568  0.00  0.00    +0.000 C 
ATOM     18  C   UNL     1     -13.126  56.686  51.997  0.00  0.00    +0.000 A 
ATOM     19  C   UNL     1     -14.381  57.789  50.226  0.00  0.00    +0.000 A 
ATOM     20  N   UNL     1     -12.153  55.782  52.412  0.00  0.00    +0.000 N 
ATOM     21  C   UNL     1     -13.908  57.362  52.941  0.00  0.00    +0.000 A 
ATOM     22  C   UNL     1     -15.126  58.483  51.176  0.00  0.00    +0.000 A 
ATOM     23  C   UNL     1     -14.896  58.262  52.534  0.00  0.00    +0.000 A 
ATOM     24  H   UNL     1     -10.636  54.661  49.758  0.00  0.00    +0.000 HD
ATOM     25  H   UNL     1     -12.100  55.572  53.372  0.00  0.00    +0.000 HD
ENDBRANCH   1  17
BRANCH   3  26
ATOM     26  O   UNL     1     -11.558  52.812  53.257  0.00  0.00    +0.000 OA
ATOM     27  H   UNL     1     -12.288  53.380  53.405  0.00  0.00    +0.000 HD
ENDBRANCH   3  26
BRANCH   5  28
ATOM     28  C   UNL     1      -6.298  54.751  52.318  0.00  0.00    +0.000 C 
BRANCH  28  29
ATOM     29  C   UNL     1      -5.573  53.978  51.208  0.00  0.00    +0.000 C 
BRANCH  29  30
ATOM     30  C   UNL     1      -5.224  54.861  50.006  0.00  0.00    +0.000 C 
BRANCH  30  31
ATOM     31  C   UNL     1      -6.309  54.881  49.014  0.00  0.00    +0.000 C 
ATOM     32  N   UNL     1      -7.187  54.874  48.252  0.00  0.00    +0.000 NA
ENDBRANCH  30  31
ENDBRANCH  29  30
ENDBRANCH  28  29
ENDBRANCH   5  28
TORSDOF 6
ENDMDL
MODEL 2
REMARK VINA RESULT:      -7.6      2.528      7.650
REMARK  Name = 338630
REMARK  6 active torsions:
REMARK  status: ('A' for Active; 'I' for Inactive)
REMARK    1  A    between atoms: C_6  and  C_10
REMARK    2  A    between atoms: C_14  and  O_18
REMARK    3  A    between atoms: N_17  and  C_21
REMARK    4  A    between atoms: C_21  and  C_24
REMARK    5  A    between atoms: C_24  and  C_27
REMARK    6  A    between atoms: C_27  and  C_28
REMARK                            x       y       z     vdW  Elec       q    Type
REMARK                         _______ _______ _______ _____ _____    ______ ____
ROOT
ATOM      1  C   UNL     1     -10.685  55.273  51.062  0.00  0.00    +0.000 A 
ATOM      2  C   UNL     1     -11.942  55.773  51.693  0.00  0.00    +0.000 A 
ATOM      3  C   UNL     1     -10.556  55.281  49.724  0.00  0.00    +0.000 A 
ATOM      4  O   UNL     1     -12.004  55.824  52.927  0.00  0.00    +0.000 OA
ATOM      5  N   UNL     1     -12.989  56.180  50.876  0.00  0.00    +0.000 N 
ATOM      6  C   UNL     1     -11.643  55.786  48.873  0.00  0.00    +0.000 A 
ATOM      7  C   UNL     1     -12.856  56.207  49.453  0.00  0.00    +0.000 A 
ATOM      8  C   UNL     1     -11.475  55.869  47.479  0.00  0.00    +0.000 A 
ATOM      9  C   UNL     1     -13.877  56.678  48.612  0.00  0.00    +0.000 A 
ATOM     10  C   UNL     1     -12.484  56.373  46.663  0.00  0.00    +0.000 A 
ATOM     11  C   UNL     1     -13.685  56.775  47.230  0.00  0.00    +0.000 A 
ENDROOT
BRANCH   1  17
ATOM     12  S   UNL     1      -7.125  55.108  52.724  0.00  0.00    +0.000 S 
ATOM     13  O   UNL     1      -6.950  56.100  53.766  0.00  0.00    +0.000 OA
ATOM     14  O   UNL     1      -6.053  54.829  51.790  0.00  0.00    +0.000 OA
ATOM     15  N   UNL     1      -8.439  55.516  51.867  0.00  0.00    +0.000 N 
ATOM     16  C   UNL     1      -7.455  53.590  53.547  0.00  0.00    +0.000 A 
ATOM     17  C   UNL     1      -9.538  54.829  51.952  0.00  0.00    +0.000 C 
ATOM     18  C   UNL     1      -8.738  53.076  53.465  0.00  0.00    +0.000 A 
ATOM     19  C   UNL     1      -6.436  52.936  54.246  0.00  0.00    +0.000 A 
ATOM     20  N   UNL     1      -9.745  53.739  52.769  0.00  0.00    +0.000 N 
ATOM     21  C   UNL     1      -9.024  51.902  54.170  0.00  0.00    +0.000 A 
ATOM     22  C   UNL     1      -6.727  51.748  54.911  0.00  0.00    +0.000 A 
ATOM     23  C   UNL     1      -8.024  51.236  54.882  0.00  0.00    +0.000 A 
ATOM     24  H   UNL     1      -8.403  56.300  51.271  0.00  0.00    +0.000 HD
ATOM     25  H   UNL     1     -10.666  53.406  52.867  0.00  0.00    +0.000 HD
ENDBRANCH   1  17
BRANCH   3  26
ATOM     26  O   UNL     1      -9.424  54.865  49.045  0.00  0.00    +0.000 OA
ATOM     27  H   UNL     1      -8.690  55.441  48.959  0.00  0.00    +0.000 HD
ENDBRANCH   3  26
BRANCH   5  28
ATOM     28  C   UNL     1     -14.217  56.635  51.536  0.00  0.00    +0.000 C 
BRANCH  28  29
ATOM     29  C   UNL     1     -14.110  58.082  52.037  0.00  0.00    +0.000 C 
BRANCH  29  30
ATOM     30  C   UNL     1     -14.866  59.072  51.146  0.00  0.00    +0.000 C 
BRANCH  30  31
ATOM     31  C   UNL     1     -13.946  59.916  50.368  0.00  0.00    +0.000 C 
ATOM     32  N   UNL     1     -13.212  60.553  49.730  0.00  0.00    +0.000 NA
ENDBRANCH  30  31
ENDBRANCH  29  30
ENDBRANCH  28  29
ENDBRANCH   5  28
TORSDOF 6
ENDMDL
MODEL 3
REMARK VINA RESULT:      -7.5      3.934      4.778
REMARK  Name = 338630
REMARK  6 active torsions:
REMARK  status: ('A' for Active; 'I' for Inactive)
REMARK    1  A    between atoms: C_6  and  C_10
REMARK    2  A    between atoms: C_14  and  O_18
REMARK    3  A    between atoms: N_17  and  C_21
REMARK    4  A    between atoms: C_21  and  C_24
REMARK    5  A    between atoms: C_24  and  C_27
REMARK    6  A    between atoms: C_27  and  C_28
REMARK                            x       y       z     vdW  Elec       q    Type
REMARK                         _______ _______ _______ _____ _____    ______ ____
ROOT
ATOM      1  C   UNL     1     -12.559  54.255  49.579  0.00  0.00    +0.000 A 
ATOM      2  C   UNL     1     -12.070  54.200  48.170  0.00  0.00    +0.000 A 
ATOM      3  C   UNL     1     -12.254  53.264  50.435  0.00  0.00    +0.000 A 
ATOM      4  O   UNL     1     -12.302  55.160  47.427  0.00  0.00    +0.000 OA
ATOM      5  N   UNL     1     -11.358  53.085  47.748  0.00  0.00    +0.000 N 
ATOM      6  C   UNL     1     -11.435  52.125  49.995  0.00  0.00    +0.000 A 
ATOM      7  C   UNL     1     -11.015  52.033  48.654  0.00  0.00    +0.000 A 
ATOM      8  C   UNL     1     -11.050  51.130  50.913  0.00  0.00    +0.000 A 
ATOM      9  C   UNL     1     -10.239  50.929  48.265  0.00  0.00    +0.000 A 
ATOM     10  C   UNL     1     -10.249  50.061  50.518  0.00  0.00    +0.000 A 
ATOM     11  C   UNL     1      -9.847  49.961  49.194  0.00  0.00    +0.000 A 
ENDROOT
BRANCH   1  17
ATOM     12  S   UNL     1     -15.383  56.461  51.198  0.00  0.00    +0.000 S 
ATOM     13  O   UNL     1     -15.261  56.554  52.639  0.00  0.00    +0.000 OA
ATOM     14  O   UNL     1     -16.685  56.295  50.581  0.00  0.00    +0.000 OA
ATOM     15  N   UNL     1     -14.435  55.245  50.698  0.00  0.00    +0.000 N 
ATOM     16  C   UNL     1     -14.735  57.963  50.556  0.00  0.00    +0.000 A 
ATOM     17  C   UNL     1     -13.336  55.473  50.044  0.00  0.00    +0.000 C 
ATOM     18  C   UNL     1     -13.523  57.910  49.887  0.00  0.00    +0.000 A 
ATOM     19  C   UNL     1     -15.442  59.158  50.718  0.00  0.00    +0.000 A 
ATOM     20  N   UNL     1     -12.826  56.715  49.736  0.00  0.00    +0.000 N 
ATOM     21  C   UNL     1     -12.970  59.112  49.430  0.00  0.00    +0.000 A 
ATOM     22  C   UNL     1     -14.897  60.340  50.224  0.00  0.00    +0.000 A 
ATOM     23  C   UNL     1     -13.655  60.318  49.588  0.00  0.00    +0.000 A 
ATOM     24  H   UNL     1     -14.698  54.316  50.892  0.00  0.00    +0.000 HD
ATOM     25  H   UNL     1     -11.908  56.761  49.385  0.00  0.00    +0.000 HD
ENDBRANCH   1  17
BRANCH   3  26
ATOM     26  O   UNL     1     -12.637  53.234  51.765  0.00  0.00    +0.000 OA
ATOM     27  H   UNL     1     -13.039  52.466  52.119  0.00  0.00    +0.000 HD
ENDBRANCH   3  26
BRANCH   5  28
ATOM     28  C   UNL     1     -10.922  53.057  46.348  0.00  0.00    +0.000 C 
BRANCH  28  29
ATOM     29  C   UNL     1      -9.579  53.770  46.139  0.00  0.00    +0.000 C 
BRANCH  29  30
ATOM     30  C   UNL     1      -8.686  53.057  45.119  0.00  0.00    +0.000 C 
BRANCH  30  31
ATOM     31  C   UNL     1      -9.390  52.828  43.847  0.00  0.00    +0.000 C 
ATOM     32  N   UNL     1      -9.928  52.613  42.840  0.00  0.00    +0.000 NA
ENDBRANCH  30  31
ENDBRANCH  29  30
ENDBRANCH  28  29
ENDBRANCH   5  28
TORSDOF 6
ENDMDL
MODEL 4
REMARK VINA RESULT:      -7.5      2.228      3.180
REMARK  Name = 338630
REMARK  6 active torsions:
REMARK  status: ('A' for Active; 'I' for Inactive)
REMARK    1  A    between atoms: C_6  and  C_10
REMARK    2  A    between atoms: C_14  and  O_18
REMARK    3  A    between atoms: N_17  and  C_21
REMARK    4  A    between atoms: C_21  and  C_24
REMARK    5  A    between atoms: C_24  and  C_27
REMARK    6  A    between atoms: C_27  and  C_28
REMARK                            x       y       z     vdW  Elec       q    Type
REMARK                         _______ _______ _______ _____ _____    ______ ____
ROOT
ATOM      1  C   UNL     1     -11.600  54.097  51.145  0.00  0.00    +0.000 A 
ATOM      2  C   UNL     1     -10.653  54.131  52.299  0.00  0.00    +0.000 A 
ATOM      3  C   UNL     1     -11.697  52.990  50.389  0.00  0.00    +0.000 A 
ATOM      4  O   UNL     1     -10.639  55.133  53.022  0.00  0.00    +0.000 OA
ATOM      5  N   UNL     1      -9.836  53.032  52.532  0.00  0.00    +0.000 N 
ATOM      6  C   UNL     1     -10.880  51.805  50.692  0.00  0.00    +0.000 A 
ATOM      7  C   UNL     1      -9.943  51.844  51.743  0.00  0.00    +0.000 A 
ATOM      8  C   UNL     1     -11.042  50.621  49.950  0.00  0.00    +0.000 A 
ATOM      9  C   UNL     1      -9.174  50.698  52.003  0.00  0.00    +0.000 A 
ATOM     10  C   UNL     1     -10.298  49.482  50.245  0.00  0.00    +0.000 A 
ATOM     11  C   UNL     1      -9.363  49.522  51.270  0.00  0.00    +0.000 A 
ENDROOT
BRANCH   1  17
ATOM     12  S   UNL     1     -13.367  57.082  49.295  0.00  0.00    +0.000 S 
ATOM     13  O   UNL     1     -14.481  56.649  48.476  0.00  0.00    +0.000 OA
ATOM     14  O   UNL     1     -12.452  58.098  48.811  0.00  0.00    +0.000 OA
ATOM     15  N   UNL     1     -12.496  55.770  49.681  0.00  0.00    +0.000 N 
ATOM     16  C   UNL     1     -14.069  57.730  50.770  0.00  0.00    +0.000 A 
ATOM     17  C   UNL     1     -12.495  55.295  50.890  0.00  0.00    +0.000 C 
ATOM     18  C   UNL     1     -13.907  57.002  51.937  0.00  0.00    +0.000 A 
ATOM     19  C   UNL     1     -14.755  58.947  50.744  0.00  0.00    +0.000 A 
ATOM     20  N   UNL     1     -13.226  55.788  51.949  0.00  0.00    +0.000 N 
ATOM     21  C   UNL     1     -14.518  57.478  53.102  0.00  0.00    +0.000 A 
ATOM     22  C   UNL     1     -15.325  59.429  51.919  0.00  0.00    +0.000 A 
ATOM     23  C   UNL     1     -15.215  58.689  53.097  0.00  0.00    +0.000 A 
ATOM     24  H   UNL     1     -11.958  55.326  48.986  0.00  0.00    +0.000 HD
ATOM     25  H   UNL     1     -13.268  55.246  52.769  0.00  0.00    +0.000 HD
ENDBRANCH   1  17
BRANCH   3  26
ATOM     26  O   UNL     1     -12.560  52.849  49.317  0.00  0.00    +0.000 OA
ATOM     27  H   UNL     1     -13.443  53.155  49.382  0.00  0.00    +0.000 HD
ENDBRANCH   3  26
BRANCH   5  28
ATOM     28  C   UNL     1      -8.900  53.118  53.657  0.00  0.00    +0.000 C 
BRANCH  28  29
ATOM     29  C   UNL     1      -7.565  53.765  53.261  0.00  0.00    +0.000 C 
BRANCH  29  30
ATOM     30  C   UNL     1      -7.176  54.923  54.184  0.00  0.00    +0.000 C 
BRANCH  30  31
ATOM     31  C   UNL     1      -5.717  55.026  54.341  0.00  0.00    +0.000 C 
ATOM     32  N   UNL     1      -4.564  55.138  54.442  0.00  0.00    +0.000 NA
ENDBRANCH  30  31
ENDBRANCH  29  30
ENDBRANCH  28  29
ENDBRANCH   5  28
TORSDOF 6
ENDMDL
MODEL 5
REMARK VINA RESULT:      -7.5      2.905      4.905
REMARK  Name = 338630
REMARK  6 active torsions:
REMARK  status: ('A' for Active; 'I' for Inactive)
REMARK    1  A    between atoms: C_6  and  C_10
REMARK    2  A    between atoms: C_14  and  O_18
REMARK    3  A    between atoms: N_17  and  C_21
REMARK    4  A    between atoms: C_21  and  C_24
REMARK    5  A    between atoms: C_24  and  C_27
REMARK    6  A    between atoms: C_27  and  C_28
REMARK                            x       y       z     vdW  Elec       q    Type
REMARK                         _______ _______ _______ _____ _____    ______ ____
ROOT
ATOM      1  C   UNL     1     -11.396  55.997  48.840  0.00  0.00    +0.000 A 
ATOM      2  C   UNL     1     -10.321  55.424  49.704  0.00  0.00    +0.000 A 
ATOM      3  C   UNL     1     -11.501  55.614  47.556  0.00  0.00    +0.000 A 
ATOM      4  O   UNL     1     -10.294  55.736  50.899  0.00  0.00    +0.000 OA
ATOM      5  N   UNL     1      -9.402  54.548  49.141  0.00  0.00    +0.000 N 
ATOM      6  C   UNL     1     -10.567  54.627  46.993  0.00  0.00    +0.000 A 
ATOM      7  C   UNL     1      -9.514  54.122  47.780  0.00  0.00    +0.000 A 
ATOM      8  C   UNL     1     -10.729  54.169  45.672  0.00  0.00    +0.000 A 
ATOM      9  C   UNL     1      -8.636  53.186  47.210  0.00  0.00    +0.000 A 
ATOM     10  C   UNL     1      -9.871  53.213  45.136  0.00  0.00    +0.000 A 
ATOM     11  C   UNL     1      -8.824  52.724  45.904  0.00  0.00    +0.000 A 
ENDROOT
BRANCH   1  17
ATOM     12  S   UNL     1     -13.539  59.235  49.458  0.00  0.00    +0.000 S 
ATOM     13  O   UNL     1     -14.675  59.330  48.564  0.00  0.00    +0.000 OA
ATOM     14  O   UNL     1     -12.750  60.411  49.771  0.00  0.00    +0.000 OA
ATOM     15  N   UNL     1     -12.537  58.105  48.868  0.00  0.00    +0.000 N 
ATOM     16  C   UNL     1     -14.173  58.659  50.993  0.00  0.00    +0.000 A 
ATOM     17  C   UNL     1     -12.402  56.953  49.453  0.00  0.00    +0.000 C 
ATOM     18  C   UNL     1     -13.862  57.365  51.377  0.00  0.00    +0.000 A 
ATOM     19  C   UNL     1     -14.956  59.501  51.788  0.00  0.00    +0.000 A 
ATOM     20  N   UNL     1     -13.085  56.534  50.574  0.00  0.00    +0.000 N 
ATOM     21  C   UNL     1     -14.416  56.878  52.566  0.00  0.00    +0.000 A 
ATOM     22  C   UNL     1     -15.469  59.015  52.988  0.00  0.00    +0.000 A 
ATOM     23  C   UNL     1     -15.207  57.700  53.372  0.00  0.00    +0.000 A 
ATOM     24  H   UNL     1     -12.021  58.297  48.051  0.00  0.00    +0.000 HD
ATOM     25  H   UNL     1     -13.019  55.585  50.824  0.00  0.00    +0.000 HD
ENDBRANCH   1  17
BRANCH   3  26
ATOM     26  O   UNL     1     -12.475  56.066  46.683  0.00  0.00    +0.000 OA
ATOM     27  H   UNL     1     -12.397  56.913  46.291  0.00  0.00    +0.000 HD
ENDBRANCH   3  26
BRANCH   5  28
ATOM     28  C   UNL     1      -8.345  54.031  50.016  0.00  0.00    +0.000 C 
BRANCH  28  29
ATOM     29  C   UNL     1      -7.093  54.919  50.011  0.00  0.00    +0.000 C 
BRANCH  29  30
ATOM     30  C   UNL     1      -6.320  54.856  51.332  0.00  0.00    +0.000 C 
BRANCH  30  31
ATOM     31  C   UNL     1      -7.179  55.183  52.480  0.00  0.00    +0.000 C 
ATOM     32  N   UNL     1      -7.829  55.432  53.411  0.00  0.00    +0.000 NA
ENDBRANCH  30  31
ENDBRANCH  29  30
ENDBRANCH  28  29
ENDBRANCH   5  28
TORSDOF 6
ENDMDL
MODEL 6
REMARK VINA RESULT:      -7.4      2.748      6.872
REMARK  Name = 338630
REMARK  6 active torsions:
REMARK  status: ('A' for Active; 'I' for Inactive)
REMARK    1  A    between atoms: C_6  and  C_10
REMARK    2  A    between atoms: C_14  and  O_18
REMARK    3  A    between atoms: N_17  and  C_21
REMARK    4  A    between atoms: C_21  and  C_24
REMARK    5  A    between atoms: C_24  and  C_27
REMARK    6  A    between atoms: C_27  and  C_28
REMARK                            x       y       z     vdW  Elec       q    Type
REMARK                         _______ _______ _______ _____ _____    ______ ____
ROOT
ATOM      1  C   UNL     1     -10.267  55.208  50.798  0.00  0.00    +0.000 A 
ATOM      2  C   UNL     1      -9.871  55.132  49.360  0.00  0.00    +0.000 A 
ATOM      3  C   UNL     1     -11.482  55.673  51.136  0.00  0.00    +0.000 A 
ATOM      4  O   UNL     1      -8.779  54.632  49.073  0.00  0.00    +0.000 OA
ATOM      5  N   UNL     1     -10.750  55.608  48.395  0.00  0.00    +0.000 N 
ATOM      6  C   UNL     1     -12.432  56.103  50.099  0.00  0.00    +0.000 A 
ATOM      7  C   UNL     1     -12.050  56.089  48.743  0.00  0.00    +0.000 A 
ATOM      8  C   UNL     1     -13.731  56.512  50.451  0.00  0.00    +0.000 A 
ATOM      9  C   UNL     1     -12.979  56.512  47.778  0.00  0.00    +0.000 A 
ATOM     10  C   UNL     1     -14.651  56.893  49.478  0.00  0.00    +0.000 A 
ATOM     11  C   UNL     1     -14.273  56.895  48.142  0.00  0.00    +0.000 A 
ENDROOT
BRANCH   1  17
ATOM     12  S   UNL     1      -7.042  54.809  53.012  0.00  0.00    +0.000 S 
ATOM     13  O   UNL     1      -6.978  55.781  54.084  0.00  0.00    +0.000 OA
ATOM     14  O   UNL     1      -5.851  54.467  52.259  0.00  0.00    +0.000 OA
ATOM     15  N   UNL     1      -8.172  55.304  51.960  0.00  0.00    +0.000 N 
ATOM     16  C   UNL     1      -7.595  53.310  53.746  0.00  0.00    +0.000 A 
ATOM     17  C   UNL     1      -9.310  54.688  51.854  0.00  0.00    +0.000 C 
ATOM     18  C   UNL     1      -8.877  52.879  53.449  0.00  0.00    +0.000 A 
ATOM     19  C   UNL     1      -6.746  52.589  54.590  0.00  0.00    +0.000 A 
ATOM     20  N   UNL     1      -9.714  53.608  52.610  0.00  0.00    +0.000 N 
ATOM     21  C   UNL     1      -9.346  51.721  54.080  0.00  0.00    +0.000 A 
ATOM     22  C   UNL     1      -7.213  51.418  55.181  0.00  0.00    +0.000 A 
ATOM     23  C   UNL     1      -8.517  50.989  54.933  0.00  0.00    +0.000 A 
ATOM     24  H   UNL     1      -7.991  56.087  51.390  0.00  0.00    +0.000 HD
ATOM     25  H   UNL     1     -10.657  53.334  52.552  0.00  0.00    +0.000 HD
ENDBRANCH   1  17
BRANCH   3  26
ATOM     26  O   UNL     1     -11.952  55.758  52.435  0.00  0.00    +0.000 OA
ATOM     27  H   UNL     1     -11.722  56.493  52.969  0.00  0.00    +0.000 HD
ENDBRANCH   3  26
BRANCH   5  28
ATOM     28  C   UNL     1     -10.311  55.543  46.997  0.00  0.00    +0.000 C 
BRANCH  28  29
ATOM     29  C   UNL     1     -10.655  54.200  46.337  0.00  0.00    +0.000 C 
BRANCH  29  30
ATOM     30  C   UNL     1      -9.642  53.796  45.261  0.00  0.00    +0.000 C 
BRANCH  30  31
ATOM     31  C   UNL     1      -8.272  54.180  45.634  0.00  0.00    +0.000 C 
ATOM     32  N   UNL     1      -7.195  54.469  45.964  0.00  0.00    +0.000 NA
ENDBRANCH  30  31
ENDBRANCH  29  30
ENDBRANCH  28  29
ENDBRANCH   5  28
TORSDOF 6
ENDMDL
MODEL 7
REMARK VINA RESULT:      -7.2      3.046      5.199
REMARK  Name = 338630
REMARK  6 active torsions:
REMARK  status: ('A' for Active; 'I' for Inactive)
REMARK    1  A    between atoms: C_6  and  C_10
REMARK    2  A    between atoms: C_14  and  O_18
REMARK    3  A    between atoms: N_17  and  C_21
REMARK    4  A    between atoms: C_21  and  C_24
REMARK    5  A    between atoms: C_24  and  C_27
REMARK    6  A    between atoms: C_27  and  C_28
REMARK                            x       y       z     vdW  Elec       q    Type
REMARK                         _______ _______ _______ _____ _____    ______ ____
ROOT
ATOM      1  C   UNL     1     -10.969  55.378  48.485  0.00  0.00    +0.000 A 
ATOM      2  C   UNL     1      -9.677  54.892  49.056  0.00  0.00    +0.000 A 
ATOM      3  C   UNL     1     -11.301  55.072  47.219  0.00  0.00    +0.000 A 
ATOM      4  O   UNL     1      -9.432  55.124  50.245  0.00  0.00    +0.000 OA
ATOM      5  N   UNL     1      -8.807  54.181  48.240  0.00  0.00    +0.000 N 
ATOM      6  C   UNL     1     -10.404  54.255  46.389  0.00  0.00    +0.000 A 
ATOM      7  C   UNL     1      -9.158  53.838  46.897  0.00  0.00    +0.000 A 
ATOM      8  C   UNL     1     -10.790  53.869  45.092  0.00  0.00    +0.000 A 
ATOM      9  C   UNL     1      -8.322  53.063  46.076  0.00  0.00    +0.000 A 
ATOM     10  C   UNL     1      -9.964  53.070  44.306  0.00  0.00    +0.000 A 
ATOM     11  C   UNL     1      -8.730  52.669  44.798  0.00  0.00    +0.000 A 
ENDROOT
BRANCH   1  17
ATOM     12  S   UNL     1     -13.452  56.226  51.413  0.00  0.00    +0.000 S 
ATOM     13  O   UNL     1     -12.768  56.533  52.653  0.00  0.00    +0.000 OA
ATOM     14  O   UNL     1     -14.653  55.414  51.419  0.00  0.00    +0.000 OA
ATOM     15  N   UNL     1     -12.382  55.527  50.417  0.00  0.00    +0.000 N 
ATOM     16  C   UNL     1     -13.920  57.772  50.720  0.00  0.00    +0.000 A 
ATOM     17  C   UNL     1     -11.923  56.153  49.375  0.00  0.00    +0.000 C 
ATOM     18  C   UNL     1     -13.252  58.200  49.585  0.00  0.00    +0.000 A 
ATOM     19  C   UNL     1     -14.942  58.523  51.307  0.00  0.00    +0.000 A 
ATOM     20  N   UNL     1     -12.233  57.446  49.012  0.00  0.00    +0.000 N 
ATOM     21  C   UNL     1     -13.575  59.459  49.065  0.00  0.00    +0.000 A 
ATOM     22  C   UNL     1     -15.279  59.756  50.756  0.00  0.00    +0.000 A 
ATOM     23  C   UNL     1     -14.588  60.229  49.640  0.00  0.00    +0.000 A 
ATOM     24  H   UNL     1     -12.074  54.610  50.604  0.00  0.00    +0.000 HD
ATOM     25  H   UNL     1     -11.697  57.863  48.299  0.00  0.00    +0.000 HD
ENDBRANCH   1  17
BRANCH   3  26
ATOM     26  O   UNL     1     -12.483  55.452  46.608  0.00  0.00    +0.000 OA
ATOM     27  H   UNL     1     -13.149  55.887  47.103  0.00  0.00    +0.000 HD
ENDBRANCH   3  26
BRANCH   5  28
ATOM     28  C   UNL     1      -7.537  53.748  48.830  0.00  0.00    +0.000 C 
BRANCH  28  29
ATOM     29  C   UNL     1      -6.432  54.803  48.683  0.00  0.00    +0.000 C 
BRANCH  29  30
ATOM     30  C   UNL     1      -5.381  54.714  49.795  0.00  0.00    +0.000 C 
BRANCH  30  31
ATOM     31  C   UNL     1      -5.998  54.753  51.129  0.00  0.00    +0.000 C 
ATOM     32  N   UNL     1      -6.502  54.749  52.177  0.00  0.00    +0.000 NA
ENDBRANCH  30  31
ENDBRANCH  29  30
ENDBRANCH  28  29
ENDBRANCH   5  28
TORSDOF 6
ENDMDL
MODEL 8
REMARK VINA RESULT:      -7.2      1.899      2.626
REMARK  Name = 338630
REMARK  6 active torsions:
REMARK  status: ('A' for Active; 'I' for Inactive)
REMARK    1  A    between atoms: C_6  and  C_10
REMARK    2  A    between atoms: C_14  and  O_18
REMARK    3  A    between atoms: N_17  and  C_21
REMARK    4  A    between atoms: C_21  and  C_24
REMARK    5  A    between atoms: C_24  and  C_27
REMARK    6  A    between atoms: C_27  and  C_28
REMARK                            x       y       z     vdW  Elec       q    Type
REMARK                         _______ _______ _______ _____ _____    ______ ____
ROOT
ATOM      1  C   UNL     1     -10.143  54.482  52.225  0.00  0.00    +0.000 A 
ATOM      2  C   UNL     1      -8.743  55.002  52.200  0.00  0.00    +0.000 A 
ATOM      3  C   UNL     1     -10.435  53.374  52.928  0.00  0.00    +0.000 A 
ATOM      4  O   UNL     1      -8.517  56.063  51.609  0.00  0.00    +0.000 OA
ATOM      5  N   UNL     1      -7.749  54.287  52.855  0.00  0.00    +0.000 N 
ATOM      6  C   UNL     1      -9.386  52.669  53.679  0.00  0.00    +0.000 A 
ATOM      7  C   UNL     1      -8.052  53.116  53.618  0.00  0.00    +0.000 A 
ATOM      8  C   UNL     1      -9.709  51.556  54.478  0.00  0.00    +0.000 A 
ATOM      9  C   UNL     1      -7.073  52.416  54.342  0.00  0.00    +0.000 A 
ATOM     10  C   UNL     1      -8.732  50.897  55.219  0.00  0.00    +0.000 A 
ATOM     11  C   UNL     1      -7.414  51.326  55.148  0.00  0.00    +0.000 A 
ENDROOT
BRANCH   1  17
ATOM     12  S   UNL     1     -13.484  56.452  51.586  0.00  0.00    +0.000 S 
ATOM     13  O   UNL     1     -13.407  57.834  52.015  0.00  0.00    +0.000 OA
ATOM     14  O   UNL     1     -14.682  55.673  51.832  0.00  0.00    +0.000 OA
ATOM     15  N   UNL     1     -12.231  55.660  52.241  0.00  0.00    +0.000 N 
ATOM     16  C   UNL     1     -13.272  56.472  49.841  0.00  0.00    +0.000 A 
ATOM     17  C   UNL     1     -11.232  55.262  51.512  0.00  0.00    +0.000 C 
ATOM     18  C   UNL     1     -12.087  55.971  49.329  0.00  0.00    +0.000 A 
ATOM     19  C   UNL     1     -14.285  56.971  49.017  0.00  0.00    +0.000 A 
ATOM     20  N   UNL     1     -11.084  55.481  50.160  0.00  0.00    +0.000 N 
ATOM     21  C   UNL     1     -11.884  56.042  47.946  0.00  0.00    +0.000 A 
ATOM     22  C   UNL     1     -14.085  57.000  47.640  0.00  0.00    +0.000 A 
ATOM     23  C   UNL     1     -12.880  56.544  47.105  0.00  0.00    +0.000 A 
ATOM     24  H   UNL     1     -12.227  55.476  53.208  0.00  0.00    +0.000 HD
ATOM     25  H   UNL     1     -10.211  55.276  49.755  0.00  0.00    +0.000 HD
ENDBRANCH   1  17
BRANCH   3  26
ATOM     26  O   UNL     1     -11.702  52.828  53.036  0.00  0.00    +0.000 OA
ATOM     27  H   UNL     1     -12.267  52.802  52.288  0.00  0.00    +0.000 HD
ENDBRANCH   3  26
BRANCH   5  28
ATOM     28  C   UNL     1      -6.383  54.815  52.781  0.00  0.00    +0.000 C 
BRANCH  28  29
ATOM     29  C   UNL     1      -5.612  54.278  51.567  0.00  0.00    +0.000 C 
BRANCH  29  30
ATOM     30  C   UNL     1      -4.318  53.560  51.961  0.00  0.00    +0.000 C 
BRANCH  30  31
ATOM     31  C   UNL     1      -4.043  52.414  51.082  0.00  0.00    +0.000 C 
ATOM     32  N   UNL     1      -3.847  51.485  50.409  0.00  0.00    +0.000 NA
ENDBRANCH  30  31
ENDBRANCH  29  30
ENDBRANCH  28  29
ENDBRANCH   5  28
TORSDOF 6
ENDMDL
MODEL 9
REMARK VINA RESULT:      -7.1      2.686      7.709
REMARK  Name = 338630
REMARK  6 active torsions:
REMARK  status: ('A' for Active; 'I' for Inactive)
REMARK    1  A    between atoms: C_6  and  C_10
REMARK    2  A    between atoms: C_14  and  O_18
REMARK    3  A    between atoms: N_17  and  C_21
REMARK    4  A    between atoms: C_21  and  C_24
REMARK    5  A    between atoms: C_24  and  C_27
REMARK    6  A    between atoms: C_27  and  C_28
REMARK                            x       y       z     vdW  Elec       q    Type
REMARK                         _______ _______ _______ _____ _____    ______ ____
ROOT
ATOM      1  C   UNL     1     -10.917  55.018  50.898  0.00  0.00    +0.000 A 
ATOM      2  C   UNL     1     -12.052  55.692  51.597  0.00  0.00    +0.000 A 
ATOM      3  C   UNL     1     -10.849  55.037  49.556  0.00  0.00    +0.000 A 
ATOM      4  O   UNL     1     -12.050  55.725  52.832  0.00  0.00    +0.000 OA
ATOM      5  N   UNL     1     -13.059  56.274  50.837  0.00  0.00    +0.000 N 
ATOM      6  C   UNL     1     -11.882  55.723  48.766  0.00  0.00    +0.000 A 
ATOM      7  C   UNL     1     -12.987  56.313  49.409  0.00  0.00    +0.000 A 
ATOM      8  C   UNL     1     -11.766  55.809  47.366  0.00  0.00    +0.000 A 
ATOM      9  C   UNL     1     -13.959  56.955  48.625  0.00  0.00    +0.000 A 
ATOM     10  C   UNL     1     -12.720  56.481  46.607  0.00  0.00    +0.000 A 
ATOM     11  C   UNL     1     -13.818  57.052  47.238  0.00  0.00    +0.000 A 
ENDROOT
BRANCH   1  17
ATOM     12  S   UNL     1      -8.921  52.376  53.018  0.00  0.00    +0.000 S 
ATOM     13  O   UNL     1      -8.242  51.398  52.192  0.00  0.00    +0.000 OA
ATOM     14  O   UNL     1      -9.596  51.968  54.234  0.00  0.00    +0.000 OA
ATOM     15  N   UNL     1      -9.999  53.148  52.085  0.00  0.00    +0.000 N 
ATOM     16  C   UNL     1      -7.694  53.533  53.513  0.00  0.00    +0.000 A 
ATOM     17  C   UNL     1      -9.815  54.383  51.726  0.00  0.00    +0.000 C 
ATOM     18  C   UNL     1      -7.743  54.803  52.962  0.00  0.00    +0.000 A 
ATOM     19  C   UNL     1      -6.717  53.163  54.442  0.00  0.00    +0.000 A 
ATOM     20  N   UNL     1      -8.718  55.157  52.035  0.00  0.00    +0.000 N 
ATOM     21  C   UNL     1      -6.732  55.708  53.303  0.00  0.00    +0.000 A 
ATOM     22  C   UNL     1      -5.740  54.088  54.801  0.00  0.00    +0.000 A 
ATOM     23  C   UNL     1      -5.741  55.358  54.223  0.00  0.00    +0.000 A 
ATOM     24  H   UNL     1     -10.808  52.673  51.786  0.00  0.00    +0.000 HD
ATOM     25  H   UNL     1      -8.617  56.018  51.569  0.00  0.00    +0.000 HD
ENDBRANCH   1  17
BRANCH   3  26
ATOM     26  O   UNL     1      -9.827  54.466  48.817  0.00  0.00    +0.000 OA
ATOM     27  H   UNL     1      -8.944  54.510  49.126  0.00  0.00    +0.000 HD
ENDBRANCH   3  26
BRANCH   5  28
ATOM     28  C   UNL     1     -14.170  56.900  51.561  0.00  0.00    +0.000 C 
BRANCH  28  29
ATOM     29  C   UNL     1     -13.919  58.386  51.849  0.00  0.00    +0.000 C 
BRANCH  29  30
ATOM     30  C   UNL     1     -15.081  59.278  51.400  0.00  0.00    +0.000 C 
BRANCH  30  31
ATOM     31  C   UNL     1     -14.768  59.989  50.152  0.00  0.00    +0.000 C 
ATOM     32  N   UNL     1     -14.509  60.582  49.186  0.00  0.00    +0.000 NA
ENDBRANCH  30  31
ENDBRANCH  29  30
ENDBRANCH  28  29
ENDBRANCH   5  28
TORSDOF 6
ENDMDL
