MODEL 1
REMARK VINA RESULT:      -8.1      0.000      0.000
REMARK  Name = 300958
REMARK  6 active torsions:
REMARK  status: ('A' for Active; 'I' for Inactive)
REMARK    1  A    between atoms: C_6  and  C_10
REMARK    2  A    between atoms: C_14  and  O_18
REMARK    3  A    between atoms: N_17  and  C_21
REMARK    4  A    between atoms: C_21  and  C_24
REMARK    5  A    between atoms: C_24  and  C_27
REMARK    6  A    between atoms: C_27  and  C_28
REMARK                            x       y       z     vdW  Elec       q    Type
REMARK                         _______ _______ _______ _____ _____    ______ ____
ROOT
ATOM      1  C   UNL     1     -10.102  54.379  52.327  0.00  0.00    +0.000 A 
ATOM      2  C   UNL     1      -8.726  54.970  52.283  0.00  0.00    +0.000 A 
ATOM      3  C   UNL     1     -10.334  53.256  53.027  0.00  0.00    +0.000 A 
ATOM      4  O   UNL     1      -8.578  56.063  51.735  0.00  0.00    +0.000 OA
ATOM      5  N   UNL     1      -7.682  54.268  52.877  0.00  0.00    +0.000 N 
ATOM      6  C   UNL     1      -9.244  52.600  53.762  0.00  0.00    +0.000 A 
ATOM      7  C   UNL     1      -7.938  53.121  53.696  0.00  0.00    +0.000 A 
ATOM      8  C   UNL     1      -9.500  51.466  54.556  0.00  0.00    +0.000 A 
ATOM      9  C   UNL     1      -6.935  52.511  54.464  0.00  0.00    +0.000 A 
ATOM     10  C   UNL     1      -8.483  50.861  55.292  0.00  0.00    +0.000 A 
ATOM     11  C   UNL     1      -7.201  51.387  55.247  0.00  0.00    +0.000 A 
ENDROOT
BRANCH   1  17
ATOM     12  S   UNL     1     -12.347  55.905  49.495  0.00  0.00    +0.000 S 
ATOM     13  O   UNL     1     -13.223  54.923  48.892  0.00  0.00    +0.000 OA
ATOM     14  O   UNL     1     -11.669  56.889  48.667  0.00  0.00    +0.000 OA
ATOM     15  N   UNL     1     -11.221  55.108  50.343  0.00  0.00    +0.000 N 
ATOM     16  C   UNL     1     -13.337  56.823  50.619  0.00  0.00    +0.000 A 
ATOM     17  C   UNL     1     -11.234  55.112  51.642  0.00  0.00    +0.000 C 
ATOM     18  C   UNL     1     -13.122  56.634  51.973  0.00  0.00    +0.000 A 
ATOM     19  C   UNL     1     -14.297  57.719  50.138  0.00  0.00    +0.000 A 
ATOM     20  N   UNL     1     -12.175  55.727  52.438  0.00  0.00    +0.000 N 
ATOM     21  C   UNL     1     -13.940  57.322  52.876  0.00  0.00    +0.000 A 
ATOM     22  C   UNL     1     -15.082  58.419  51.049  0.00  0.00    +0.000 A 
ATOM     23  C   UNL     1     -14.910  58.215  52.419  0.00  0.00    +0.000 A 
ATOM     24  H   UNL     1     -10.517  54.613  49.867  0.00  0.00    +0.000 HD
ATOM     25  H   UNL     1     -12.178  55.510  53.398  0.00  0.00    +0.000 HD
ENDBRANCH   1  17
BRANCH   3  26
ATOM     26  O   UNL     1     -11.578  52.664  53.167  0.00  0.00    +0.000 OA
ATOM     27  H   UNL     1     -12.169  52.638  52.440  0.00  0.00    +0.000 HD
ENDBRANCH   3  26
BRANCH   5  28
ATOM     28  C   UNL     1      -6.334  54.838  52.770  0.00  0.00    +0.000 C 
BRANCH  28  29
ATOM     29  C   UNL     1      -5.385  54.150  51.778  0.00  0.00    +0.000 C 
BRANCH  29  30
ATOM     30  C   UNL     1      -3.952  53.960  52.271  0.00  0.00    +0.000 C 
ATOM     31  C   UNL     1      -3.847  54.439  53.715  0.00  0.00    +0.000 C 
ENDBRANCH  29  30
ENDBRANCH  28  29
ENDBRANCH   5  28
TORSDOF 5
ENDMDL
MODEL 2
REMARK VINA RESULT:      -7.8      2.442      7.847
REMARK  Name = 300958
REMARK  6 active torsions:
REMARK  status: ('A' for Active; 'I' for Inactive)
REMARK    1  A    between atoms: C_6  and  C_10
REMARK    2  A    between atoms: C_14  and  O_18
REMARK    3  A    between atoms: N_17  and  C_21
REMARK    4  A    between atoms: C_21  and  C_24
REMARK    5  A    between atoms: C_24  and  C_27
REMARK    6  A    between atoms: C_27  and  C_28
REMARK                            x       y       z     vdW  Elec       q    Type
REMARK                         _______ _______ _______ _____ _____    ______ ____
ROOT
ATOM      1  C   UNL     1     -10.439  55.076  51.046  0.00  0.00    +0.000 A 
ATOM      2  C   UNL     1     -11.716  55.621  51.608  0.00  0.00    +0.000 A 
ATOM      3  C   UNL     1     -10.248  55.033  49.717  0.00  0.00    +0.000 A 
ATOM      4  O   UNL     1     -11.804  55.758  52.829  0.00  0.00    +0.000 OA
ATOM      5  N   UNL     1     -12.736  55.965  50.727  0.00  0.00    +0.000 N 
ATOM      6  C   UNL     1     -11.286  55.527  48.802  0.00  0.00    +0.000 A 
ATOM      7  C   UNL     1     -12.506  56.005  49.314  0.00  0.00    +0.000 A 
ATOM      8  C   UNL     1     -11.058  55.553  47.413  0.00  0.00    +0.000 A 
ATOM      9  C   UNL     1     -13.447  56.532  48.418  0.00  0.00    +0.000 A 
ATOM     10  C   UNL     1     -12.016  56.059  46.538  0.00  0.00    +0.000 A 
ATOM     11  C   UNL     1     -13.210  56.552  47.042  0.00  0.00    +0.000 A 
ENDROOT
BRANCH   1  17
ATOM     12  S   UNL     1      -6.972  54.947  52.879  0.00  0.00    +0.000 S 
ATOM     13  O   UNL     1      -6.850  55.961  53.905  0.00  0.00    +0.000 OA
ATOM     14  O   UNL     1      -5.850  54.651  52.004  0.00  0.00    +0.000 OA
ATOM     15  N   UNL     1      -8.239  55.337  51.948  0.00  0.00    +0.000 N 
ATOM     16  C   UNL     1      -7.341  53.446  53.713  0.00  0.00    +0.000 A 
ATOM     17  C   UNL     1      -9.343  54.654  51.999  0.00  0.00    +0.000 C 
ATOM     18  C   UNL     1      -8.619  52.929  53.577  0.00  0.00    +0.000 A 
ATOM     19  C   UNL     1      -6.358  52.806  54.473  0.00  0.00    +0.000 A 
ATOM     20  N   UNL     1      -9.592  53.586  52.832  0.00  0.00    +0.000 N 
ATOM     21  C   UNL     1      -8.937  51.760  54.279  0.00  0.00    +0.000 A 
ATOM     22  C   UNL     1      -6.682  51.628  55.140  0.00  0.00    +0.000 A 
ATOM     23  C   UNL     1      -7.974  51.109  55.050  0.00  0.00    +0.000 A 
ATOM     24  H   UNL     1      -8.171  56.104  51.336  0.00  0.00    +0.000 HD
ATOM     25  H   UNL     1     -10.521  53.266  52.904  0.00  0.00    +0.000 HD
ENDBRANCH   1  17
BRANCH   3  26
ATOM     26  O   UNL     1      -9.085  54.593  49.107  0.00  0.00    +0.000 OA
ATOM     27  H   UNL     1      -8.864  54.894  48.248  0.00  0.00    +0.000 HD
ENDBRANCH   3  26
BRANCH   5  28
ATOM     28  C   UNL     1     -13.999  56.442  51.304  0.00  0.00    +0.000 C 
BRANCH  28  29
ATOM     29  C   UNL     1     -14.031  57.912  51.743  0.00  0.00    +0.000 C 
BRANCH  29  30
ATOM     30  C   UNL     1     -14.994  58.805  50.964  0.00  0.00    +0.000 C 
ATOM     31  C   UNL     1     -14.195  59.815  50.146  0.00  0.00    +0.000 C 
ENDBRANCH  29  30
ENDBRANCH  28  29
ENDBRANCH   5  28
TORSDOF 5
ENDMDL
MODEL 3
REMARK VINA RESULT:      -7.7      3.486      5.101
REMARK  Name = 300958
REMARK  6 active torsions:
REMARK  status: ('A' for Active; 'I' for Inactive)
REMARK    1  A    between atoms: C_6  and  C_10
REMARK    2  A    between atoms: C_14  and  O_18
REMARK    3  A    between atoms: N_17  and  C_21
REMARK    4  A    between atoms: C_21  and  C_24
REMARK    5  A    between atoms: C_24  and  C_27
REMARK    6  A    between atoms: C_27  and  C_28
REMARK                            x       y       z     vdW  Elec       q    Type
REMARK                         _______ _______ _______ _____ _____    ______ ____
ROOT
ATOM      1  C   UNL     1     -11.354  56.159  48.769  0.00  0.00    +0.000 A 
ATOM      2  C   UNL     1     -10.195  55.693  49.596  0.00  0.00    +0.000 A 
ATOM      3  C   UNL     1     -11.510  55.715  47.511  0.00  0.00    +0.000 A 
ATOM      4  O   UNL     1     -10.155  56.025  50.782  0.00  0.00    +0.000 OA
ATOM      5  N   UNL     1      -9.230  54.893  48.995  0.00  0.00    +0.000 N 
ATOM      6  C   UNL     1     -10.551  54.763  46.936  0.00  0.00    +0.000 A 
ATOM      7  C   UNL     1      -9.436  54.347  47.687  0.00  0.00    +0.000 A 
ATOM      8  C   UNL     1     -10.753  54.238  45.645  0.00  0.00    +0.000 A 
ATOM      9  C   UNL     1      -8.578  53.386  47.134  0.00  0.00    +0.000 A 
ATOM     10  C   UNL     1      -9.874  53.302  45.105  0.00  0.00    +0.000 A 
ATOM     11  C   UNL     1      -8.788  52.874  45.852  0.00  0.00    +0.000 A 
ENDROOT
BRANCH   1  17
ATOM     12  S   UNL     1     -13.584  59.313  49.459  0.00  0.00    +0.000 S 
ATOM     13  O   UNL     1     -14.727  59.389  48.573  0.00  0.00    +0.000 OA
ATOM     14  O   UNL     1     -12.831  60.511  49.786  0.00  0.00    +0.000 OA
ATOM     15  N   UNL     1     -12.552  58.229  48.841  0.00  0.00    +0.000 N 
ATOM     16  C   UNL     1     -14.188  58.692  50.987  0.00  0.00    +0.000 A 
ATOM     17  C   UNL     1     -12.384  57.069  49.402  0.00  0.00    +0.000 C 
ATOM     18  C   UNL     1     -13.834  57.402  51.345  0.00  0.00    +0.000 A 
ATOM     19  C   UNL     1     -14.988  59.496  51.804  0.00  0.00    +0.000 A 
ATOM     20  N   UNL     1     -13.051  56.607  50.515  0.00  0.00    +0.000 N 
ATOM     21  C   UNL     1     -14.351  56.880  52.537  0.00  0.00    +0.000 A 
ATOM     22  C   UNL     1     -15.470  58.973  53.001  0.00  0.00    +0.000 A 
ATOM     23  C   UNL     1     -15.159  57.662  53.364  0.00  0.00    +0.000 A 
ATOM     24  H   UNL     1     -12.045  58.452  48.029  0.00  0.00    +0.000 HD
ATOM     25  H   UNL     1     -12.968  55.651  50.736  0.00  0.00    +0.000 HD
ENDBRANCH   1  17
BRANCH   3  26
ATOM     26  O   UNL     1     -12.573  56.050  46.688  0.00  0.00    +0.000 OA
ATOM     27  H   UNL     1     -12.913  56.923  46.694  0.00  0.00    +0.000 HD
ENDBRANCH   3  26
BRANCH   5  28
ATOM     28  C   UNL     1      -8.074  54.498  49.808  0.00  0.00    +0.000 C 
BRANCH  28  29
ATOM     29  C   UNL     1      -6.865  55.444  49.773  0.00  0.00    +0.000 C 
BRANCH  29  30
ATOM     30  C   UNL     1      -5.593  54.856  49.167  0.00  0.00    +0.000 C 
ATOM     31  C   UNL     1      -4.751  54.227  50.273  0.00  0.00    +0.000 C 
ENDBRANCH  29  30
ENDBRANCH  28  29
ENDBRANCH   5  28
TORSDOF 5
ENDMDL
MODEL 4
REMARK VINA RESULT:      -7.7      4.404      5.706
REMARK  Name = 300958
REMARK  6 active torsions:
REMARK  status: ('A' for Active; 'I' for Inactive)
REMARK    1  A    between atoms: C_6  and  C_10
REMARK    2  A    between atoms: C_14  and  O_18
REMARK    3  A    between atoms: N_17  and  C_21
REMARK    4  A    between atoms: C_21  and  C_24
REMARK    5  A    between atoms: C_24  and  C_27
REMARK    6  A    between atoms: C_27  and  C_28
REMARK                            x       y       z     vdW  Elec       q    Type
REMARK                         _______ _______ _______ _____ _____    ______ ____
ROOT
ATOM      1  C   UNL     1     -12.460  54.257  49.381  0.00  0.00    +0.000 A 
ATOM      2  C   UNL     1     -11.923  54.295  47.982  0.00  0.00    +0.000 A 
ATOM      3  C   UNL     1     -12.187  53.215  50.182  0.00  0.00    +0.000 A 
ATOM      4  O   UNL     1     -12.092  55.321  47.321  0.00  0.00    +0.000 OA
ATOM      5  N   UNL     1     -11.244  53.181  47.501  0.00  0.00    +0.000 N 
ATOM      6  C   UNL     1     -11.353  52.106  49.700  0.00  0.00    +0.000 A 
ATOM      7  C   UNL     1     -10.875  52.109  48.377  0.00  0.00    +0.000 A 
ATOM      8  C   UNL     1     -11.003  51.050  50.562  0.00  0.00    +0.000 A 
ATOM      9  C   UNL     1     -10.026  51.070  47.970  0.00  0.00    +0.000 A 
ATOM     10  C   UNL     1     -10.177  50.014  50.130  0.00  0.00    +0.000 A 
ATOM     11  C   UNL     1      -9.686  50.027  48.834  0.00  0.00    +0.000 A 
ENDROOT
BRANCH   1  17
ATOM     12  S   UNL     1     -15.290  56.368  51.093  0.00  0.00    +0.000 S 
ATOM     13  O   UNL     1     -15.157  56.408  52.534  0.00  0.00    +0.000 OA
ATOM     14  O   UNL     1     -16.599  56.210  50.483  0.00  0.00    +0.000 OA
ATOM     15  N   UNL     1     -14.337  55.180  50.542  0.00  0.00    +0.000 N 
ATOM     16  C   UNL     1     -14.663  57.898  50.499  0.00  0.00    +0.000 A 
ATOM     17  C   UNL     1     -13.242  55.446  49.895  0.00  0.00    +0.000 C 
ATOM     18  C   UNL     1     -13.457  57.883  49.820  0.00  0.00    +0.000 A 
ATOM     19  C   UNL     1     -15.383  59.079  50.708  0.00  0.00    +0.000 A 
ATOM     20  N   UNL     1     -12.744  56.703  49.634  0.00  0.00    +0.000 N 
ATOM     21  C   UNL     1     -12.925  59.103  49.387  0.00  0.00    +0.000 A 
ATOM     22  C   UNL     1     -14.855  60.281  50.244  0.00  0.00    +0.000 A 
ATOM     23  C   UNL     1     -13.622  60.295  49.591  0.00  0.00    +0.000 A 
ATOM     24  H   UNL     1     -14.591  54.244  50.700  0.00  0.00    +0.000 HD
ATOM     25  H   UNL     1     -11.822  56.771  49.295  0.00  0.00    +0.000 HD
ENDBRANCH   1  17
BRANCH   3  26
ATOM     26  O   UNL     1     -12.596  53.114  51.502  0.00  0.00    +0.000 OA
ATOM     27  H   UNL     1     -13.394  52.670  51.712  0.00  0.00    +0.000 HD
ENDBRANCH   3  26
BRANCH   5  28
ATOM     28  C   UNL     1     -10.779  53.219  46.110  0.00  0.00    +0.000 C 
BRANCH  28  29
ATOM     29  C   UNL     1     -11.728  52.621  45.062  0.00  0.00    +0.000 C 
BRANCH  29  30
ATOM     30  C   UNL     1     -11.204  51.384  44.336  0.00  0.00    +0.000 C 
ATOM     31  C   UNL     1     -10.266  51.818  43.213  0.00  0.00    +0.000 C 
ENDBRANCH  29  30
ENDBRANCH  28  29
ENDBRANCH   5  28
TORSDOF 5
ENDMDL
MODEL 5
REMARK VINA RESULT:      -7.6      4.034      5.952
REMARK  Name = 300958
REMARK  6 active torsions:
REMARK  status: ('A' for Active; 'I' for Inactive)
REMARK    1  A    between atoms: C_6  and  C_10
REMARK    2  A    between atoms: C_14  and  O_18
REMARK    3  A    between atoms: N_17  and  C_21
REMARK    4  A    between atoms: C_21  and  C_24
REMARK    5  A    between atoms: C_24  and  C_27
REMARK    6  A    between atoms: C_27  and  C_28
REMARK                            x       y       z     vdW  Elec       q    Type
REMARK                         _______ _______ _______ _____ _____    ______ ____
ROOT
ATOM      1  C   UNL     1     -11.520  55.959  48.731  0.00  0.00    +0.000 A 
ATOM      2  C   UNL     1     -11.743  55.543  47.309  0.00  0.00    +0.000 A 
ATOM      3  C   UNL     1     -10.436  55.530  49.399  0.00  0.00    +0.000 A 
ATOM      4  O   UNL     1     -12.680  56.054  46.693  0.00  0.00    +0.000 OA
ATOM      5  N   UNL     1     -10.874  54.616  46.744  0.00  0.00    +0.000 N 
ATOM      6  C   UNL     1      -9.456  54.656  48.741  0.00  0.00    +0.000 A 
ATOM      7  C   UNL     1      -9.673  54.225  47.419  0.00  0.00    +0.000 A 
ATOM      8  C   UNL     1      -8.282  54.266  49.415  0.00  0.00    +0.000 A 
ATOM      9  C   UNL     1      -8.684  53.448  46.799  0.00  0.00    +0.000 A 
ATOM     10  C   UNL     1      -7.324  53.474  48.787  0.00  0.00    +0.000 A 
ATOM     11  C   UNL     1      -7.525  53.068  47.477  0.00  0.00    +0.000 A 
ENDROOT
BRANCH   1  17
ATOM     12  S   UNL     1     -13.550  59.243  49.428  0.00  0.00    +0.000 S 
ATOM     13  O   UNL     1     -14.692  59.386  48.550  0.00  0.00    +0.000 OA
ATOM     14  O   UNL     1     -12.723  60.394  49.747  0.00  0.00    +0.000 OA
ATOM     15  N   UNL     1     -12.589  58.098  48.806  0.00  0.00    +0.000 N 
ATOM     16  C   UNL     1     -14.179  58.663  50.962  0.00  0.00    +0.000 A 
ATOM     17  C   UNL     1     -12.488  56.930  49.369  0.00  0.00    +0.000 C 
ATOM     18  C   UNL     1     -13.901  57.355  51.321  0.00  0.00    +0.000 A 
ATOM     19  C   UNL     1     -14.923  59.516  51.783  0.00  0.00    +0.000 A 
ATOM     20  N   UNL     1     -13.173  56.512  50.488  0.00  0.00    +0.000 N 
ATOM     21  C   UNL     1     -14.440  56.868  52.518  0.00  0.00    +0.000 A 
ATOM     22  C   UNL     1     -15.427  59.026  52.984  0.00  0.00    +0.000 A 
ATOM     23  C   UNL     1     -15.193  57.700  53.349  0.00  0.00    +0.000 A 
ATOM     24  H   UNL     1     -12.075  58.288  47.990  0.00  0.00    +0.000 HD
ATOM     25  H   UNL     1     -13.147  55.554  50.711  0.00  0.00    +0.000 HD
ENDBRANCH   1  17
BRANCH   3  26
ATOM     26  O   UNL     1     -10.120  55.898  50.697  0.00  0.00    +0.000 OA
ATOM     27  H   UNL     1      -9.541  56.618  50.851  0.00  0.00    +0.000 HD
ENDBRANCH   3  26
BRANCH   5  28
ATOM     28  C   UNL     1     -11.147  54.180  45.369  0.00  0.00    +0.000 C 
BRANCH  28  29
ATOM     29  C   UNL     1     -11.930  52.868  45.218  0.00  0.00    +0.000 C 
BRANCH  29  30
ATOM     30  C   UNL     1     -11.167  51.727  44.548  0.00  0.00    +0.000 C 
ATOM     31  C   UNL     1     -10.205  52.302  43.513  0.00  0.00    +0.000 C 
ENDBRANCH  29  30
ENDBRANCH  28  29
ENDBRANCH   5  28
TORSDOF 5
ENDMDL
MODEL 6
REMARK VINA RESULT:      -7.6      3.086      7.274
REMARK  Name = 300958
REMARK  6 active torsions:
REMARK  status: ('A' for Active; 'I' for Inactive)
REMARK    1  A    between atoms: C_6  and  C_10
REMARK    2  A    between atoms: C_14  and  O_18
REMARK    3  A    between atoms: N_17  and  C_21
REMARK    4  A    between atoms: C_21  and  C_24
REMARK    5  A    between atoms: C_24  and  C_27
REMARK    6  A    between atoms: C_27  and  C_28
REMARK                            x       y       z     vdW  Elec       q    Type
REMARK                         _______ _______ _______ _____ _____    ______ ____
ROOT
ATOM      1  C   UNL     1     -10.255  55.186  50.804  0.00  0.00    +0.000 A 
ATOM      2  C   UNL     1      -9.837  55.102  49.367  0.00  0.00    +0.000 A 
ATOM      3  C   UNL     1     -11.465  55.670  51.129  0.00  0.00    +0.000 A 
ATOM      4  O   UNL     1      -8.773  54.540  49.103  0.00  0.00    +0.000 OA
ATOM      5  N   UNL     1     -10.674  55.644  48.399  0.00  0.00    +0.000 N 
ATOM      6  C   UNL     1     -12.393  56.115  50.080  0.00  0.00    +0.000 A 
ATOM      7  C   UNL     1     -11.998  56.080  48.730  0.00  0.00    +0.000 A 
ATOM      8  C   UNL     1     -13.689  56.553  50.414  0.00  0.00    +0.000 A 
ATOM      9  C   UNL     1     -12.932  56.447  47.751  0.00  0.00    +0.000 A 
ATOM     10  C   UNL     1     -14.593  56.937  49.425  0.00  0.00    +0.000 A 
ATOM     11  C   UNL     1     -14.214  56.880  48.093  0.00  0.00    +0.000 A 
ENDROOT
BRANCH   1  17
ATOM     12  S   UNL     1      -7.066  54.688  53.035  0.00  0.00    +0.000 S 
ATOM     13  O   UNL     1      -6.978  55.663  54.101  0.00  0.00    +0.000 OA
ATOM     14  O   UNL     1      -5.878  54.305  52.293  0.00  0.00    +0.000 OA
ATOM     15  N   UNL     1      -8.168  55.217  51.972  0.00  0.00    +0.000 N 
ATOM     16  C   UNL     1      -7.672  53.212  53.769  0.00  0.00    +0.000 A 
ATOM     17  C   UNL     1      -9.328  54.641  51.868  0.00  0.00    +0.000 C 
ATOM     18  C   UNL     1      -8.965  52.821  53.464  0.00  0.00    +0.000 A 
ATOM     19  C   UNL     1      -6.853  52.464  54.620  0.00  0.00    +0.000 A 
ATOM     20  N   UNL     1      -9.775  53.584  52.628  0.00  0.00    +0.000 N 
ATOM     21  C   UNL     1      -9.474  51.674  54.083  0.00  0.00    +0.000 A 
ATOM     22  C   UNL     1      -7.363  51.308  55.204  0.00  0.00    +0.000 A 
ATOM     23  C   UNL     1      -8.677  50.917  54.943  0.00  0.00    +0.000 A 
ATOM     24  H   UNL     1      -7.955  55.986  51.398  0.00  0.00    +0.000 HD
ATOM     25  H   UNL     1     -10.731  53.353  52.578  0.00  0.00    +0.000 HD
ENDBRANCH   1  17
BRANCH   3  26
ATOM     26  O   UNL     1     -11.959  55.741  52.421  0.00  0.00    +0.000 OA
ATOM     27  H   UNL     1     -12.124  54.955  52.903  0.00  0.00    +0.000 HD
ENDBRANCH   3  26
BRANCH   5  28
ATOM     28  C   UNL     1     -10.216  55.603  47.005  0.00  0.00    +0.000 C 
BRANCH  28  29
ATOM     29  C   UNL     1     -10.556  54.331  46.217  0.00  0.00    +0.000 C 
BRANCH  29  30
ATOM     30  C   UNL     1      -9.356  53.506  45.758  0.00  0.00    +0.000 C 
ATOM     31  C   UNL     1      -8.202  54.443  45.416  0.00  0.00    +0.000 C 
ENDBRANCH  29  30
ENDBRANCH  28  29
ENDBRANCH   5  28
TORSDOF 5
ENDMDL
MODEL 7
REMARK VINA RESULT:      -7.5      4.230      6.175
REMARK  Name = 300958
REMARK  6 active torsions:
REMARK  status: ('A' for Active; 'I' for Inactive)
REMARK    1  A    between atoms: C_6  and  C_10
REMARK    2  A    between atoms: C_14  and  O_18
REMARK    3  A    between atoms: N_17  and  C_21
REMARK    4  A    between atoms: C_21  and  C_24
REMARK    5  A    between atoms: C_24  and  C_27
REMARK    6  A    between atoms: C_27  and  C_28
REMARK                            x       y       z     vdW  Elec       q    Type
REMARK                         _______ _______ _______ _____ _____    ______ ____
ROOT
ATOM      1  C   UNL     1     -10.840  55.688  48.680  0.00  0.00    +0.000 A 
ATOM      2  C   UNL     1     -11.213  55.246  47.298  0.00  0.00    +0.000 A 
ATOM      3  C   UNL     1      -9.588  55.512  49.131  0.00  0.00    +0.000 A 
ATOM      4  O   UNL     1     -12.335  55.536  46.876  0.00  0.00    +0.000 OA
ATOM      5  N   UNL     1     -10.274  54.547  46.548  0.00  0.00    +0.000 N 
ATOM      6  C   UNL     1      -8.570  54.891  48.273  0.00  0.00    +0.000 A 
ATOM      7  C   UNL     1      -8.916  54.434  46.988  0.00  0.00    +0.000 A 
ATOM      8  C   UNL     1      -7.238  54.773  48.717  0.00  0.00    +0.000 A 
ATOM      9  C   UNL     1      -7.905  53.909  46.170  0.00  0.00    +0.000 A 
ATOM     10  C   UNL     1      -6.255  54.225  47.896  0.00  0.00    +0.000 A 
ATOM     11  C   UNL     1      -6.589  53.796  46.621  0.00  0.00    +0.000 A 
ENDROOT
BRANCH   1  17
ATOM     12  S   UNL     1     -13.520  56.383  51.460  0.00  0.00    +0.000 S 
ATOM     13  O   UNL     1     -12.922  56.696  52.740  0.00  0.00    +0.000 OA
ATOM     14  O   UNL     1     -14.686  55.519  51.388  0.00  0.00    +0.000 OA
ATOM     15  N   UNL     1     -12.367  55.742  50.521  0.00  0.00    +0.000 N 
ATOM     16  C   UNL     1     -14.014  57.916  50.760  0.00  0.00    +0.000 A 
ATOM     17  C   UNL     1     -11.872  56.407  49.520  0.00  0.00    +0.000 C 
ATOM     18  C   UNL     1     -13.301  58.389  49.671  0.00  0.00    +0.000 A 
ATOM     19  C   UNL     1     -15.102  58.613  51.293  0.00  0.00    +0.000 A 
ATOM     20  N   UNL     1     -12.209  57.693  49.161  0.00  0.00    +0.000 N 
ATOM     21  C   UNL     1     -13.654  59.634  49.138  0.00  0.00    +0.000 A 
ATOM     22  C   UNL     1     -15.461  59.835  50.732  0.00  0.00    +0.000 A 
ATOM     23  C   UNL     1     -14.732  60.351  49.660  0.00  0.00    +0.000 A 
ATOM     24  H   UNL     1     -12.037  54.835  50.711  0.00  0.00    +0.000 HD
ATOM     25  H   UNL     1     -11.641  58.150  48.500  0.00  0.00    +0.000 HD
ENDBRANCH   1  17
BRANCH   3  26
ATOM     26  O   UNL     1      -9.136  55.930  50.372  0.00  0.00    +0.000 OA
ATOM     27  H   UNL     1      -9.699  56.428  50.932  0.00  0.00    +0.000 HD
ENDBRANCH   3  26
BRANCH   5  28
ATOM     28  C   UNL     1     -10.683  54.073  45.220  0.00  0.00    +0.000 C 
BRANCH  28  29
ATOM     29  C   UNL     1     -11.211  52.633  45.147  0.00  0.00    +0.000 C 
BRANCH  29  30
ATOM     30  C   UNL     1     -10.368  51.670  44.314  0.00  0.00    +0.000 C 
ATOM     31  C   UNL     1      -9.952  52.358  43.017  0.00  0.00    +0.000 C 
ENDBRANCH  29  30
ENDBRANCH  28  29
ENDBRANCH   5  28
TORSDOF 5
ENDMDL
MODEL 8
REMARK VINA RESULT:      -7.4      3.852      5.445
REMARK  Name = 300958
REMARK  6 active torsions:
REMARK  status: ('A' for Active; 'I' for Inactive)
REMARK    1  A    between atoms: C_6  and  C_10
REMARK    2  A    between atoms: C_14  and  O_18
REMARK    3  A    between atoms: N_17  and  C_21
REMARK    4  A    between atoms: C_21  and  C_24
REMARK    5  A    between atoms: C_24  and  C_27
REMARK    6  A    between atoms: C_27  and  C_28
REMARK                            x       y       z     vdW  Elec       q    Type
REMARK                         _______ _______ _______ _____ _____    ______ ____
ROOT
ATOM      1  C   UNL     1     -11.020  55.366  48.467  0.00  0.00    +0.000 A 
ATOM      2  C   UNL     1      -9.730  54.856  49.035  0.00  0.00    +0.000 A 
ATOM      3  C   UNL     1     -11.368  55.066  47.205  0.00  0.00    +0.000 A 
ATOM      4  O   UNL     1      -9.504  55.048  50.231  0.00  0.00    +0.000 OA
ATOM      5  N   UNL     1      -8.857  54.175  48.194  0.00  0.00    +0.000 N 
ATOM      6  C   UNL     1     -10.493  54.230  46.372  0.00  0.00    +0.000 A 
ATOM      7  C   UNL     1      -9.261  53.778  46.878  0.00  0.00    +0.000 A 
ATOM      8  C   UNL     1     -10.891  53.853  45.075  0.00  0.00    +0.000 A 
ATOM      9  C   UNL     1      -8.482  52.927  46.082  0.00  0.00    +0.000 A 
ATOM     10  C   UNL     1     -10.090  53.026  44.291  0.00  0.00    +0.000 A 
ATOM     11  C   UNL     1      -8.887  52.560  44.797  0.00  0.00    +0.000 A 
ENDROOT
BRANCH   1  17
ATOM     12  S   UNL     1     -13.474  56.233  51.403  0.00  0.00    +0.000 S 
ATOM     13  O   UNL     1     -12.778  56.522  52.640  0.00  0.00    +0.000 OA
ATOM     14  O   UNL     1     -14.688  55.436  51.415  0.00  0.00    +0.000 OA
ATOM     15  N   UNL     1     -12.421  55.520  50.400  0.00  0.00    +0.000 N 
ATOM     16  C   UNL     1     -13.924  57.786  50.718  0.00  0.00    +0.000 A 
ATOM     17  C   UNL     1     -11.953  56.149  49.363  0.00  0.00    +0.000 C 
ATOM     18  C   UNL     1     -13.256  58.209  49.581  0.00  0.00    +0.000 A 
ATOM     19  C   UNL     1     -14.935  58.548  51.311  0.00  0.00    +0.000 A 
ATOM     20  N   UNL     1     -12.240  57.449  49.011  0.00  0.00    +0.000 N 
ATOM     21  C   UNL     1     -13.572  59.468  49.057  0.00  0.00    +0.000 A 
ATOM     22  C   UNL     1     -15.259  59.785  50.760  0.00  0.00    +0.000 A 
ATOM     23  C   UNL     1     -14.572  60.249  49.638  0.00  0.00    +0.000 A 
ATOM     24  H   UNL     1     -12.130  54.598  50.579  0.00  0.00    +0.000 HD
ATOM     25  H   UNL     1     -11.690  57.867  48.310  0.00  0.00    +0.000 HD
ENDBRANCH   1  17
BRANCH   3  26
ATOM     26  O   UNL     1     -12.559  55.449  46.610  0.00  0.00    +0.000 OA
ATOM     27  H   UNL     1     -13.184  54.800  46.353  0.00  0.00    +0.000 HD
ENDBRANCH   3  26
BRANCH   5  28
ATOM     28  C   UNL     1      -7.575  53.737  48.758  0.00  0.00    +0.000 C 
BRANCH  28  29
ATOM     29  C   UNL     1      -6.352  54.597  48.409  0.00  0.00    +0.000 C 
BRANCH  29  30
ATOM     30  C   UNL     1      -5.693  55.306  49.591  0.00  0.00    +0.000 C 
ATOM     31  C   UNL     1      -5.936  54.499  50.862  0.00  0.00    +0.000 C 
ENDBRANCH  29  30
ENDBRANCH  28  29
ENDBRANCH   5  28
TORSDOF 5
ENDMDL
MODEL 9
REMARK VINA RESULT:      -7.2      4.786      7.229
REMARK  Name = 300958
REMARK  6 active torsions:
REMARK  status: ('A' for Active; 'I' for Inactive)
REMARK    1  A    between atoms: C_6  and  C_10
REMARK    2  A    between atoms: C_14  and  O_18
REMARK    3  A    between atoms: N_17  and  C_21
REMARK    4  A    between atoms: C_21  and  C_24
REMARK    5  A    between atoms: C_24  and  C_27
REMARK    6  A    between atoms: C_27  and  C_28
REMARK                            x       y       z     vdW  Elec       q    Type
REMARK                         _______ _______ _______ _____ _____    ______ ____
ROOT
ATOM      1  C   UNL     1     -11.004  54.505  48.476  0.00  0.00    +0.000 A 
ATOM      2  C   UNL     1     -10.601  54.116  49.866  0.00  0.00    +0.000 A 
ATOM      3  C   UNL     1     -12.008  55.376  48.282  0.00  0.00    +0.000 A 
ATOM      4  O   UNL     1      -9.599  53.413  50.006  0.00  0.00    +0.000 OA
ATOM      5  N   UNL     1     -11.362  54.581  50.933  0.00  0.00    +0.000 N 
ATOM      6  C   UNL     1     -12.715  55.962  49.428  0.00  0.00    +0.000 A 
ATOM      7  C   UNL     1     -12.374  55.576  50.738  0.00  0.00    +0.000 A 
ATOM      8  C   UNL     1     -13.717  56.931  49.229  0.00  0.00    +0.000 A 
ATOM      9  C   UNL     1     -13.021  56.205  51.811  0.00  0.00    +0.000 A 
ATOM     10  C   UNL     1     -14.364  57.526  50.309  0.00  0.00    +0.000 A 
ATOM     11  C   UNL     1     -14.013  57.164  51.601  0.00  0.00    +0.000 A 
ENDROOT
BRANCH   1  17
ATOM     12  S   UNL     1      -8.065  53.948  45.937  0.00  0.00    +0.000 S 
ATOM     13  O   UNL     1      -7.048  53.057  46.454  0.00  0.00    +0.000 OA
ATOM     14  O   UNL     1      -7.688  55.140  45.197  0.00  0.00    +0.000 OA
ATOM     15  N   UNL     1      -8.996  54.408  47.180  0.00  0.00    +0.000 N 
ATOM     16  C   UNL     1      -9.046  52.990  44.839  0.00  0.00    +0.000 A 
ATOM     17  C   UNL     1     -10.211  53.964  47.307  0.00  0.00    +0.000 C 
ATOM     18  C   UNL     1     -10.333  52.669  45.234  0.00  0.00    +0.000 A 
ATOM     19  C   UNL     1      -8.526  52.586  43.605  0.00  0.00    +0.000 A 
ATOM     20  N   UNL     1     -10.832  53.062  46.472  0.00  0.00    +0.000 N 
ATOM     21  C   UNL     1     -11.104  51.863  44.388  0.00  0.00    +0.000 A 
ATOM     22  C   UNL     1      -9.316  51.811  42.761  0.00  0.00    +0.000 A 
ATOM     23  C   UNL     1     -10.603  51.442  43.156  0.00  0.00    +0.000 A 
ATOM     24  H   UNL     1      -8.635  55.031  47.850  0.00  0.00    +0.000 HD
ATOM     25  H   UNL     1     -11.684  52.670  46.771  0.00  0.00    +0.000 HD
ENDBRANCH   1  17
BRANCH   3  26
ATOM     26  O   UNL     1     -12.420  55.831  47.040  0.00  0.00    +0.000 OA
ATOM     27  H   UNL     1     -13.262  55.588  46.708  0.00  0.00    +0.000 HD
ENDBRANCH   3  26
BRANCH   5  28
ATOM     28  C   UNL     1     -10.982  54.139  52.280  0.00  0.00    +0.000 C 
BRANCH  28  29
ATOM     29  C   UNL     1      -9.985  55.033  53.030  0.00  0.00    +0.000 C 
BRANCH  29  30
ATOM     30  C   UNL     1      -8.663  54.367  53.405  0.00  0.00    +0.000 C 
ATOM     31  C   UNL     1      -7.777  55.375  54.130  0.00  0.00    +0.000 C 
ENDBRANCH  29  30
ENDBRANCH  28  29
ENDBRANCH   5  28
TORSDOF 5
ENDMDL
