MODEL 1
REMARK VINA RESULT:      -8.2      0.000      0.000
REMARK  Name = 298159
REMARK  7 active torsions:
REMARK  status: ('A' for Active; 'I' for Inactive)
REMARK    1  A    between atoms: C_6  and  C_10
REMARK    2  A    between atoms: C_14  and  O_18
REMARK    3  A    between atoms: N_17  and  C_21
REMARK    4  A    between atoms: C_21  and  C_24
REMARK    5  A    between atoms: C_24  and  C_27
REMARK    6  A    between atoms: C_27  and  C_28
REMARK    7  A    between atoms: C_27  and  C_29
REMARK                            x       y       z     vdW  Elec       q    Type
REMARK                         _______ _______ _______ _____ _____    ______ ____
ROOT
ATOM      1  C   UNL     1     -10.184  54.411  52.368  0.00  0.00    +0.000 A 
ATOM      2  C   UNL     1      -8.791  54.951  52.325  0.00  0.00    +0.000 A 
ATOM      3  C   UNL     1     -10.446  53.286  53.057  0.00  0.00    +0.000 A 
ATOM      4  O   UNL     1      -8.609  56.049  51.789  0.00  0.00    +0.000 OA
ATOM      5  N   UNL     1      -7.763  54.210  52.901  0.00  0.00    +0.000 N 
ATOM      6  C   UNL     1      -9.374  52.591  53.785  0.00  0.00    +0.000 A 
ATOM      7  C   UNL     1      -8.053  53.068  53.712  0.00  0.00    +0.000 A 
ATOM      8  C   UNL     1      -9.661  51.465  54.578  0.00  0.00    +0.000 A 
ATOM      9  C   UNL     1      -7.064  52.420  54.471  0.00  0.00    +0.000 A 
ATOM     10  C   UNL     1      -8.659  50.818  55.299  0.00  0.00    +0.000 A 
ATOM     11  C   UNL     1      -7.360  51.300  55.248  0.00  0.00    +0.000 A 
ENDROOT
BRANCH   1  17
ATOM     12  S   UNL     1     -12.352  56.103  49.557  0.00  0.00    +0.000 S 
ATOM     13  O   UNL     1     -13.224  55.166  48.875  0.00  0.00    +0.000 OA
ATOM     14  O   UNL     1     -11.642  57.120  48.809  0.00  0.00    +0.000 OA
ATOM     15  N   UNL     1     -11.261  55.243  50.391  0.00  0.00    +0.000 N 
ATOM     16  C   UNL     1     -13.369  56.969  50.700  0.00  0.00    +0.000 A 
ATOM     17  C   UNL     1     -11.297  55.190  51.691  0.00  0.00    +0.000 C 
ATOM     18  C   UNL     1     -13.186  56.712  52.049  0.00  0.00    +0.000 A 
ATOM     19  C   UNL     1     -14.314  57.890  50.240  0.00  0.00    +0.000 A 
ATOM     20  N   UNL     1     -12.247  55.786  52.492  0.00  0.00    +0.000 N 
ATOM     21  C   UNL     1     -14.031  57.351  52.962  0.00  0.00    +0.000 A 
ATOM     22  C   UNL     1     -15.124  58.547  51.164  0.00  0.00    +0.000 A 
ATOM     23  C   UNL     1     -14.988  58.270  52.524  0.00  0.00    +0.000 A 
ATOM     24  H   UNL     1     -10.559  54.752  49.906  0.00  0.00    +0.000 HD
ATOM     25  H   UNL     1     -12.262  55.538  53.445  0.00  0.00    +0.000 HD
ENDBRANCH   1  17
BRANCH   3  26
ATOM     26  O   UNL     1     -11.704  52.722  53.184  0.00  0.00    +0.000 OA
ATOM     27  H   UNL     1     -11.809  51.910  53.638  0.00  0.00    +0.000 HD
ENDBRANCH   3  26
BRANCH   5  28
ATOM     28  C   UNL     1      -6.397  54.731  52.779  0.00  0.00    +0.000 C 
BRANCH  28  29
ATOM     29  C   UNL     1      -5.570  54.193  51.597  0.00  0.00    +0.000 C 
BRANCH  29  30
ATOM     30  C   UNL     1      -4.174  53.634  51.923  0.00  0.00    +0.000 C 
ATOM     31  C   UNL     1      -3.847  53.697  53.413  0.00  0.00    +0.000 C 
ATOM     32  C   UNL     1      -4.104  52.177  51.444  0.00  0.00    +0.000 C 
ENDBRANCH  29  30
ENDBRANCH  28  29
ENDBRANCH   5  28
TORSDOF 5
ENDMDL
MODEL 2
REMARK VINA RESULT:      -7.9      2.089      2.851
REMARK  Name = 298159
REMARK  7 active torsions:
REMARK  status: ('A' for Active; 'I' for Inactive)
REMARK    1  A    between atoms: C_6  and  C_10
REMARK    2  A    between atoms: C_14  and  O_18
REMARK    3  A    between atoms: N_17  and  C_21
REMARK    4  A    between atoms: C_21  and  C_24
REMARK    5  A    between atoms: C_24  and  C_27
REMARK    6  A    between atoms: C_27  and  C_28
REMARK    7  A    between atoms: C_27  and  C_29
REMARK                            x       y       z     vdW  Elec       q    Type
REMARK                         _______ _______ _______ _____ _____    ______ ____
ROOT
ATOM      1  C   UNL     1     -11.560  54.052  51.169  0.00  0.00    +0.000 A 
ATOM      2  C   UNL     1     -10.621  54.084  52.333  0.00  0.00    +0.000 A 
ATOM      3  C   UNL     1     -11.663  52.940  50.422  0.00  0.00    +0.000 A 
ATOM      4  O   UNL     1     -10.642  55.075  53.070  0.00  0.00    +0.000 OA
ATOM      5  N   UNL     1      -9.780  52.997  52.550  0.00  0.00    +0.000 N 
ATOM      6  C   UNL     1     -10.873  51.743  50.752  0.00  0.00    +0.000 A 
ATOM      7  C   UNL     1      -9.956  51.780  51.817  0.00  0.00    +0.000 A 
ATOM      8  C   UNL     1     -11.045  50.551  50.027  0.00  0.00    +0.000 A 
ATOM      9  C   UNL     1      -9.264  50.603  52.148  0.00  0.00    +0.000 A 
ATOM     10  C   UNL     1     -10.326  49.401  50.351  0.00  0.00    +0.000 A 
ATOM     11  C   UNL     1      -9.437  49.428  51.416  0.00  0.00    +0.000 A 
ENDROOT
BRANCH   1  17
ATOM     12  S   UNL     1     -13.238  57.078  49.300  0.00  0.00    +0.000 S 
ATOM     13  O   UNL     1     -14.330  56.672  48.436  0.00  0.00    +0.000 OA
ATOM     14  O   UNL     1     -12.295  58.087  48.863  0.00  0.00    +0.000 OA
ATOM     15  N   UNL     1     -12.401  55.746  49.693  0.00  0.00    +0.000 N 
ATOM     16  C   UNL     1     -13.984  57.716  50.757  0.00  0.00    +0.000 A 
ATOM     17  C   UNL     1     -12.437  55.261  50.899  0.00  0.00    +0.000 C 
ATOM     18  C   UNL     1     -13.862  56.975  51.922  0.00  0.00    +0.000 A 
ATOM     19  C   UNL     1     -14.661  58.938  50.722  0.00  0.00    +0.000 A 
ATOM     20  N   UNL     1     -13.192  55.755  51.941  0.00  0.00    +0.000 N 
ATOM     21  C   UNL     1     -14.503  57.446  53.072  0.00  0.00    +0.000 A 
ATOM     22  C   UNL     1     -15.263  59.412  51.885  0.00  0.00    +0.000 A 
ATOM     23  C   UNL     1     -15.192  58.661  53.058  0.00  0.00    +0.000 A 
ATOM     24  H   UNL     1     -11.855  55.298  49.007  0.00  0.00    +0.000 HD
ATOM     25  H   UNL     1     -13.262  55.207  52.755  0.00  0.00    +0.000 HD
ENDBRANCH   1  17
BRANCH   3  26
ATOM     26  O   UNL     1     -12.522  52.798  49.346  0.00  0.00    +0.000 OA
ATOM     27  H   UNL     1     -12.331  53.228  48.535  0.00  0.00    +0.000 HD
ENDBRANCH   3  26
BRANCH   5  28
ATOM     28  C   UNL     1      -8.820  53.088  53.656  0.00  0.00    +0.000 C 
BRANCH  28  29
ATOM     29  C   UNL     1      -7.452  53.708  53.317  0.00  0.00    +0.000 C 
BRANCH  29  30
ATOM     30  C   UNL     1      -6.956  54.840  54.234  0.00  0.00    +0.000 C 
ATOM     31  C   UNL     1      -5.503  54.653  54.665  0.00  0.00    +0.000 C 
ATOM     32  C   UNL     1      -7.103  56.174  53.490  0.00  0.00    +0.000 C 
ENDBRANCH  29  30
ENDBRANCH  28  29
ENDBRANCH   5  28
TORSDOF 5
ENDMDL
MODEL 3
REMARK VINA RESULT:      -7.9      4.272      5.704
REMARK  Name = 298159
REMARK  7 active torsions:
REMARK  status: ('A' for Active; 'I' for Inactive)
REMARK    1  A    between atoms: C_6  and  C_10
REMARK    2  A    between atoms: C_14  and  O_18
REMARK    3  A    between atoms: N_17  and  C_21
REMARK    4  A    between atoms: C_21  and  C_24
REMARK    5  A    between atoms: C_24  and  C_27
REMARK    6  A    between atoms: C_27  and  C_28
REMARK    7  A    between atoms: C_27  and  C_29
REMARK                            x       y       z     vdW  Elec       q    Type
REMARK                         _______ _______ _______ _____ _____    ______ ____
ROOT
ATOM      1  C   UNL     1     -12.544  54.260  49.619  0.00  0.00    +0.000 A 
ATOM      2  C   UNL     1     -12.013  54.217  48.222  0.00  0.00    +0.000 A 
ATOM      3  C   UNL     1     -12.264  53.262  50.474  0.00  0.00    +0.000 A 
ATOM      4  O   UNL     1     -12.185  55.206  47.503  0.00  0.00    +0.000 OA
ATOM      5  N   UNL     1     -11.334  53.079  47.795  0.00  0.00    +0.000 N 
ATOM      6  C   UNL     1     -11.420  52.133  50.052  0.00  0.00    +0.000 A 
ATOM      7  C   UNL     1     -10.953  52.063  48.727  0.00  0.00    +0.000 A 
ATOM      8  C   UNL     1     -11.052  51.133  50.970  0.00  0.00    +0.000 A 
ATOM      9  C   UNL     1     -10.097  51.007  48.373  0.00  0.00    +0.000 A 
ATOM     10  C   UNL     1     -10.226  50.076  50.591  0.00  0.00    +0.000 A 
ATOM     11  C   UNL     1      -9.746  50.016  49.291  0.00  0.00    +0.000 A 
ENDROOT
BRANCH   1  17
ATOM     12  S   UNL     1     -15.410  56.460  51.174  0.00  0.00    +0.000 S 
ATOM     13  O   UNL     1     -15.326  56.558  52.618  0.00  0.00    +0.000 OA
ATOM     14  O   UNL     1     -16.694  56.285  50.525  0.00  0.00    +0.000 OA
ATOM     15  N   UNL     1     -14.444  55.245  50.706  0.00  0.00    +0.000 N 
ATOM     16  C   UNL     1     -14.755  57.964  50.545  0.00  0.00    +0.000 A 
ATOM     17  C   UNL     1     -13.334  55.476  50.068  0.00  0.00    +0.000 C 
ATOM     18  C   UNL     1     -13.532  57.915  49.897  0.00  0.00    +0.000 A 
ATOM     19  C   UNL     1     -15.468  59.156  50.695  0.00  0.00    +0.000 A 
ATOM     20  N   UNL     1     -12.828  56.721  49.762  0.00  0.00    +0.000 N 
ATOM     21  C   UNL     1     -12.975  59.116  49.447  0.00  0.00    +0.000 A 
ATOM     22  C   UNL     1     -14.918  60.341  50.209  0.00  0.00    +0.000 A 
ATOM     23  C   UNL     1     -13.667  60.321  49.594  0.00  0.00    +0.000 A 
ATOM     24  H   UNL     1     -14.701  54.317  50.908  0.00  0.00    +0.000 HD
ATOM     25  H   UNL     1     -11.905  56.770  49.425  0.00  0.00    +0.000 HD
ENDBRANCH   1  17
BRANCH   3  26
ATOM     26  O   UNL     1     -12.681  53.222  51.793  0.00  0.00    +0.000 OA
ATOM     27  H   UNL     1     -12.522  53.954  52.357  0.00  0.00    +0.000 HD
ENDBRANCH   3  26
BRANCH   5  28
ATOM     28  C   UNL     1     -10.888  53.036  46.398  0.00  0.00    +0.000 C 
BRANCH  28  29
ATOM     29  C   UNL     1     -11.940  52.600  45.363  0.00  0.00    +0.000 C 
BRANCH  29  30
ATOM     30  C   UNL     1     -11.496  51.569  44.311  0.00  0.00    +0.000 C 
ATOM     31  C   UNL     1     -10.267  52.020  43.526  0.00  0.00    +0.000 C 
ATOM     32  C   UNL     1     -11.193  50.242  45.021  0.00  0.00    +0.000 C 
ENDBRANCH  29  30
ENDBRANCH  28  29
ENDBRANCH   5  28
TORSDOF 5
ENDMDL
MODEL 4
REMARK VINA RESULT:      -7.9      3.461      4.981
REMARK  Name = 298159
REMARK  7 active torsions:
REMARK  status: ('A' for Active; 'I' for Inactive)
REMARK    1  A    between atoms: C_6  and  C_10
REMARK    2  A    between atoms: C_14  and  O_18
REMARK    3  A    between atoms: N_17  and  C_21
REMARK    4  A    between atoms: C_21  and  C_24
REMARK    5  A    between atoms: C_24  and  C_27
REMARK    6  A    between atoms: C_27  and  C_28
REMARK    7  A    between atoms: C_27  and  C_29
REMARK                            x       y       z     vdW  Elec       q    Type
REMARK                         _______ _______ _______ _____ _____    ______ ____
ROOT
ATOM      1  C   UNL     1     -11.300  56.140  48.735  0.00  0.00    +0.000 A 
ATOM      2  C   UNL     1     -10.118  55.706  49.541  0.00  0.00    +0.000 A 
ATOM      3  C   UNL     1     -11.465  55.675  47.484  0.00  0.00    +0.000 A 
ATOM      4  O   UNL     1     -10.062  56.053  50.725  0.00  0.00    +0.000 OA
ATOM      5  N   UNL     1      -9.142  54.920  48.936  0.00  0.00    +0.000 N 
ATOM      6  C   UNL     1     -10.501  54.726  46.908  0.00  0.00    +0.000 A 
ATOM      7  C   UNL     1      -9.363  54.348  47.643  0.00  0.00    +0.000 A 
ATOM      8  C   UNL     1     -10.718  54.170  45.634  0.00  0.00    +0.000 A 
ATOM      9  C   UNL     1      -8.495  53.392  47.091  0.00  0.00    +0.000 A 
ATOM     10  C   UNL     1      -9.828  53.245  45.091  0.00  0.00    +0.000 A 
ATOM     11  C   UNL     1      -8.718  52.853  45.823  0.00  0.00    +0.000 A 
ENDROOT
BRANCH   1  17
ATOM     12  S   UNL     1     -13.548  59.286  49.450  0.00  0.00    +0.000 S 
ATOM     13  O   UNL     1     -14.696  59.372  48.568  0.00  0.00    +0.000 OA
ATOM     14  O   UNL     1     -12.793  60.476  49.787  0.00  0.00    +0.000 OA
ATOM     15  N   UNL     1     -12.521  58.204  48.816  0.00  0.00    +0.000 N 
ATOM     16  C   UNL     1     -14.152  58.653  50.974  0.00  0.00    +0.000 A 
ATOM     17  C   UNL     1     -12.336  57.045  49.376  0.00  0.00    +0.000 C 
ATOM     18  C   UNL     1     -13.789  57.364  51.326  0.00  0.00    +0.000 A 
ATOM     19  C   UNL     1     -14.960  59.447  51.793  0.00  0.00    +0.000 A 
ATOM     20  N   UNL     1     -12.990  56.581  50.497  0.00  0.00    +0.000 N 
ATOM     21  C   UNL     1     -14.314  56.831  52.508  0.00  0.00    +0.000 A 
ATOM     22  C   UNL     1     -15.445  58.915  52.985  0.00  0.00    +0.000 A 
ATOM     23  C   UNL     1     -15.130  57.604  53.338  0.00  0.00    +0.000 A 
ATOM     24  H   UNL     1     -12.029  58.429  47.994  0.00  0.00    +0.000 HD
ATOM     25  H   UNL     1     -12.886  55.630  50.727  0.00  0.00    +0.000 HD
ENDBRANCH   1  17
BRANCH   3  26
ATOM     26  O   UNL     1     -12.538  55.991  46.668  0.00  0.00    +0.000 OA
ATOM     27  H   UNL     1     -13.414  55.858  46.974  0.00  0.00    +0.000 HD
ENDBRANCH   3  26
BRANCH   5  28
ATOM     28  C   UNL     1      -7.959  54.571  49.731  0.00  0.00    +0.000 C 
BRANCH  28  29
ATOM     29  C   UNL     1      -6.779  55.556  49.658  0.00  0.00    +0.000 C 
BRANCH  29  30
ATOM     30  C   UNL     1      -5.365  54.956  49.746  0.00  0.00    +0.000 C 
ATOM     31  C   UNL     1      -5.117  54.222  51.061  0.00  0.00    +0.000 C 
ATOM     32  C   UNL     1      -5.169  53.986  48.572  0.00  0.00    +0.000 C 
ENDBRANCH  29  30
ENDBRANCH  28  29
ENDBRANCH   5  28
TORSDOF 5
ENDMDL
MODEL 5
REMARK VINA RESULT:      -7.8      2.657      8.053
REMARK  Name = 298159
REMARK  7 active torsions:
REMARK  status: ('A' for Active; 'I' for Inactive)
REMARK    1  A    between atoms: C_6  and  C_10
REMARK    2  A    between atoms: C_14  and  O_18
REMARK    3  A    between atoms: N_17  and  C_21
REMARK    4  A    between atoms: C_21  and  C_24
REMARK    5  A    between atoms: C_24  and  C_27
REMARK    6  A    between atoms: C_27  and  C_28
REMARK    7  A    between atoms: C_27  and  C_29
REMARK                            x       y       z     vdW  Elec       q    Type
REMARK                         _______ _______ _______ _____ _____    ______ ____
ROOT
ATOM      1  C   UNL     1     -10.062  54.693  50.873  0.00  0.00    +0.000 A 
ATOM      2  C   UNL     1     -11.397  55.239  51.266  0.00  0.00    +0.000 A 
ATOM      3  C   UNL     1      -9.727  54.612  49.574  0.00  0.00    +0.000 A 
ATOM      4  O   UNL     1     -11.624  55.414  52.467  0.00  0.00    +0.000 OA
ATOM      5  N   UNL     1     -12.320  55.543  50.270  0.00  0.00    +0.000 N 
ATOM      6  C   UNL     1     -10.658  55.075  48.533  0.00  0.00    +0.000 A 
ATOM      7  C   UNL     1     -11.933  55.548  48.892  0.00  0.00    +0.000 A 
ATOM      8  C   UNL     1     -10.276  55.074  47.180  0.00  0.00    +0.000 A 
ATOM      9  C   UNL     1     -12.774  56.043  47.882  0.00  0.00    +0.000 A 
ATOM     10  C   UNL     1     -11.137  55.541  46.188  0.00  0.00    +0.000 A 
ATOM     11  C   UNL     1     -12.386  56.029  46.542  0.00  0.00    +0.000 A 
ENDROOT
BRANCH   1  17
ATOM     12  S   UNL     1      -6.814  54.639  53.091  0.00  0.00    +0.000 S 
ATOM     13  O   UNL     1      -6.797  55.689  54.091  0.00  0.00    +0.000 OA
ATOM     14  O   UNL     1      -5.612  54.311  52.353  0.00  0.00    +0.000 OA
ATOM     15  N   UNL     1      -7.976  55.001  52.019  0.00  0.00    +0.000 N 
ATOM     16  C   UNL     1      -7.276  53.170  53.936  0.00  0.00    +0.000 A 
ATOM     17  C   UNL     1      -9.076  54.308  51.961  0.00  0.00    +0.000 C 
ATOM     18  C   UNL     1      -8.529  52.642  53.675  0.00  0.00    +0.000 A 
ATOM     19  C   UNL     1      -6.386  52.565  54.828  0.00  0.00    +0.000 A 
ATOM     20  N   UNL     1      -9.409  53.259  52.790  0.00  0.00    +0.000 N 
ATOM     21  C   UNL     1      -8.928  51.506  54.388  0.00  0.00    +0.000 A 
ATOM     22  C   UNL     1      -6.783  51.413  55.504  0.00  0.00    +0.000 A 
ATOM     23  C   UNL     1      -8.058  50.890  55.291  0.00  0.00    +0.000 A 
ATOM     24  H   UNL     1      -7.847  55.757  51.402  0.00  0.00    +0.000 HD
ATOM     25  H   UNL     1     -10.333  52.924  52.755  0.00  0.00    +0.000 HD
ENDBRANCH   1  17
BRANCH   3  26
ATOM     26  O   UNL     1      -8.507  54.152  49.108  0.00  0.00    +0.000 OA
ATOM     27  H   UNL     1      -7.927  53.696  49.686  0.00  0.00    +0.000 HD
ENDBRANCH   3  26
BRANCH   5  28
ATOM     28  C   UNL     1     -13.647  56.008  50.689  0.00  0.00    +0.000 C 
BRANCH  28  29
ATOM     29  C   UNL     1     -13.836  57.533  50.775  0.00  0.00    +0.000 C 
BRANCH  29  30
ATOM     30  C   UNL     1     -15.009  58.041  51.630  0.00  0.00    +0.000 C 
ATOM     31  C   UNL     1     -15.636  56.942  52.484  0.00  0.00    +0.000 C 
ATOM     32  C   UNL     1     -14.503  59.170  52.539  0.00  0.00    +0.000 C 
ENDBRANCH  29  30
ENDBRANCH  28  29
ENDBRANCH   5  28
TORSDOF 5
ENDMDL
MODEL 6
REMARK VINA RESULT:      -7.8      3.396      7.334
REMARK  Name = 298159
REMARK  7 active torsions:
REMARK  status: ('A' for Active; 'I' for Inactive)
REMARK    1  A    between atoms: C_6  and  C_10
REMARK    2  A    between atoms: C_14  and  O_18
REMARK    3  A    between atoms: N_17  and  C_21
REMARK    4  A    between atoms: C_21  and  C_24
REMARK    5  A    between atoms: C_24  and  C_27
REMARK    6  A    between atoms: C_27  and  C_28
REMARK    7  A    between atoms: C_27  and  C_29
REMARK                            x       y       z     vdW  Elec       q    Type
REMARK                         _______ _______ _______ _____ _____    ______ ____
ROOT
ATOM      1  C   UNL     1     -10.240  55.180  50.807  0.00  0.00    +0.000 A 
ATOM      2  C   UNL     1      -9.820  55.108  49.374  0.00  0.00    +0.000 A 
ATOM      3  C   UNL     1     -11.453  55.662  51.127  0.00  0.00    +0.000 A 
ATOM      4  O   UNL     1      -8.753  54.548  49.107  0.00  0.00    +0.000 OA
ATOM      5  N   UNL     1     -10.651  55.657  48.401  0.00  0.00    +0.000 N 
ATOM      6  C   UNL     1     -12.382  56.103  50.075  0.00  0.00    +0.000 A 
ATOM      7  C   UNL     1     -11.978  56.081  48.728  0.00  0.00    +0.000 A 
ATOM      8  C   UNL     1     -13.684  56.524  50.401  0.00  0.00    +0.000 A 
ATOM      9  C   UNL     1     -12.909  56.447  47.742  0.00  0.00    +0.000 A 
ATOM     10  C   UNL     1     -14.583  56.913  49.410  0.00  0.00    +0.000 A 
ATOM     11  C   UNL     1     -14.195  56.871  48.079  0.00  0.00    +0.000 A 
ENDROOT
BRANCH   1  17
ATOM     12  S   UNL     1      -7.043  54.678  53.043  0.00  0.00    +0.000 S 
ATOM     13  O   UNL     1      -6.944  55.652  54.112  0.00  0.00    +0.000 OA
ATOM     14  O   UNL     1      -5.866  54.290  52.294  0.00  0.00    +0.000 OA
ATOM     15  N   UNL     1      -8.152  55.216  51.989  0.00  0.00    +0.000 N 
ATOM     16  C   UNL     1      -7.650  53.204  53.783  0.00  0.00    +0.000 A 
ATOM     17  C   UNL     1      -9.309  54.633  51.874  0.00  0.00    +0.000 C 
ATOM     18  C   UNL     1      -8.943  52.813  53.476  0.00  0.00    +0.000 A 
ATOM     19  C   UNL     1      -6.833  52.461  54.639  0.00  0.00    +0.000 A 
ATOM     20  N   UNL     1      -9.749  53.566  52.628  0.00  0.00    +0.000 N 
ATOM     21  C   UNL     1      -9.454  51.674  54.107  0.00  0.00    +0.000 A 
ATOM     22  C   UNL     1      -7.343  51.309  55.232  0.00  0.00    +0.000 A 
ATOM     23  C   UNL     1      -8.657  50.921  54.973  0.00  0.00    +0.000 A 
ATOM     24  H   UNL     1      -7.945  55.996  51.426  0.00  0.00    +0.000 HD
ATOM     25  H   UNL     1     -10.700  53.321  52.562  0.00  0.00    +0.000 HD
ENDBRANCH   1  17
BRANCH   3  26
ATOM     26  O   UNL     1     -11.947  55.742  52.418  0.00  0.00    +0.000 OA
ATOM     27  H   UNL     1     -12.872  55.758  52.565  0.00  0.00    +0.000 HD
ENDBRANCH   3  26
BRANCH   5  28
ATOM     28  C   UNL     1     -10.179  55.636  47.012  0.00  0.00    +0.000 C 
BRANCH  28  29
ATOM     29  C   UNL     1     -10.447  54.342  46.223  0.00  0.00    +0.000 C 
BRANCH  29  30
ATOM     30  C   UNL     1      -9.224  53.632  45.616  0.00  0.00    +0.000 C 
ATOM     31  C   UNL     1      -9.517  53.024  44.247  0.00  0.00    +0.000 C 
ATOM     32  C   UNL     1      -8.078  54.645  45.493  0.00  0.00    +0.000 C 
ENDBRANCH  29  30
ENDBRANCH  28  29
ENDBRANCH   5  28
TORSDOF 5
ENDMDL
MODEL 7
REMARK VINA RESULT:      -7.7      1.611      2.313
REMARK  Name = 298159
REMARK  7 active torsions:
REMARK  status: ('A' for Active; 'I' for Inactive)
REMARK    1  A    between atoms: C_6  and  C_10
REMARK    2  A    between atoms: C_14  and  O_18
REMARK    3  A    between atoms: N_17  and  C_21
REMARK    4  A    between atoms: C_21  and  C_24
REMARK    5  A    between atoms: C_24  and  C_27
REMARK    6  A    between atoms: C_27  and  C_28
REMARK    7  A    between atoms: C_27  and  C_29
REMARK                            x       y       z     vdW  Elec       q    Type
REMARK                         _______ _______ _______ _____ _____    ______ ____
ROOT
ATOM      1  C   UNL     1     -10.162  54.545  52.102  0.00  0.00    +0.000 A 
ATOM      2  C   UNL     1      -8.760  55.063  52.052  0.00  0.00    +0.000 A 
ATOM      3  C   UNL     1     -10.442  53.437  52.810  0.00  0.00    +0.000 A 
ATOM      4  O   UNL     1      -8.560  56.148  51.497  0.00  0.00    +0.000 OA
ATOM      5  N   UNL     1      -7.745  54.317  52.643  0.00  0.00    +0.000 N 
ATOM      6  C   UNL     1      -9.382  52.739  53.553  0.00  0.00    +0.000 A 
ATOM      7  C   UNL     1      -8.053  53.194  53.474  0.00  0.00    +0.000 A 
ATOM      8  C   UNL     1      -9.687  51.632  54.366  0.00  0.00    +0.000 A 
ATOM      9  C   UNL     1      -7.075  52.545  54.246  0.00  0.00    +0.000 A 
ATOM     10  C   UNL     1      -8.697  50.983  55.100  0.00  0.00    +0.000 A 
ATOM     11  C   UNL     1      -7.390  51.443  55.042  0.00  0.00    +0.000 A 
ENDROOT
BRANCH   1  17
ATOM     12  S   UNL     1     -13.525  56.496  51.513  0.00  0.00    +0.000 S 
ATOM     13  O   UNL     1     -13.464  57.874  51.963  0.00  0.00    +0.000 OA
ATOM     14  O   UNL     1     -14.710  55.699  51.755  0.00  0.00    +0.000 OA
ATOM     15  N   UNL     1     -12.257  55.714  52.152  0.00  0.00    +0.000 N 
ATOM     16  C   UNL     1     -13.326  56.546  49.768  0.00  0.00    +0.000 A 
ATOM     17  C   UNL     1     -11.261  55.329  51.409  0.00  0.00    +0.000 C 
ATOM     18  C   UNL     1     -12.142  56.058  49.239  0.00  0.00    +0.000 A 
ATOM     19  C   UNL     1     -14.347  57.053  48.960  0.00  0.00    +0.000 A 
ATOM     20  N   UNL     1     -11.130  55.563  50.057  0.00  0.00    +0.000 N 
ATOM     21  C   UNL     1     -11.951  56.148  47.857  0.00  0.00    +0.000 A 
ATOM     22  C   UNL     1     -14.157  57.103  47.580  0.00  0.00    +0.000 A 
ATOM     23  C   UNL     1     -12.955  56.659  47.031  0.00  0.00    +0.000 A 
ATOM     24  H   UNL     1     -12.240  55.528  53.118  0.00  0.00    +0.000 HD
ATOM     25  H   UNL     1     -10.260  55.367  49.641  0.00  0.00    +0.000 HD
ENDBRANCH   1  17
BRANCH   3  26
ATOM     26  O   UNL     1     -11.708  52.895  52.945  0.00  0.00    +0.000 OA
ATOM     27  H   UNL     1     -12.089  52.798  53.796  0.00  0.00    +0.000 HD
ENDBRANCH   3  26
BRANCH   5  28
ATOM     28  C   UNL     1      -6.370  54.814  52.514  0.00  0.00    +0.000 C 
BRANCH  28  29
ATOM     29  C   UNL     1      -5.630  54.433  51.220  0.00  0.00    +0.000 C 
BRANCH  29  30
ATOM     30  C   UNL     1      -4.545  53.347  51.333  0.00  0.00    +0.000 C 
ATOM     31  C   UNL     1      -3.848  53.351  52.692  0.00  0.00    +0.000 C 
ATOM     32  C   UNL     1      -5.194  51.977  51.093  0.00  0.00    +0.000 C 
ENDBRANCH  29  30
ENDBRANCH  28  29
ENDBRANCH   5  28
TORSDOF 5
ENDMDL
MODEL 8
REMARK VINA RESULT:      -7.7      3.624      5.131
REMARK  Name = 298159
REMARK  7 active torsions:
REMARK  status: ('A' for Active; 'I' for Inactive)
REMARK    1  A    between atoms: C_6  and  C_10
REMARK    2  A    between atoms: C_14  and  O_18
REMARK    3  A    between atoms: N_17  and  C_21
REMARK    4  A    between atoms: C_21  and  C_24
REMARK    5  A    between atoms: C_24  and  C_27
REMARK    6  A    between atoms: C_27  and  C_28
REMARK    7  A    between atoms: C_27  and  C_29
REMARK                            x       y       z     vdW  Elec       q    Type
REMARK                         _______ _______ _______ _____ _____    ______ ____
ROOT
ATOM      1  C   UNL     1     -10.872  55.557  48.736  0.00  0.00    +0.000 A 
ATOM      2  C   UNL     1      -9.616  55.098  49.407  0.00  0.00    +0.000 A 
ATOM      3  C   UNL     1     -11.101  55.237  47.451  0.00  0.00    +0.000 A 
ATOM      4  O   UNL     1      -9.495  55.303  50.618  0.00  0.00    +0.000 OA
ATOM      5  N   UNL     1      -8.648  54.447  48.649  0.00  0.00    +0.000 N 
ATOM      6  C   UNL     1     -10.134  54.420  46.702  0.00  0.00    +0.000 A 
ATOM      7  C   UNL     1      -8.930  54.023  47.311  0.00  0.00    +0.000 A 
ATOM      8  C   UNL     1     -10.412  54.010  45.386  0.00  0.00    +0.000 A 
ATOM      9  C   UNL     1      -8.057  53.190  46.592  0.00  0.00    +0.000 A 
ATOM     10  C   UNL     1      -9.518  53.208  44.678  0.00  0.00    +0.000 A 
ATOM     11  C   UNL     1      -8.342  52.796  45.284  0.00  0.00    +0.000 A 
ENDROOT
BRANCH   1  17
ATOM     12  S   UNL     1     -13.598  56.365  51.453  0.00  0.00    +0.000 S 
ATOM     13  O   UNL     1     -13.028  56.674  52.750  0.00  0.00    +0.000 OA
ATOM     14  O   UNL     1     -14.783  55.537  51.352  0.00  0.00    +0.000 OA
ATOM     15  N   UNL     1     -12.434  55.685  50.553  0.00  0.00    +0.000 N 
ATOM     16  C   UNL     1     -14.027  57.909  50.731  0.00  0.00    +0.000 A 
ATOM     17  C   UNL     1     -11.903  56.318  49.549  0.00  0.00    +0.000 C 
ATOM     18  C   UNL     1     -13.278  58.347  49.651  0.00  0.00    +0.000 A 
ATOM     19  C   UNL     1     -15.101  58.646  51.238  0.00  0.00    +0.000 A 
ATOM     20  N   UNL     1     -12.206  57.606  49.161  0.00  0.00    +0.000 N 
ATOM     21  C   UNL     1     -13.574  59.601  49.109  0.00  0.00    +0.000 A 
ATOM     22  C   UNL     1     -15.408  59.878  50.663  0.00  0.00    +0.000 A 
ATOM     23  C   UNL     1     -14.638  60.359  49.605  0.00  0.00    +0.000 A 
ATOM     24  H   UNL     1     -12.123  54.776  50.771  0.00  0.00    +0.000 HD
ATOM     25  H   UNL     1     -11.623  58.032  48.493  0.00  0.00    +0.000 HD
ENDBRANCH   1  17
BRANCH   3  26
ATOM     26  O   UNL     1     -12.242  55.587  46.750  0.00  0.00    +0.000 OA
ATOM     27  H   UNL     1     -12.368  56.473  46.471  0.00  0.00    +0.000 HD
ENDBRANCH   3  26
BRANCH   5  28
ATOM     28  C   UNL     1      -7.396  54.073  49.317  0.00  0.00    +0.000 C 
BRANCH  28  29
ATOM     29  C   UNL     1      -6.289  55.141  49.329  0.00  0.00    +0.000 C 
BRANCH  29  30
ATOM     30  C   UNL     1      -4.837  54.637  49.404  0.00  0.00    +0.000 C 
ATOM     31  C   UNL     1      -4.505  53.997  50.750  0.00  0.00    +0.000 C 
ATOM     32  C   UNL     1      -4.613  53.615  48.281  0.00  0.00    +0.000 C 
ENDBRANCH  29  30
ENDBRANCH  28  29
ENDBRANCH   5  28
TORSDOF 5
ENDMDL
MODEL 9
REMARK VINA RESULT:      -7.6      2.651      8.129
REMARK  Name = 298159
REMARK  7 active torsions:
REMARK  status: ('A' for Active; 'I' for Inactive)
REMARK    1  A    between atoms: C_6  and  C_10
REMARK    2  A    between atoms: C_14  and  O_18
REMARK    3  A    between atoms: N_17  and  C_21
REMARK    4  A    between atoms: C_21  and  C_24
REMARK    5  A    between atoms: C_24  and  C_27
REMARK    6  A    between atoms: C_27  and  C_28
REMARK    7  A    between atoms: C_27  and  C_29
REMARK                            x       y       z     vdW  Elec       q    Type
REMARK                         _______ _______ _______ _____ _____    ______ ____
ROOT
ATOM      1  C   UNL     1     -10.022  55.012  50.422  0.00  0.00    +0.000 A 
ATOM      2  C   UNL     1     -11.100  55.293  51.420  0.00  0.00    +0.000 A 
ATOM      3  C   UNL     1     -10.240  55.244  49.116  0.00  0.00    +0.000 A 
ATOM      4  O   UNL     1     -10.825  55.186  52.619  0.00  0.00    +0.000 OA
ATOM      5  N   UNL     1     -12.356  55.678  50.963  0.00  0.00    +0.000 N 
ATOM      6  C   UNL     1     -11.527  55.792  48.661  0.00  0.00    +0.000 A 
ATOM      7  C   UNL     1     -12.561  56.017  49.588  0.00  0.00    +0.000 A 
ATOM      8  C   UNL     1     -11.727  56.119  47.308  0.00  0.00    +0.000 A 
ATOM      9  C   UNL     1     -13.755  56.601  49.133  0.00  0.00    +0.000 A 
ATOM     10  C   UNL     1     -12.931  56.669  46.871  0.00  0.00    +0.000 A 
ATOM     11  C   UNL     1     -13.944  56.913  47.786  0.00  0.00    +0.000 A 
ENDROOT
BRANCH   1  17
ATOM     12  S   UNL     1      -6.792  52.811  50.859  0.00  0.00    +0.000 S 
ATOM     13  O   UNL     1      -5.815  53.028  49.809  0.00  0.00    +0.000 OA
ATOM     14  O   UNL     1      -7.062  51.472  51.343  0.00  0.00    +0.000 OA
ATOM     15  N   UNL     1      -8.195  53.457  50.366  0.00  0.00    +0.000 N 
ATOM     16  C   UNL     1      -6.220  53.719  52.250  0.00  0.00    +0.000 A 
ATOM     17  C   UNL     1      -8.668  54.537  50.916  0.00  0.00    +0.000 C 
ATOM     18  C   UNL     1      -6.931  54.849  52.620  0.00  0.00    +0.000 A 
ATOM     19  C   UNL     1      -5.091  53.290  52.952  0.00  0.00    +0.000 A 
ATOM     20  N   UNL     1      -8.050  55.270  51.907  0.00  0.00    +0.000 N 
ATOM     21  C   UNL     1      -6.449  55.611  53.689  0.00  0.00    +0.000 A 
ATOM     22  C   UNL     1      -4.643  54.039  54.038  0.00  0.00    +0.000 A 
ATOM     23  C   UNL     1      -5.316  55.205  54.400  0.00  0.00    +0.000 A 
ATOM     24  H   UNL     1      -8.697  53.025  49.639  0.00  0.00    +0.000 HD
ATOM     25  H   UNL     1      -8.426  56.153  52.124  0.00  0.00    +0.000 HD
ENDBRANCH   1  17
BRANCH   3  26
ATOM     26  O   UNL     1      -9.301  55.047  48.119  0.00  0.00    +0.000 OA
ATOM     27  H   UNL     1      -8.985  54.183  47.937  0.00  0.00    +0.000 HD
ENDBRANCH   3  26
BRANCH   5  28
ATOM     28  C   UNL     1     -13.413  55.876  51.962  0.00  0.00    +0.000 C 
BRANCH  28  29
ATOM     29  C   UNL     1     -13.497  57.277  52.592  0.00  0.00    +0.000 C 
BRANCH  29  30
ATOM     30  C   UNL     1     -14.879  57.954  52.600  0.00  0.00    +0.000 C 
ATOM     31  C   UNL     1     -14.918  59.223  51.753  0.00  0.00    +0.000 C 
ATOM     32  C   UNL     1     -15.920  56.955  52.077  0.00  0.00    +0.000 C 
ENDBRANCH  29  30
ENDBRANCH  28  29
ENDBRANCH   5  28
TORSDOF 5
ENDMDL
