MODEL 1
REMARK VINA RESULT:      -8.6      0.000      0.000
REMARK  Name = 338063
REMARK  8 active torsions:
REMARK  status: ('A' for Active; 'I' for Inactive)
REMARK    1  A    between atoms: C_6  and  C_10
REMARK    2  A    between atoms: C_14  and  O_18
REMARK    3  A    between atoms: N_17  and  C_21
REMARK    4  A    between atoms: C_21  and  C_24
REMARK    5  A    between atoms: C_24  and  C_27
REMARK    6  A    between atoms: C_25  and  C_28
REMARK    7  A    between atoms: C_27  and  C_29
REMARK    8  A    between atoms: C_27  and  C_30
REMARK                            x       y       z     vdW  Elec       q    Type
REMARK                         _______ _______ _______ _____ _____    ______ ____
ROOT
ATOM      1  C   UNL     1     -10.120  54.411  52.179  0.00  0.00    +0.000 A 
ATOM      2  C   UNL     1      -8.751  55.011  52.122  0.00  0.00    +0.000 A 
ATOM      3  C   UNL     1     -10.338  53.298  52.899  0.00  0.00    +0.000 A 
ATOM      4  O   UNL     1      -8.609  56.081  51.523  0.00  0.00    +0.000 OA
ATOM      5  N   UNL     1      -7.706  54.360  52.766  0.00  0.00    +0.000 N 
ATOM      6  C   UNL     1      -9.241  52.669  53.647  0.00  0.00    +0.000 A 
ATOM      7  C   UNL     1      -7.951  53.224  53.600  0.00  0.00    +0.000 A 
ATOM      8  C   UNL     1      -9.477  51.529  54.437  0.00  0.00    +0.000 A 
ATOM      9  C   UNL     1      -6.946  52.656  54.399  0.00  0.00    +0.000 A 
ATOM     10  C   UNL     1      -8.460  50.948  55.199  0.00  0.00    +0.000 A 
ATOM     11  C   UNL     1      -7.194  51.529  55.183  0.00  0.00    +0.000 A 
ATOM     12  C   UNL     1      -8.722  49.744  56.050  0.00  0.00    +0.000 C 
ENDROOT
BRANCH   1  18
ATOM     13  S   UNL     1     -12.388  55.879  49.325  0.00  0.00    +0.000 S 
ATOM     14  O   UNL     1     -13.216  54.867  48.699  0.00  0.00    +0.000 OA
ATOM     15  O   UNL     1     -11.742  56.899  48.518  0.00  0.00    +0.000 OA
ATOM     16  N   UNL     1     -11.244  55.121  50.183  0.00  0.00    +0.000 N 
ATOM     17  C   UNL     1     -13.433  56.740  50.440  0.00  0.00    +0.000 A 
ATOM     18  C   UNL     1     -11.267  55.118  51.483  0.00  0.00    +0.000 C 
ATOM     19  C   UNL     1     -13.224  56.559  51.797  0.00  0.00    +0.000 A 
ATOM     20  C   UNL     1     -14.432  57.588  49.951  0.00  0.00    +0.000 A 
ATOM     21  N   UNL     1     -12.237  55.700  52.270  0.00  0.00    +0.000 N 
ATOM     22  C   UNL     1     -14.087  57.201  52.690  0.00  0.00    +0.000 A 
ATOM     23  C   UNL     1     -15.263  58.248  50.852  0.00  0.00    +0.000 A 
ATOM     24  C   UNL     1     -15.096  58.049  52.222  0.00  0.00    +0.000 A 
ATOM     25  H   UNL     1     -10.516  54.655  49.711  0.00  0.00    +0.000 HD
ATOM     26  H   UNL     1     -12.232  55.493  53.231  0.00  0.00    +0.000 HD
ENDBRANCH   1  18
BRANCH   3  27
ATOM     27  O   UNL     1     -11.575  52.695  53.055  0.00  0.00    +0.000 OA
ATOM     28  H   UNL     1     -12.056  52.812  53.851  0.00  0.00    +0.000 HD
ENDBRANCH   3  27
BRANCH   5  29
ATOM     29  C   UNL     1      -6.362  54.937  52.651  0.00  0.00    +0.000 C 
BRANCH  29  30
ATOM     30  C   UNL     1      -5.401  54.199  51.702  0.00  0.00    +0.000 C 
BRANCH  30  31
ATOM     31  C   UNL     1      -4.022  53.829  52.273  0.00  0.00    +0.000 C 
ATOM     32  C   UNL     1      -3.847  54.292  53.718  0.00  0.00    +0.000 C 
ATOM     33  C   UNL     1      -3.847  52.308  52.192  0.00  0.00    +0.000 C 
ENDBRANCH  30  31
ENDBRANCH  29  30
ENDBRANCH   5  29
TORSDOF 5
ENDMDL
MODEL 2
REMARK VINA RESULT:      -8.3      3.676      5.454
REMARK  Name = 338063
REMARK  8 active torsions:
REMARK  status: ('A' for Active; 'I' for Inactive)
REMARK    1  A    between atoms: C_6  and  C_10
REMARK    2  A    between atoms: C_14  and  O_18
REMARK    3  A    between atoms: N_17  and  C_21
REMARK    4  A    between atoms: C_21  and  C_24
REMARK    5  A    between atoms: C_24  and  C_27
REMARK    6  A    between atoms: C_25  and  C_28
REMARK    7  A    between atoms: C_27  and  C_29
REMARK    8  A    between atoms: C_27  and  C_30
REMARK                            x       y       z     vdW  Elec       q    Type
REMARK                         _______ _______ _______ _____ _____    ______ ____
ROOT
ATOM      1  C   UNL     1     -11.331  56.160  48.732  0.00  0.00    +0.000 A 
ATOM      2  C   UNL     1     -10.129  55.729  49.512  0.00  0.00    +0.000 A 
ATOM      3  C   UNL     1     -11.536  55.685  47.492  0.00  0.00    +0.000 A 
ATOM      4  O   UNL     1     -10.022  56.118  50.679  0.00  0.00    +0.000 OA
ATOM      5  N   UNL     1      -9.202  54.890  48.905  0.00  0.00    +0.000 N 
ATOM      6  C   UNL     1     -10.592  54.729  46.897  0.00  0.00    +0.000 A 
ATOM      7  C   UNL     1      -9.459  54.318  47.620  0.00  0.00    +0.000 A 
ATOM      8  C   UNL     1     -10.828  54.196  45.617  0.00  0.00    +0.000 A 
ATOM      9  C   UNL     1      -8.628  53.334  47.063  0.00  0.00    +0.000 A 
ATOM     10  C   UNL     1      -9.972  53.245  45.055  0.00  0.00    +0.000 A 
ATOM     11  C   UNL     1      -8.875  52.809  45.794  0.00  0.00    +0.000 A 
ATOM     12  C   UNL     1     -10.238  52.671  43.697  0.00  0.00    +0.000 C 
ENDROOT
BRANCH   1  18
ATOM     13  S   UNL     1     -13.558  59.314  49.467  0.00  0.00    +0.000 S 
ATOM     14  O   UNL     1     -14.706  59.400  48.585  0.00  0.00    +0.000 OA
ATOM     15  O   UNL     1     -12.804  60.508  49.806  0.00  0.00    +0.000 OA
ATOM     16  N   UNL     1     -12.530  58.235  48.836  0.00  0.00    +0.000 N 
ATOM     17  C   UNL     1     -14.160  58.678  50.987  0.00  0.00    +0.000 A 
ATOM     18  C   UNL     1     -12.351  57.072  49.389  0.00  0.00    +0.000 C 
ATOM     19  C   UNL     1     -13.797  57.390  51.341  0.00  0.00    +0.000 A 
ATOM     20  C   UNL     1     -14.970  59.472  51.806  0.00  0.00    +0.000 A 
ATOM     21  N   UNL     1     -13.004  56.606  50.509  0.00  0.00    +0.000 N 
ATOM     22  C   UNL     1     -14.316  56.859  52.525  0.00  0.00    +0.000 A 
ATOM     23  C   UNL     1     -15.453  58.942  52.999  0.00  0.00    +0.000 A 
ATOM     24  C   UNL     1     -15.132  57.633  53.356  0.00  0.00    +0.000 A 
ATOM     25  H   UNL     1     -12.029  58.465  48.020  0.00  0.00    +0.000 HD
ATOM     26  H   UNL     1     -12.903  55.654  50.736  0.00  0.00    +0.000 HD
ENDBRANCH   1  18
BRANCH   3  27
ATOM     27  O   UNL     1     -12.639  55.983  46.711  0.00  0.00    +0.000 OA
ATOM     28  H   UNL     1     -12.941  55.367  46.071  0.00  0.00    +0.000 HD
ENDBRANCH   3  27
BRANCH   5  29
ATOM     29  C   UNL     1      -8.004  54.525  49.669  0.00  0.00    +0.000 C 
BRANCH  29  30
ATOM     30  C   UNL     1      -6.847  55.539  49.617  0.00  0.00    +0.000 C 
BRANCH  30  31
ATOM     31  C   UNL     1      -5.424  54.959  49.625  0.00  0.00    +0.000 C 
ATOM     32  C   UNL     1      -5.082  54.274  50.947  0.00  0.00    +0.000 C 
ATOM     33  C   UNL     1      -5.294  53.955  48.473  0.00  0.00    +0.000 C 
ENDBRANCH  30  31
ENDBRANCH  29  30
ENDBRANCH   5  29
TORSDOF 5
ENDMDL
MODEL 3
REMARK VINA RESULT:      -8.1      3.833      4.872
REMARK  Name = 338063
REMARK  8 active torsions:
REMARK  status: ('A' for Active; 'I' for Inactive)
REMARK    1  A    between atoms: C_6  and  C_10
REMARK    2  A    between atoms: C_14  and  O_18
REMARK    3  A    between atoms: N_17  and  C_21
REMARK    4  A    between atoms: C_21  and  C_24
REMARK    5  A    between atoms: C_24  and  C_27
REMARK    6  A    between atoms: C_25  and  C_28
REMARK    7  A    between atoms: C_27  and  C_29
REMARK    8  A    between atoms: C_27  and  C_30
REMARK                            x       y       z     vdW  Elec       q    Type
REMARK                         _______ _______ _______ _____ _____    ______ ____
ROOT
ATOM      1  C   UNL     1     -12.404  54.295  49.833  0.00  0.00    +0.000 A 
ATOM      2  C   UNL     1     -11.948  54.132  48.417  0.00  0.00    +0.000 A 
ATOM      3  C   UNL     1     -12.019  53.413  50.770  0.00  0.00    +0.000 A 
ATOM      4  O   UNL     1     -12.249  55.011  47.604  0.00  0.00    +0.000 OA
ATOM      5  N   UNL     1     -11.183  53.021  48.083  0.00  0.00    +0.000 N 
ATOM      6  C   UNL     1     -11.138  52.290  50.418  0.00  0.00    +0.000 A 
ATOM      7  C   UNL     1     -10.704  52.128  49.091  0.00  0.00    +0.000 A 
ATOM      8  C   UNL     1     -10.698  51.391  51.406  0.00  0.00    +0.000 A 
ATOM      9  C   UNL     1      -9.789  51.103  48.805  0.00  0.00    +0.000 A 
ATOM     10  C   UNL     1      -9.817  50.350  51.103  0.00  0.00    +0.000 A 
ATOM     11  C   UNL     1      -9.356  50.221  49.796  0.00  0.00    +0.000 A 
ATOM     12  C   UNL     1      -9.342  49.406  52.164  0.00  0.00    +0.000 C 
ENDROOT
BRANCH   1  18
ATOM     13  S   UNL     1     -15.348  56.483  51.243  0.00  0.00    +0.000 S 
ATOM     14  O   UNL     1     -15.289  56.631  52.684  0.00  0.00    +0.000 OA
ATOM     15  O   UNL     1     -16.622  56.262  50.582  0.00  0.00    +0.000 OA
ATOM     16  N   UNL     1     -14.354  55.276  50.828  0.00  0.00    +0.000 N 
ATOM     17  C   UNL     1     -14.713  57.976  50.575  0.00  0.00    +0.000 A 
ATOM     18  C   UNL     1     -13.234  55.508  50.207  0.00  0.00    +0.000 C 
ATOM     19  C   UNL     1     -13.480  57.932  49.945  0.00  0.00    +0.000 A 
ATOM     20  C   UNL     1     -15.452  59.158  50.675  0.00  0.00    +0.000 A 
ATOM     21  N   UNL     1     -12.748  56.751  49.867  0.00  0.00    +0.000 N 
ATOM     22  C   UNL     1     -12.945  59.127  49.458  0.00  0.00    +0.000 A 
ATOM     23  C   UNL     1     -14.922  60.336  50.156  0.00  0.00    +0.000 A 
ATOM     24  C   UNL     1     -13.664  60.322  49.553  0.00  0.00    +0.000 A 
ATOM     25  H   UNL     1     -14.602  54.349  51.047  0.00  0.00    +0.000 HD
ATOM     26  H   UNL     1     -11.820  56.809  49.547  0.00  0.00    +0.000 HD
ENDBRANCH   1  18
BRANCH   3  27
ATOM     27  O   UNL     1     -12.346  53.503  52.112  0.00  0.00    +0.000 OA
ATOM     28  H   UNL     1     -12.865  54.220  52.421  0.00  0.00    +0.000 HD
ENDBRANCH   3  27
BRANCH   5  29
ATOM     29  C   UNL     1     -10.794  52.853  46.678  0.00  0.00    +0.000 C 
BRANCH  29  30
ATOM     30  C   UNL     1      -9.329  53.192  46.350  0.00  0.00    +0.000 C 
BRANCH  30  31
ATOM     31  C   UNL     1      -8.991  54.682  46.177  0.00  0.00    +0.000 C 
ATOM     32  C   UNL     1      -8.622  55.352  47.499  0.00  0.00    +0.000 C 
ATOM     33  C   UNL     1      -7.828  54.813  45.187  0.00  0.00    +0.000 C 
ENDBRANCH  30  31
ENDBRANCH  29  30
ENDBRANCH   5  29
TORSDOF 5
ENDMDL
MODEL 4
REMARK VINA RESULT:      -7.9      3.970      5.653
REMARK  Name = 338063
REMARK  8 active torsions:
REMARK  status: ('A' for Active; 'I' for Inactive)
REMARK    1  A    between atoms: C_6  and  C_10
REMARK    2  A    between atoms: C_14  and  O_18
REMARK    3  A    between atoms: N_17  and  C_21
REMARK    4  A    between atoms: C_21  and  C_24
REMARK    5  A    between atoms: C_24  and  C_27
REMARK    6  A    between atoms: C_25  and  C_28
REMARK    7  A    between atoms: C_27  and  C_29
REMARK    8  A    between atoms: C_27  and  C_30
REMARK                            x       y       z     vdW  Elec       q    Type
REMARK                         _______ _______ _______ _____ _____    ______ ____
ROOT
ATOM      1  C   UNL     1     -10.876  55.425  48.583  0.00  0.00    +0.000 A 
ATOM      2  C   UNL     1      -9.591  54.993  49.215  0.00  0.00    +0.000 A 
ATOM      3  C   UNL     1     -11.144  55.097  47.308  0.00  0.00    +0.000 A 
ATOM      4  O   UNL     1      -9.420  55.237  50.413  0.00  0.00    +0.000 OA
ATOM      5  N   UNL     1      -8.659  54.312  48.441  0.00  0.00    +0.000 N 
ATOM      6  C   UNL     1     -10.186  54.300  46.528  0.00  0.00    +0.000 A 
ATOM      7  C   UNL     1      -8.975  53.890  47.111  0.00  0.00    +0.000 A 
ATOM      8  C   UNL     1     -10.484  53.918  45.207  0.00  0.00    +0.000 A 
ATOM      9  C   UNL     1      -8.125  53.052  46.374  0.00  0.00    +0.000 A 
ATOM     10  C   UNL     1      -9.611  53.115  44.467  0.00  0.00    +0.000 A 
ATOM     11  C   UNL     1      -8.434  52.674  45.067  0.00  0.00    +0.000 A 
ATOM     12  C   UNL     1      -9.943  52.700  43.067  0.00  0.00    +0.000 C 
ENDROOT
BRANCH   1  18
ATOM     13  S   UNL     1     -13.550  56.171  51.364  0.00  0.00    +0.000 S 
ATOM     14  O   UNL     1     -12.948  56.450  52.653  0.00  0.00    +0.000 OA
ATOM     15  O   UNL     1     -14.744  55.347  51.277  0.00  0.00    +0.000 OA
ATOM     16  N   UNL     1     -12.415  55.508  50.420  0.00  0.00    +0.000 N 
ATOM     17  C   UNL     1     -13.991  57.728  50.686  0.00  0.00    +0.000 A 
ATOM     18  C   UNL     1     -11.901  56.164  49.422  0.00  0.00    +0.000 C 
ATOM     19  C   UNL     1     -13.270  58.189  49.597  0.00  0.00    +0.000 A 
ATOM     20  C   UNL     1     -15.049  58.457  51.237  0.00  0.00    +0.000 A 
ATOM     21  N   UNL     1     -12.208  57.460  49.069  0.00  0.00    +0.000 N 
ATOM     22  C   UNL     1     -13.582  59.451  49.085  0.00  0.00    +0.000 A 
ATOM     23  C   UNL     1     -15.371  59.699  50.697  0.00  0.00    +0.000 A 
ATOM     24  C   UNL     1     -14.632  60.200  49.625  0.00  0.00    +0.000 A 
ATOM     25  H   UNL     1     -12.110  54.590  50.604  0.00  0.00    +0.000 HD
ATOM     26  H   UNL     1     -11.639  57.900  48.399  0.00  0.00    +0.000 HD
ENDBRANCH   1  18
BRANCH   3  27
ATOM     27  O   UNL     1     -12.322  55.405  46.650  0.00  0.00    +0.000 OA
ATOM     28  H   UNL     1     -12.658  54.826  45.993  0.00  0.00    +0.000 HD
ENDBRANCH   3  27
BRANCH   5  29
ATOM     29  C   UNL     1      -7.383  53.946  49.066  0.00  0.00    +0.000 C 
BRANCH  29  30
ATOM     30  C   UNL     1      -6.302  55.041  49.060  0.00  0.00    +0.000 C 
BRANCH  30  31
ATOM     31  C   UNL     1      -4.852  54.575  49.270  0.00  0.00    +0.000 C 
ATOM     32  C   UNL     1      -4.597  54.090  50.696  0.00  0.00    +0.000 C 
ATOM     33  C   UNL     1      -4.547  53.448  48.276  0.00  0.00    +0.000 C 
ENDBRANCH  30  31
ENDBRANCH  29  30
ENDBRANCH   5  29
TORSDOF 5
ENDMDL
MODEL 5
REMARK VINA RESULT:      -7.9      3.816      5.474
REMARK  Name = 338063
REMARK  8 active torsions:
REMARK  status: ('A' for Active; 'I' for Inactive)
REMARK    1  A    between atoms: C_6  and  C_10
REMARK    2  A    between atoms: C_14  and  O_18
REMARK    3  A    between atoms: N_17  and  C_21
REMARK    4  A    between atoms: C_21  and  C_24
REMARK    5  A    between atoms: C_24  and  C_27
REMARK    6  A    between atoms: C_25  and  C_28
REMARK    7  A    between atoms: C_27  and  C_29
REMARK    8  A    between atoms: C_27  and  C_30
REMARK                            x       y       z     vdW  Elec       q    Type
REMARK                         _______ _______ _______ _____ _____    ______ ____
ROOT
ATOM      1  C   UNL     1     -12.397  54.298  49.964  0.00  0.00    +0.000 A 
ATOM      2  C   UNL     1     -12.081  54.005  48.531  0.00  0.00    +0.000 A 
ATOM      3  C   UNL     1     -11.890  53.524  50.938  0.00  0.00    +0.000 A 
ATOM      4  O   UNL     1     -12.493  54.791  47.672  0.00  0.00    +0.000 OA
ATOM      5  N   UNL     1     -11.317  52.885  48.229  0.00  0.00    +0.000 N 
ATOM      6  C   UNL     1     -11.011  52.393  50.607  0.00  0.00    +0.000 A 
ATOM      7  C   UNL     1     -10.708  52.109  49.265  0.00  0.00    +0.000 A 
ATOM      8  C   UNL     1     -10.443  51.609  51.627  0.00  0.00    +0.000 A 
ATOM      9  C   UNL     1      -9.792  51.083  48.986  0.00  0.00    +0.000 A 
ATOM     10  C   UNL     1      -9.562  50.564  51.337  0.00  0.00    +0.000 A 
ATOM     11  C   UNL     1      -9.231  50.315  50.007  0.00  0.00    +0.000 A 
ATOM     12  C   UNL     1      -8.950  49.742  52.429  0.00  0.00    +0.000 C 
ENDROOT
BRANCH   1  18
ATOM     13  S   UNL     1     -15.347  56.528  51.295  0.00  0.00    +0.000 S 
ATOM     14  O   UNL     1     -15.302  56.708  52.732  0.00  0.00    +0.000 OA
ATOM     15  O   UNL     1     -16.615  56.298  50.625  0.00  0.00    +0.000 OA
ATOM     16  N   UNL     1     -14.353  55.308  50.916  0.00  0.00    +0.000 N 
ATOM     17  C   UNL     1     -14.699  58.003  50.600  0.00  0.00    +0.000 A 
ATOM     18  C   UNL     1     -13.226  55.522  50.303  0.00  0.00    +0.000 C 
ATOM     19  C   UNL     1     -13.460  57.941  49.985  0.00  0.00    +0.000 A 
ATOM     20  C   UNL     1     -15.434  59.191  50.667  0.00  0.00    +0.000 A 
ATOM     21  N   UNL     1     -12.731  56.756  49.941  0.00  0.00    +0.000 N 
ATOM     22  C   UNL     1     -12.914  59.123  49.477  0.00  0.00    +0.000 A 
ATOM     23  C   UNL     1     -14.894  60.355  50.128  0.00  0.00    +0.000 A 
ATOM     24  C   UNL     1     -13.630  60.323  49.539  0.00  0.00    +0.000 A 
ATOM     25  H   UNL     1     -14.607  54.387  51.154  0.00  0.00    +0.000 HD
ATOM     26  H   UNL     1     -11.800  56.803  49.629  0.00  0.00    +0.000 HD
ENDBRANCH   1  18
BRANCH   3  27
ATOM     27  O   UNL     1     -12.082  53.740  52.291  0.00  0.00    +0.000 OA
ATOM     28  H   UNL     1     -12.318  54.594  52.601  0.00  0.00    +0.000 HD
ENDBRANCH   3  27
BRANCH   5  29
ATOM     29  C   UNL     1     -11.066  52.586  46.815  0.00  0.00    +0.000 C 
BRANCH  29  30
ATOM     30  C   UNL     1     -12.208  51.869  46.073  0.00  0.00    +0.000 C 
BRANCH  30  31
ATOM     31  C   UNL     1     -12.042  50.356  45.858  0.00  0.00    +0.000 C 
ATOM     32  C   UNL     1     -10.594  49.964  45.568  0.00  0.00    +0.000 C 
ATOM     33  C   UNL     1     -12.536  49.622  47.110  0.00  0.00    +0.000 C 
ENDBRANCH  30  31
ENDBRANCH  29  30
ENDBRANCH   5  29
TORSDOF 5
ENDMDL
MODEL 6
REMARK VINA RESULT:      -7.9      3.054      7.721
REMARK  Name = 338063
REMARK  8 active torsions:
REMARK  status: ('A' for Active; 'I' for Inactive)
REMARK    1  A    between atoms: C_6  and  C_10
REMARK    2  A    between atoms: C_14  and  O_18
REMARK    3  A    between atoms: N_17  and  C_21
REMARK    4  A    between atoms: C_21  and  C_24
REMARK    5  A    between atoms: C_24  and  C_27
REMARK    6  A    between atoms: C_25  and  C_28
REMARK    7  A    between atoms: C_27  and  C_29
REMARK    8  A    between atoms: C_27  and  C_30
REMARK                            x       y       z     vdW  Elec       q    Type
REMARK                         _______ _______ _______ _____ _____    ______ ____
ROOT
ATOM      1  C   UNL     1      -9.991  55.172  51.008  0.00  0.00    +0.000 A 
ATOM      2  C   UNL     1      -9.688  55.199  49.543  0.00  0.00    +0.000 A 
ATOM      3  C   UNL     1     -11.210  55.522  51.450  0.00  0.00    +0.000 A 
ATOM      4  O   UNL     1      -8.587  54.786  49.168  0.00  0.00    +0.000 OA
ATOM      5  N   UNL     1     -10.663  55.658  48.666  0.00  0.00    +0.000 N 
ATOM      6  C   UNL     1     -12.259  55.922  50.502  0.00  0.00    +0.000 A 
ATOM      7  C   UNL     1     -11.985  55.953  49.124  0.00  0.00    +0.000 A 
ATOM      8  C   UNL     1     -13.549  56.247  50.959  0.00  0.00    +0.000 A 
ATOM      9  C   UNL     1     -13.033  56.247  48.237  0.00  0.00    +0.000 A 
ATOM     10  C   UNL     1     -14.575  56.577  50.070  0.00  0.00    +0.000 A 
ATOM     11  C   UNL     1     -14.309  56.562  48.703  0.00  0.00    +0.000 A 
ATOM     12  C   UNL     1     -15.950  56.907  50.564  0.00  0.00    +0.000 C 
ENDROOT
BRANCH   1  18
ATOM     13  S   UNL     1      -6.560  54.794  52.886  0.00  0.00    +0.000 S 
ATOM     14  O   UNL     1      -6.370  55.808  53.905  0.00  0.00    +0.000 OA
ATOM     15  O   UNL     1      -5.454  54.400  52.031  0.00  0.00    +0.000 OA
ATOM     16  N   UNL     1      -7.782  55.268  51.937  0.00  0.00    +0.000 N 
ATOM     17  C   UNL     1      -7.052  53.340  53.735  0.00  0.00    +0.000 A 
ATOM     18  C   UNL     1      -8.935  54.666  51.972  0.00  0.00    +0.000 C 
ATOM     19  C   UNL     1      -8.360  52.910  53.582  0.00  0.00    +0.000 A 
ATOM     20  C   UNL     1      -6.132  52.645  54.526  0.00  0.00    +0.000 A 
ATOM     21  N   UNL     1      -9.270  53.620  52.804  0.00  0.00    +0.000 N 
ATOM     22  C   UNL     1      -8.773  51.782  54.296  0.00  0.00    +0.000 A 
ATOM     23  C   UNL     1      -6.548  51.504  55.207  0.00  0.00    +0.000 A 
ATOM     24  C   UNL     1      -7.871  51.077  55.098  0.00  0.00    +0.000 A 
ATOM     25  H   UNL     1      -7.650  56.024  51.321  0.00  0.00    +0.000 HD
ATOM     26  H   UNL     1     -10.216  53.357  52.852  0.00  0.00    +0.000 HD
ENDBRANCH   1  18
BRANCH   3  27
ATOM     27  O   UNL     1     -11.604  55.483  52.777  0.00  0.00    +0.000 OA
ATOM     28  H   UNL     1     -10.966  55.574  53.458  0.00  0.00    +0.000 HD
ENDBRANCH   3  27
BRANCH   5  29
ATOM     29  C   UNL     1     -10.325  55.728  47.240  0.00  0.00    +0.000 C 
BRANCH  29  30
ATOM     30  C   UNL     1     -10.214  54.375  46.515  0.00  0.00    +0.000 C 
BRANCH  30  31
ATOM     31  C   UNL     1     -11.522  53.779  45.970  0.00  0.00    +0.000 C 
ATOM     32  C   UNL     1     -11.339  53.129  44.600  0.00  0.00    +0.000 C 
ATOM     33  C   UNL     1     -12.046  52.742  46.971  0.00  0.00    +0.000 C 
ENDBRANCH  30  31
ENDBRANCH  29  30
ENDBRANCH   5  29
TORSDOF 5
ENDMDL
MODEL 7
REMARK VINA RESULT:      -7.8      2.991      8.155
REMARK  Name = 338063
REMARK  8 active torsions:
REMARK  status: ('A' for Active; 'I' for Inactive)
REMARK    1  A    between atoms: C_6  and  C_10
REMARK    2  A    between atoms: C_14  and  O_18
REMARK    3  A    between atoms: N_17  and  C_21
REMARK    4  A    between atoms: C_21  and  C_24
REMARK    5  A    between atoms: C_24  and  C_27
REMARK    6  A    between atoms: C_25  and  C_28
REMARK    7  A    between atoms: C_27  and  C_29
REMARK    8  A    between atoms: C_27  and  C_30
REMARK                            x       y       z     vdW  Elec       q    Type
REMARK                         _______ _______ _______ _____ _____    ______ ____
ROOT
ATOM      1  C   UNL     1     -10.016  54.011  51.101  0.00  0.00    +0.000 A 
ATOM      2  C   UNL     1     -11.023  55.070  51.419  0.00  0.00    +0.000 A 
ATOM      3  C   UNL     1      -9.879  53.568  49.840  0.00  0.00    +0.000 A 
ATOM      4  O   UNL     1     -11.058  55.514  52.571  0.00  0.00    +0.000 OA
ATOM      5  N   UNL     1     -11.854  55.531  50.405  0.00  0.00    +0.000 N 
ATOM      6  C   UNL     1     -10.705  54.128  48.761  0.00  0.00    +0.000 A 
ATOM      7  C   UNL     1     -11.656  55.122  49.049  0.00  0.00    +0.000 A 
ATOM      8  C   UNL     1     -10.533  53.697  47.433  0.00  0.00    +0.000 A 
ATOM      9  C   UNL     1     -12.362  55.704  47.985  0.00  0.00    +0.000 A 
ATOM     10  C   UNL     1     -11.270  54.255  46.386  0.00  0.00    +0.000 A 
ATOM     11  C   UNL     1     -12.178  55.272  46.671  0.00  0.00    +0.000 A 
ATOM     12  C   UNL     1     -11.070  53.802  44.972  0.00  0.00    +0.000 C 
ENDROOT
BRANCH   1  18
ATOM     13  S   UNL     1      -6.776  53.391  53.238  0.00  0.00    +0.000 S 
ATOM     14  O   UNL     1      -6.452  54.516  54.094  0.00  0.00    +0.000 OA
ATOM     15  O   UNL     1      -5.724  52.683  52.530  0.00  0.00    +0.000 OA
ATOM     16  N   UNL     1      -7.861  53.895  52.148  0.00  0.00    +0.000 N 
ATOM     17  C   UNL     1      -7.546  52.201  54.271  0.00  0.00    +0.000 A 
ATOM     18  C   UNL     1      -9.101  53.507  52.201  0.00  0.00    +0.000 C 
ATOM     19  C   UNL     1      -8.901  51.973  54.102  0.00  0.00    +0.000 A 
ATOM     20  C   UNL     1      -6.791  51.506  55.221  0.00  0.00    +0.000 A 
ATOM     21  N   UNL     1      -9.644  52.684  53.164  0.00  0.00    +0.000 N 
ATOM     22  C   UNL     1      -9.531  51.064  54.957  0.00  0.00    +0.000 A 
ATOM     23  C   UNL     1      -7.424  50.579  56.045  0.00  0.00    +0.000 A 
ATOM     24  C   UNL     1      -8.796  50.363  55.918  0.00  0.00    +0.000 A 
ATOM     25  H   UNL     1      -7.576  54.505  51.429  0.00  0.00    +0.000 HD
ATOM     26  H   UNL     1     -10.622  52.592  53.190  0.00  0.00    +0.000 HD
ENDBRANCH   1  18
BRANCH   3  27
ATOM     27  O   UNL     1      -8.945  52.630  49.436  0.00  0.00    +0.000 OA
ATOM     28  H   UNL     1      -9.222  51.767  49.194  0.00  0.00    +0.000 HD
ENDBRANCH   3  27
BRANCH   5  29
ATOM     29  C   UNL     1     -12.872  56.529  50.751  0.00  0.00    +0.000 C 
BRANCH  29  30
ATOM     30  C   UNL     1     -14.240  55.966  51.174  0.00  0.00    +0.000 C 
BRANCH  30  31
ATOM     31  C   UNL     1     -15.313  56.993  51.570  0.00  0.00    +0.000 C 
ATOM     32  C   UNL     1     -15.178  57.444  53.024  0.00  0.00    +0.000 C 
ATOM     33  C   UNL     1     -15.202  58.206  50.639  0.00  0.00    +0.000 C 
ENDBRANCH  30  31
ENDBRANCH  29  30
ENDBRANCH   5  29
TORSDOF 5
ENDMDL
MODEL 8
REMARK VINA RESULT:      -7.7      3.039      7.758
REMARK  Name = 338063
REMARK  8 active torsions:
REMARK  status: ('A' for Active; 'I' for Inactive)
REMARK    1  A    between atoms: C_6  and  C_10
REMARK    2  A    between atoms: C_14  and  O_18
REMARK    3  A    between atoms: N_17  and  C_21
REMARK    4  A    between atoms: C_21  and  C_24
REMARK    5  A    between atoms: C_24  and  C_27
REMARK    6  A    between atoms: C_25  and  C_28
REMARK    7  A    between atoms: C_27  and  C_29
REMARK    8  A    between atoms: C_27  and  C_30
REMARK                            x       y       z     vdW  Elec       q    Type
REMARK                         _______ _______ _______ _____ _____    ______ ____
ROOT
ATOM      1  C   UNL     1     -10.072  54.134  51.173  0.00  0.00    +0.000 A 
ATOM      2  C   UNL     1     -10.550  53.852  49.785  0.00  0.00    +0.000 A 
ATOM      3  C   UNL     1     -10.786  54.935  51.982  0.00  0.00    +0.000 A 
ATOM      4  O   UNL     1      -9.914  53.042  49.103  0.00  0.00    +0.000 OA
ATOM      5  N   UNL     1     -11.700  54.485  49.330  0.00  0.00    +0.000 N 
ATOM      6  C   UNL     1     -12.047  55.528  51.516  0.00  0.00    +0.000 A 
ATOM      7  C   UNL     1     -12.505  55.270  50.213  0.00  0.00    +0.000 A 
ATOM      8  C   UNL     1     -12.819  56.331  52.376  0.00  0.00    +0.000 A 
ATOM      9  C   UNL     1     -13.758  55.774  49.830  0.00  0.00    +0.000 A 
ATOM     10  C   UNL     1     -14.047  56.860  51.972  0.00  0.00    +0.000 A 
ATOM     11  C   UNL     1     -14.517  56.564  50.695  0.00  0.00    +0.000 A 
ATOM     12  C   UNL     1     -14.870  57.701  52.898  0.00  0.00    +0.000 C 
ENDROOT
BRANCH   1  18
ATOM     13  S   UNL     1      -7.739  51.682  53.170  0.00  0.00    +0.000 S 
ATOM     14  O   UNL     1      -7.701  50.354  52.588  0.00  0.00    +0.000 OA
ATOM     15  O   UNL     1      -7.797  51.847  54.612  0.00  0.00    +0.000 OA
ATOM     16  N   UNL     1      -8.996  52.470  52.525  0.00  0.00    +0.000 N 
ATOM     17  C   UNL     1      -6.264  52.480  52.654  0.00  0.00    +0.000 A 
ATOM     18  C   UNL     1      -8.820  53.443  51.680  0.00  0.00    +0.000 C 
ATOM     19  C   UNL     1      -6.371  53.512  51.737  0.00  0.00    +0.000 A 
ATOM     20  C   UNL     1      -5.031  52.078  53.177  0.00  0.00    +0.000 A 
ATOM     21  N   UNL     1      -7.604  53.891  51.213  0.00  0.00    +0.000 N 
ATOM     22  C   UNL     1      -5.196  54.117  51.283  0.00  0.00    +0.000 A 
ATOM     23  C   UNL     1      -3.870  52.711  52.741  0.00  0.00    +0.000 A 
ATOM     24  C   UNL     1      -3.952  53.726  51.788  0.00  0.00    +0.000 A 
ATOM     25  H   UNL     1      -9.911  52.209  52.778  0.00  0.00    +0.000 HD
ATOM     26  H   UNL     1      -7.606  54.521  50.459  0.00  0.00    +0.000 HD
ENDBRANCH   1  18
BRANCH   3  27
ATOM     27  O   UNL     1     -10.455  55.218  53.296  0.00  0.00    +0.000 OA
ATOM     28  H   UNL     1      -9.556  55.229  53.561  0.00  0.00    +0.000 HD
ENDBRANCH   3  27
BRANCH   5  29
ATOM     29  C   UNL     1     -12.120  54.236  47.946  0.00  0.00    +0.000 C 
BRANCH  29  30
ATOM     30  C   UNL     1     -11.674  55.289  46.916  0.00  0.00    +0.000 C 
BRANCH  30  31
ATOM     31  C   UNL     1     -10.520  54.889  45.983  0.00  0.00    +0.000 C 
ATOM     32  C   UNL     1      -9.151  55.222  46.574  0.00  0.00    +0.000 C 
ATOM     33  C   UNL     1     -10.611  53.384  45.702  0.00  0.00    +0.000 C 
ENDBRANCH  30  31
ENDBRANCH  29  30
ENDBRANCH   5  29
TORSDOF 5
ENDMDL
MODEL 9
REMARK VINA RESULT:      -7.7      4.485      7.078
REMARK  Name = 338063
REMARK  8 active torsions:
REMARK  status: ('A' for Active; 'I' for Inactive)
REMARK    1  A    between atoms: C_6  and  C_10
REMARK    2  A    between atoms: C_14  and  O_18
REMARK    3  A    between atoms: N_17  and  C_21
REMARK    4  A    between atoms: C_21  and  C_24
REMARK    5  A    between atoms: C_24  and  C_27
REMARK    6  A    between atoms: C_25  and  C_28
REMARK    7  A    between atoms: C_27  and  C_29
REMARK    8  A    between atoms: C_27  and  C_30
REMARK                            x       y       z     vdW  Elec       q    Type
REMARK                         _______ _______ _______ _____ _____    ______ ____
ROOT
ATOM      1  C   UNL     1     -10.814  54.444  48.688  0.00  0.00    +0.000 A 
ATOM      2  C   UNL     1     -10.330  53.994  50.030  0.00  0.00    +0.000 A 
ATOM      3  C   UNL     1     -11.821  55.329  48.598  0.00  0.00    +0.000 A 
ATOM      4  O   UNL     1      -9.346  53.249  50.074  0.00  0.00    +0.000 OA
ATOM      5  N   UNL     1     -10.984  54.452  51.167  0.00  0.00    +0.000 N 
ATOM      6  C   UNL     1     -12.446  55.872  49.812  0.00  0.00    +0.000 A 
ATOM      7  C   UNL     1     -12.000  55.455  51.077  0.00  0.00    +0.000 A 
ATOM      8  C   UNL     1     -13.470  56.832  49.720  0.00  0.00    +0.000 A 
ATOM      9  C   UNL     1     -12.551  56.061  52.217  0.00  0.00    +0.000 A 
ATOM     10  C   UNL     1     -14.040  57.400  50.862  0.00  0.00    +0.000 A 
ATOM     11  C   UNL     1     -13.562  57.016  52.112  0.00  0.00    +0.000 A 
ATOM     12  C   UNL     1     -15.120  58.433  50.755  0.00  0.00    +0.000 C 
ENDROOT
BRANCH   1  18
ATOM     13  S   UNL     1      -8.040  53.969  45.946  0.00  0.00    +0.000 S 
ATOM     14  O   UNL     1      -6.997  53.052  46.364  0.00  0.00    +0.000 OA
ATOM     15  O   UNL     1      -7.701  55.184  45.226  0.00  0.00    +0.000 OA
ATOM     16  N   UNL     1      -8.889  54.385  47.259  0.00  0.00    +0.000 N 
ATOM     17  C   UNL     1      -9.089  53.055  44.877  0.00  0.00    +0.000 A 
ATOM     18  C   UNL     1     -10.102  53.953  47.442  0.00  0.00    +0.000 C 
ATOM     19  C   UNL     1     -10.358  52.735  45.331  0.00  0.00    +0.000 A 
ATOM     20  C   UNL     1      -8.641  52.683  43.606  0.00  0.00    +0.000 A 
ATOM     21  N   UNL     1     -10.785  53.098  46.605  0.00  0.00    +0.000 N 
ATOM     22  C   UNL     1     -11.180  51.962  44.506  0.00  0.00    +0.000 A 
ATOM     23  C   UNL     1      -9.482  51.941  42.780  0.00  0.00    +0.000 A 
ATOM     24  C   UNL     1     -10.749  51.574  43.233  0.00  0.00    +0.000 A 
ATOM     25  H   UNL     1      -8.480  54.978  47.930  0.00  0.00    +0.000 HD
ATOM     26  H   UNL     1     -11.631  52.717  46.930  0.00  0.00    +0.000 HD
ENDBRANCH   1  18
BRANCH   3  27
ATOM     27  O   UNL     1     -12.307  55.844  47.408  0.00  0.00    +0.000 OA
ATOM     28  H   UNL     1     -11.982  55.522  46.590  0.00  0.00    +0.000 HD
ENDBRANCH   3  27
BRANCH   5  29
ATOM     29  C   UNL     1     -10.528  53.954  52.469  0.00  0.00    +0.000 C 
BRANCH  29  30
ATOM     30  C   UNL     1      -9.628  54.913  53.270  0.00  0.00    +0.000 C 
BRANCH  30  31
ATOM     31  C   UNL     1      -8.128  54.884  52.938  0.00  0.00    +0.000 C 
ATOM     32  C   UNL     1      -7.747  55.909  51.872  0.00  0.00    +0.000 C 
ATOM     33  C   UNL     1      -7.333  55.151  54.222  0.00  0.00    +0.000 C 
ENDBRANCH  30  31
ENDBRANCH  29  30
ENDBRANCH   5  29
TORSDOF 5
ENDMDL
