MODEL 1
REMARK VINA RESULT:      -8.5      0.000      0.000
REMARK  Name = 338118
REMARK  8 active torsions:
REMARK  status: ('A' for Active; 'I' for Inactive)
REMARK    1  A    between atoms: C_6  and  C_10
REMARK    2  A    between atoms: C_14  and  O_18
REMARK    3  A    between atoms: N_17  and  C_21
REMARK    4  A    between atoms: C_21  and  C_24
REMARK    5  A    between atoms: C_24  and  C_28
REMARK    6  A    between atoms: C_28  and  C_30
REMARK    7  A    between atoms: C_28  and  C_31
REMARK    8  A    between atoms: C_28  and  C_32
REMARK                            x       y       z     vdW  Elec       q    Type
REMARK                         _______ _______ _______ _____ _____    ______ ____
ROOT
ATOM      1  C   UNL     1     -10.208  54.343  52.376  0.00  0.00    +0.000 A 
ATOM      2  C   UNL     1      -8.821  54.891  52.322  0.00  0.00    +0.000 A 
ATOM      3  C   UNL     1     -10.456  53.226  53.078  0.00  0.00    +0.000 A 
ATOM      4  O   UNL     1      -8.638  56.029  51.880  0.00  0.00    +0.000 OA
ATOM      5  N   UNL     1      -7.782  54.070  52.723  0.00  0.00    +0.000 N 
ATOM      6  C   UNL     1      -9.362  52.543  53.788  0.00  0.00    +0.000 A 
ATOM      7  C   UNL     1      -8.028  52.941  53.558  0.00  0.00    +0.000 A 
ATOM      8  C   UNL     1      -9.627  51.508  54.697  0.00  0.00    +0.000 A 
ATOM      9  C   UNL     1      -6.986  52.267  54.217  0.00  0.00    +0.000 A 
ATOM     10  C   UNL     1      -8.584  50.894  55.376  0.00  0.00    +0.000 A 
ATOM     11  C   UNL     1      -7.267  51.259  55.141  0.00  0.00    +0.000 A 
ATOM     12  F   UNL     1      -8.850  49.946  56.284  0.00  0.00    +0.000 F 
ENDROOT
BRANCH   1  18
ATOM     13  S   UNL     1     -12.284  56.027  49.502  0.00  0.00    +0.000 S 
ATOM     14  O   UNL     1     -13.159  55.119  48.788  0.00  0.00    +0.000 OA
ATOM     15  O   UNL     1     -11.525  57.035  48.784  0.00  0.00    +0.000 OA
ATOM     16  N   UNL     1     -11.236  55.133  50.362  0.00  0.00    +0.000 N 
ATOM     17  C   UNL     1     -13.311  56.913  50.622  0.00  0.00    +0.000 A 
ATOM     18  C   UNL     1     -11.299  55.101  51.661  0.00  0.00    +0.000 C 
ATOM     19  C   UNL     1     -13.156  56.665  51.975  0.00  0.00    +0.000 A 
ATOM     20  C   UNL     1     -14.239  57.844  50.146  0.00  0.00    +0.000 A 
ATOM     21  N   UNL     1     -12.247  55.722  52.439  0.00  0.00    +0.000 N 
ATOM     22  C   UNL     1     -13.998  57.324  52.876  0.00  0.00    +0.000 A 
ATOM     23  C   UNL     1     -15.053  58.515  51.058  0.00  0.00    +0.000 A 
ATOM     24  C   UNL     1     -14.937  58.249  52.422  0.00  0.00    +0.000 A 
ATOM     25  H   UNL     1     -10.546  54.609  49.895  0.00  0.00    +0.000 HD
ATOM     26  H   UNL     1     -12.286  55.480  53.392  0.00  0.00    +0.000 HD
ENDBRANCH   1  18
BRANCH   3  27
ATOM     27  O   UNL     1     -11.704  52.646  53.215  0.00  0.00    +0.000 OA
ATOM     28  H   UNL     1     -11.829  51.743  52.996  0.00  0.00    +0.000 HD
ENDBRANCH   3  27
BRANCH   5  29
ATOM     29  C   UNL     1      -6.427  54.528  52.422  0.00  0.00    +0.000 C 
BRANCH  29  30
ATOM     30  C   UNL     1      -5.961  54.214  50.998  0.00  0.00    +0.000 C 
ATOM     31  O   UNL     1      -6.221  54.966  50.053  0.00  0.00    +0.000 OA
BRANCH  30  32
ATOM     32  C   UNL     1      -5.177  52.906  50.763  0.00  0.00    +0.000 C 
ATOM     33  C   UNL     1      -4.416  53.039  49.438  0.00  0.00    +0.000 C 
ATOM     34  C   UNL     1      -4.181  52.731  51.921  0.00  0.00    +0.000 C 
ATOM     35  C   UNL     1      -6.080  51.665  50.709  0.00  0.00    +0.000 C 
ENDBRANCH  30  32
ENDBRANCH  29  30
ENDBRANCH   5  29
TORSDOF 5
ENDMDL
MODEL 2
REMARK VINA RESULT:      -8.1      1.507      2.185
REMARK  Name = 338118
REMARK  8 active torsions:
REMARK  status: ('A' for Active; 'I' for Inactive)
REMARK    1  A    between atoms: C_6  and  C_10
REMARK    2  A    between atoms: C_14  and  O_18
REMARK    3  A    between atoms: N_17  and  C_21
REMARK    4  A    between atoms: C_21  and  C_24
REMARK    5  A    between atoms: C_24  and  C_28
REMARK    6  A    between atoms: C_28  and  C_30
REMARK    7  A    between atoms: C_28  and  C_31
REMARK    8  A    between atoms: C_28  and  C_32
REMARK                            x       y       z     vdW  Elec       q    Type
REMARK                         _______ _______ _______ _____ _____    ______ ____
ROOT
ATOM      1  C   UNL     1     -10.221  54.530  52.231  0.00  0.00    +0.000 A 
ATOM      2  C   UNL     1      -8.819  55.044  52.237  0.00  0.00    +0.000 A 
ATOM      3  C   UNL     1     -10.520  53.405  52.900  0.00  0.00    +0.000 A 
ATOM      4  O   UNL     1      -8.594  56.186  51.825  0.00  0.00    +0.000 OA
ATOM      5  N   UNL     1      -7.815  54.189  52.656  0.00  0.00    +0.000 N 
ATOM      6  C   UNL     1      -9.468  52.681  53.633  0.00  0.00    +0.000 A 
ATOM      7  C   UNL     1      -8.117  53.050  53.457  0.00  0.00    +0.000 A 
ATOM      8  C   UNL     1      -9.790  51.634  54.509  0.00  0.00    +0.000 A 
ATOM      9  C   UNL     1      -7.116  52.337  54.137  0.00  0.00    +0.000 A 
ATOM     10  C   UNL     1      -8.787  50.981  55.211  0.00  0.00    +0.000 A 
ATOM     11  C   UNL     1      -7.454  51.317  55.029  0.00  0.00    +0.000 A 
ATOM     12  F   UNL     1      -9.108  50.021  56.088  0.00  0.00    +0.000 F 
ENDROOT
BRANCH   1  18
ATOM     13  S   UNL     1     -13.522  56.514  51.475  0.00  0.00    +0.000 S 
ATOM     14  O   UNL     1     -13.487  57.905  51.883  0.00  0.00    +0.000 OA
ATOM     15  O   UNL     1     -14.714  55.714  51.689  0.00  0.00    +0.000 OA
ATOM     16  N   UNL     1     -12.277  55.756  52.193  0.00  0.00    +0.000 N 
ATOM     17  C   UNL     1     -13.249  56.509  49.738  0.00  0.00    +0.000 A 
ATOM     18  C   UNL     1     -11.267  55.330  51.495  0.00  0.00    +0.000 C 
ATOM     19  C   UNL     1     -12.055  55.986  49.272  0.00  0.00    +0.000 A 
ATOM     20  C   UNL     1     -14.223  57.009  48.868  0.00  0.00    +0.000 A 
ATOM     21  N   UNL     1     -11.083  55.513  50.145  0.00  0.00    +0.000 N 
ATOM     22  C   UNL     1     -11.802  56.019  47.898  0.00  0.00    +0.000 A 
ATOM     23  C   UNL     1     -13.969  57.009  47.497  0.00  0.00    +0.000 A 
ATOM     24  C   UNL     1     -12.755  56.522  47.013  0.00  0.00    +0.000 A 
ATOM     25  H   UNL     1     -12.289  55.620  53.168  0.00  0.00    +0.000 HD
ATOM     26  H   UNL     1     -10.200  55.293  49.770  0.00  0.00    +0.000 HD
ENDBRANCH   1  18
BRANCH   3  27
ATOM     27  O   UNL     1     -11.786  52.854  52.982  0.00  0.00    +0.000 OA
ATOM     28  H   UNL     1     -12.224  52.806  53.809  0.00  0.00    +0.000 HD
ENDBRANCH   3  27
BRANCH   5  29
ATOM     29  C   UNL     1      -6.440  54.619  52.412  0.00  0.00    +0.000 C 
BRANCH  29  30
ATOM     30  C   UNL     1      -5.947  54.364  50.985  0.00  0.00    +0.000 C 
ATOM     31  O   UNL     1      -6.093  55.204  50.091  0.00  0.00    +0.000 OA
BRANCH  30  32
ATOM     32  C   UNL     1      -5.284  53.004  50.679  0.00  0.00    +0.000 C 
ATOM     33  C   UNL     1      -4.474  53.151  49.385  0.00  0.00    +0.000 C 
ATOM     34  C   UNL     1      -4.345  52.657  51.846  0.00  0.00    +0.000 C 
ATOM     35  C   UNL     1      -6.299  51.863  50.519  0.00  0.00    +0.000 C 
ENDBRANCH  30  32
ENDBRANCH  29  30
ENDBRANCH   5  29
TORSDOF 5
ENDMDL
MODEL 3
REMARK VINA RESULT:      -8.1      4.099      5.213
REMARK  Name = 338118
REMARK  8 active torsions:
REMARK  status: ('A' for Active; 'I' for Inactive)
REMARK    1  A    between atoms: C_6  and  C_10
REMARK    2  A    between atoms: C_14  and  O_18
REMARK    3  A    between atoms: N_17  and  C_21
REMARK    4  A    between atoms: C_21  and  C_24
REMARK    5  A    between atoms: C_24  and  C_28
REMARK    6  A    between atoms: C_28  and  C_30
REMARK    7  A    between atoms: C_28  and  C_31
REMARK    8  A    between atoms: C_28  and  C_32
REMARK                            x       y       z     vdW  Elec       q    Type
REMARK                         _______ _______ _______ _____ _____    ______ ____
ROOT
ATOM      1  C   UNL     1     -12.489  54.306  49.851  0.00  0.00    +0.000 A 
ATOM      2  C   UNL     1     -12.239  54.101  48.394  0.00  0.00    +0.000 A 
ATOM      3  C   UNL     1     -11.976  53.444  50.743  0.00  0.00    +0.000 A 
ATOM      4  O   UNL     1     -12.508  55.008  47.601  0.00  0.00    +0.000 OA
ATOM      5  N   UNL     1     -11.764  52.868  47.984  0.00  0.00    +0.000 N 
ATOM      6  C   UNL     1     -11.172  52.300  50.284  0.00  0.00    +0.000 A 
ATOM      7  C   UNL     1     -11.122  51.993  48.907  0.00  0.00    +0.000 A 
ATOM      8  C   UNL     1     -10.450  51.514  51.194  0.00  0.00    +0.000 A 
ATOM      9  C   UNL     1     -10.375  50.882  48.478  0.00  0.00    +0.000 A 
ATOM     10  C   UNL     1      -9.677  50.455  50.739  0.00  0.00    +0.000 A 
ATOM     11  C   UNL     1      -9.638  50.128  49.392  0.00  0.00    +0.000 A 
ATOM     12  F   UNL     1      -8.947  49.745  51.609  0.00  0.00    +0.000 F 
ENDROOT
BRANCH   1  18
ATOM     13  S   UNL     1     -15.396  56.514  51.294  0.00  0.00    +0.000 S 
ATOM     14  O   UNL     1     -15.358  56.683  52.733  0.00  0.00    +0.000 OA
ATOM     15  O   UNL     1     -16.658  56.288  50.613  0.00  0.00    +0.000 OA
ATOM     16  N   UNL     1     -14.398  55.292  50.911  0.00  0.00    +0.000 N 
ATOM     17  C   UNL     1     -14.746  57.999  50.612  0.00  0.00    +0.000 A 
ATOM     18  C   UNL     1     -13.289  55.516  50.270  0.00  0.00    +0.000 C 
ATOM     19  C   UNL     1     -13.517  57.935  49.978  0.00  0.00    +0.000 A 
ATOM     20  C   UNL     1     -15.466  59.194  50.704  0.00  0.00    +0.000 A 
ATOM     21  N   UNL     1     -12.798  56.748  49.911  0.00  0.00    +0.000 N 
ATOM     22  C   UNL     1     -12.963  59.116  49.474  0.00  0.00    +0.000 A 
ATOM     23  C   UNL     1     -14.914  60.359  50.172  0.00  0.00    +0.000 A 
ATOM     24  C   UNL     1     -13.660  60.321  49.564  0.00  0.00    +0.000 A 
ATOM     25  H   UNL     1     -14.634  54.372  51.169  0.00  0.00    +0.000 HD
ATOM     26  H   UNL     1     -11.871  56.794  49.584  0.00  0.00    +0.000 HD
ENDBRANCH   1  18
BRANCH   3  27
ATOM     27  O   UNL     1     -12.125  53.552  52.114  0.00  0.00    +0.000 OA
ATOM     28  H   UNL     1     -12.130  54.397  52.520  0.00  0.00    +0.000 HD
ENDBRANCH   3  27
BRANCH   5  29
ATOM     29  C   UNL     1     -11.771  52.604  46.546  0.00  0.00    +0.000 C 
BRANCH  29  30
ATOM     30  C   UNL     1     -10.438  52.889  45.850  0.00  0.00    +0.000 C 
ATOM     31  O   UNL     1      -9.777  53.899  46.110  0.00  0.00    +0.000 OA
BRANCH  30  32
ATOM     32  C   UNL     1      -9.948  51.887  44.783  0.00  0.00    +0.000 C 
ATOM     33  C   UNL     1     -10.920  50.701  44.762  0.00  0.00    +0.000 C 
ATOM     34  C   UNL     1      -9.963  52.597  43.419  0.00  0.00    +0.000 C 
ATOM     35  C   UNL     1      -8.525  51.375  45.046  0.00  0.00    +0.000 C 
ENDBRANCH  30  32
ENDBRANCH  29  30
ENDBRANCH   5  29
TORSDOF 5
ENDMDL
MODEL 4
REMARK VINA RESULT:      -8.1      3.832      5.219
REMARK  Name = 338118
REMARK  8 active torsions:
REMARK  status: ('A' for Active; 'I' for Inactive)
REMARK    1  A    between atoms: C_6  and  C_10
REMARK    2  A    between atoms: C_14  and  O_18
REMARK    3  A    between atoms: N_17  and  C_21
REMARK    4  A    between atoms: C_21  and  C_24
REMARK    5  A    between atoms: C_24  and  C_28
REMARK    6  A    between atoms: C_28  and  C_30
REMARK    7  A    between atoms: C_28  and  C_31
REMARK    8  A    between atoms: C_28  and  C_32
REMARK                            x       y       z     vdW  Elec       q    Type
REMARK                         _______ _______ _______ _____ _____    ______ ____
ROOT
ATOM      1  C   UNL     1     -11.604  55.863  48.798  0.00  0.00    +0.000 A 
ATOM      2  C   UNL     1     -10.663  55.154  49.715  0.00  0.00    +0.000 A 
ATOM      3  C   UNL     1     -11.602  55.573  47.487  0.00  0.00    +0.000 A 
ATOM      4  O   UNL     1     -10.824  55.248  50.935  0.00  0.00    +0.000 OA
ATOM      5  N   UNL     1      -9.606  54.462  49.152  0.00  0.00    +0.000 N 
ATOM      6  C   UNL     1     -10.671  54.563  46.957  0.00  0.00    +0.000 A 
ATOM      7  C   UNL     1      -9.646  54.059  47.786  0.00  0.00    +0.000 A 
ATOM      8  C   UNL     1     -10.793  54.089  45.643  0.00  0.00    +0.000 A 
ATOM      9  C   UNL     1      -8.744  53.116  47.265  0.00  0.00    +0.000 A 
ATOM     10  C   UNL     1      -9.923  53.118  45.170  0.00  0.00    +0.000 A 
ATOM     11  C   UNL     1      -8.896  52.632  45.965  0.00  0.00    +0.000 A 
ATOM     12  F   UNL     1     -10.082  52.630  43.932  0.00  0.00    +0.000 F 
ENDROOT
BRANCH   1  18
ATOM     13  S   UNL     1     -13.539  59.214  49.457  0.00  0.00    +0.000 S 
ATOM     14  O   UNL     1     -14.675  59.427  48.583  0.00  0.00    +0.000 OA
ATOM     15  O   UNL     1     -12.651  60.313  49.793  0.00  0.00    +0.000 OA
ATOM     16  N   UNL     1     -12.638  58.023  48.818  0.00  0.00    +0.000 N 
ATOM     17  C   UNL     1     -14.201  58.651  50.987  0.00  0.00    +0.000 A 
ATOM     18  C   UNL     1     -12.562  56.862  49.399  0.00  0.00    +0.000 C 
ATOM     19  C   UNL     1     -13.958  57.338  51.352  0.00  0.00    +0.000 A 
ATOM     20  C   UNL     1     -14.935  59.519  51.801  0.00  0.00    +0.000 A 
ATOM     21  N   UNL     1     -13.247  56.477  50.526  0.00  0.00    +0.000 N 
ATOM     22  C   UNL     1     -14.518  56.861  52.541  0.00  0.00    +0.000 A 
ATOM     23  C   UNL     1     -15.464  59.037  52.998  0.00  0.00    +0.000 A 
ATOM     24  C   UNL     1     -15.262  57.707  53.364  0.00  0.00    +0.000 A 
ATOM     25  H   UNL     1     -12.146  58.183  47.981  0.00  0.00    +0.000 HD
ATOM     26  H   UNL     1     -13.234  55.522  50.765  0.00  0.00    +0.000 HD
ENDBRANCH   1  18
BRANCH   3  27
ATOM     27  O   UNL     1     -12.445  56.150  46.555  0.00  0.00    +0.000 OA
ATOM     28  H   UNL     1     -12.095  56.703  45.884  0.00  0.00    +0.000 HD
ENDBRANCH   3  27
BRANCH   5  29
ATOM     29  C   UNL     1      -8.562  53.998  50.064  0.00  0.00    +0.000 C 
BRANCH  29  30
ATOM     30  C   UNL     1      -7.326  54.901  50.113  0.00  0.00    +0.000 C 
ATOM     31  O   UNL     1      -7.421  56.129  50.030  0.00  0.00    +0.000 OA
BRANCH  30  32
ATOM     32  C   UNL     1      -5.942  54.230  50.241  0.00  0.00    +0.000 C 
ATOM     33  C   UNL     1      -6.083  52.765  49.811  0.00  0.00    +0.000 C 
ATOM     34  C   UNL     1      -4.970  54.959  49.299  0.00  0.00    +0.000 C 
ATOM     35  C   UNL     1      -5.373  54.291  51.665  0.00  0.00    +0.000 C 
ENDBRANCH  30  32
ENDBRANCH  29  30
ENDBRANCH   5  29
TORSDOF 5
ENDMDL
MODEL 5
REMARK VINA RESULT:      -8.0      3.799      7.214
REMARK  Name = 338118
REMARK  8 active torsions:
REMARK  status: ('A' for Active; 'I' for Inactive)
REMARK    1  A    between atoms: C_6  and  C_10
REMARK    2  A    between atoms: C_14  and  O_18
REMARK    3  A    between atoms: N_17  and  C_21
REMARK    4  A    between atoms: C_21  and  C_24
REMARK    5  A    between atoms: C_24  and  C_28
REMARK    6  A    between atoms: C_28  and  C_30
REMARK    7  A    between atoms: C_28  and  C_31
REMARK    8  A    between atoms: C_28  and  C_32
REMARK                            x       y       z     vdW  Elec       q    Type
REMARK                         _______ _______ _______ _____ _____    ______ ____
ROOT
ATOM      1  C   UNL     1     -10.304  55.009  51.038  0.00  0.00    +0.000 A 
ATOM      2  C   UNL     1     -10.008  54.818  49.587  0.00  0.00    +0.000 A 
ATOM      3  C   UNL     1     -11.474  55.552  51.413  0.00  0.00    +0.000 A 
ATOM      4  O   UNL     1      -9.049  54.115  49.255  0.00  0.00    +0.000 OA
ATOM      5  N   UNL     1     -10.795  55.489  48.669  0.00  0.00    +0.000 N 
ATOM      6  C   UNL     1     -12.457  55.959  50.395  0.00  0.00    +0.000 A 
ATOM      7  C   UNL     1     -12.084  55.975  49.034  0.00  0.00    +0.000 A 
ATOM      8  C   UNL     1     -13.761  56.326  50.759  0.00  0.00    +0.000 A 
ATOM      9  C   UNL     1     -13.019  56.391  48.071  0.00  0.00    +0.000 A 
ATOM     10  C   UNL     1     -14.682  56.681  49.783  0.00  0.00    +0.000 A 
ATOM     11  C   UNL     1     -14.322  56.724  48.445  0.00  0.00    +0.000 A 
ATOM     12  F   UNL     1     -15.941  56.974  50.134  0.00  0.00    +0.000 F 
ENDROOT
BRANCH   1  18
ATOM     13  S   UNL     1      -6.912  54.643  52.977  0.00  0.00    +0.000 S 
ATOM     14  O   UNL     1      -6.702  55.644  54.004  0.00  0.00    +0.000 OA
ATOM     15  O   UNL     1      -5.818  54.233  52.115  0.00  0.00    +0.000 OA
ATOM     16  N   UNL     1      -8.129  55.152  52.031  0.00  0.00    +0.000 N 
ATOM     17  C   UNL     1      -7.429  53.186  53.816  0.00  0.00    +0.000 A 
ATOM     18  C   UNL     1      -9.277  54.542  52.040  0.00  0.00    +0.000 C 
ATOM     19  C   UNL     1      -8.737  52.768  53.638  0.00  0.00    +0.000 A 
ATOM     20  C   UNL     1      -6.533  52.478  54.622  0.00  0.00    +0.000 A 
ATOM     21  N   UNL     1      -9.627  53.491  52.854  0.00  0.00    +0.000 N 
ATOM     22  C   UNL     1      -9.179  51.640  54.336  0.00  0.00    +0.000 A 
ATOM     23  C   UNL     1      -6.979  51.338  55.289  0.00  0.00    +0.000 A 
ATOM     24  C   UNL     1      -8.304  50.924  55.152  0.00  0.00    +0.000 A 
ATOM     25  H   UNL     1      -7.996  55.932  51.445  0.00  0.00    +0.000 HD
ATOM     26  H   UNL     1     -10.577  53.232  52.884  0.00  0.00    +0.000 HD
ENDBRANCH   1  18
BRANCH   3  27
ATOM     27  O   UNL     1     -11.861  55.753  52.725  0.00  0.00    +0.000 OA
ATOM     28  H   UNL     1     -12.714  56.092  52.916  0.00  0.00    +0.000 HD
ENDBRANCH   3  27
BRANCH   5  29
ATOM     29  C   UNL     1     -10.332  55.494  47.283  0.00  0.00    +0.000 C 
BRANCH  29  30
ATOM     30  C   UNL     1     -10.573  54.179  46.537  0.00  0.00    +0.000 C 
ATOM     31  O   UNL     1     -11.665  53.602  46.582  0.00  0.00    +0.000 OA
BRANCH  30  32
ATOM     32  C   UNL     1      -9.398  53.568  45.745  0.00  0.00    +0.000 C 
ATOM     33  C   UNL     1      -9.893  53.248  44.330  0.00  0.00    +0.000 C 
ATOM     34  C   UNL     1      -8.271  54.612  45.681  0.00  0.00    +0.000 C 
ATOM     35  C   UNL     1      -8.838  52.292  46.390  0.00  0.00    +0.000 C 
ENDBRANCH  30  32
ENDBRANCH  29  30
ENDBRANCH   5  29
TORSDOF 5
ENDMDL
MODEL 6
REMARK VINA RESULT:      -7.9      4.092      5.621
REMARK  Name = 338118
REMARK  8 active torsions:
REMARK  status: ('A' for Active; 'I' for Inactive)
REMARK    1  A    between atoms: C_6  and  C_10
REMARK    2  A    between atoms: C_14  and  O_18
REMARK    3  A    between atoms: N_17  and  C_21
REMARK    4  A    between atoms: C_21  and  C_24
REMARK    5  A    between atoms: C_24  and  C_28
REMARK    6  A    between atoms: C_28  and  C_30
REMARK    7  A    between atoms: C_28  and  C_31
REMARK    8  A    between atoms: C_28  and  C_32
REMARK                            x       y       z     vdW  Elec       q    Type
REMARK                         _______ _______ _______ _____ _____    ______ ____
ROOT
ATOM      1  C   UNL     1     -11.712  54.928  48.621  0.00  0.00    +0.000 A 
ATOM      2  C   UNL     1     -10.852  53.995  49.407  0.00  0.00    +0.000 A 
ATOM      3  C   UNL     1     -11.658  54.914  47.279  0.00  0.00    +0.000 A 
ATOM      4  O   UNL     1     -11.069  53.844  50.612  0.00  0.00    +0.000 OA
ATOM      5  N   UNL     1      -9.800  53.376  48.754  0.00  0.00    +0.000 N 
ATOM      6  C   UNL     1     -10.749  53.985  46.588  0.00  0.00    +0.000 A 
ATOM      7  C   UNL     1      -9.791  53.265  47.333  0.00  0.00    +0.000 A 
ATOM      8  C   UNL     1     -10.827  53.799  45.200  0.00  0.00    +0.000 A 
ATOM      9  C   UNL     1      -8.908  52.401  46.664  0.00  0.00    +0.000 A 
ATOM     10  C   UNL     1      -9.980  52.899  44.570  0.00  0.00    +0.000 A 
ATOM     11  C   UNL     1      -9.018  52.204  45.286  0.00  0.00    +0.000 A 
ATOM     12  F   UNL     1     -10.100  52.685  43.253  0.00  0.00    +0.000 F 
ENDROOT
BRANCH   1  18
ATOM     13  S   UNL     1     -14.710  56.138  50.846  0.00  0.00    +0.000 S 
ATOM     14  O   UNL     1     -14.463  56.059  52.272  0.00  0.00    +0.000 OA
ATOM     15  O   UNL     1     -16.000  55.754  50.300  0.00  0.00    +0.000 OA
ATOM     16  N   UNL     1     -13.570  55.258  50.096  0.00  0.00    +0.000 N 
ATOM     17  C   UNL     1     -14.490  57.826  50.407  0.00  0.00    +0.000 A 
ATOM     18  C   UNL     1     -12.652  55.834  49.378  0.00  0.00    +0.000 C 
ATOM     19  C   UNL     1     -13.398  58.153  49.621  0.00  0.00    +0.000 A 
ATOM     20  C   UNL     1     -15.405  58.793  50.834  0.00  0.00    +0.000 A 
ATOM     21  N   UNL     1     -12.481  57.189  49.220  0.00  0.00    +0.000 N 
ATOM     22  C   UNL     1     -13.181  59.497  49.304  0.00  0.00    +0.000 A 
ATOM     23  C   UNL     1     -15.192  60.127  50.486  0.00  0.00    +0.000 A 
ATOM     24  C   UNL     1     -14.075  60.479  49.727  0.00  0.00    +0.000 A 
ATOM     25  H   UNL     1     -13.574  54.278  50.188  0.00  0.00    +0.000 HD
ATOM     26  H   UNL     1     -11.650  57.498  48.794  0.00  0.00    +0.000 HD
ENDBRANCH   1  18
BRANCH   3  27
ATOM     27  O   UNL     1     -12.426  55.716  46.455  0.00  0.00    +0.000 OA
ATOM     28  H   UNL     1     -12.028  56.165  45.734  0.00  0.00    +0.000 HD
ENDBRANCH   3  27
BRANCH   5  29
ATOM     29  C   UNL     1      -8.826  52.677  49.590  0.00  0.00    +0.000 C 
BRANCH  29  30
ATOM     30  C   UNL     1      -7.568  53.492  49.901  0.00  0.00    +0.000 C 
ATOM     31  O   UNL     1      -6.674  53.643  49.063  0.00  0.00    +0.000 OA
BRANCH  30  32
ATOM     32  C   UNL     1      -7.430  54.102  51.312  0.00  0.00    +0.000 C 
ATOM     33  C   UNL     1      -8.084  53.140  52.312  0.00  0.00    +0.000 C 
ATOM     34  C   UNL     1      -5.931  54.242  51.627  0.00  0.00    +0.000 C 
ATOM     35  C   UNL     1      -8.081  55.486  51.435  0.00  0.00    +0.000 C 
ENDBRANCH  30  32
ENDBRANCH  29  30
ENDBRANCH   5  29
TORSDOF 5
ENDMDL
MODEL 7
REMARK VINA RESULT:      -7.9      3.030      3.585
REMARK  Name = 338118
REMARK  8 active torsions:
REMARK  status: ('A' for Active; 'I' for Inactive)
REMARK    1  A    between atoms: C_6  and  C_10
REMARK    2  A    between atoms: C_14  and  O_18
REMARK    3  A    between atoms: N_17  and  C_21
REMARK    4  A    between atoms: C_21  and  C_24
REMARK    5  A    between atoms: C_24  and  C_28
REMARK    6  A    between atoms: C_28  and  C_30
REMARK    7  A    between atoms: C_28  and  C_31
REMARK    8  A    between atoms: C_28  and  C_32
REMARK                            x       y       z     vdW  Elec       q    Type
REMARK                         _______ _______ _______ _____ _____    ______ ____
ROOT
ATOM      1  C   UNL     1     -11.239  54.368  50.527  0.00  0.00    +0.000 A 
ATOM      2  C   UNL     1     -10.075  54.543  49.609  0.00  0.00    +0.000 A 
ATOM      3  C   UNL     1     -11.272  53.324  51.370  0.00  0.00    +0.000 A 
ATOM      4  O   UNL     1      -9.934  55.613  49.010  0.00  0.00    +0.000 OA
ATOM      5  N   UNL     1      -9.227  53.466  49.424  0.00  0.00    +0.000 N 
ATOM      6  C   UNL     1     -10.165  52.353  51.385  0.00  0.00    +0.000 A 
ATOM      7  C   UNL     1      -9.182  52.404  50.374  0.00  0.00    +0.000 A 
ATOM      8  C   UNL     1     -10.069  51.383  52.393  0.00  0.00    +0.000 A 
ATOM      9  C   UNL     1      -8.143  51.458  50.377  0.00  0.00    +0.000 A 
ATOM     10  C   UNL     1      -9.004  50.494  52.405  0.00  0.00    +0.000 A 
ATOM     11  C   UNL     1      -8.045  50.518  51.404  0.00  0.00    +0.000 A 
ATOM     12  F   UNL     1      -8.890  49.609  53.404  0.00  0.00    +0.000 F 
ENDROOT
BRANCH   1  18
ATOM     13  S   UNL     1     -13.774  57.048  49.185  0.00  0.00    +0.000 S 
ATOM     14  O   UNL     1     -15.003  56.492  48.655  0.00  0.00    +0.000 OA
ATOM     15  O   UNL     1     -13.113  58.150  48.510  0.00  0.00    +0.000 OA
ATOM     16  N   UNL     1     -12.702  55.836  49.326  0.00  0.00    +0.000 N 
ATOM     17  C   UNL     1     -14.162  57.639  50.795  0.00  0.00    +0.000 A 
ATOM     18  C   UNL     1     -12.330  55.411  50.497  0.00  0.00    +0.000 C 
ATOM     19  C   UNL     1     -13.614  56.972  51.878  0.00  0.00    +0.000 A 
ATOM     20  C   UNL     1     -14.986  58.756  50.959  0.00  0.00    +0.000 A 
ATOM     21  N   UNL     1     -12.814  55.849  51.707  0.00  0.00    +0.000 N 
ATOM     22  C   UNL     1     -13.951  57.399  53.166  0.00  0.00    +0.000 A 
ATOM     23  C   UNL     1     -15.292  59.188  52.249  0.00  0.00    +0.000 A 
ATOM     24  C   UNL     1     -14.780  58.504  53.352  0.00  0.00    +0.000 A 
ATOM     25  H   UNL     1     -12.332  55.418  48.515  0.00  0.00    +0.000 HD
ATOM     26  H   UNL     1     -12.577  55.330  52.509  0.00  0.00    +0.000 HD
ENDBRANCH   1  18
BRANCH   3  27
ATOM     27  O   UNL     1     -12.287  53.079  52.278  0.00  0.00    +0.000 OA
ATOM     28  H   UNL     1     -12.406  52.218  52.627  0.00  0.00    +0.000 HD
ENDBRANCH   3  27
BRANCH   5  29
ATOM     29  C   UNL     1      -8.255  53.572  48.337  0.00  0.00    +0.000 C 
BRANCH  29  30
ATOM     30  C   UNL     1      -8.701  52.908  47.032  0.00  0.00    +0.000 C 
ATOM     31  O   UNL     1      -8.765  51.680  46.922  0.00  0.00    +0.000 OA
BRANCH  30  32
ATOM     32  C   UNL     1      -9.042  53.820  45.834  0.00  0.00    +0.000 C 
ATOM     33  C   UNL     1     -10.541  54.136  45.889  0.00  0.00    +0.000 C 
ATOM     34  C   UNL     1      -8.229  55.117  45.975  0.00  0.00    +0.000 C 
ATOM     35  C   UNL     1      -8.704  53.183  44.478  0.00  0.00    +0.000 C 
ENDBRANCH  30  32
ENDBRANCH  29  30
ENDBRANCH   5  29
TORSDOF 5
ENDMDL
MODEL 8
REMARK VINA RESULT:      -7.7      4.180      5.621
REMARK  Name = 338118
REMARK  8 active torsions:
REMARK  status: ('A' for Active; 'I' for Inactive)
REMARK    1  A    between atoms: C_6  and  C_10
REMARK    2  A    between atoms: C_14  and  O_18
REMARK    3  A    between atoms: N_17  and  C_21
REMARK    4  A    between atoms: C_21  and  C_24
REMARK    5  A    between atoms: C_24  and  C_28
REMARK    6  A    between atoms: C_28  and  C_30
REMARK    7  A    between atoms: C_28  and  C_31
REMARK    8  A    between atoms: C_28  and  C_32
REMARK                            x       y       z     vdW  Elec       q    Type
REMARK                         _______ _______ _______ _____ _____    ______ ____
ROOT
ATOM      1  C   UNL     1     -10.905  55.471  48.430  0.00  0.00    +0.000 A 
ATOM      2  C   UNL     1      -9.574  55.059  48.965  0.00  0.00    +0.000 A 
ATOM      3  C   UNL     1     -11.244  55.152  47.170  0.00  0.00    +0.000 A 
ATOM      4  O   UNL     1      -9.358  55.145  50.177  0.00  0.00    +0.000 OA
ATOM      5  N   UNL     1      -8.610  54.648  48.062  0.00  0.00    +0.000 N 
ATOM      6  C   UNL     1     -10.304  54.401  46.322  0.00  0.00    +0.000 A 
ATOM      7  C   UNL     1      -8.976  54.206  46.758  0.00  0.00    +0.000 A 
ATOM      8  C   UNL     1     -10.711  53.872  45.088  0.00  0.00    +0.000 A 
ATOM      9  C   UNL     1      -8.077  53.513  45.931  0.00  0.00    +0.000 A 
ATOM     10  C   UNL     1      -9.818  53.145  44.314  0.00  0.00    +0.000 A 
ATOM     11  C   UNL     1      -8.505  52.966  44.720  0.00  0.00    +0.000 A 
ATOM     12  F   UNL     1     -10.231  52.594  43.165  0.00  0.00    +0.000 F 
ENDROOT
BRANCH   1  18
ATOM     13  S   UNL     1     -13.396  56.203  51.373  0.00  0.00    +0.000 S 
ATOM     14  O   UNL     1     -12.754  56.488  52.640  0.00  0.00    +0.000 OA
ATOM     15  O   UNL     1     -14.582  55.367  51.320  0.00  0.00    +0.000 OA
ATOM     16  N   UNL     1     -12.282  55.551  50.388  0.00  0.00    +0.000 N 
ATOM     17  C   UNL     1     -13.882  57.760  50.713  0.00  0.00    +0.000 A 
ATOM     18  C   UNL     1     -11.845  56.207  49.353  0.00  0.00    +0.000 C 
ATOM     19  C   UNL     1     -13.222  58.217  49.584  0.00  0.00    +0.000 A 
ATOM     20  C   UNL     1     -14.911  58.492  51.312  0.00  0.00    +0.000 A 
ATOM     21  N   UNL     1     -12.185  57.493  49.009  0.00  0.00    +0.000 N 
ATOM     22  C   UNL     1     -13.562  59.474  49.075  0.00  0.00    +0.000 A 
ATOM     23  C   UNL     1     -15.258  59.732  50.777  0.00  0.00    +0.000 A 
ATOM     24  C   UNL     1     -14.579  60.226  49.663  0.00  0.00    +0.000 A 
ATOM     25  H   UNL     1     -11.934  54.650  50.577  0.00  0.00    +0.000 HD
ATOM     26  H   UNL     1     -11.657  57.933  48.304  0.00  0.00    +0.000 HD
ENDBRANCH   1  18
BRANCH   3  27
ATOM     27  O   UNL     1     -12.457  55.461  46.582  0.00  0.00    +0.000 OA
ATOM     28  H   UNL     1     -13.230  54.989  46.825  0.00  0.00    +0.000 HD
ENDBRANCH   3  27
BRANCH   5  29
ATOM     29  C   UNL     1      -7.249  54.498  48.574  0.00  0.00    +0.000 C 
BRANCH  29  30
ATOM     30  C   UNL     1      -6.909  53.082  49.045  0.00  0.00    +0.000 C 
ATOM     31  O   UNL     1      -7.640  52.469  49.830  0.00  0.00    +0.000 OA
BRANCH  30  32
ATOM     32  C   UNL     1      -5.600  52.442  48.534  0.00  0.00    +0.000 C 
ATOM     33  C   UNL     1      -4.829  53.505  47.742  0.00  0.00    +0.000 C 
ATOM     34  C   UNL     1      -4.776  52.001  49.754  0.00  0.00    +0.000 C 
ATOM     35  C   UNL     1      -5.839  51.215  47.643  0.00  0.00    +0.000 C 
ENDBRANCH  30  32
ENDBRANCH  29  30
ENDBRANCH   5  29
TORSDOF 5
ENDMDL
MODEL 9
REMARK VINA RESULT:      -7.7      4.264      7.438
REMARK  Name = 338118
REMARK  8 active torsions:
REMARK  status: ('A' for Active; 'I' for Inactive)
REMARK    1  A    between atoms: C_6  and  C_10
REMARK    2  A    between atoms: C_14  and  O_18
REMARK    3  A    between atoms: N_17  and  C_21
REMARK    4  A    between atoms: C_21  and  C_24
REMARK    5  A    between atoms: C_24  and  C_28
REMARK    6  A    between atoms: C_28  and  C_30
REMARK    7  A    between atoms: C_28  and  C_31
REMARK    8  A    between atoms: C_28  and  C_32
REMARK                            x       y       z     vdW  Elec       q    Type
REMARK                         _______ _______ _______ _____ _____    ______ ____
ROOT
ATOM      1  C   UNL     1     -10.224  54.537  50.263  0.00  0.00    +0.000 A 
ATOM      2  C   UNL     1     -10.071  54.307  48.796  0.00  0.00    +0.000 A 
ATOM      3  C   UNL     1     -11.240  55.289  50.717  0.00  0.00    +0.000 A 
ATOM      4  O   UNL     1      -9.290  53.438  48.399  0.00  0.00    +0.000 OA
ATOM      5  N   UNL     1     -10.779  55.125  47.933  0.00  0.00    +0.000 N 
ATOM      6  C   UNL     1     -12.196  55.886  49.770  0.00  0.00    +0.000 A 
ATOM      7  C   UNL     1     -11.923  55.843  48.386  0.00  0.00    +0.000 A 
ATOM      8  C   UNL     1     -13.378  56.489  50.224  0.00  0.00    +0.000 A 
ATOM      9  C   UNL     1     -12.826  56.440  47.490  0.00  0.00    +0.000 A 
ATOM     10  C   UNL     1     -14.280  57.023  49.314  0.00  0.00    +0.000 A 
ATOM     11  C   UNL     1     -14.013  57.010  47.954  0.00  0.00    +0.000 A 
ATOM     12  F   UNL     1     -15.433  57.546  49.752  0.00  0.00    +0.000 F 
ENDROOT
BRANCH   1  18
ATOM     13  S   UNL     1      -8.367  51.773  52.339  0.00  0.00    +0.000 S 
ATOM     14  O   UNL     1      -7.372  51.031  51.589  0.00  0.00    +0.000 OA
ATOM     15  O   UNL     1      -9.247  51.090  53.270  0.00  0.00    +0.000 OA
ATOM     16  N   UNL     1      -9.293  52.576  51.275  0.00  0.00    +0.000 N 
ATOM     17  C   UNL     1      -7.476  52.946  53.300  0.00  0.00    +0.000 A 
ATOM     18  C   UNL     1      -9.238  53.873  51.191  0.00  0.00    +0.000 C 
ATOM     19  C   UNL     1      -7.608  54.284  52.970  0.00  0.00    +0.000 A 
ATOM     20  C   UNL     1      -6.676  52.526  54.367  0.00  0.00    +0.000 A 
ATOM     21  N   UNL     1      -8.387  54.692  51.895  0.00  0.00    +0.000 N 
ATOM     22  C   UNL     1      -6.869  55.226  53.692  0.00  0.00    +0.000 A 
ATOM     23  C   UNL     1      -5.966  53.479  55.096  0.00  0.00    +0.000 A 
ATOM     24  C   UNL     1      -6.057  54.828  54.754  0.00  0.00    +0.000 A 
ATOM     25  H   UNL     1      -9.903  52.076  50.687  0.00  0.00    +0.000 HD
ATOM     26  H   UNL     1      -8.325  55.634  51.616  0.00  0.00    +0.000 HD
ENDBRANCH   1  18
BRANCH   3  27
ATOM     27  O   UNL     1     -11.489  55.546  52.053  0.00  0.00    +0.000 OA
ATOM     28  H   UNL     1     -10.782  55.770  52.627  0.00  0.00    +0.000 HD
ENDBRANCH   3  27
BRANCH   5  29
ATOM     29  C   UNL     1     -10.422  55.056  46.517  0.00  0.00    +0.000 C 
BRANCH  29  30
ATOM     30  C   UNL     1     -10.866  53.766  45.822  0.00  0.00    +0.000 C 
ATOM     31  O   UNL     1     -12.008  53.317  45.963  0.00  0.00    +0.000 OA
BRANCH  30  32
ATOM     32  C   UNL     1      -9.832  53.016  44.956  0.00  0.00    +0.000 C 
ATOM     33  C   UNL     1     -10.422  52.846  43.551  0.00  0.00    +0.000 C 
ATOM     34  C   UNL     1      -8.556  53.872  44.886  0.00  0.00    +0.000 C 
ATOM     35  C   UNL     1      -9.459  51.639  45.523  0.00  0.00    +0.000 C 
ENDBRANCH  30  32
ENDBRANCH  29  30
ENDBRANCH   5  29
TORSDOF 5
ENDMDL
