MODEL 1
REMARK VINA RESULT:      -8.5      0.000      0.000
REMARK  Name = 338298
REMARK  5 active torsions:
REMARK  status: ('A' for Active; 'I' for Inactive)
REMARK    1  A    between atoms: C_6  and  C_10
REMARK    2  A    between atoms: C_14  and  O_18
REMARK    3  A    between atoms: N_17  and  C_21
REMARK    4  A    between atoms: C_21  and  C_24
REMARK    5  A    between atoms: C_24  and  C_27
REMARK                            x       y       z     vdW  Elec       q    Type
REMARK                         _______ _______ _______ _____ _____    ______ ____
ROOT
ATOM      1  C   UNL     1     -10.006  55.341  50.946  0.00  0.00    +0.000 A 
ATOM      2  C   UNL     1     -11.419  55.640  51.357  0.00  0.00    +0.000 A 
ATOM      3  C   UNL     1      -9.691  55.370  49.639  0.00  0.00    +0.000 A 
ATOM      4  O   UNL     1     -11.774  55.339  52.501  0.00  0.00    +0.000 OA
ATOM      5  N   UNL     1     -12.288  56.224  50.418  0.00  0.00    +0.000 N 
ATOM      6  C   UNL     1     -10.728  55.637  48.649  0.00  0.00    +0.000 A 
ATOM      7  C   UNL     1     -11.920  56.254  49.034  0.00  0.00    +0.000 A 
ATOM      8  C   UNL     1     -10.598  55.156  47.343  0.00  0.00    +0.000 A 
ATOM      9  C   UNL     1     -12.793  56.698  48.037  0.00  0.00    +0.000 A 
ATOM     10  C   UNL     1     -11.627  55.339  46.432  0.00  0.00    +0.000 A 
ATOM     11  C   UNL     1     -12.651  56.226  46.734  0.00  0.00    +0.000 A 
ENDROOT
BRANCH   1  17
ATOM     12  S   UNL     1      -6.563  54.991  52.826  0.00  0.00    +0.000 S 
ATOM     13  O   UNL     1      -6.421  56.000  53.850  0.00  0.00    +0.000 OA
ATOM     14  O   UNL     1      -5.445  54.644  51.968  0.00  0.00    +0.000 OA
ATOM     15  N   UNL     1      -7.793  55.435  51.858  0.00  0.00    +0.000 N 
ATOM     16  C   UNL     1      -7.024  53.524  53.648  0.00  0.00    +0.000 A 
ATOM     17  C   UNL     1      -8.967  54.869  51.956  0.00  0.00    +0.000 C 
ATOM     18  C   UNL     1      -8.355  53.130  53.559  0.00  0.00    +0.000 A 
ATOM     19  C   UNL     1      -6.065  52.791  54.352  0.00  0.00    +0.000 A 
ATOM     20  N   UNL     1      -9.290  53.865  52.836  0.00  0.00    +0.000 N 
ATOM     21  C   UNL     1      -8.737  51.977  54.251  0.00  0.00    +0.000 A 
ATOM     22  C   UNL     1      -6.458  51.637  55.021  0.00  0.00    +0.000 A 
ATOM     23  C   UNL     1      -7.793  51.233  54.972  0.00  0.00    +0.000 A 
ATOM     24  H   UNL     1      -7.651  56.143  51.188  0.00  0.00    +0.000 HD
ATOM     25  H   UNL     1     -10.243  53.652  52.963  0.00  0.00    +0.000 HD
ENDBRANCH   1  17
BRANCH   3  26
ATOM     26  O   UNL     1      -8.446  55.095  49.090  0.00  0.00    +0.000 OA
ATOM     27  H   UNL     1      -8.276  55.296  48.191  0.00  0.00    +0.000 HD
ENDBRANCH   3  26
BRANCH   5  28
ATOM     28  C   UNL     1     -13.730  56.217  50.736  0.00  0.00    +0.000 C 
BRANCH  28  29
ATOM     29  C   UNL     1     -14.177  57.555  51.294  0.00  0.00    +0.000 C 
BRANCH  29  30
ATOM     30  C   UNL     1     -14.998  57.370  52.613  0.00  0.00    +0.000 C 
ATOM     31  C   UNL     1     -14.978  58.893  51.153  0.00  0.00    +0.000 C 
ATOM     32  C   UNL     1     -15.016  58.908  52.705  0.00  0.00    +0.000 C 
ENDBRANCH  29  30
ENDBRANCH  28  29
ENDBRANCH   5  28
TORSDOF 5
ENDMDL
MODEL 2
REMARK VINA RESULT:      -8.4      1.744      2.187
REMARK  Name = 338298
REMARK  5 active torsions:
REMARK  status: ('A' for Active; 'I' for Inactive)
REMARK    1  A    between atoms: C_6  and  C_10
REMARK    2  A    between atoms: C_14  and  O_18
REMARK    3  A    between atoms: N_17  and  C_21
REMARK    4  A    between atoms: C_21  and  C_24
REMARK    5  A    between atoms: C_24  and  C_27
REMARK                            x       y       z     vdW  Elec       q    Type
REMARK                         _______ _______ _______ _____ _____    ______ ____
ROOT
ATOM      1  C   UNL     1      -9.926  55.454  50.678  0.00  0.00    +0.000 A 
ATOM      2  C   UNL     1     -11.209  55.569  51.451  0.00  0.00    +0.000 A 
ATOM      3  C   UNL     1      -9.936  55.731  49.362  0.00  0.00    +0.000 A 
ATOM      4  O   UNL     1     -11.268  55.050  52.570  0.00  0.00    +0.000 OA
ATOM      5  N   UNL     1     -12.298  56.236  50.861  0.00  0.00    +0.000 N 
ATOM      6  C   UNL     1     -11.189  56.082  48.704  0.00  0.00    +0.000 A 
ATOM      7  C   UNL     1     -12.274  56.531  49.460  0.00  0.00    +0.000 A 
ATOM      8  C   UNL     1     -11.360  55.845  47.337  0.00  0.00    +0.000 A 
ATOM      9  C   UNL     1     -13.376  57.071  48.790  0.00  0.00    +0.000 A 
ATOM     10  C   UNL     1     -12.583  56.101  46.737  0.00  0.00    +0.000 A 
ATOM     11  C   UNL     1     -13.535  56.842  47.424  0.00  0.00    +0.000 A 
ENDROOT
BRANCH   1  17
ATOM     12  S   UNL     1      -7.070  54.856  53.322  0.00  0.00    +0.000 S 
ATOM     13  O   UNL     1      -7.441  53.832  54.271  0.00  0.00    +0.000 OA
ATOM     14  O   UNL     1      -6.399  56.065  53.763  0.00  0.00    +0.000 OA
ATOM     15  N   UNL     1      -8.417  55.313  52.532  0.00  0.00    +0.000 N 
ATOM     16  C   UNL     1      -6.003  54.093  52.174  0.00  0.00    +0.000 A 
ATOM     17  C   UNL     1      -8.660  54.898  51.317  0.00  0.00    +0.000 C 
ATOM     18  C   UNL     1      -6.522  53.783  50.922  0.00  0.00    +0.000 A 
ATOM     19  C   UNL     1      -4.677  53.827  52.528  0.00  0.00    +0.000 A 
ATOM     20  N   UNL     1      -7.840  54.075  50.583  0.00  0.00    +0.000 N 
ATOM     21  C   UNL     1      -5.681  53.135  50.014  0.00  0.00    +0.000 A 
ATOM     22  C   UNL     1      -3.848  53.196  51.608  0.00  0.00    +0.000 A 
ATOM     23  C   UNL     1      -4.352  52.848  50.353  0.00  0.00    +0.000 A 
ATOM     24  H   UNL     1      -9.060  55.911  52.977  0.00  0.00    +0.000 HD
ATOM     25  H   UNL     1      -8.208  53.667  49.766  0.00  0.00    +0.000 HD
ENDBRANCH   1  17
BRANCH   3  26
ATOM     26  O   UNL     1      -8.851  55.651  48.501  0.00  0.00    +0.000 OA
ATOM     27  H   UNL     1      -8.989  55.620  47.574  0.00  0.00    +0.000 HD
ENDBRANCH   3  26
BRANCH   5  28
ATOM     28  C   UNL     1     -13.620  56.063  51.495  0.00  0.00    +0.000 C 
BRANCH  28  29
ATOM     29  C   UNL     1     -13.979  57.262  52.355  0.00  0.00    +0.000 C 
BRANCH  29  30
ATOM     30  C   UNL     1     -15.476  57.204  52.803  0.00  0.00    +0.000 C 
ATOM     31  C   UNL     1     -14.292  58.754  51.998  0.00  0.00    +0.000 C 
ATOM     32  C   UNL     1     -15.330  58.698  53.152  0.00  0.00    +0.000 C 
ENDBRANCH  29  30
ENDBRANCH  28  29
ENDBRANCH   5  28
TORSDOF 5
ENDMDL
MODEL 3
REMARK VINA RESULT:      -8.3      2.507      7.901
REMARK  Name = 338298
REMARK  5 active torsions:
REMARK  status: ('A' for Active; 'I' for Inactive)
REMARK    1  A    between atoms: C_6  and  C_10
REMARK    2  A    between atoms: C_14  and  O_18
REMARK    3  A    between atoms: N_17  and  C_21
REMARK    4  A    between atoms: C_21  and  C_24
REMARK    5  A    between atoms: C_24  and  C_27
REMARK                            x       y       z     vdW  Elec       q    Type
REMARK                         _______ _______ _______ _____ _____    ______ ____
ROOT
ATOM      1  C   UNL     1      -9.957  54.705  52.458  0.00  0.00    +0.000 A 
ATOM      2  C   UNL     1      -8.588  55.281  52.235  0.00  0.00    +0.000 A 
ATOM      3  C   UNL     1     -10.080  53.599  53.212  0.00  0.00    +0.000 A 
ATOM      4  O   UNL     1      -8.439  56.107  51.329  0.00  0.00    +0.000 OA
ATOM      5  N   UNL     1      -7.527  54.837  53.045  0.00  0.00    +0.000 N 
ATOM      6  C   UNL     1      -8.889  52.953  53.751  0.00  0.00    +0.000 A 
ATOM      7  C   UNL     1      -7.691  53.664  53.848  0.00  0.00    +0.000 A 
ATOM      8  C   UNL     1      -8.898  51.586  54.044  0.00  0.00    +0.000 A 
ATOM      9  C   UNL     1      -6.636  53.097  54.570  0.00  0.00    +0.000 A 
ATOM     10  C   UNL     1      -7.737  50.961  54.474  0.00  0.00    +0.000 A 
ATOM     11  C   UNL     1      -6.657  51.737  54.871  0.00  0.00    +0.000 A 
ENDROOT
BRANCH   1  17
ATOM     12  S   UNL     1     -12.334  55.822  49.524  0.00  0.00    +0.000 S 
ATOM     13  O   UNL     1     -13.132  54.717  49.047  0.00  0.00    +0.000 OA
ATOM     14  O   UNL     1     -11.735  56.759  48.590  0.00  0.00    +0.000 OA
ATOM     15  N   UNL     1     -11.131  55.211  50.432  0.00  0.00    +0.000 N 
ATOM     16  C   UNL     1     -13.373  56.761  50.562  0.00  0.00    +0.000 A 
ATOM     17  C   UNL     1     -11.179  55.260  51.737  0.00  0.00    +0.000 C 
ATOM     18  C   UNL     1     -13.183  56.645  51.935  0.00  0.00    +0.000 A 
ATOM     19  C   UNL     1     -14.343  57.597  50.002  0.00  0.00    +0.000 A 
ATOM     20  N   UNL     1     -12.197  55.822  52.470  0.00  0.00    +0.000 N 
ATOM     21  C   UNL     1     -14.040  57.365  52.771  0.00  0.00    +0.000 A 
ATOM     22  C   UNL     1     -15.178  58.319  50.848  0.00  0.00    +0.000 A 
ATOM     23  C   UNL     1     -15.027  58.200  52.231  0.00  0.00    +0.000 A 
ATOM     24  H   UNL     1     -10.354  54.796  49.992  0.00  0.00    +0.000 HD
ATOM     25  H   UNL     1     -12.230  55.629  53.435  0.00  0.00    +0.000 HD
ENDBRANCH   1  17
BRANCH   3  26
ATOM     26  O   UNL     1     -11.261  52.928  53.495  0.00  0.00    +0.000 OA
ATOM     27  H   UNL     1     -11.348  52.020  53.281  0.00  0.00    +0.000 HD
ENDBRANCH   3  26
BRANCH   5  28
ATOM     28  C   UNL     1      -6.157  55.173  52.606  0.00  0.00    +0.000 C 
BRANCH  28  29
ATOM     29  C   UNL     1      -5.745  54.344  51.403  0.00  0.00    +0.000 C 
BRANCH  29  30
ATOM     30  C   UNL     1      -4.332  53.708  51.615  0.00  0.00    +0.000 C 
ATOM     31  C   UNL     1      -6.020  53.087  50.512  0.00  0.00    +0.000 C 
ATOM     32  C   UNL     1      -5.026  52.343  51.445  0.00  0.00    +0.000 C 
ENDBRANCH  29  30
ENDBRANCH  28  29
ENDBRANCH   5  28
TORSDOF 5
ENDMDL
MODEL 4
REMARK VINA RESULT:      -8.3      2.827      7.602
REMARK  Name = 338298
REMARK  5 active torsions:
REMARK  status: ('A' for Active; 'I' for Inactive)
REMARK    1  A    between atoms: C_6  and  C_10
REMARK    2  A    between atoms: C_14  and  O_18
REMARK    3  A    between atoms: N_17  and  C_21
REMARK    4  A    between atoms: C_21  and  C_24
REMARK    5  A    between atoms: C_24  and  C_27
REMARK                            x       y       z     vdW  Elec       q    Type
REMARK                         _______ _______ _______ _____ _____    ______ ____
ROOT
ATOM      1  C   UNL     1     -11.086  54.563  51.584  0.00  0.00    +0.000 A 
ATOM      2  C   UNL     1      -9.629  54.923  51.548  0.00  0.00    +0.000 A 
ATOM      3  C   UNL     1     -11.433  53.287  51.829  0.00  0.00    +0.000 A 
ATOM      4  O   UNL     1      -9.303  56.005  51.049  0.00  0.00    +0.000 OA
ATOM      5  N   UNL     1      -8.691  54.004  52.054  0.00  0.00    +0.000 N 
ATOM      6  C   UNL     1     -10.398  52.275  52.000  0.00  0.00    +0.000 A 
ATOM      7  C   UNL     1      -9.093  52.655  52.319  0.00  0.00    +0.000 A 
ATOM      8  C   UNL     1     -10.667  50.933  51.712  0.00  0.00    +0.000 A 
ATOM      9  C   UNL     1      -8.182  51.664  52.695  0.00  0.00    +0.000 A 
ATOM     10  C   UNL     1      -9.654  49.990  51.794  0.00  0.00    +0.000 A 
ATOM     11  C   UNL     1      -8.461  50.327  52.418  0.00  0.00    +0.000 A 
ENDROOT
BRANCH   1  17
ATOM     12  S   UNL     1     -13.179  57.125  49.449  0.00  0.00    +0.000 S 
ATOM     13  O   UNL     1     -14.197  56.454  48.676  0.00  0.00    +0.000 OA
ATOM     14  O   UNL     1     -12.396  58.201  48.866  0.00  0.00    +0.000 OA
ATOM     15  N   UNL     1     -12.132  55.998  49.977  0.00  0.00    +0.000 N 
ATOM     16  C   UNL     1     -13.988  57.804  50.836  0.00  0.00    +0.000 A 
ATOM     17  C   UNL     1     -12.164  55.574  51.213  0.00  0.00    +0.000 C 
ATOM     18  C   UNL     1     -13.823  57.158  52.056  0.00  0.00    +0.000 A 
ATOM     19  C   UNL     1     -14.759  58.962  50.693  0.00  0.00    +0.000 A 
ATOM     20  N   UNL     1     -13.034  56.017  52.179  0.00  0.00    +0.000 N 
ATOM     21  C   UNL     1     -14.503  57.675  53.161  0.00  0.00    +0.000 A 
ATOM     22  C   UNL     1     -15.417  59.473  51.806  0.00  0.00    +0.000 A 
ATOM     23  C   UNL     1     -15.290  58.828  53.038  0.00  0.00    +0.000 A 
ATOM     24  H   UNL     1     -11.463  55.629  49.355  0.00  0.00    +0.000 HD
ATOM     25  H   UNL     1     -13.105  55.495  53.011  0.00  0.00    +0.000 HD
ENDBRANCH   1  17
BRANCH   3  26
ATOM     26  O   UNL     1     -12.725  52.784  51.874  0.00  0.00    +0.000 OA
ATOM     27  H   UNL     1     -13.300  53.028  52.572  0.00  0.00    +0.000 HD
ENDBRANCH   3  26
BRANCH   5  28
ATOM     28  C   UNL     1      -7.271  54.237  51.723  0.00  0.00    +0.000 C 
BRANCH  28  29
ATOM     29  C   UNL     1      -6.528  54.858  52.892  0.00  0.00    +0.000 C 
BRANCH  29  30
ATOM     30  C   UNL     1      -5.201  54.087  53.189  0.00  0.00    +0.000 C 
ATOM     31  C   UNL     1      -6.718  54.842  54.446  0.00  0.00    +0.000 C 
ATOM     32  C   UNL     1      -5.168  54.852  54.527  0.00  0.00    +0.000 C 
ENDBRANCH  29  30
ENDBRANCH  28  29
ENDBRANCH   5  28
TORSDOF 5
ENDMDL
MODEL 5
REMARK VINA RESULT:      -8.2      1.422      4.228
REMARK  Name = 338298
REMARK  5 active torsions:
REMARK  status: ('A' for Active; 'I' for Inactive)
REMARK    1  A    between atoms: C_6  and  C_10
REMARK    2  A    between atoms: C_14  and  O_18
REMARK    3  A    between atoms: N_17  and  C_21
REMARK    4  A    between atoms: C_21  and  C_24
REMARK    5  A    between atoms: C_24  and  C_27
REMARK                            x       y       z     vdW  Elec       q    Type
REMARK                         _______ _______ _______ _____ _____    ______ ____
ROOT
ATOM      1  C   UNL     1     -10.422  55.107  50.575  0.00  0.00    +0.000 A 
ATOM      2  C   UNL     1      -9.981  54.979  49.146  0.00  0.00    +0.000 A 
ATOM      3  C   UNL     1     -11.578  55.741  50.843  0.00  0.00    +0.000 A 
ATOM      4  O   UNL     1      -8.808  54.661  48.920  0.00  0.00    +0.000 OA
ATOM      5  N   UNL     1     -10.907  55.253  48.123  0.00  0.00    +0.000 N 
ATOM      6  C   UNL     1     -12.347  56.334  49.755  0.00  0.00    +0.000 A 
ATOM      7  C   UNL     1     -12.136  55.916  48.440  0.00  0.00    +0.000 A 
ATOM      8  C   UNL     1     -13.198  57.416  50.000  0.00  0.00    +0.000 A 
ATOM      9  C   UNL     1     -13.036  56.334  47.455  0.00  0.00    +0.000 A 
ATOM     10  C   UNL     1     -13.860  58.030  48.947  0.00  0.00    +0.000 A 
ATOM     11  C   UNL     1     -13.891  57.405  47.709  0.00  0.00    +0.000 A 
ENDROOT
BRANCH   1  17
ATOM     12  S   UNL     1      -7.311  54.910  52.981  0.00  0.00    +0.000 S 
ATOM     13  O   UNL     1      -7.410  55.881  54.045  0.00  0.00    +0.000 OA
ATOM     14  O   UNL     1      -6.046  54.675  52.307  0.00  0.00    +0.000 OA
ATOM     15  N   UNL     1      -8.398  55.311  51.839  0.00  0.00    +0.000 N 
ATOM     16  C   UNL     1      -7.789  53.381  53.670  0.00  0.00    +0.000 A 
ATOM     17  C   UNL     1      -9.528  54.664  51.726  0.00  0.00    +0.000 C 
ATOM     18  C   UNL     1      -9.056  52.902  53.353  0.00  0.00    +0.000 A 
ATOM     19  C   UNL     1      -6.905  52.685  54.498  0.00  0.00    +0.000 A 
ATOM     20  N   UNL     1      -9.914  53.603  52.510  0.00  0.00    +0.000 N 
ATOM     21  C   UNL     1      -9.458  51.699  53.936  0.00  0.00    +0.000 A 
ATOM     22  C   UNL     1      -7.314  51.480  55.058  0.00  0.00    +0.000 A 
ATOM     23  C   UNL     1      -8.591  50.990  54.779  0.00  0.00    +0.000 A 
ATOM     24  H   UNL     1      -8.203  56.054  51.224  0.00  0.00    +0.000 HD
ATOM     25  H   UNL     1     -10.856  53.321  52.473  0.00  0.00    +0.000 HD
ENDBRANCH   1  17
BRANCH   3  26
ATOM     26  O   UNL     1     -12.116  55.966  52.101  0.00  0.00    +0.000 OA
ATOM     27  H   UNL     1     -11.628  56.447  52.741  0.00  0.00    +0.000 HD
ENDBRANCH   3  26
BRANCH   5  28
ATOM     28  C   UNL     1     -10.374  55.427  46.757  0.00  0.00    +0.000 C 
BRANCH  28  29
ATOM     29  C   UNL     1     -10.543  54.163  45.935  0.00  0.00    +0.000 C 
BRANCH  29  30
ATOM     30  C   UNL     1      -9.222  53.801  45.180  0.00  0.00    +0.000 C 
ATOM     31  C   UNL     1     -11.254  53.428  44.749  0.00  0.00    +0.000 C 
ATOM     32  C   UNL     1      -9.971  52.557  44.663  0.00  0.00    +0.000 C 
ENDBRANCH  29  30
ENDBRANCH  28  29
ENDBRANCH   5  28
TORSDOF 5
ENDMDL
MODEL 6
REMARK VINA RESULT:      -8.2      1.684      1.952
REMARK  Name = 338298
REMARK  5 active torsions:
REMARK  status: ('A' for Active; 'I' for Inactive)
REMARK    1  A    between atoms: C_6  and  C_10
REMARK    2  A    between atoms: C_14  and  O_18
REMARK    3  A    between atoms: N_17  and  C_21
REMARK    4  A    between atoms: C_21  and  C_24
REMARK    5  A    between atoms: C_24  and  C_27
REMARK                            x       y       z     vdW  Elec       q    Type
REMARK                         _______ _______ _______ _____ _____    ______ ____
ROOT
ATOM      1  C   UNL     1     -10.200  55.494  50.499  0.00  0.00    +0.000 A 
ATOM      2  C   UNL     1     -11.424  55.654  51.353  0.00  0.00    +0.000 A 
ATOM      3  C   UNL     1     -10.273  55.810  49.194  0.00  0.00    +0.000 A 
ATOM      4  O   UNL     1     -11.444  55.106  52.460  0.00  0.00    +0.000 OA
ATOM      5  N   UNL     1     -12.509  56.395  50.850  0.00  0.00    +0.000 N 
ATOM      6  C   UNL     1     -11.543  56.246  48.625  0.00  0.00    +0.000 A 
ATOM      7  C   UNL     1     -12.554  56.729  49.458  0.00  0.00    +0.000 A 
ATOM      8  C   UNL     1     -11.809  56.058  47.265  0.00  0.00    +0.000 A 
ATOM      9  C   UNL     1     -13.664  57.346  48.872  0.00  0.00    +0.000 A 
ATOM     10  C   UNL     1     -13.051  56.396  46.749  0.00  0.00    +0.000 A 
ATOM     11  C   UNL     1     -13.917  57.165  47.514  0.00  0.00    +0.000 A 
ENDROOT
BRANCH   1  17
ATOM     12  S   UNL     1      -7.203  52.971  50.893  0.00  0.00    +0.000 S 
ATOM     13  O   UNL     1      -6.097  53.333  50.037  0.00  0.00    +0.000 OA
ATOM     14  O   UNL     1      -7.603  51.583  51.039  0.00  0.00    +0.000 OA
ATOM     15  N   UNL     1      -8.510  53.800  50.394  0.00  0.00    +0.000 N 
ATOM     16  C   UNL     1      -6.785  53.530  52.491  0.00  0.00    +0.000 A 
ATOM     17  C   UNL     1      -8.929  54.854  51.044  0.00  0.00    +0.000 C 
ATOM     18  C   UNL     1      -7.416  54.680  52.955  0.00  0.00    +0.000 A 
ATOM     19  C   UNL     1      -5.854  52.820  53.255  0.00  0.00    +0.000 A 
ATOM     20  N   UNL     1      -8.354  55.360  52.185  0.00  0.00    +0.000 N 
ATOM     21  C   UNL     1      -7.053  55.153  54.217  0.00  0.00    +0.000 A 
ATOM     22  C   UNL     1      -5.516  53.295  54.517  0.00  0.00    +0.000 A 
ATOM     23  C   UNL     1      -6.114  54.463  54.995  0.00  0.00    +0.000 A 
ATOM     24  H   UNL     1      -8.993  53.504  49.589  0.00  0.00    +0.000 HD
ATOM     25  H   UNL     1      -8.624  56.262  52.476  0.00  0.00    +0.000 HD
ENDBRANCH   1  17
BRANCH   3  26
ATOM     26  O   UNL     1      -9.249  55.698  48.266  0.00  0.00    +0.000 OA
ATOM     27  H   UNL     1      -8.800  56.465  47.967  0.00  0.00    +0.000 HD
ENDBRANCH   3  26
BRANCH   5  28
ATOM     28  C   UNL     1     -13.798  56.273  51.560  0.00  0.00    +0.000 C 
BRANCH  28  29
ATOM     29  C   UNL     1     -14.031  57.455  52.484  0.00  0.00    +0.000 C 
BRANCH  29  30
ATOM     30  C   UNL     1     -15.493  57.456  53.039  0.00  0.00    +0.000 C 
ATOM     31  C   UNL     1     -14.356  58.916  52.025  0.00  0.00    +0.000 C 
ATOM     32  C   UNL     1     -15.310  58.972  53.248  0.00  0.00    +0.000 C 
ENDBRANCH  29  30
ENDBRANCH  28  29
ENDBRANCH   5  28
TORSDOF 5
ENDMDL
MODEL 7
REMARK VINA RESULT:      -8.2      3.067      7.037
REMARK  Name = 338298
REMARK  5 active torsions:
REMARK  status: ('A' for Active; 'I' for Inactive)
REMARK    1  A    between atoms: C_6  and  C_10
REMARK    2  A    between atoms: C_14  and  O_18
REMARK    3  A    between atoms: N_17  and  C_21
REMARK    4  A    between atoms: C_21  and  C_24
REMARK    5  A    between atoms: C_24  and  C_27
REMARK                            x       y       z     vdW  Elec       q    Type
REMARK                         _______ _______ _______ _____ _____    ______ ____
ROOT
ATOM      1  C   UNL     1     -11.171  55.676  49.238  0.00  0.00    +0.000 A 
ATOM      2  C   UNL     1     -10.274  55.011  50.242  0.00  0.00    +0.000 A 
ATOM      3  C   UNL     1     -10.913  55.512  47.928  0.00  0.00    +0.000 A 
ATOM      4  O   UNL     1     -10.331  55.383  51.418  0.00  0.00    +0.000 OA
ATOM      5  N   UNL     1      -9.386  54.013  49.800  0.00  0.00    +0.000 N 
ATOM      6  C   UNL     1      -9.746  54.744  47.510  0.00  0.00    +0.000 A 
ATOM      7  C   UNL     1      -9.141  53.852  48.399  0.00  0.00    +0.000 A 
ATOM      8  C   UNL     1      -9.142  54.992  46.274  0.00  0.00    +0.000 A 
ATOM      9  C   UNL     1      -8.174  52.971  47.904  0.00  0.00    +0.000 A 
ATOM     10  C   UNL     1      -7.982  54.318  45.921  0.00  0.00    +0.000 A 
ATOM     11  C   UNL     1      -7.585  53.216  46.666  0.00  0.00    +0.000 A 
ENDROOT
BRANCH   1  17
ATOM     12  S   UNL     1     -13.405  58.915  49.389  0.00  0.00    +0.000 S 
ATOM     13  O   UNL     1     -14.477  58.857  48.422  0.00  0.00    +0.000 OA
ATOM     14  O   UNL     1     -12.664  60.145  49.601  0.00  0.00    +0.000 OA
ATOM     15  N   UNL     1     -12.325  57.761  49.003  0.00  0.00    +0.000 N 
ATOM     16  C   UNL     1     -14.114  58.499  50.927  0.00  0.00    +0.000 A 
ATOM     17  C   UNL     1     -12.271  56.638  49.669  0.00  0.00    +0.000 C 
ATOM     18  C   UNL     1     -13.864  57.225  51.426  0.00  0.00    +0.000 A 
ATOM     19  C   UNL     1     -14.891  59.439  51.611  0.00  0.00    +0.000 A 
ATOM     20  N   UNL     1     -13.071  56.312  50.738  0.00  0.00    +0.000 N 
ATOM     21  C   UNL     1     -14.464  56.875  52.638  0.00  0.00    +0.000 A 
ATOM     22  C   UNL     1     -15.468  59.080  52.824  0.00  0.00    +0.000 A 
ATOM     23  C   UNL     1     -15.256  57.798  53.335  0.00  0.00    +0.000 A 
ATOM     24  H   UNL     1     -11.703  57.911  48.255  0.00  0.00    +0.000 HD
ATOM     25  H   UNL     1     -13.083  55.374  51.035  0.00  0.00    +0.000 HD
ENDBRANCH   1  17
BRANCH   3  26
ATOM     26  O   UNL     1     -11.623  56.073  46.877  0.00  0.00    +0.000 OA
ATOM     27  H   UNL     1     -12.205  56.790  47.034  0.00  0.00    +0.000 HD
ENDBRANCH   3  26
BRANCH   5  28
ATOM     28  C   UNL     1      -8.312  53.606  50.728  0.00  0.00    +0.000 C 
BRANCH  28  29
ATOM     29  C   UNL     1      -7.277  54.705  50.888  0.00  0.00    +0.000 C 
BRANCH  29  30
ATOM     30  C   UNL     1      -5.832  54.156  50.652  0.00  0.00    +0.000 C 
ATOM     31  C   UNL     1      -6.721  56.030  50.265  0.00  0.00    +0.000 C 
ATOM     32  C   UNL     1      -5.766  55.117  49.449  0.00  0.00    +0.000 C 
ENDBRANCH  29  30
ENDBRANCH  28  29
ENDBRANCH   5  28
TORSDOF 5
ENDMDL
MODEL 8
REMARK VINA RESULT:      -8.0      3.894      7.604
REMARK  Name = 338298
REMARK  5 active torsions:
REMARK  status: ('A' for Active; 'I' for Inactive)
REMARK    1  A    between atoms: C_6  and  C_10
REMARK    2  A    between atoms: C_14  and  O_18
REMARK    3  A    between atoms: N_17  and  C_21
REMARK    4  A    between atoms: C_21  and  C_24
REMARK    5  A    between atoms: C_24  and  C_27
REMARK                            x       y       z     vdW  Elec       q    Type
REMARK                         _______ _______ _______ _____ _____    ______ ____
ROOT
ATOM      1  C   UNL     1     -10.720  55.746  48.560  0.00  0.00    +0.000 A 
ATOM      2  C   UNL     1     -11.125  54.692  47.570  0.00  0.00    +0.000 A 
ATOM      3  C   UNL     1      -9.410  55.984  48.754  0.00  0.00    +0.000 A 
ATOM      4  O   UNL     1     -12.288  54.277  47.598  0.00  0.00    +0.000 OA
ATOM      5  N   UNL     1     -10.161  54.200  46.672  0.00  0.00    +0.000 N 
ATOM      6  C   UNL     1      -8.416  55.185  48.047  0.00  0.00    +0.000 A 
ATOM      7  C   UNL     1      -8.775  54.481  46.896  0.00  0.00    +0.000 A 
ATOM      8  C   UNL     1      -7.139  55.007  48.587  0.00  0.00    +0.000 A 
ATOM      9  C   UNL     1      -7.761  53.912  46.119  0.00  0.00    +0.000 A 
ATOM     10  C   UNL     1      -6.228  54.176  47.953  0.00  0.00    +0.000 A 
ATOM     11  C   UNL     1      -6.486  53.749  46.658  0.00  0.00    +0.000 A 
ENDROOT
BRANCH   1  17
ATOM     12  S   UNL     1     -13.495  56.271  51.303  0.00  0.00    +0.000 S 
ATOM     13  O   UNL     1     -12.910  56.497  52.604  0.00  0.00    +0.000 OA
ATOM     14  O   UNL     1     -14.656  55.412  51.153  0.00  0.00    +0.000 OA
ATOM     15  N   UNL     1     -12.332  55.683  50.330  0.00  0.00    +0.000 N 
ATOM     16  C   UNL     1     -13.965  57.838  50.700  0.00  0.00    +0.000 A 
ATOM     17  C   UNL     1     -11.746  56.444  49.443  0.00  0.00    +0.000 C 
ATOM     18  C   UNL     1     -13.165  58.414  49.719  0.00  0.00    +0.000 A 
ATOM     19  C   UNL     1     -15.113  58.459  51.199  0.00  0.00    +0.000 A 
ATOM     20  N   UNL     1     -12.036  57.769  49.222  0.00  0.00    +0.000 N 
ATOM     21  C   UNL     1     -13.515  59.688  49.264  0.00  0.00    +0.000 A 
ATOM     22  C   UNL     1     -15.456  59.720  50.724  0.00  0.00    +0.000 A 
ATOM     23  C   UNL     1     -14.656  60.334  49.759  0.00  0.00    +0.000 A 
ATOM     24  H   UNL     1     -12.064  54.739  50.410  0.00  0.00    +0.000 HD
ATOM     25  H   UNL     1     -11.407  58.294  48.678  0.00  0.00    +0.000 HD
ENDBRANCH   1  17
BRANCH   3  26
ATOM     26  O   UNL     1      -8.867  56.900  49.644  0.00  0.00    +0.000 OA
ATOM     27  H   UNL     1      -8.285  57.566  49.334  0.00  0.00    +0.000 HD
ENDBRANCH   3  26
BRANCH   5  28
ATOM     28  C   UNL     1     -10.492  52.963  45.937  0.00  0.00    +0.000 C 
BRANCH  28  29
ATOM     29  C   UNL     1     -11.030  53.273  44.551  0.00  0.00    +0.000 C 
BRANCH  29  30
ATOM     30  C   UNL     1     -10.182  52.562  43.446  0.00  0.00    +0.000 C 
ATOM     31  C   UNL     1     -11.590  51.841  44.842  0.00  0.00    +0.000 C 
ATOM     32  C   UNL     1     -10.208  51.321  44.359  0.00  0.00    +0.000 C 
ENDBRANCH  29  30
ENDBRANCH  28  29
ENDBRANCH   5  28
TORSDOF 5
ENDMDL
MODEL 9
REMARK VINA RESULT:      -7.9      4.516      7.901
REMARK  Name = 338298
REMARK  5 active torsions:
REMARK  status: ('A' for Active; 'I' for Inactive)
REMARK    1  A    between atoms: C_6  and  C_10
REMARK    2  A    between atoms: C_14  and  O_18
REMARK    3  A    between atoms: N_17  and  C_21
REMARK    4  A    between atoms: C_21  and  C_24
REMARK    5  A    between atoms: C_24  and  C_27
REMARK                            x       y       z     vdW  Elec       q    Type
REMARK                         _______ _______ _______ _____ _____    ______ ____
ROOT
ATOM      1  C   UNL     1     -12.038  54.553  49.144  0.00  0.00    +0.000 A 
ATOM      2  C   UNL     1     -11.395  54.708  47.796  0.00  0.00    +0.000 A 
ATOM      3  C   UNL     1     -11.951  53.367  49.771  0.00  0.00    +0.000 A 
ATOM      4  O   UNL     1     -11.711  55.681  47.103  0.00  0.00    +0.000 OA
ATOM      5  N   UNL     1     -10.484  53.728  47.363  0.00  0.00    +0.000 N 
ATOM      6  C   UNL     1     -11.287  52.247  49.114  0.00  0.00    +0.000 A 
ATOM      7  C   UNL     1     -10.403  52.479  48.059  0.00  0.00    +0.000 A 
ATOM      8  C   UNL     1     -11.631  50.931  49.440  0.00  0.00    +0.000 A 
ATOM      9  C   UNL     1      -9.616  51.418  47.602  0.00  0.00    +0.000 A 
ATOM     10  C   UNL     1     -11.058  49.874  48.750  0.00  0.00    +0.000 A 
ATOM     11  C   UNL     1      -9.956  50.110  47.940  0.00  0.00    +0.000 A 
ENDROOT
BRANCH   1  17
ATOM     12  S   UNL     1     -15.074  56.327  50.915  0.00  0.00    +0.000 S 
ATOM     13  O   UNL     1     -14.935  56.293  52.352  0.00  0.00    +0.000 OA
ATOM     14  O   UNL     1     -16.361  56.081  50.290  0.00  0.00    +0.000 OA
ATOM     15  N   UNL     1     -14.020  55.259  50.288  0.00  0.00    +0.000 N 
ATOM     16  C   UNL     1     -14.586  57.926  50.417  0.00  0.00    +0.000 A 
ATOM     17  C   UNL     1     -12.899  55.656  49.745  0.00  0.00    +0.000 C 
ATOM     18  C   UNL     1     -13.334  58.060  49.828  0.00  0.00    +0.000 A 
ATOM     19  C   UNL     1     -15.450  59.007  50.609  0.00  0.00    +0.000 A 
ATOM     20  N   UNL     1     -12.497  56.965  49.628  0.00  0.00    +0.000 N 
ATOM     21  C   UNL     1     -12.923  59.344  49.465  0.00  0.00    +0.000 A 
ATOM     22  C   UNL     1     -15.032  60.278  50.228  0.00  0.00    +0.000 A 
ATOM     23  C   UNL     1     -13.768  60.445  49.659  0.00  0.00    +0.000 A 
ATOM     24  H   UNL     1     -14.229  54.298  50.318  0.00  0.00    +0.000 HD
ATOM     25  H   UNL     1     -11.559  57.139  49.388  0.00  0.00    +0.000 HD
ENDBRANCH   1  17
BRANCH   3  26
ATOM     26  O   UNL     1     -12.505  53.049  51.002  0.00  0.00    +0.000 OA
ATOM     27  H   UNL     1     -11.997  53.141  51.784  0.00  0.00    +0.000 HD
ENDBRANCH   3  26
BRANCH   5  28
ATOM     28  C   UNL     1     -10.115  53.733  45.933  0.00  0.00    +0.000 C 
BRANCH  28  29
ATOM     29  C   UNL     1     -11.327  53.494  45.051  0.00  0.00    +0.000 C 
BRANCH  29  30
ATOM     30  C   UNL     1     -11.414  51.997  44.608  0.00  0.00    +0.000 C 
ATOM     31  C   UNL     1      -9.834  53.395  44.590  0.00  0.00    +0.000 C 
ATOM     32  C   UNL     1     -10.333  52.342  43.564  0.00  0.00    +0.000 C 
ENDBRANCH  29  30
ENDBRANCH  28  29
ENDBRANCH   5  28
TORSDOF 5
ENDMDL
