MODEL 1
REMARK VINA RESULT:      -8.7      0.000      0.000
REMARK  Name = 338084
REMARK  4 active torsions:
REMARK  status: ('A' for Active; 'I' for Inactive)
REMARK    1  A    between atoms: C_6  and  C_10
REMARK    2  A    between atoms: C_14  and  O_18
REMARK    3  A    between atoms: N_17  and  C_21
REMARK    4  A    between atoms: C_21  and  C_24
REMARK                            x       y       z     vdW  Elec       q    Type
REMARK                         _______ _______ _______ _____ _____    ______ ____
ROOT
ATOM      1  C   UNL     1     -10.073  54.369  52.295  0.00  0.00    +0.000 A 
ATOM      2  C   UNL     1      -8.679  54.903  52.212  0.00  0.00    +0.000 A 
ATOM      3  C   UNL     1     -10.326  53.267  53.025  0.00  0.00    +0.000 A 
ATOM      4  O   UNL     1      -8.487  55.930  51.555  0.00  0.00    +0.000 OA
ATOM      5  N   UNL     1      -7.669  54.259  52.918  0.00  0.00    +0.000 N 
ATOM      6  C   UNL     1      -9.246  52.587  53.754  0.00  0.00    +0.000 A 
ATOM      7  C   UNL     1      -7.935  53.095  53.706  0.00  0.00    +0.000 A 
ATOM      8  C   UNL     1      -9.525  51.452  54.538  0.00  0.00    +0.000 A 
ATOM      9  C   UNL     1      -6.939  52.452  54.458  0.00  0.00    +0.000 A 
ATOM     10  C   UNL     1      -8.527  50.835  55.287  0.00  0.00    +0.000 A 
ATOM     11  C   UNL     1      -7.235  51.339  55.250  0.00  0.00    +0.000 A 
ENDROOT
BRANCH   1  17
ATOM     12  S   UNL     1     -12.382  55.926  49.519  0.00  0.00    +0.000 S 
ATOM     13  O   UNL     1     -13.277  54.939  48.943  0.00  0.00    +0.000 OA
ATOM     14  O   UNL     1     -11.727  56.901  48.671  0.00  0.00    +0.000 OA
ATOM     15  N   UNL     1     -11.238  55.131  50.340  0.00  0.00    +0.000 N 
ATOM     16  C   UNL     1     -13.345  56.846  50.660  0.00  0.00    +0.000 A 
ATOM     17  C   UNL     1     -11.208  55.140  51.641  0.00  0.00    +0.000 C 
ATOM     18  C   UNL     1     -13.092  56.668  52.011  0.00  0.00    +0.000 A 
ATOM     19  C   UNL     1     -14.321  57.730  50.194  0.00  0.00    +0.000 A 
ATOM     20  N   UNL     1     -12.118  55.779  52.458  0.00  0.00    +0.000 N 
ATOM     21  C   UNL     1     -13.904  57.349  52.924  0.00  0.00    +0.000 A 
ATOM     22  C   UNL     1     -15.094  58.433  51.114  0.00  0.00    +0.000 A 
ATOM     23  C   UNL     1     -14.893  58.233  52.479  0.00  0.00    +0.000 A 
ATOM     24  H   UNL     1     -10.550  54.629  49.846  0.00  0.00    +0.000 HD
ATOM     25  H   UNL     1     -12.074  55.594  53.424  0.00  0.00    +0.000 HD
ENDBRANCH   1  17
BRANCH   3  26
ATOM     26  O   UNL     1     -11.585  52.720  53.208  0.00  0.00    +0.000 OA
ATOM     27  H   UNL     1     -11.935  52.628  54.072  0.00  0.00    +0.000 HD
ENDBRANCH   3  26
BRANCH   5  28
ATOM     28  C   UNL     1      -6.351  54.897  52.924  0.00  0.00    +0.000 C 
BRANCH  28  29
ATOM     29  C   UNL     1      -5.420  54.307  51.916  0.00  0.00    +0.000 A 
ATOM     30  C   UNL     1      -5.434  54.516  50.549  0.00  0.00    +0.000 A 
ATOM     31  C   UNL     1      -4.403  53.329  52.126  0.00  0.00    +0.000 A 
ATOM     32  O   UNL     1      -4.516  53.737  49.926  0.00  0.00    +0.000 OA
ATOM     33  C   UNL     1      -3.895  53.011  50.888  0.00  0.00    +0.000 A 
ENDBRANCH  28  29
ENDBRANCH   5  28
TORSDOF 4
ENDMDL
MODEL 2
REMARK VINA RESULT:      -8.4      3.142      7.403
REMARK  Name = 338084
REMARK  4 active torsions:
REMARK  status: ('A' for Active; 'I' for Inactive)
REMARK    1  A    between atoms: C_6  and  C_10
REMARK    2  A    between atoms: C_14  and  O_18
REMARK    3  A    between atoms: N_17  and  C_21
REMARK    4  A    between atoms: C_21  and  C_24
REMARK                            x       y       z     vdW  Elec       q    Type
REMARK                         _______ _______ _______ _____ _____    ______ ____
ROOT
ATOM      1  C   UNL     1     -10.268  55.228  50.828  0.00  0.00    +0.000 A 
ATOM      2  C   UNL     1      -9.906  55.162  49.379  0.00  0.00    +0.000 A 
ATOM      3  C   UNL     1     -11.467  55.714  51.197  0.00  0.00    +0.000 A 
ATOM      4  O   UNL     1      -8.808  54.685  49.074  0.00  0.00    +0.000 OA
ATOM      5  N   UNL     1     -10.833  55.584  48.434  0.00  0.00    +0.000 N 
ATOM      6  C   UNL     1     -12.433  56.172  50.188  0.00  0.00    +0.000 A 
ATOM      7  C   UNL     1     -12.114  56.090  48.820  0.00  0.00    +0.000 A 
ATOM      8  C   UNL     1     -13.695  56.653  50.582  0.00  0.00    +0.000 A 
ATOM      9  C   UNL     1     -13.081  56.486  47.882  0.00  0.00    +0.000 A 
ATOM     10  C   UNL     1     -14.646  57.028  49.637  0.00  0.00    +0.000 A 
ATOM     11  C   UNL     1     -14.340  56.940  48.287  0.00  0.00    +0.000 A 
ENDROOT
BRANCH   1  17
ATOM     12  S   UNL     1      -7.043  54.673  53.009  0.00  0.00    +0.000 S 
ATOM     13  O   UNL     1      -6.937  55.653  54.076  0.00  0.00    +0.000 OA
ATOM     14  O   UNL     1      -5.869  54.283  52.256  0.00  0.00    +0.000 OA
ATOM     15  N   UNL     1      -8.153  55.209  51.961  0.00  0.00    +0.000 N 
ATOM     16  C   UNL     1      -7.649  53.208  53.756  0.00  0.00    +0.000 A 
ATOM     17  C   UNL     1      -9.320  54.642  51.862  0.00  0.00    +0.000 C 
ATOM     18  C   UNL     1      -8.947  52.822  53.464  0.00  0.00    +0.000 A 
ATOM     19  C   UNL     1      -6.824  52.467  54.606  0.00  0.00    +0.000 A 
ATOM     20  N   UNL     1      -9.758  53.574  52.618  0.00  0.00    +0.000 N 
ATOM     21  C   UNL     1      -9.456  51.690  54.112  0.00  0.00    +0.000 A 
ATOM     22  C   UNL     1      -7.329  51.320  55.212  0.00  0.00    +0.000 A 
ATOM     23  C   UNL     1      -8.649  50.939  54.974  0.00  0.00    +0.000 A 
ATOM     24  H   UNL     1      -7.941  55.979  51.386  0.00  0.00    +0.000 HD
ATOM     25  H   UNL     1     -10.709  53.327  52.553  0.00  0.00    +0.000 HD
ENDBRANCH   1  17
BRANCH   3  26
ATOM     26  O   UNL     1     -11.920  55.773  52.504  0.00  0.00    +0.000 OA
ATOM     27  H   UNL     1     -12.462  56.486  52.781  0.00  0.00    +0.000 HD
ENDBRANCH   3  26
BRANCH   5  28
ATOM     28  C   UNL     1     -10.493  55.370  47.026  0.00  0.00    +0.000 C 
BRANCH  28  29
ATOM     29  C   UNL     1     -11.100  54.124  46.469  0.00  0.00    +0.000 A 
ATOM     30  C   UNL     1     -11.409  53.869  45.146  0.00  0.00    +0.000 A 
ATOM     31  C   UNL     1     -11.588  52.989  47.184  0.00  0.00    +0.000 A 
ATOM     32  O   UNL     1     -12.050  52.682  45.013  0.00  0.00    +0.000 OA
ATOM     33  C   UNL     1     -12.162  52.153  46.256  0.00  0.00    +0.000 A 
ENDBRANCH  28  29
ENDBRANCH   5  28
TORSDOF 4
ENDMDL
MODEL 3
REMARK VINA RESULT:      -8.4      3.862      4.676
REMARK  Name = 338084
REMARK  4 active torsions:
REMARK  status: ('A' for Active; 'I' for Inactive)
REMARK    1  A    between atoms: C_6  and  C_10
REMARK    2  A    between atoms: C_14  and  O_18
REMARK    3  A    between atoms: N_17  and  C_21
REMARK    4  A    between atoms: C_21  and  C_24
REMARK                            x       y       z     vdW  Elec       q    Type
REMARK                         _______ _______ _______ _____ _____    ______ ____
ROOT
ATOM      1  C   UNL     1     -12.536  54.201  49.645  0.00  0.00    +0.000 A 
ATOM      2  C   UNL     1     -11.977  54.111  48.261  0.00  0.00    +0.000 A 
ATOM      3  C   UNL     1     -12.262  53.235  50.541  0.00  0.00    +0.000 A 
ATOM      4  O   UNL     1     -12.226  55.028  47.472  0.00  0.00    +0.000 OA
ATOM      5  N   UNL     1     -11.158  53.037  47.935  0.00  0.00    +0.000 N 
ATOM      6  C   UNL     1     -11.408  52.096  50.179  0.00  0.00    +0.000 A 
ATOM      7  C   UNL     1     -10.854  52.014  48.887  0.00  0.00    +0.000 A 
ATOM      8  C   UNL     1     -11.105  51.105  51.131  0.00  0.00    +0.000 A 
ATOM      9  C   UNL     1      -9.999  50.940  48.592  0.00  0.00    +0.000 A 
ATOM     10  C   UNL     1     -10.244  50.055  50.824  0.00  0.00    +0.000 A 
ATOM     11  C   UNL     1      -9.688  49.976  49.555  0.00  0.00    +0.000 A 
ENDROOT
BRANCH   1  17
ATOM     12  S   UNL     1     -15.363  56.459  51.186  0.00  0.00    +0.000 S 
ATOM     13  O   UNL     1     -15.244  56.563  52.629  0.00  0.00    +0.000 OA
ATOM     14  O   UNL     1     -16.663  56.296  50.569  0.00  0.00    +0.000 OA
ATOM     15  N   UNL     1     -14.426  55.230  50.706  0.00  0.00    +0.000 N 
ATOM     16  C   UNL     1     -14.701  57.947  50.536  0.00  0.00    +0.000 A 
ATOM     17  C   UNL     1     -13.318  55.438  50.056  0.00  0.00    +0.000 C 
ATOM     18  C   UNL     1     -13.489  57.878  49.868  0.00  0.00    +0.000 A 
ATOM     19  C   UNL     1     -15.400  59.146  50.692  0.00  0.00    +0.000 A 
ATOM     20  N   UNL     1     -12.803  56.675  49.725  0.00  0.00    +0.000 N 
ATOM     21  C   UNL     1     -12.926  59.074  49.409  0.00  0.00    +0.000 A 
ATOM     22  C   UNL     1     -14.848  60.322  50.193  0.00  0.00    +0.000 A 
ATOM     23  C   UNL     1     -13.605  60.288  49.562  0.00  0.00    +0.000 A 
ATOM     24  H   UNL     1     -14.700  54.307  50.909  0.00  0.00    +0.000 HD
ATOM     25  H   UNL     1     -11.889  56.708  49.362  0.00  0.00    +0.000 HD
ENDBRANCH   1  17
BRANCH   3  26
ATOM     26  O   UNL     1     -12.687  53.246  51.859  0.00  0.00    +0.000 OA
ATOM     27  H   UNL     1     -13.271  53.916  52.157  0.00  0.00    +0.000 HD
ENDBRANCH   3  26
BRANCH   5  28
ATOM     28  C   UNL     1     -10.519  53.063  46.617  0.00  0.00    +0.000 C 
BRANCH  28  29
ATOM     29  C   UNL     1      -9.194  53.752  46.633  0.00  0.00    +0.000 A 
ATOM     30  C   UNL     1      -8.354  53.963  45.555  0.00  0.00    +0.000 A 
ATOM     31  C   UNL     1      -8.468  54.235  47.762  0.00  0.00    +0.000 A 
ATOM     32  O   UNL     1      -7.184  54.522  45.949  0.00  0.00    +0.000 OA
ATOM     33  C   UNL     1      -7.255  54.680  47.294  0.00  0.00    +0.000 A 
ENDBRANCH  28  29
ENDBRANCH   5  28
TORSDOF 4
ENDMDL
MODEL 4
REMARK VINA RESULT:      -8.4      3.373      5.045
REMARK  Name = 338084
REMARK  4 active torsions:
REMARK  status: ('A' for Active; 'I' for Inactive)
REMARK    1  A    between atoms: C_6  and  C_10
REMARK    2  A    between atoms: C_14  and  O_18
REMARK    3  A    between atoms: N_17  and  C_21
REMARK    4  A    between atoms: C_21  and  C_24
REMARK                            x       y       z     vdW  Elec       q    Type
REMARK                         _______ _______ _______ _____ _____    ______ ____
ROOT
ATOM      1  C   UNL     1     -11.581  55.881  48.740  0.00  0.00    +0.000 A 
ATOM      2  C   UNL     1     -10.533  55.192  49.553  0.00  0.00    +0.000 A 
ATOM      3  C   UNL     1     -11.757  55.541  47.449  0.00  0.00    +0.000 A 
ATOM      4  O   UNL     1     -10.415  55.509  50.741  0.00  0.00    +0.000 OA
ATOM      5  N   UNL     1      -9.774  54.189  48.963  0.00  0.00    +0.000 N 
ATOM      6  C   UNL     1     -10.937  54.489  46.832  0.00  0.00    +0.000 A 
ATOM      7  C   UNL     1      -9.966  53.815  47.595  0.00  0.00    +0.000 A 
ATOM      8  C   UNL     1     -11.148  54.122  45.490  0.00  0.00    +0.000 A 
ATOM      9  C   UNL     1      -9.238  52.779  46.988  0.00  0.00    +0.000 A 
ATOM     10  C   UNL     1     -10.426  53.083  44.909  0.00  0.00    +0.000 A 
ATOM     11  C   UNL     1      -9.474  52.409  45.661  0.00  0.00    +0.000 A 
ENDROOT
BRANCH   1  17
ATOM     12  S   UNL     1     -13.551  59.207  49.458  0.00  0.00    +0.000 S 
ATOM     13  O   UNL     1     -14.704  59.351  48.586  0.00  0.00    +0.000 OA
ATOM     14  O   UNL     1     -12.712  60.350  49.755  0.00  0.00    +0.000 OA
ATOM     15  N   UNL     1     -12.612  58.045  48.838  0.00  0.00    +0.000 N 
ATOM     16  C   UNL     1     -14.176  58.651  50.999  0.00  0.00    +0.000 A 
ATOM     17  C   UNL     1     -12.509  56.880  49.410  0.00  0.00    +0.000 C 
ATOM     18  C   UNL     1     -13.905  57.344  51.373  0.00  0.00    +0.000 A 
ATOM     19  C   UNL     1     -14.911  59.521  51.807  0.00  0.00    +0.000 A 
ATOM     20  N   UNL     1     -13.174  56.489  50.553  0.00  0.00    +0.000 N 
ATOM     21  C   UNL     1     -14.460  56.878  52.570  0.00  0.00    +0.000 A 
ATOM     22  C   UNL     1     -15.422  59.056  53.015  0.00  0.00    +0.000 A 
ATOM     23  C   UNL     1     -15.206  57.731  53.391  0.00  0.00    +0.000 A 
ATOM     24  H   UNL     1     -12.107  58.223  48.012  0.00  0.00    +0.000 HD
ATOM     25  H   UNL     1     -13.127  55.539  50.807  0.00  0.00    +0.000 HD
ENDBRANCH   1  17
BRANCH   3  26
ATOM     26  O   UNL     1     -12.729  56.080  46.623  0.00  0.00    +0.000 OA
ATOM     27  H   UNL     1     -12.645  56.961  46.313  0.00  0.00    +0.000 HD
ENDBRANCH   3  26
BRANCH   5  28
ATOM     28  C   UNL     1      -8.860  53.445  49.833  0.00  0.00    +0.000 C 
BRANCH  28  29
ATOM     29  C   UNL     1      -7.499  54.056  49.897  0.00  0.00    +0.000 A 
ATOM     30  C   UNL     1      -6.600  53.976  50.944  0.00  0.00    +0.000 A 
ATOM     31  C   UNL     1      -6.884  54.933  48.954  0.00  0.00    +0.000 A 
ATOM     32  O   UNL     1      -5.506  54.741  50.710  0.00  0.00    +0.000 OA
ATOM     33  C   UNL     1      -5.685  55.327  49.500  0.00  0.00    +0.000 A 
ENDBRANCH  28  29
ENDBRANCH   5  28
TORSDOF 4
ENDMDL
MODEL 5
REMARK VINA RESULT:      -8.3      2.122      2.917
REMARK  Name = 338084
REMARK  4 active torsions:
REMARK  status: ('A' for Active; 'I' for Inactive)
REMARK    1  A    between atoms: C_6  and  C_10
REMARK    2  A    between atoms: C_14  and  O_18
REMARK    3  A    between atoms: N_17  and  C_21
REMARK    4  A    between atoms: C_21  and  C_24
REMARK                            x       y       z     vdW  Elec       q    Type
REMARK                         _______ _______ _______ _____ _____    ______ ____
ROOT
ATOM      1  C   UNL     1     -11.567  54.173  51.109  0.00  0.00    +0.000 A 
ATOM      2  C   UNL     1     -10.598  54.191  52.247  0.00  0.00    +0.000 A 
ATOM      3  C   UNL     1     -11.687  53.068  50.349  0.00  0.00    +0.000 A 
ATOM      4  O   UNL     1     -10.532  55.212  52.939  0.00  0.00    +0.000 OA
ATOM      5  N   UNL     1      -9.853  53.049  52.515  0.00  0.00    +0.000 N 
ATOM      6  C   UNL     1     -10.883  51.872  50.634  0.00  0.00    +0.000 A 
ATOM      7  C   UNL     1      -9.986  51.868  51.719  0.00  0.00    +0.000 A 
ATOM      8  C   UNL     1     -11.035  50.712  49.852  0.00  0.00    +0.000 A 
ATOM      9  C   UNL     1      -9.273  50.690  51.994  0.00  0.00    +0.000 A 
ATOM     10  C   UNL     1     -10.330  49.549  50.148  0.00  0.00    +0.000 A 
ATOM     11  C   UNL     1      -9.453  49.538  51.223  0.00  0.00    +0.000 A 
ENDROOT
BRANCH   1  17
ATOM     12  S   UNL     1     -13.486  57.093  49.306  0.00  0.00    +0.000 S 
ATOM     13  O   UNL     1     -14.627  56.605  48.550  0.00  0.00    +0.000 OA
ATOM     14  O   UNL     1     -12.631  58.123  48.753  0.00  0.00    +0.000 OA
ATOM     15  N   UNL     1     -12.561  55.818  49.672  0.00  0.00    +0.000 N 
ATOM     16  C   UNL     1     -14.138  57.751  50.795  0.00  0.00    +0.000 A 
ATOM     17  C   UNL     1     -12.485  55.364  50.890  0.00  0.00    +0.000 C 
ATOM     18  C   UNL     1     -13.894  57.058  51.969  0.00  0.00    +0.000 A 
ATOM     19  C   UNL     1     -14.866  58.943  50.769  0.00  0.00    +0.000 A 
ATOM     20  N   UNL     1     -13.169  55.869  51.976  0.00  0.00    +0.000 N 
ATOM     21  C   UNL     1     -14.470  57.545  53.148  0.00  0.00    +0.000 A 
ATOM     22  C   UNL     1     -15.398  59.438  51.956  0.00  0.00    +0.000 A 
ATOM     23  C   UNL     1     -15.210  58.732  53.144  0.00  0.00    +0.000 A 
ATOM     24  H   UNL     1     -12.044  55.377  48.960  0.00  0.00    +0.000 HD
ATOM     25  H   UNL     1     -13.142  55.353  52.814  0.00  0.00    +0.000 HD
ENDBRANCH   1  17
BRANCH   3  26
ATOM     26  O   UNL     1     -12.587  52.929  49.306  0.00  0.00    +0.000 OA
ATOM     27  H   UNL     1     -12.368  52.397  48.566  0.00  0.00    +0.000 HD
ENDBRANCH   3  26
BRANCH   5  28
ATOM     28  C   UNL     1      -9.023  53.063  53.721  0.00  0.00    +0.000 C 
BRANCH  28  29
ATOM     29  C   UNL     1      -7.710  53.743  53.511  0.00  0.00    +0.000 A 
ATOM     30  C   UNL     1      -7.257  54.888  54.138  0.00  0.00    +0.000 A 
ATOM     31  C   UNL     1      -6.701  53.426  52.553  0.00  0.00    +0.000 A 
ATOM     32  O   UNL     1      -6.067  55.288  53.626  0.00  0.00    +0.000 OA
ATOM     33  C   UNL     1      -5.735  54.399  52.657  0.00  0.00    +0.000 A 
ENDBRANCH  28  29
ENDBRANCH   5  28
TORSDOF 4
ENDMDL
MODEL 6
REMARK VINA RESULT:      -8.2      1.515      2.198
REMARK  Name = 338084
REMARK  4 active torsions:
REMARK  status: ('A' for Active; 'I' for Inactive)
REMARK    1  A    between atoms: C_6  and  C_10
REMARK    2  A    between atoms: C_14  and  O_18
REMARK    3  A    between atoms: N_17  and  C_21
REMARK    4  A    between atoms: C_21  and  C_24
REMARK                            x       y       z     vdW  Elec       q    Type
REMARK                         _______ _______ _______ _____ _____    ______ ____
ROOT
ATOM      1  C   UNL     1     -10.168  54.478  52.204  0.00  0.00    +0.000 A 
ATOM      2  C   UNL     1      -8.771  55.009  52.193  0.00  0.00    +0.000 A 
ATOM      3  C   UNL     1     -10.455  53.363  52.901  0.00  0.00    +0.000 A 
ATOM      4  O   UNL     1      -8.548  56.049  51.565  0.00  0.00    +0.000 OA
ATOM      5  N   UNL     1      -7.794  54.349  52.929  0.00  0.00    +0.000 N 
ATOM      6  C   UNL     1      -9.410  52.666  53.663  0.00  0.00    +0.000 A 
ATOM      7  C   UNL     1      -8.096  53.171  53.682  0.00  0.00    +0.000 A 
ATOM      8  C   UNL     1      -9.725  51.516  54.411  0.00  0.00    +0.000 A 
ATOM      9  C   UNL     1      -7.135  52.510  54.463  0.00  0.00    +0.000 A 
ATOM     10  C   UNL     1      -8.762  50.882  55.191  0.00  0.00    +0.000 A 
ATOM     11  C   UNL     1      -7.468  51.383  55.221  0.00  0.00    +0.000 A 
ENDROOT
BRANCH   1  17
ATOM     12  S   UNL     1     -13.511  56.476  51.662  0.00  0.00    +0.000 S 
ATOM     13  O   UNL     1     -13.409  57.842  52.145  0.00  0.00    +0.000 OA
ATOM     14  O   UNL     1     -14.715  55.706  51.895  0.00  0.00    +0.000 OA
ATOM     15  N   UNL     1     -12.262  55.647  52.270  0.00  0.00    +0.000 N 
ATOM     16  C   UNL     1     -13.322  56.564  49.921  0.00  0.00    +0.000 A 
ATOM     17  C   UNL     1     -11.272  55.265  51.517  0.00  0.00    +0.000 C 
ATOM     18  C   UNL     1     -12.152  56.066  49.371  0.00  0.00    +0.000 A 
ATOM     19  C   UNL     1     -14.339  57.114  49.137  0.00  0.00    +0.000 A 
ATOM     20  N   UNL     1     -11.146  55.524  50.168  0.00  0.00    +0.000 N 
ATOM     21  C   UNL     1     -11.969  56.196  47.990  0.00  0.00    +0.000 A 
ATOM     22  C   UNL     1     -14.162  57.200  47.759  0.00  0.00    +0.000 A 
ATOM     23  C   UNL     1     -12.972  56.752  47.187  0.00  0.00    +0.000 A 
ATOM     24  H   UNL     1     -12.252  55.427  53.229  0.00  0.00    +0.000 HD
ATOM     25  H   UNL     1     -10.286  55.310  49.739  0.00  0.00    +0.000 HD
ENDBRANCH   1  17
BRANCH   3  26
ATOM     26  O   UNL     1     -11.722  52.817  53.018  0.00  0.00    +0.000 OA
ATOM     27  H   UNL     1     -11.849  52.028  53.508  0.00  0.00    +0.000 HD
ENDBRANCH   3  26
BRANCH   5  28
ATOM     28  C   UNL     1      -6.476  54.983  53.005  0.00  0.00    +0.000 C 
BRANCH  28  29
ATOM     29  C   UNL     1      -5.496  54.393  52.043  0.00  0.00    +0.000 A 
ATOM     30  C   UNL     1      -5.466  54.573  50.673  0.00  0.00    +0.000 A 
ATOM     31  C   UNL     1      -4.465  53.444  52.311  0.00  0.00    +0.000 A 
ATOM     32  O   UNL     1      -4.510  53.803  50.099  0.00  0.00    +0.000 OA
ATOM     33  C   UNL     1      -3.907  53.112  51.099  0.00  0.00    +0.000 A 
ENDBRANCH  28  29
ENDBRANCH   5  28
TORSDOF 4
ENDMDL
MODEL 7
REMARK VINA RESULT:      -8.1      3.384      7.533
REMARK  Name = 338084
REMARK  4 active torsions:
REMARK  status: ('A' for Active; 'I' for Inactive)
REMARK    1  A    between atoms: C_6  and  C_10
REMARK    2  A    between atoms: C_14  and  O_18
REMARK    3  A    between atoms: N_17  and  C_21
REMARK    4  A    between atoms: C_21  and  C_24
REMARK                            x       y       z     vdW  Elec       q    Type
REMARK                         _______ _______ _______ _____ _____    ______ ____
ROOT
ATOM      1  C   UNL     1     -10.380  55.022  50.429  0.00  0.00    +0.000 A 
ATOM      2  C   UNL     1     -10.042  54.897  48.978  0.00  0.00    +0.000 A 
ATOM      3  C   UNL     1     -11.501  55.667  50.802  0.00  0.00    +0.000 A 
ATOM      4  O   UNL     1      -9.021  54.276  48.669  0.00  0.00    +0.000 OA
ATOM      5  N   UNL     1     -10.912  55.433  48.036  0.00  0.00    +0.000 N 
ATOM      6  C   UNL     1     -12.405  56.242  49.797  0.00  0.00    +0.000 A 
ATOM      7  C   UNL     1     -12.111  56.108  48.427  0.00  0.00    +0.000 A 
ATOM      8  C   UNL     1     -13.588  56.891  50.196  0.00  0.00    +0.000 A 
ATOM      9  C   UNL     1     -13.024  56.623  47.493  0.00  0.00    +0.000 A 
ATOM     10  C   UNL     1     -14.488  57.383  49.255  0.00  0.00    +0.000 A 
ATOM     11  C   UNL     1     -14.207  57.244  47.903  0.00  0.00    +0.000 A 
ENDROOT
BRANCH   1  17
ATOM     12  S   UNL     1      -9.138  52.352  53.035  0.00  0.00    +0.000 S 
ATOM     13  O   UNL     1      -8.583  51.178  52.383  0.00  0.00    +0.000 OA
ATOM     14  O   UNL     1      -9.987  52.208  54.199  0.00  0.00    +0.000 OA
ATOM     15  N   UNL     1      -9.956  53.190  51.919  0.00  0.00    +0.000 N 
ATOM     16  C   UNL     1      -7.765  53.313  53.552  0.00  0.00    +0.000 A 
ATOM     17  C   UNL     1      -9.510  54.323  51.461  0.00  0.00    +0.000 C 
ATOM     18  C   UNL     1      -7.521  54.503  52.886  0.00  0.00    +0.000 A 
ATOM     19  C   UNL     1      -6.967  52.873  54.611  0.00  0.00    +0.000 A 
ATOM     20  N   UNL     1      -8.324  54.924  51.829  0.00  0.00    +0.000 N 
ATOM     21  C   UNL     1      -6.387  55.237  53.251  0.00  0.00    +0.000 A 
ATOM     22  C   UNL     1      -5.866  53.635  54.992  0.00  0.00    +0.000 A 
ATOM     23  C   UNL     1      -5.570  54.811  54.304  0.00  0.00    +0.000 A 
ATOM     24  H   UNL     1     -10.809  52.835  51.580  0.00  0.00    +0.000 HD
ATOM     25  H   UNL     1      -8.026  55.705  51.309  0.00  0.00    +0.000 HD
ENDBRANCH   1  17
BRANCH   3  26
ATOM     26  O   UNL     1     -11.931  55.796  52.112  0.00  0.00    +0.000 OA
ATOM     27  H   UNL     1     -11.977  55.041  52.666  0.00  0.00    +0.000 HD
ENDBRANCH   3  26
BRANCH   5  28
ATOM     28  C   UNL     1     -10.616  55.164  46.627  0.00  0.00    +0.000 C 
BRANCH  28  29
ATOM     29  C   UNL     1     -11.273  53.920  46.126  0.00  0.00    +0.000 A 
ATOM     30  C   UNL     1     -11.913  52.956  46.883  0.00  0.00    +0.000 A 
ATOM     31  C   UNL     1     -11.285  53.408  44.794  0.00  0.00    +0.000 A 
ATOM     32  O   UNL     1     -12.297  51.907  46.115  0.00  0.00    +0.000 OA
ATOM     33  C   UNL     1     -11.908  52.183  44.845  0.00  0.00    +0.000 A 
ENDBRANCH  28  29
ENDBRANCH   5  28
TORSDOF 4
ENDMDL
MODEL 8
REMARK VINA RESULT:      -8.0      3.479      5.122
REMARK  Name = 338084
REMARK  4 active torsions:
REMARK  status: ('A' for Active; 'I' for Inactive)
REMARK    1  A    between atoms: C_6  and  C_10
REMARK    2  A    between atoms: C_14  and  O_18
REMARK    3  A    between atoms: N_17  and  C_21
REMARK    4  A    between atoms: C_21  and  C_24
REMARK                            x       y       z     vdW  Elec       q    Type
REMARK                         _______ _______ _______ _____ _____    ______ ____
ROOT
ATOM      1  C   UNL     1     -11.190  55.290  48.739  0.00  0.00    +0.000 A 
ATOM      2  C   UNL     1     -10.081  54.581  49.448  0.00  0.00    +0.000 A 
ATOM      3  C   UNL     1     -11.380  55.087  47.422  0.00  0.00    +0.000 A 
ATOM      4  O   UNL     1      -9.951  54.770  50.661  0.00  0.00    +0.000 OA
ATOM      5  N   UNL     1      -9.279  53.701  48.732  0.00  0.00    +0.000 N 
ATOM      6  C   UNL     1     -10.516  54.165  46.673  0.00  0.00    +0.000 A 
ATOM      7  C   UNL     1      -9.485  53.472  47.335  0.00  0.00    +0.000 A 
ATOM      8  C   UNL     1     -10.740  53.938  45.303  0.00  0.00    +0.000 A 
ATOM      9  C   UNL     1      -8.713  52.558  46.600  0.00  0.00    +0.000 A 
ATOM     10  C   UNL     1      -9.973  53.018  44.593  0.00  0.00    +0.000 A 
ATOM     11  C   UNL     1      -8.962  52.325  45.244  0.00  0.00    +0.000 A 
ENDROOT
BRANCH   1  17
ATOM     12  S   UNL     1     -13.746  56.392  51.516  0.00  0.00    +0.000 S 
ATOM     13  O   UNL     1     -13.081  56.716  52.766  0.00  0.00    +0.000 OA
ATOM     14  O   UNL     1     -14.986  55.644  51.522  0.00  0.00    +0.000 OA
ATOM     15  N   UNL     1     -12.686  55.596  50.590  0.00  0.00    +0.000 N 
ATOM     16  C   UNL     1     -14.109  57.926  50.749  0.00  0.00    +0.000 A 
ATOM     17  C   UNL     1     -12.158  56.148  49.537  0.00  0.00    +0.000 C 
ATOM     18  C   UNL     1     -13.390  58.269  49.615  0.00  0.00    +0.000 A 
ATOM     19  C   UNL     1     -15.104  58.752  51.279  0.00  0.00    +0.000 A 
ATOM     20  N   UNL     1     -12.400  57.436  49.102  0.00  0.00    +0.000 N 
ATOM     21  C   UNL     1     -13.631  59.522  49.041  0.00  0.00    +0.000 A 
ATOM     22  C   UNL     1     -15.361  59.978  50.673  0.00  0.00    +0.000 A 
ATOM     23  C   UNL     1     -14.616  60.368  49.561  0.00  0.00    +0.000 A 
ATOM     24  H   UNL     1     -12.436  54.674  50.827  0.00  0.00    +0.000 HD
ATOM     25  H   UNL     1     -11.833  57.788  48.378  0.00  0.00    +0.000 HD
ENDBRANCH   1  17
BRANCH   3  26
ATOM     26  O   UNL     1     -12.405  55.654  46.683  0.00  0.00    +0.000 OA
ATOM     27  H   UNL     1     -12.798  55.172  45.982  0.00  0.00    +0.000 HD
ENDBRANCH   3  26
BRANCH   5  28
ATOM     28  C   UNL     1      -8.299  52.922  49.494  0.00  0.00    +0.000 C 
BRANCH  28  29
ATOM     29  C   UNL     1      -7.019  53.661  49.711  0.00  0.00    +0.000 A 
ATOM     30  C   UNL     1      -6.488  54.064  50.921  0.00  0.00    +0.000 A 
ATOM     31  C   UNL     1      -6.138  54.199  48.726  0.00  0.00    +0.000 A 
ATOM     32  O   UNL     1      -5.368  54.806  50.741  0.00  0.00    +0.000 OA
ATOM     33  C   UNL     1      -5.162  54.892  49.403  0.00  0.00    +0.000 A 
ENDBRANCH  28  29
ENDBRANCH   5  28
TORSDOF 4
ENDMDL
MODEL 9
REMARK VINA RESULT:      -7.9      3.876      5.668
REMARK  Name = 338084
REMARK  4 active torsions:
REMARK  status: ('A' for Active; 'I' for Inactive)
REMARK    1  A    between atoms: C_6  and  C_10
REMARK    2  A    between atoms: C_14  and  O_18
REMARK    3  A    between atoms: N_17  and  C_21
REMARK    4  A    between atoms: C_21  and  C_24
REMARK                            x       y       z     vdW  Elec       q    Type
REMARK                         _______ _______ _______ _____ _____    ______ ____
ROOT
ATOM      1  C   UNL     1     -11.359  55.694  49.106  0.00  0.00    +0.000 A 
ATOM      2  C   UNL     1     -11.488  55.215  47.696  0.00  0.00    +0.000 A 
ATOM      3  C   UNL     1     -10.320  55.289  49.858  0.00  0.00    +0.000 A 
ATOM      4  O   UNL     1     -12.440  55.628  47.025  0.00  0.00    +0.000 OA
ATOM      5  N   UNL     1     -10.511  54.374  47.179  0.00  0.00    +0.000 N 
ATOM      6  C   UNL     1      -9.300  54.387  49.304  0.00  0.00    +0.000 A 
ATOM      7  C   UNL     1      -9.397  53.950  47.970  0.00  0.00    +0.000 A 
ATOM      8  C   UNL     1      -8.202  53.990  50.090  0.00  0.00    +0.000 A 
ATOM      9  C   UNL     1      -8.377  53.132  47.458  0.00  0.00    +0.000 A 
ATOM     10  C   UNL     1      -7.194  53.190  49.560  0.00  0.00    +0.000 A 
ATOM     11  C   UNL     1      -7.280  52.766  48.242  0.00  0.00    +0.000 A 
ENDROOT
BRANCH   1  17
ATOM     12  S   UNL     1     -13.446  59.011  49.430  0.00  0.00    +0.000 S 
ATOM     13  O   UNL     1     -14.557  59.045  48.495  0.00  0.00    +0.000 OA
ATOM     14  O   UNL     1     -12.652  60.200  49.664  0.00  0.00    +0.000 OA
ATOM     15  N   UNL     1     -12.448  57.828  48.962  0.00  0.00    +0.000 N 
ATOM     16  C   UNL     1     -14.133  58.574  50.983  0.00  0.00    +0.000 A 
ATOM     17  C   UNL     1     -12.345  56.721  49.639  0.00  0.00    +0.000 C 
ATOM     18  C   UNL     1     -13.849  57.314  51.484  0.00  0.00    +0.000 A 
ATOM     19  C   UNL     1     -14.930  59.490  51.674  0.00  0.00    +0.000 A 
ATOM     20  N   UNL     1     -13.057  56.412  50.780  0.00  0.00    +0.000 N 
ATOM     21  C   UNL     1     -14.451  56.938  52.690  0.00  0.00    +0.000 A 
ATOM     22  C   UNL     1     -15.489  59.118  52.893  0.00  0.00    +0.000 A 
ATOM     23  C   UNL     1     -15.260  57.837  53.395  0.00  0.00    +0.000 A 
ATOM     24  H   UNL     1     -11.907  57.947  48.148  0.00  0.00    +0.000 HD
ATOM     25  H   UNL     1     -12.999  55.489  51.119  0.00  0.00    +0.000 HD
ENDBRANCH   1  17
BRANCH   3  26
ATOM     26  O   UNL     1     -10.080  55.711  51.155  0.00  0.00    +0.000 OA
ATOM     27  H   UNL     1     -10.794  55.974  51.702  0.00  0.00    +0.000 HD
ENDBRANCH   3  26
BRANCH   5  28
ATOM     28  C   UNL     1     -10.601  54.045  45.754  0.00  0.00    +0.000 C 
BRANCH  28  29
ATOM     29  C   UNL     1     -11.174  52.687  45.511  0.00  0.00    +0.000 A 
ATOM     30  C   UNL     1     -12.233  52.101  46.178  0.00  0.00    +0.000 A 
ATOM     31  C   UNL     1     -10.691  51.675  44.629  0.00  0.00    +0.000 A 
ATOM     32  O   UNL     1     -12.416  50.819  45.775  0.00  0.00    +0.000 OA
ATOM     33  C   UNL     1     -11.471  50.562  44.837  0.00  0.00    +0.000 A 
ENDBRANCH  28  29
ENDBRANCH   5  28
TORSDOF 4
ENDMDL
