MODEL 1
REMARK VINA RESULT:      -8.2      0.000      0.000
REMARK  Name = 338497
REMARK  11 active torsions:
REMARK  status: ('A' for Active; 'I' for Inactive)
REMARK    1  A    between atoms: C_6  and  C_10
REMARK    2  A    between atoms: C_14  and  O_18
REMARK    3  A    between atoms: N_17  and  C_21
REMARK    4  A    between atoms: C_21  and  C_24
REMARK    5  A    between atoms: C_24  and  C_27
REMARK    6  A    between atoms: C_26  and  C_28
REMARK    7  A    between atoms: C_27  and  C_29
REMARK    8  A    between atoms: C_27  and  C_30
REMARK    9  A    between atoms: C_28  and  O_32
REMARK   10  A    between atoms: O_32  and  C_33
REMARK   11  A    between atoms: C_33  and  C_34
REMARK                            x       y       z     vdW  Elec       q    Type
REMARK                         _______ _______ _______ _____ _____    ______ ____
ROOT
ATOM      1  C   UNL     1     -10.641  54.173  47.337  0.00  0.00    +0.000 A 
ATOM      2  C   UNL     1     -10.072  54.486  48.684  0.00  0.00    +0.000 A 
ATOM      3  C   UNL     1     -11.629  54.927  46.826  0.00  0.00    +0.000 A 
ATOM      4  O   UNL     1      -9.106  53.828  49.082  0.00  0.00    +0.000 OA
ATOM      5  N   UNL     1     -10.636  55.515  49.423  0.00  0.00    +0.000 N 
ATOM      6  C   UNL     1     -12.215  56.013  47.618  0.00  0.00    +0.000 A 
ATOM      7  C   UNL     1     -11.717  56.293  48.904  0.00  0.00    +0.000 A 
ATOM      8  C   UNL     1     -13.300  56.748  47.112  0.00  0.00    +0.000 A 
ATOM      9  C   UNL     1     -12.306  57.325  49.642  0.00  0.00    +0.000 A 
ATOM     10  C   UNL     1     -13.889  57.759  47.863  0.00  0.00    +0.000 A 
ATOM     11  C   UNL     1     -13.382  58.059  49.128  0.00  0.00    +0.000 A 
ENDROOT
BRANCH   1  17
ATOM     12  S   UNL     1      -9.099  50.671  46.475  0.00  0.00    +0.000 S 
ATOM     13  O   UNL     1     -10.110  49.638  46.344  0.00  0.00    +0.000 OA
ATOM     14  O   UNL     1      -7.851  50.392  47.154  0.00  0.00    +0.000 OA
ATOM     15  N   UNL     1      -9.791  51.941  47.201  0.00  0.00    +0.000 N 
ATOM     16  C   UNL     1      -8.669  51.142  44.839  0.00  0.00    +0.000 A 
ATOM     17  C   UNL     1     -10.064  53.027  46.539  0.00  0.00    +0.000 C 
ATOM     18  C   UNL     1      -9.088  52.387  44.393  0.00  0.00    +0.000 A 
ATOM     19  C   UNL     1      -7.914  50.283  44.040  0.00  0.00    +0.000 A 
ATOM     20  N   UNL     1      -9.857  53.225  45.193  0.00  0.00    +0.000 N 
ATOM     21  C   UNL     1      -8.793  52.755  43.078  0.00  0.00    +0.000 A 
ATOM     22  C   UNL     1      -7.600  50.673  42.741  0.00  0.00    +0.000 A 
ATOM     23  C   UNL     1      -8.046  51.904  42.257  0.00  0.00    +0.000 A 
ATOM     24  H   UNL     1     -10.009  51.891  48.159  0.00  0.00    +0.000 HD
ATOM     25  H   UNL     1     -10.278  54.009  44.771  0.00  0.00    +0.000 HD
ENDBRANCH   1  17
BRANCH   3  26
ATOM     26  O   UNL     1     -12.172  54.766  45.564  0.00  0.00    +0.000 OA
ATOM     27  H   UNL     1     -12.347  53.905  45.236  0.00  0.00    +0.000 HD
ENDBRANCH   3  26
BRANCH  11  28
ATOM     28  C   UNL     1     -13.993  59.082  50.010  0.00  0.00    +0.000 C 
ATOM     29  O   UNL     1     -13.655  60.255  50.007  0.00  0.00    +0.000 OA
BRANCH  28  30
ATOM     30  O   UNL     1     -14.852  58.492  50.873  0.00  0.00    +0.000 OA
BRANCH  30  31
ATOM     31  C   UNL     1     -14.668  58.860  52.243  0.00  0.00    +0.000 C 
ATOM     32  C   UNL     1     -14.073  57.663  52.962  0.00  0.00    +0.000 C 
ENDBRANCH  30  31
ENDBRANCH  28  30
ENDBRANCH  11  28
BRANCH   5  33
ATOM     33  C   UNL     1     -10.112  55.751  50.779  0.00  0.00    +0.000 C 
BRANCH  33  34
ATOM     34  C   UNL     1     -10.936  55.022  51.853  0.00  0.00    +0.000 C 
BRANCH  34  35
ATOM     35  C   UNL     1     -10.135  54.626  53.110  0.00  0.00    +0.000 C 
ATOM     36  C   UNL     1     -10.290  53.147  53.468  0.00  0.00    +0.000 C 
ATOM     37  C   UNL     1      -8.650  54.943  52.896  0.00  0.00    +0.000 C 
ENDBRANCH  34  35
ENDBRANCH  33  34
ENDBRANCH   5  33
TORSDOF 8
ENDMDL
MODEL 2
REMARK VINA RESULT:      -8.0      2.773      8.704
REMARK  Name = 338497
REMARK  11 active torsions:
REMARK  status: ('A' for Active; 'I' for Inactive)
REMARK    1  A    between atoms: C_6  and  C_10
REMARK    2  A    between atoms: C_14  and  O_18
REMARK    3  A    between atoms: N_17  and  C_21
REMARK    4  A    between atoms: C_21  and  C_24
REMARK    5  A    between atoms: C_24  and  C_27
REMARK    6  A    between atoms: C_26  and  C_28
REMARK    7  A    between atoms: C_27  and  C_29
REMARK    8  A    between atoms: C_27  and  C_30
REMARK    9  A    between atoms: C_28  and  O_32
REMARK   10  A    between atoms: O_32  and  C_33
REMARK   11  A    between atoms: C_33  and  C_34
REMARK                            x       y       z     vdW  Elec       q    Type
REMARK                         _______ _______ _______ _____ _____    ______ ____
ROOT
ATOM      1  C   UNL     1     -11.746  56.077  48.598  0.00  0.00    +0.000 A 
ATOM      2  C   UNL     1     -10.492  55.640  49.285  0.00  0.00    +0.000 A 
ATOM      3  C   UNL     1     -12.064  55.584  47.389  0.00  0.00    +0.000 A 
ATOM      4  O   UNL     1     -10.276  56.045  50.431  0.00  0.00    +0.000 OA
ATOM      5  N   UNL     1      -9.631  54.781  48.618  0.00  0.00    +0.000 N 
ATOM      6  C   UNL     1     -11.146  54.676  46.696  0.00  0.00    +0.000 A 
ATOM      7  C   UNL     1      -9.942  54.287  47.313  0.00  0.00    +0.000 A 
ATOM      8  C   UNL     1     -11.446  54.224  45.400  0.00  0.00    +0.000 A 
ATOM      9  C   UNL     1      -9.079  53.431  46.621  0.00  0.00    +0.000 A 
ATOM     10  C   UNL     1     -10.571  53.388  44.715  0.00  0.00    +0.000 A 
ATOM     11  C   UNL     1      -9.388  52.979  45.332  0.00  0.00    +0.000 A 
ENDROOT
BRANCH   1  17
ATOM     12  S   UNL     1     -13.627  59.398  49.504  0.00  0.00    +0.000 S 
ATOM     13  O   UNL     1     -14.787  59.625  48.661  0.00  0.00    +0.000 OA
ATOM     14  O   UNL     1     -12.751  60.496  49.854  0.00  0.00    +0.000 OA
ATOM     15  N   UNL     1     -12.731  58.248  48.801  0.00  0.00    +0.000 N 
ATOM     16  C   UNL     1     -14.243  58.762  51.020  0.00  0.00    +0.000 A 
ATOM     17  C   UNL     1     -12.672  57.046  49.296  0.00  0.00    +0.000 C 
ATOM     18  C   UNL     1     -14.016  57.423  51.301  0.00  0.00    +0.000 A 
ATOM     19  C   UNL     1     -14.920  59.601  51.906  0.00  0.00    +0.000 A 
ATOM     20  N   UNL     1     -13.357  56.593  50.400  0.00  0.00    +0.000 N 
ATOM     21  C   UNL     1     -14.541  56.894  52.482  0.00  0.00    +0.000 A 
ATOM     22  C   UNL     1     -15.413  59.070  53.094  0.00  0.00    +0.000 A 
ATOM     23  C   UNL     1     -15.231  57.715  53.378  0.00  0.00    +0.000 A 
ATOM     24  H   UNL     1     -12.224  58.461  47.985  0.00  0.00    +0.000 HD
ATOM     25  H   UNL     1     -13.382  55.623  50.563  0.00  0.00    +0.000 HD
ENDBRANCH   1  17
BRANCH   3  26
ATOM     26  O   UNL     1     -13.233  55.868  46.705  0.00  0.00    +0.000 OA
ATOM     27  H   UNL     1     -13.553  55.271  46.057  0.00  0.00    +0.000 HD
ENDBRANCH   3  26
BRANCH  11  28
ATOM     28  C   UNL     1      -8.380  52.137  44.645  0.00  0.00    +0.000 C 
ATOM     29  O   UNL     1      -7.678  51.325  45.226  0.00  0.00    +0.000 OA
BRANCH  28  30
ATOM     30  O   UNL     1      -8.282  52.505  43.346  0.00  0.00    +0.000 OA
BRANCH  30  31
ATOM     31  C   UNL     1      -8.147  51.418  42.427  0.00  0.00    +0.000 C 
ATOM     32  C   UNL     1      -9.537  50.873  42.155  0.00  0.00    +0.000 C 
ENDBRANCH  30  31
ENDBRANCH  28  30
ENDBRANCH  11  28
BRANCH   5  33
ATOM     33  C   UNL     1      -8.364  54.430  49.282  0.00  0.00    +0.000 C 
BRANCH  33  34
ATOM     34  C   UNL     1      -7.246  55.435  48.963  0.00  0.00    +0.000 C 
BRANCH  34  35
ATOM     35  C   UNL     1      -5.820  54.898  49.206  0.00  0.00    +0.000 C 
ATOM     36  C   UNL     1      -5.639  54.314  50.608  0.00  0.00    +0.000 C 
ATOM     37  C   UNL     1      -5.489  53.825  48.163  0.00  0.00    +0.000 C 
ENDBRANCH  34  35
ENDBRANCH  33  34
ENDBRANCH   5  33
TORSDOF 8
ENDMDL
MODEL 3
REMARK VINA RESULT:      -7.6      1.886      2.439
REMARK  Name = 338497
REMARK  11 active torsions:
REMARK  status: ('A' for Active; 'I' for Inactive)
REMARK    1  A    between atoms: C_6  and  C_10
REMARK    2  A    between atoms: C_14  and  O_18
REMARK    3  A    between atoms: N_17  and  C_21
REMARK    4  A    between atoms: C_21  and  C_24
REMARK    5  A    between atoms: C_24  and  C_27
REMARK    6  A    between atoms: C_26  and  C_28
REMARK    7  A    between atoms: C_27  and  C_29
REMARK    8  A    between atoms: C_27  and  C_30
REMARK    9  A    between atoms: C_28  and  O_32
REMARK   10  A    between atoms: O_32  and  C_33
REMARK   11  A    between atoms: C_33  and  C_34
REMARK                            x       y       z     vdW  Elec       q    Type
REMARK                         _______ _______ _______ _____ _____    ______ ____
ROOT
ATOM      1  C   UNL     1     -10.945  54.403  48.240  0.00  0.00    +0.000 A 
ATOM      2  C   UNL     1     -10.615  53.980  49.637  0.00  0.00    +0.000 A 
ATOM      3  C   UNL     1     -11.934  55.283  48.014  0.00  0.00    +0.000 A 
ATOM      4  O   UNL     1      -9.643  53.239  49.814  0.00  0.00    +0.000 OA
ATOM      5  N   UNL     1     -11.399  54.453  50.679  0.00  0.00    +0.000 N 
ATOM      6  C   UNL     1     -12.754  55.775  49.125  0.00  0.00    +0.000 A 
ATOM      7  C   UNL     1     -12.481  55.355  50.440  0.00  0.00    +0.000 A 
ATOM      8  C   UNL     1     -13.837  56.634  48.875  0.00  0.00    +0.000 A 
ATOM      9  C   UNL     1     -13.290  55.830  51.478  0.00  0.00    +0.000 A 
ATOM     10  C   UNL     1     -14.645  57.085  49.914  0.00  0.00    +0.000 A 
ATOM     11  C   UNL     1     -14.364  56.692  51.223  0.00  0.00    +0.000 A 
ENDROOT
BRANCH   1  17
ATOM     12  S   UNL     1      -7.962  53.878  45.748  0.00  0.00    +0.000 S 
ATOM     13  O   UNL     1      -6.948  52.984  46.278  0.00  0.00    +0.000 OA
ATOM     14  O   UNL     1      -7.579  55.072  45.025  0.00  0.00    +0.000 OA
ATOM     15  N   UNL     1      -8.913  54.321  46.979  0.00  0.00    +0.000 N 
ATOM     16  C   UNL     1      -8.921  52.919  44.633  0.00  0.00    +0.000 A 
ATOM     17  C   UNL     1     -10.125  53.862  47.092  0.00  0.00    +0.000 C 
ATOM     18  C   UNL     1     -10.211  52.580  45.014  0.00  0.00    +0.000 A 
ATOM     19  C   UNL     1      -8.387  52.537  43.401  0.00  0.00    +0.000 A 
ATOM     20  N   UNL     1     -10.724  52.951  46.253  0.00  0.00    +0.000 N 
ATOM     21  C   UNL     1     -10.967  51.779  44.157  0.00  0.00    +0.000 A 
ATOM     22  C   UNL     1      -9.161  51.763  42.542  0.00  0.00    +0.000 A 
ATOM     23  C   UNL     1     -10.448  51.377  42.923  0.00  0.00    +0.000 A 
ATOM     24  H   UNL     1      -8.569  54.948  47.656  0.00  0.00    +0.000 HD
ATOM     25  H   UNL     1     -11.567  52.536  46.546  0.00  0.00    +0.000 HD
ENDBRANCH   1  17
BRANCH   3  26
ATOM     26  O   UNL     1     -12.269  55.791  46.772  0.00  0.00    +0.000 OA
ATOM     27  H   UNL     1     -12.895  55.343  46.236  0.00  0.00    +0.000 HD
ENDBRANCH   3  26
BRANCH  11  28
ATOM     28  C   UNL     1     -15.213  57.084  52.372  0.00  0.00    +0.000 C 
ATOM     29  O   UNL     1     -16.314  56.603  52.585  0.00  0.00    +0.000 OA
BRANCH  28  30
ATOM     30  O   UNL     1     -14.642  58.116  53.036  0.00  0.00    +0.000 OA
BRANCH  30  31
ATOM     31  C   UNL     1     -15.274  59.382  52.829  0.00  0.00    +0.000 C 
ATOM     32  C   UNL     1     -15.984  59.755  54.118  0.00  0.00    +0.000 C 
ENDBRANCH  30  31
ENDBRANCH  28  30
ENDBRANCH  11  28
BRANCH   5  33
ATOM     33  C   UNL     1     -11.105  53.958  52.035  0.00  0.00    +0.000 C 
BRANCH  33  34
ATOM     34  C   UNL     1     -10.285  54.967  52.854  0.00  0.00    +0.000 C 
BRANCH  34  35
ATOM     35  C   UNL     1      -8.891  54.459  53.278  0.00  0.00    +0.000 C 
ATOM     36  C   UNL     1      -8.793  52.932  53.276  0.00  0.00    +0.000 C 
ATOM     37  C   UNL     1      -7.825  55.037  52.340  0.00  0.00    +0.000 C 
ENDBRANCH  34  35
ENDBRANCH  33  34
ENDBRANCH   5  33
TORSDOF 8
ENDMDL
MODEL 4
REMARK VINA RESULT:      -7.6      2.815      8.577
REMARK  Name = 338497
REMARK  11 active torsions:
REMARK  status: ('A' for Active; 'I' for Inactive)
REMARK    1  A    between atoms: C_6  and  C_10
REMARK    2  A    between atoms: C_14  and  O_18
REMARK    3  A    between atoms: N_17  and  C_21
REMARK    4  A    between atoms: C_21  and  C_24
REMARK    5  A    between atoms: C_24  and  C_27
REMARK    6  A    between atoms: C_26  and  C_28
REMARK    7  A    between atoms: C_27  and  C_29
REMARK    8  A    between atoms: C_27  and  C_30
REMARK    9  A    between atoms: C_28  and  O_32
REMARK   10  A    between atoms: O_32  and  C_33
REMARK   11  A    between atoms: C_33  and  C_34
REMARK                            x       y       z     vdW  Elec       q    Type
REMARK                         _______ _______ _______ _____ _____    ______ ____
ROOT
ATOM      1  C   UNL     1     -11.635  55.828  48.845  0.00  0.00    +0.000 A 
ATOM      2  C   UNL     1     -10.572  55.223  49.705  0.00  0.00    +0.000 A 
ATOM      3  C   UNL     1     -11.767  55.449  47.562  0.00  0.00    +0.000 A 
ATOM      4  O   UNL     1     -10.537  55.529  50.901  0.00  0.00    +0.000 OA
ATOM      5  N   UNL     1      -9.682  54.326  49.133  0.00  0.00    +0.000 N 
ATOM      6  C   UNL     1     -10.819  54.500  46.971  0.00  0.00    +0.000 A 
ATOM      7  C   UNL     1      -9.789  53.953  47.758  0.00  0.00    +0.000 A 
ATOM      8  C   UNL     1     -10.914  54.166  45.609  0.00  0.00    +0.000 A 
ATOM      9  C   UNL     1      -8.892  53.060  47.162  0.00  0.00    +0.000 A 
ATOM     10  C   UNL     1     -10.004  53.292  45.025  0.00  0.00    +0.000 A 
ATOM     11  C   UNL     1      -8.996  52.726  45.806  0.00  0.00    +0.000 A 
ENDROOT
BRANCH   1  17
ATOM     12  S   UNL     1     -13.545  59.197  49.467  0.00  0.00    +0.000 S 
ATOM     13  O   UNL     1     -14.673  59.368  48.569  0.00  0.00    +0.000 OA
ATOM     14  O   UNL     1     -12.682  60.317  49.779  0.00  0.00    +0.000 OA
ATOM     15  N   UNL     1     -12.625  58.006  48.873  0.00  0.00    +0.000 N 
ATOM     16  C   UNL     1     -14.218  58.659  50.996  0.00  0.00    +0.000 A 
ATOM     17  C   UNL     1     -12.585  56.839  49.445  0.00  0.00    +0.000 C 
ATOM     18  C   UNL     1     -14.002  57.340  51.370  0.00  0.00    +0.000 A 
ATOM     19  C   UNL     1     -14.926  59.552  51.802  0.00  0.00    +0.000 A 
ATOM     20  N   UNL     1     -13.311  56.456  50.549  0.00  0.00    +0.000 N 
ATOM     21  C   UNL     1     -14.572  56.887  52.562  0.00  0.00    +0.000 A 
ATOM     22  C   UNL     1     -15.464  59.096  53.001  0.00  0.00    +0.000 A 
ATOM     23  C   UNL     1     -15.294  57.762  53.378  0.00  0.00    +0.000 A 
ATOM     24  H   UNL     1     -12.087  58.167  48.064  0.00  0.00    +0.000 HD
ATOM     25  H   UNL     1     -13.343  55.498  50.772  0.00  0.00    +0.000 HD
ENDBRANCH   1  17
BRANCH   3  26
ATOM     26  O   UNL     1     -12.759  55.894  46.707  0.00  0.00    +0.000 OA
ATOM     27  H   UNL     1     -12.817  56.805  46.490  0.00  0.00    +0.000 HD
ENDBRANCH   3  26
BRANCH  11  28
ATOM     28  C   UNL     1      -7.956  51.834  45.241  0.00  0.00    +0.000 C 
ATOM     29  O   UNL     1      -8.047  51.311  44.142  0.00  0.00    +0.000 OA
BRANCH  28  30
ATOM     30  O   UNL     1      -6.998  51.599  46.168  0.00  0.00    +0.000 OA
BRANCH  30  31
ATOM     31  C   UNL     1      -6.732  50.216  46.415  0.00  0.00    +0.000 C 
ATOM     32  C   UNL     1      -6.328  50.081  47.872  0.00  0.00    +0.000 C 
ENDBRANCH  30  31
ENDBRANCH  28  30
ENDBRANCH  11  28
BRANCH   5  33
ATOM     33  C   UNL     1      -8.595  53.807  49.980  0.00  0.00    +0.000 C 
BRANCH  33  34
ATOM     34  C   UNL     1      -7.313  54.647  49.857  0.00  0.00    +0.000 C 
BRANCH  34  35
ATOM     35  C   UNL     1      -6.018  53.818  49.738  0.00  0.00    +0.000 C 
ATOM     36  C   UNL     1      -5.380  53.915  48.350  0.00  0.00    +0.000 C 
ATOM     37  C   UNL     1      -5.009  54.284  50.793  0.00  0.00    +0.000 C 
ENDBRANCH  34  35
ENDBRANCH  33  34
ENDBRANCH   5  33
TORSDOF 8
ENDMDL
MODEL 5
REMARK VINA RESULT:      -7.4      2.830      9.201
REMARK  Name = 338497
REMARK  11 active torsions:
REMARK  status: ('A' for Active; 'I' for Inactive)
REMARK    1  A    between atoms: C_6  and  C_10
REMARK    2  A    between atoms: C_14  and  O_18
REMARK    3  A    between atoms: N_17  and  C_21
REMARK    4  A    between atoms: C_21  and  C_24
REMARK    5  A    between atoms: C_24  and  C_27
REMARK    6  A    between atoms: C_26  and  C_28
REMARK    7  A    between atoms: C_27  and  C_29
REMARK    8  A    between atoms: C_27  and  C_30
REMARK    9  A    between atoms: C_28  and  O_32
REMARK   10  A    between atoms: O_32  and  C_33
REMARK   11  A    between atoms: C_33  and  C_34
REMARK                            x       y       z     vdW  Elec       q    Type
REMARK                         _______ _______ _______ _____ _____    ______ ____
ROOT
ATOM      1  C   UNL     1     -11.490  55.871  48.854  0.00  0.00    +0.000 A 
ATOM      2  C   UNL     1     -11.614  55.491  47.413  0.00  0.00    +0.000 A 
ATOM      3  C   UNL     1     -10.492  55.373  49.604  0.00  0.00    +0.000 A 
ATOM      4  O   UNL     1     -12.489  56.036  46.734  0.00  0.00    +0.000 OA
ATOM      5  N   UNL     1     -10.729  54.559  46.891  0.00  0.00    +0.000 N 
ATOM      6  C   UNL     1      -9.563  54.390  49.038  0.00  0.00    +0.000 A 
ATOM      7  C   UNL     1      -9.691  53.993  47.695  0.00  0.00    +0.000 A 
ATOM      8  C   UNL     1      -8.569  53.815  49.847  0.00  0.00    +0.000 A 
ATOM      9  C   UNL     1      -8.799  53.042  47.188  0.00  0.00    +0.000 A 
ATOM     10  C   UNL     1      -7.700  52.857  49.336  0.00  0.00    +0.000 A 
ATOM     11  C   UNL     1      -7.806  52.477  47.998  0.00  0.00    +0.000 A 
ENDROOT
BRANCH   1  17
ATOM     12  S   UNL     1     -13.515  59.177  49.450  0.00  0.00    +0.000 S 
ATOM     13  O   UNL     1     -14.647  59.302  48.550  0.00  0.00    +0.000 OA
ATOM     14  O   UNL     1     -12.690  60.328  49.753  0.00  0.00    +0.000 OA
ATOM     15  N   UNL     1     -12.554  58.014  48.865  0.00  0.00    +0.000 N 
ATOM     16  C   UNL     1     -14.169  58.628  50.983  0.00  0.00    +0.000 A 
ATOM     17  C   UNL     1     -12.474  56.853  49.447  0.00  0.00    +0.000 C 
ATOM     18  C   UNL     1     -13.909  57.321  51.367  0.00  0.00    +0.000 A 
ATOM     19  C   UNL     1     -14.908  59.503  51.781  0.00  0.00    +0.000 A 
ATOM     20  N   UNL     1     -13.187  56.454  50.554  0.00  0.00    +0.000 N 
ATOM     21  C   UNL     1     -14.463  56.858  52.563  0.00  0.00    +0.000 A 
ATOM     22  C   UNL     1     -15.430  59.038  52.985  0.00  0.00    +0.000 A 
ATOM     23  C   UNL     1     -15.215  57.714  53.372  0.00  0.00    +0.000 A 
ATOM     24  H   UNL     1     -12.022  58.187  48.055  0.00  0.00    +0.000 HD
ATOM     25  H   UNL     1     -13.186  55.497  50.785  0.00  0.00    +0.000 HD
ENDBRANCH   1  17
BRANCH   3  26
ATOM     26  O   UNL     1     -10.249  55.717  50.921  0.00  0.00    +0.000 OA
ATOM     27  H   UNL     1      -9.476  55.405  51.352  0.00  0.00    +0.000 HD
ENDBRANCH   3  26
BRANCH  11  28
ATOM     28  C   UNL     1      -6.955  51.423  47.398  0.00  0.00    +0.000 C 
ATOM     29  O   UNL     1      -7.404  50.401  46.904  0.00  0.00    +0.000 OA
BRANCH  28  30
ATOM     30  O   UNL     1      -5.649  51.711  47.606  0.00  0.00    +0.000 OA
BRANCH  30  31
ATOM     31  C   UNL     1      -4.782  50.573  47.625  0.00  0.00    +0.000 C 
ATOM     32  C   UNL     1      -4.356  50.345  49.064  0.00  0.00    +0.000 C 
ENDBRANCH  30  31
ENDBRANCH  28  30
ENDBRANCH  11  28
BRANCH   5  33
ATOM     33  C   UNL     1     -10.922  54.141  45.492  0.00  0.00    +0.000 C 
BRANCH  33  34
ATOM     34  C   UNL     1     -11.834  52.909  45.377  0.00  0.00    +0.000 C 
BRANCH  34  35
ATOM     35  C   UNL     1     -11.305  51.811  44.431  0.00  0.00    +0.000 C 
ATOM     36  C   UNL     1     -10.152  52.296  43.549  0.00  0.00    +0.000 C 
ATOM     37  C   UNL     1     -10.842  50.603  45.252  0.00  0.00    +0.000 C 
ENDBRANCH  34  35
ENDBRANCH  33  34
ENDBRANCH   5  33
TORSDOF 8
ENDMDL
MODEL 6
REMARK VINA RESULT:      -7.3      3.136      6.072
REMARK  Name = 338497
REMARK  11 active torsions:
REMARK  status: ('A' for Active; 'I' for Inactive)
REMARK    1  A    between atoms: C_6  and  C_10
REMARK    2  A    between atoms: C_14  and  O_18
REMARK    3  A    between atoms: N_17  and  C_21
REMARK    4  A    between atoms: C_21  and  C_24
REMARK    5  A    between atoms: C_24  and  C_27
REMARK    6  A    between atoms: C_26  and  C_28
REMARK    7  A    between atoms: C_27  and  C_29
REMARK    8  A    between atoms: C_27  and  C_30
REMARK    9  A    between atoms: C_28  and  O_32
REMARK   10  A    between atoms: O_32  and  C_33
REMARK   11  A    between atoms: C_33  and  C_34
REMARK                            x       y       z     vdW  Elec       q    Type
REMARK                         _______ _______ _______ _____ _____    ______ ____
ROOT
ATOM      1  C   UNL     1      -9.303  54.026  50.575  0.00  0.00    +0.000 A 
ATOM      2  C   UNL     1     -10.031  53.601  49.340  0.00  0.00    +0.000 A 
ATOM      3  C   UNL     1      -9.936  54.736  51.524  0.00  0.00    +0.000 A 
ATOM      4  O   UNL     1      -9.445  52.874  48.532  0.00  0.00    +0.000 OA
ATOM      5  N   UNL     1     -11.341  54.021  49.160  0.00  0.00    +0.000 N 
ATOM      6  C   UNL     1     -11.320  55.173  51.321  0.00  0.00    +0.000 A 
ATOM      7  C   UNL     1     -12.005  54.815  50.145  0.00  0.00    +0.000 A 
ATOM      8  C   UNL     1     -11.952  55.982  52.281  0.00  0.00    +0.000 A 
ATOM      9  C   UNL     1     -13.321  55.258  49.973  0.00  0.00    +0.000 A 
ATOM     10  C   UNL     1     -13.254  56.431  52.089  0.00  0.00    +0.000 A 
ATOM     11  C   UNL     1     -13.947  56.058  50.937  0.00  0.00    +0.000 A 
ENDROOT
BRANCH   1  17
ATOM     12  S   UNL     1      -5.538  53.261  49.783  0.00  0.00    +0.000 S 
ATOM     13  O   UNL     1      -4.711  54.453  49.824  0.00  0.00    +0.000 OA
ATOM     14  O   UNL     1      -5.343  52.270  48.746  0.00  0.00    +0.000 OA
ATOM     15  N   UNL     1      -7.083  53.741  49.731  0.00  0.00    +0.000 N 
ATOM     16  C   UNL     1      -5.274  52.432  51.307  0.00  0.00    +0.000 A 
ATOM     17  C   UNL     1      -7.863  53.610  50.764  0.00  0.00    +0.000 C 
ATOM     18  C   UNL     1      -6.304  52.440  52.236  0.00  0.00    +0.000 A 
ATOM     19  C   UNL     1      -4.065  51.776  51.546  0.00  0.00    +0.000 A 
ATOM     20  N   UNL     1      -7.496  53.114  51.993  0.00  0.00    +0.000 N 
ATOM     21  C   UNL     1      -6.089  51.824  53.471  0.00  0.00    +0.000 A 
ATOM     22  C   UNL     1      -3.874  51.140  52.769  0.00  0.00    +0.000 A 
ATOM     23  C   UNL     1      -4.882  51.171  53.734  0.00  0.00    +0.000 A 
ATOM     24  H   UNL     1      -7.438  54.140  48.904  0.00  0.00    +0.000 HD
ATOM     25  H   UNL     1      -8.116  53.242  52.748  0.00  0.00    +0.000 HD
ENDBRANCH   1  17
BRANCH   3  26
ATOM     26  O   UNL     1      -9.375  55.114  52.731  0.00  0.00    +0.000 OA
ATOM     27  H   UNL     1      -9.706  55.864  53.187  0.00  0.00    +0.000 HD
ENDBRANCH   3  26
BRANCH  11  28
ATOM     28  C   UNL     1     -15.314  56.545  50.636  0.00  0.00    +0.000 C 
ATOM     29  O   UNL     1     -16.237  55.805  50.335  0.00  0.00    +0.000 OA
BRANCH  28  30
ATOM     30  O   UNL     1     -15.327  57.898  50.618  0.00  0.00    +0.000 OA
BRANCH  30  31
ATOM     31  C   UNL     1     -14.491  58.490  49.621  0.00  0.00    +0.000 C 
ATOM     32  C   UNL     1     -14.199  59.916  50.056  0.00  0.00    +0.000 C 
ENDBRANCH  30  31
ENDBRANCH  28  30
ENDBRANCH  11  28
BRANCH   5  33
ATOM     33  C   UNL     1     -12.008  53.658  47.898  0.00  0.00    +0.000 C 
BRANCH  33  34
ATOM     34  C   UNL     1     -11.764  54.699  46.794  0.00  0.00    +0.000 C 
BRANCH  34  35
ATOM     35  C   UNL     1     -11.309  54.102  45.446  0.00  0.00    +0.000 C 
ATOM     36  C   UNL     1      -9.794  53.901  45.370  0.00  0.00    +0.000 C 
ATOM     37  C   UNL     1     -12.011  52.759  45.214  0.00  0.00    +0.000 C 
ENDBRANCH  34  35
ENDBRANCH  33  34
ENDBRANCH   5  33
TORSDOF 8
ENDMDL
MODEL 7
REMARK VINA RESULT:      -7.2      2.539      8.460
REMARK  Name = 338497
REMARK  11 active torsions:
REMARK  status: ('A' for Active; 'I' for Inactive)
REMARK    1  A    between atoms: C_6  and  C_10
REMARK    2  A    between atoms: C_14  and  O_18
REMARK    3  A    between atoms: N_17  and  C_21
REMARK    4  A    between atoms: C_21  and  C_24
REMARK    5  A    between atoms: C_24  and  C_27
REMARK    6  A    between atoms: C_26  and  C_28
REMARK    7  A    between atoms: C_27  and  C_29
REMARK    8  A    between atoms: C_27  and  C_30
REMARK    9  A    between atoms: C_28  and  O_32
REMARK   10  A    between atoms: O_32  and  C_33
REMARK   11  A    between atoms: C_33  and  C_34
REMARK                            x       y       z     vdW  Elec       q    Type
REMARK                         _______ _______ _______ _____ _____    ______ ____
ROOT
ATOM      1  C   UNL     1     -11.835  55.595  48.787  0.00  0.00    +0.000 A 
ATOM      2  C   UNL     1     -10.905  54.820  49.665  0.00  0.00    +0.000 A 
ATOM      3  C   UNL     1     -11.921  55.315  47.476  0.00  0.00    +0.000 A 
ATOM      4  O   UNL     1     -10.917  55.045  50.880  0.00  0.00    +0.000 OA
ATOM      5  N   UNL     1     -10.081  53.866  49.086  0.00  0.00    +0.000 N 
ATOM      6  C   UNL     1     -11.045  54.303  46.877  0.00  0.00    +0.000 A 
ATOM      7  C   UNL     1     -10.136  53.594  47.684  0.00  0.00    +0.000 A 
ATOM      8  C   UNL     1     -11.083  54.069  45.493  0.00  0.00    +0.000 A 
ATOM      9  C   UNL     1      -9.303  52.645  47.082  0.00  0.00    +0.000 A 
ATOM     10  C   UNL     1     -10.237  53.136  44.904  0.00  0.00    +0.000 A 
ATOM     11  C   UNL     1      -9.351  52.411  45.702  0.00  0.00    +0.000 A 
ENDROOT
BRANCH   1  17
ATOM     12  S   UNL     1     -13.513  59.083  49.425  0.00  0.00    +0.000 S 
ATOM     13  O   UNL     1     -14.643  59.322  48.546  0.00  0.00    +0.000 OA
ATOM     14  O   UNL     1     -12.574  60.145  49.716  0.00  0.00    +0.000 OA
ATOM     15  N   UNL     1     -12.682  57.833  48.821  0.00  0.00    +0.000 N 
ATOM     16  C   UNL     1     -14.192  58.595  50.969  0.00  0.00    +0.000 A 
ATOM     17  C   UNL     1     -12.707  56.667  49.399  0.00  0.00    +0.000 C 
ATOM     18  C   UNL     1     -14.055  57.266  51.345  0.00  0.00    +0.000 A 
ATOM     19  C   UNL     1     -14.827  59.535  51.781  0.00  0.00    +0.000 A 
ATOM     20  N   UNL     1     -13.436  56.336  50.517  0.00  0.00    +0.000 N 
ATOM     21  C   UNL     1     -14.631  56.856  52.549  0.00  0.00    +0.000 A 
ATOM     22  C   UNL     1     -15.371  59.119  52.993  0.00  0.00    +0.000 A 
ATOM     23  C   UNL     1     -15.281  57.779  53.373  0.00  0.00    +0.000 A 
ATOM     24  H   UNL     1     -12.149  57.955  48.002  0.00  0.00    +0.000 HD
ATOM     25  H   UNL     1     -13.526  55.383  50.746  0.00  0.00    +0.000 HD
ENDBRANCH   1  17
BRANCH   3  26
ATOM     26  O   UNL     1     -12.798  55.922  46.596  0.00  0.00    +0.000 OA
ATOM     27  H   UNL     1     -13.532  56.406  46.925  0.00  0.00    +0.000 HD
ENDBRANCH   3  26
BRANCH  11  28
ATOM     28  C   UNL     1      -8.380  51.443  45.140  0.00  0.00    +0.000 C 
ATOM     29  O   UNL     1      -7.942  51.519  44.003  0.00  0.00    +0.000 OA
BRANCH  28  30
ATOM     30  O   UNL     1      -8.178  50.432  46.016  0.00  0.00    +0.000 OA
BRANCH  30  31
ATOM     31  C   UNL     1      -6.852  49.894  46.012  0.00  0.00    +0.000 C 
ATOM     32  C   UNL     1      -6.045  50.660  47.045  0.00  0.00    +0.000 C 
ENDBRANCH  30  31
ENDBRANCH  28  30
ENDBRANCH  11  28
BRANCH   5  33
ATOM     33  C   UNL     1      -9.117  53.174  49.958  0.00  0.00    +0.000 C 
BRANCH  33  34
ATOM     34  C   UNL     1      -9.750  51.978  50.687  0.00  0.00    +0.000 C 
BRANCH  34  35
ATOM     35  C   UNL     1      -9.390  51.882  52.184  0.00  0.00    +0.000 C 
ATOM     36  C   UNL     1     -10.525  52.352  53.096  0.00  0.00    +0.000 C 
ATOM     37  C   UNL     1      -9.025  50.435  52.534  0.00  0.00    +0.000 C 
ENDBRANCH  34  35
ENDBRANCH  33  34
ENDBRANCH   5  33
TORSDOF 8
ENDMDL
MODEL 8
REMARK VINA RESULT:      -7.2      3.281      8.926
REMARK  Name = 338497
REMARK  11 active torsions:
REMARK  status: ('A' for Active; 'I' for Inactive)
REMARK    1  A    between atoms: C_6  and  C_10
REMARK    2  A    between atoms: C_14  and  O_18
REMARK    3  A    between atoms: N_17  and  C_21
REMARK    4  A    between atoms: C_21  and  C_24
REMARK    5  A    between atoms: C_24  and  C_27
REMARK    6  A    between atoms: C_26  and  C_28
REMARK    7  A    between atoms: C_27  and  C_29
REMARK    8  A    between atoms: C_27  and  C_30
REMARK    9  A    between atoms: C_28  and  O_32
REMARK   10  A    between atoms: O_32  and  C_33
REMARK   11  A    between atoms: C_33  and  C_34
REMARK                            x       y       z     vdW  Elec       q    Type
REMARK                         _______ _______ _______ _____ _____    ______ ____
ROOT
ATOM      1  C   UNL     1     -10.405  55.468  48.909  0.00  0.00    +0.000 A 
ATOM      2  C   UNL     1     -10.364  54.523  47.750  0.00  0.00    +0.000 A 
ATOM      3  C   UNL     1      -9.275  55.789  49.561  0.00  0.00    +0.000 A 
ATOM      4  O   UNL     1     -11.406  54.320  47.119  0.00  0.00    +0.000 OA
ATOM      5  N   UNL     1      -9.156  53.929  47.416  0.00  0.00    +0.000 N 
ATOM      6  C   UNL     1      -8.005  55.155  49.197  0.00  0.00    +0.000 A 
ATOM      7  C   UNL     1      -7.958  54.233  48.135  0.00  0.00    +0.000 A 
ATOM      8  C   UNL     1      -6.841  55.435  49.932  0.00  0.00    +0.000 A 
ATOM      9  C   UNL     1      -6.735  53.633  47.819  0.00  0.00    +0.000 A 
ATOM     10  C   UNL     1      -5.634  54.817  49.621  0.00  0.00    +0.000 A 
ATOM     11  C   UNL     1      -5.577  53.922  48.552  0.00  0.00    +0.000 A 
ENDROOT
BRANCH   1  17
ATOM     12  S   UNL     1     -13.815  57.390  48.666  0.00  0.00    +0.000 S 
ATOM     13  O   UNL     1     -14.894  56.545  48.187  0.00  0.00    +0.000 OA
ATOM     14  O   UNL     1     -13.692  58.754  48.199  0.00  0.00    +0.000 OA
ATOM     15  N   UNL     1     -12.423  56.627  48.354  0.00  0.00    +0.000 N 
ATOM     16  C   UNL     1     -14.008  57.486  50.408  0.00  0.00    +0.000 A 
ATOM     17  C   UNL     1     -11.722  56.089  49.310  0.00  0.00    +0.000 C 
ATOM     18  C   UNL     1     -13.088  56.815  51.200  0.00  0.00    +0.000 A 
ATOM     19  C   UNL     1     -15.050  58.236  50.956  0.00  0.00    +0.000 A 
ATOM     20  N   UNL     1     -12.066  56.056  50.641  0.00  0.00    +0.000 N 
ATOM     21  C   UNL     1     -13.258  56.846  52.586  0.00  0.00    +0.000 A 
ATOM     22  C   UNL     1     -15.192  58.284  52.339  0.00  0.00    +0.000 A 
ATOM     23  C   UNL     1     -14.301  57.582  53.154  0.00  0.00    +0.000 A 
ATOM     24  H   UNL     1     -12.101  56.567  47.426  0.00  0.00    +0.000 HD
ATOM     25  H   UNL     1     -11.557  55.458  51.236  0.00  0.00    +0.000 HD
ENDBRANCH   1  17
BRANCH   3  26
ATOM     26  O   UNL     1      -9.195  56.705  50.595  0.00  0.00    +0.000 OA
ATOM     27  H   UNL     1      -9.207  57.624  50.409  0.00  0.00    +0.000 HD
ENDBRANCH   3  26
BRANCH  11  28
ATOM     28  C   UNL     1      -4.343  53.182  48.197  0.00  0.00    +0.000 C 
ATOM     29  O   UNL     1      -3.847  53.203  47.082  0.00  0.00    +0.000 OA
BRANCH  28  30
ATOM     30  O   UNL     1      -3.956  52.407  49.237  0.00  0.00    +0.000 OA
BRANCH  30  31
ATOM     31  C   UNL     1      -4.448  51.065  49.197  0.00  0.00    +0.000 C 
ATOM     32  C   UNL     1      -5.133  50.790  50.524  0.00  0.00    +0.000 C 
ENDBRANCH  30  31
ENDBRANCH  28  30
ENDBRANCH  11  28
BRANCH   5  33
ATOM     33  C   UNL     1      -9.158  52.941  46.324  0.00  0.00    +0.000 C 
BRANCH  33  34
ATOM     34  C   UNL     1      -8.769  53.568  44.975  0.00  0.00    +0.000 C 
BRANCH  34  35
ATOM     35  C   UNL     1      -9.396  52.877  43.747  0.00  0.00    +0.000 C 
ATOM     36  C   UNL     1      -8.568  51.691  43.249  0.00  0.00    +0.000 C 
ATOM     37  C   UNL     1     -10.811  52.399  44.093  0.00  0.00    +0.000 C 
ENDBRANCH  34  35
ENDBRANCH  33  34
ENDBRANCH   5  33
TORSDOF 8
ENDMDL
MODEL 9
REMARK VINA RESULT:      -7.0      3.010      6.035
REMARK  Name = 338497
REMARK  11 active torsions:
REMARK  status: ('A' for Active; 'I' for Inactive)
REMARK    1  A    between atoms: C_6  and  C_10
REMARK    2  A    between atoms: C_14  and  O_18
REMARK    3  A    between atoms: N_17  and  C_21
REMARK    4  A    between atoms: C_21  and  C_24
REMARK    5  A    between atoms: C_24  and  C_27
REMARK    6  A    between atoms: C_26  and  C_28
REMARK    7  A    between atoms: C_27  and  C_29
REMARK    8  A    between atoms: C_27  and  C_30
REMARK    9  A    between atoms: C_28  and  O_32
REMARK   10  A    between atoms: O_32  and  C_33
REMARK   11  A    between atoms: C_33  and  C_34
REMARK                            x       y       z     vdW  Elec       q    Type
REMARK                         _______ _______ _______ _____ _____    ______ ____
ROOT
ATOM      1  C   UNL     1      -8.879  53.807  50.007  0.00  0.00    +0.000 A 
ATOM      2  C   UNL     1      -8.958  54.020  48.529  0.00  0.00    +0.000 A 
ATOM      3  C   UNL     1      -9.808  54.336  50.820  0.00  0.00    +0.000 A 
ATOM      4  O   UNL     1      -8.139  53.445  47.806  0.00  0.00    +0.000 OA
ATOM      5  N   UNL     1      -9.960  54.837  48.027  0.00  0.00    +0.000 N 
ATOM      6  C   UNL     1     -10.862  55.197  50.276  0.00  0.00    +0.000 A 
ATOM      7  C   UNL     1     -10.926  55.440  48.891  0.00  0.00    +0.000 A 
ATOM      8  C   UNL     1     -11.785  55.812  51.138  0.00  0.00    +0.000 A 
ATOM      9  C   UNL     1     -11.935  56.277  48.403  0.00  0.00    +0.000 A 
ATOM     10  C   UNL     1     -12.772  56.657  50.642  0.00  0.00    +0.000 A 
ATOM     11  C   UNL     1     -12.856  56.882  49.267  0.00  0.00    +0.000 A 
ENDROOT
BRANCH   1  17
ATOM     12  S   UNL     1      -6.807  50.643  51.049  0.00  0.00    +0.000 S 
ATOM     13  O   UNL     1      -6.028  50.104  49.948  0.00  0.00    +0.000 OA
ATOM     14  O   UNL     1      -7.501  49.755  51.957  0.00  0.00    +0.000 OA
ATOM     15  N   UNL     1      -7.892  51.667  50.423  0.00  0.00    +0.000 N 
ATOM     16  C   UNL     1      -5.685  51.568  52.032  0.00  0.00    +0.000 A 
ATOM     17  C   UNL     1      -7.766  52.953  50.572  0.00  0.00    +0.000 C 
ATOM     18  C   UNL     1      -5.792  52.951  52.010  0.00  0.00    +0.000 A 
ATOM     19  C   UNL     1      -4.737  50.910  52.817  0.00  0.00    +0.000 A 
ATOM     20  N   UNL     1      -6.729  53.594  51.208  0.00  0.00    +0.000 N 
ATOM     21  C   UNL     1      -4.876  53.699  52.752  0.00  0.00    +0.000 A 
ATOM     22  C   UNL     1      -3.848  51.666  53.575  0.00  0.00    +0.000 A 
ATOM     23  C   UNL     1      -3.912  53.060  53.536  0.00  0.00    +0.000 A 
ATOM     24  H   UNL     1      -8.660  51.311  49.920  0.00  0.00    +0.000 HD
ATOM     25  H   UNL     1      -6.644  54.568  51.090  0.00  0.00    +0.000 HD
ENDBRANCH   1  17
BRANCH   3  26
ATOM     26  O   UNL     1      -9.864  54.138  52.188  0.00  0.00    +0.000 OA
ATOM     27  H   UNL     1     -10.603  53.703  52.569  0.00  0.00    +0.000 HD
ENDBRANCH   3  26
BRANCH  11  28
ATOM     28  C   UNL     1     -13.842  57.813  48.670  0.00  0.00    +0.000 C 
ATOM     29  O   UNL     1     -13.973  57.968  47.467  0.00  0.00    +0.000 OA
BRANCH  28  30
ATOM     30  O   UNL     1     -14.447  58.530  49.646  0.00  0.00    +0.000 OA
BRANCH  30  31
ATOM     31  C   UNL     1     -14.471  59.942  49.422  0.00  0.00    +0.000 C 
ATOM     32  C   UNL     1     -13.100  60.486  49.784  0.00  0.00    +0.000 C 
ENDBRANCH  30  31
ENDBRANCH  28  30
ENDBRANCH  11  28
BRANCH   5  33
ATOM     33  C   UNL     1      -9.969  55.098  46.578  0.00  0.00    +0.000 C 
BRANCH  33  34
ATOM     34  C   UNL     1     -10.667  53.976  45.792  0.00  0.00    +0.000 C 
BRANCH  34  35
ATOM     35  C   UNL     1      -9.734  53.180  44.855  0.00  0.00    +0.000 C 
ATOM     36  C   UNL     1     -10.372  52.887  43.496  0.00  0.00    +0.000 C 
ATOM     37  C   UNL     1      -8.429  53.956  44.646  0.00  0.00    +0.000 C 
ENDBRANCH  34  35
ENDBRANCH  33  34
ENDBRANCH   5  33
TORSDOF 8
ENDMDL
