MODEL 1
REMARK VINA RESULT:      -9.0      0.000      0.000
REMARK  Name = 338535
REMARK  7 active torsions:
REMARK  status: ('A' for Active; 'I' for Inactive)
REMARK    1  A    between atoms: C_6  and  C_10
REMARK    2  A    between atoms: C_14  and  O_18
REMARK    3  A    between atoms: N_17  and  C_21
REMARK    4  A    between atoms: C_21  and  C_24
REMARK    5  A    between atoms: C_24  and  C_27
REMARK    6  A    between atoms: C_27  and  C_28
REMARK    7  A    between atoms: C_27  and  C_29
REMARK                            x       y       z     vdW  Elec       q    Type
REMARK                         _______ _______ _______ _____ _____    ______ ____
ROOT
ATOM      1  C   UNL     1      -9.933  54.623  50.856  0.00  0.00    +0.000 A 
ATOM      2  C   UNL     1     -11.282  55.155  51.225  0.00  0.00    +0.000 A 
ATOM      3  C   UNL     1      -9.569  54.553  49.566  0.00  0.00    +0.000 A 
ATOM      4  O   UNL     1     -11.560  55.274  52.422  0.00  0.00    +0.000 OA
ATOM      5  N   UNL     1     -12.167  55.506  50.215  0.00  0.00    +0.000 N 
ATOM      6  C   UNL     1     -10.486  55.004  48.505  0.00  0.00    +0.000 A 
ATOM      7  C   UNL     1     -11.778  55.451  48.838  0.00  0.00    +0.000 A 
ATOM      8  C   UNL     1     -10.075  55.001  47.160  0.00  0.00    +0.000 A 
ATOM      9  C   UNL     1     -12.632  55.864  47.803  0.00  0.00    +0.000 A 
ATOM     10  C   UNL     1     -10.924  55.445  46.151  0.00  0.00    +0.000 A 
ATOM     11  C   UNL     1     -12.204  55.873  46.472  0.00  0.00    +0.000 A 
ENDROOT
BRANCH   1  17
ATOM     12  S   UNL     1      -6.726  54.531  53.131  0.00  0.00    +0.000 S 
ATOM     13  O   UNL     1      -6.707  55.591  54.120  0.00  0.00    +0.000 OA
ATOM     14  O   UNL     1      -5.518  54.173  52.417  0.00  0.00    +0.000 OA
ATOM     15  N   UNL     1      -7.862  54.903  52.033  0.00  0.00    +0.000 N 
ATOM     16  C   UNL     1      -7.233  53.081  53.982  0.00  0.00    +0.000 A 
ATOM     17  C   UNL     1      -8.972  54.230  51.960  0.00  0.00    +0.000 C 
ATOM     18  C   UNL     1      -8.489  52.570  53.699  0.00  0.00    +0.000 A 
ATOM     19  C   UNL     1      -6.375  52.470  54.900  0.00  0.00    +0.000 A 
ATOM     20  N   UNL     1      -9.339  53.194  52.790  0.00  0.00    +0.000 N 
ATOM     21  C   UNL     1      -8.923  51.448  54.413  0.00  0.00    +0.000 A 
ATOM     22  C   UNL     1      -6.807  51.332  55.577  0.00  0.00    +0.000 A 
ATOM     23  C   UNL     1      -8.084  50.827  55.342  0.00  0.00    +0.000 A 
ATOM     24  H   UNL     1      -7.708  55.650  51.412  0.00  0.00    +0.000 HD
ATOM     25  H   UNL     1     -10.268  52.870  52.737  0.00  0.00    +0.000 HD
ENDBRANCH   1  17
BRANCH   3  26
ATOM     26  O   UNL     1      -8.341  54.094  49.122  0.00  0.00    +0.000 OA
ATOM     27  H   UNL     1      -7.581  54.192  49.662  0.00  0.00    +0.000 HD
ENDBRANCH   3  26
BRANCH   5  28
ATOM     28  C   UNL     1     -13.509  55.948  50.615  0.00  0.00    +0.000 C 
BRANCH  28  29
ATOM     29  C   UNL     1     -13.583  57.477  50.769  0.00  0.00    +0.000 C 
BRANCH  29  30
ATOM     30  C   UNL     1     -14.925  58.004  51.320  0.00  0.00    +0.000 C 
ATOM     31  C   UNL     1     -15.114  59.469  50.910  0.00  0.00    +0.000 C 
BRANCH  30  32
ATOM     32  C   UNL     1     -15.075  57.845  52.836  0.00  0.00    +0.000 C 
ATOM     33  F   UNL     1     -13.904  57.556  53.442  0.00  0.00    +0.000 F 
ATOM     34  F   UNL     1     -15.563  58.955  53.430  0.00  0.00    +0.000 F 
ATOM     35  F   UNL     1     -15.929  56.833  53.115  0.00  0.00    +0.000 F 
ENDBRANCH  30  32
ENDBRANCH  29  30
ENDBRANCH  28  29
ENDBRANCH   5  28
TORSDOF 6
ENDMDL
MODEL 2
REMARK VINA RESULT:      -8.6      3.671      7.393
REMARK  Name = 338535
REMARK  7 active torsions:
REMARK  status: ('A' for Active; 'I' for Inactive)
REMARK    1  A    between atoms: C_6  and  C_10
REMARK    2  A    between atoms: C_14  and  O_18
REMARK    3  A    between atoms: N_17  and  C_21
REMARK    4  A    between atoms: C_21  and  C_24
REMARK    5  A    between atoms: C_24  and  C_27
REMARK    6  A    between atoms: C_27  and  C_28
REMARK    7  A    between atoms: C_27  and  C_29
REMARK                            x       y       z     vdW  Elec       q    Type
REMARK                         _______ _______ _______ _____ _____    ______ ____
ROOT
ATOM      1  C   UNL     1     -11.723  53.964  51.051  0.00  0.00    +0.000 A 
ATOM      2  C   UNL     1     -10.857  53.908  52.270  0.00  0.00    +0.000 A 
ATOM      3  C   UNL     1     -11.790  52.908  50.225  0.00  0.00    +0.000 A 
ATOM      4  O   UNL     1     -10.872  54.867  53.047  0.00  0.00    +0.000 OA
ATOM      5  N   UNL     1     -10.079  52.780  52.492  0.00  0.00    +0.000 N 
ATOM      6  C   UNL     1     -11.021  51.684  50.513  0.00  0.00    +0.000 A 
ATOM      7  C   UNL     1     -10.159  51.643  51.626  0.00  0.00    +0.000 A 
ATOM      8  C   UNL     1     -11.150  50.552  49.690  0.00  0.00    +0.000 A 
ATOM      9  C   UNL     1      -9.433  50.467  51.867  0.00  0.00    +0.000 A 
ATOM     10  C   UNL     1     -10.446  49.382  49.964  0.00  0.00    +0.000 A 
ATOM     11  C   UNL     1      -9.584  49.342  51.051  0.00  0.00    +0.000 A 
ENDROOT
BRANCH   1  17
ATOM     12  S   UNL     1     -13.330  57.062  49.238  0.00  0.00    +0.000 S 
ATOM     13  O   UNL     1     -14.438  56.697  48.377  0.00  0.00    +0.000 OA
ATOM     14  O   UNL     1     -12.362  58.050  48.808  0.00  0.00    +0.000 OA
ATOM     15  N   UNL     1     -12.525  55.702  49.605  0.00  0.00    +0.000 N 
ATOM     16  C   UNL     1     -14.046  57.695  50.711  0.00  0.00    +0.000 A 
ATOM     17  C   UNL     1     -12.564  55.201  50.804  0.00  0.00    +0.000 C 
ATOM     18  C   UNL     1     -13.931  56.938  51.864  0.00  0.00    +0.000 A 
ATOM     19  C   UNL     1     -14.695  58.933  50.700  0.00  0.00    +0.000 A 
ATOM     20  N   UNL     1     -13.292  55.701  51.861  0.00  0.00    +0.000 N 
ATOM     21  C   UNL     1     -14.547  57.408  53.029  0.00  0.00    +0.000 A 
ATOM     22  C   UNL     1     -15.273  59.406  51.876  0.00  0.00    +0.000 A 
ATOM     23  C   UNL     1     -15.208  58.639  53.037  0.00  0.00    +0.000 A 
ATOM     24  H   UNL     1     -11.997  55.249  48.909  0.00  0.00    +0.000 HD
ATOM     25  H   UNL     1     -13.366  55.145  52.670  0.00  0.00    +0.000 HD
ENDBRANCH   1  17
BRANCH   3  26
ATOM     26  O   UNL     1     -12.571  52.852  49.085  0.00  0.00    +0.000 OA
ATOM     27  H   UNL     1     -12.166  52.795  48.242  0.00  0.00    +0.000 HD
ENDBRANCH   3  26
BRANCH   5  28
ATOM     28  C   UNL     1      -9.183  52.795  53.655  0.00  0.00    +0.000 C 
BRANCH  28  29
ATOM     29  C   UNL     1      -7.724  53.067  53.247  0.00  0.00    +0.000 C 
BRANCH  29  30
ATOM     30  C   UNL     1      -7.424  54.535  52.876  0.00  0.00    +0.000 C 
ATOM     31  C   UNL     1      -6.198  54.596  51.958  0.00  0.00    +0.000 C 
BRANCH  30  32
ATOM     32  C   UNL     1      -7.236  55.452  54.089  0.00  0.00    +0.000 C 
ATOM     33  F   UNL     1      -6.610  56.605  53.771  0.00  0.00    +0.000 F 
ATOM     34  F   UNL     1      -8.406  55.787  54.673  0.00  0.00    +0.000 F 
ATOM     35  F   UNL     1      -6.482  54.833  55.026  0.00  0.00    +0.000 F 
ENDBRANCH  30  32
ENDBRANCH  29  30
ENDBRANCH  28  29
ENDBRANCH   5  28
TORSDOF 6
ENDMDL
MODEL 3
REMARK VINA RESULT:      -8.6      4.266      7.921
REMARK  Name = 338535
REMARK  7 active torsions:
REMARK  status: ('A' for Active; 'I' for Inactive)
REMARK    1  A    between atoms: C_6  and  C_10
REMARK    2  A    between atoms: C_14  and  O_18
REMARK    3  A    between atoms: N_17  and  C_21
REMARK    4  A    between atoms: C_21  and  C_24
REMARK    5  A    between atoms: C_24  and  C_27
REMARK    6  A    between atoms: C_27  and  C_28
REMARK    7  A    between atoms: C_27  and  C_29
REMARK                            x       y       z     vdW  Elec       q    Type
REMARK                         _______ _______ _______ _____ _____    ______ ____
ROOT
ATOM      1  C   UNL     1     -12.281  54.140  50.286  0.00  0.00    +0.000 A 
ATOM      2  C   UNL     1     -12.069  53.680  48.877  0.00  0.00    +0.000 A 
ATOM      3  C   UNL     1     -11.696  53.485  51.301  0.00  0.00    +0.000 A 
ATOM      4  O   UNL     1     -12.562  54.345  47.961  0.00  0.00    +0.000 OA
ATOM      5  N   UNL     1     -11.321  52.534  48.649  0.00  0.00    +0.000 N 
ATOM      6  C   UNL     1     -10.837  52.316  51.041  0.00  0.00    +0.000 A 
ATOM      7  C   UNL     1     -10.679  51.841  49.725  0.00  0.00    +0.000 A 
ATOM      8  C   UNL     1     -10.165  51.677  52.097  0.00  0.00    +0.000 A 
ATOM      9  C   UNL     1      -9.863  50.720  49.511  0.00  0.00    +0.000 A 
ATOM     10  C   UNL     1      -9.333  50.586  51.861  0.00  0.00    +0.000 A 
ATOM     11  C   UNL     1      -9.186  50.105  50.568  0.00  0.00    +0.000 A 
ENDROOT
BRANCH   1  17
ATOM     12  S   UNL     1     -15.259  56.464  51.381  0.00  0.00    +0.000 S 
ATOM     13  O   UNL     1     -15.273  56.726  52.807  0.00  0.00    +0.000 OA
ATOM     14  O   UNL     1     -16.494  56.199  50.672  0.00  0.00    +0.000 OA
ATOM     15  N   UNL     1     -14.256  55.215  51.121  0.00  0.00    +0.000 N 
ATOM     16  C   UNL     1     -14.568  57.893  50.631  0.00  0.00    +0.000 A 
ATOM     17  C   UNL     1     -13.108  55.385  50.535  0.00  0.00    +0.000 C 
ATOM     18  C   UNL     1     -13.306  57.785  50.071  0.00  0.00    +0.000 A 
ATOM     19  C   UNL     1     -15.291  59.088  50.598  0.00  0.00    +0.000 A 
ATOM     20  N   UNL     1     -12.589  56.592  50.119  0.00  0.00    +0.000 N 
ATOM     21  C   UNL     1     -12.724  58.932  49.521  0.00  0.00    +0.000 A 
ATOM     22  C   UNL     1     -14.714  60.214  50.014  0.00  0.00    +0.000 A 
ATOM     23  C   UNL     1     -13.428  60.139  49.486  0.00  0.00    +0.000 A 
ATOM     24  H   UNL     1     -14.521  54.312  51.410  0.00  0.00    +0.000 HD
ATOM     25  H   UNL     1     -11.647  56.612  49.835  0.00  0.00    +0.000 HD
ENDBRANCH   1  17
BRANCH   3  26
ATOM     26  O   UNL     1     -11.814  53.839  52.634  0.00  0.00    +0.000 OA
ATOM     27  H   UNL     1     -12.596  53.631  53.106  0.00  0.00    +0.000 HD
ENDBRANCH   3  26
BRANCH   5  28
ATOM     28  C   UNL     1     -11.203  52.070  47.260  0.00  0.00    +0.000 C 
BRANCH  28  29
ATOM     29  C   UNL     1      -9.834  52.428  46.655  0.00  0.00    +0.000 C 
BRANCH  29  30
ATOM     30  C   UNL     1      -9.830  53.702  45.783  0.00  0.00    +0.000 C 
ATOM     31  C   UNL     1      -8.940  53.485  44.554  0.00  0.00    +0.000 C 
BRANCH  30  32
ATOM     32  C   UNL     1      -9.408  54.965  46.539  0.00  0.00    +0.000 C 
ATOM     33  F   UNL     1     -10.392  55.886  46.593  0.00  0.00    +0.000 F 
ATOM     34  F   UNL     1      -9.038  54.709  47.813  0.00  0.00    +0.000 F 
ATOM     35  F   UNL     1      -8.352  55.544  45.923  0.00  0.00    +0.000 F 
ENDBRANCH  30  32
ENDBRANCH  29  30
ENDBRANCH  28  29
ENDBRANCH   5  28
TORSDOF 6
ENDMDL
MODEL 4
REMARK VINA RESULT:      -8.5      3.729      5.447
REMARK  Name = 338535
REMARK  7 active torsions:
REMARK  status: ('A' for Active; 'I' for Inactive)
REMARK    1  A    between atoms: C_6  and  C_10
REMARK    2  A    between atoms: C_14  and  O_18
REMARK    3  A    between atoms: N_17  and  C_21
REMARK    4  A    between atoms: C_21  and  C_24
REMARK    5  A    between atoms: C_24  and  C_27
REMARK    6  A    between atoms: C_27  and  C_28
REMARK    7  A    between atoms: C_27  and  C_29
REMARK                            x       y       z     vdW  Elec       q    Type
REMARK                         _______ _______ _______ _____ _____    ______ ____
ROOT
ATOM      1  C   UNL     1     -10.256  55.191  50.800  0.00  0.00    +0.000 A 
ATOM      2  C   UNL     1      -9.850  55.139  49.361  0.00  0.00    +0.000 A 
ATOM      3  C   UNL     1     -11.476  55.636  51.138  0.00  0.00    +0.000 A 
ATOM      4  O   UNL     1      -8.749  54.658  49.077  0.00  0.00    +0.000 OA
ATOM      5  N   UNL     1     -10.726  55.620  48.397  0.00  0.00    +0.000 N 
ATOM      6  C   UNL     1     -12.428  56.069  50.100  0.00  0.00    +0.000 A 
ATOM      7  C   UNL     1     -12.035  56.079  48.748  0.00  0.00    +0.000 A 
ATOM      8  C   UNL     1     -13.732  56.463  50.449  0.00  0.00    +0.000 A 
ATOM      9  C   UNL     1     -12.961  56.506  47.785  0.00  0.00    +0.000 A 
ATOM     10  C   UNL     1     -14.647  56.853  49.476  0.00  0.00    +0.000 A 
ATOM     11  C   UNL     1     -14.260  56.878  48.144  0.00  0.00    +0.000 A 
ENDROOT
BRANCH   1  17
ATOM     12  S   UNL     1      -7.026  54.806  53.011  0.00  0.00    +0.000 S 
ATOM     13  O   UNL     1      -6.962  55.777  54.086  0.00  0.00    +0.000 OA
ATOM     14  O   UNL     1      -5.838  54.474  52.252  0.00  0.00    +0.000 OA
ATOM     15  N   UNL     1      -8.163  55.305  51.966  0.00  0.00    +0.000 N 
ATOM     16  C   UNL     1      -7.569  53.306  53.743  0.00  0.00    +0.000 A 
ATOM     17  C   UNL     1      -9.295  54.676  51.853  0.00  0.00    +0.000 C 
ATOM     18  C   UNL     1      -8.844  52.859  53.437  0.00  0.00    +0.000 A 
ATOM     19  C   UNL     1      -6.720  52.592  54.594  0.00  0.00    +0.000 A 
ATOM     20  N   UNL     1      -9.685  53.584  52.597  0.00  0.00    +0.000 N 
ATOM     21  C   UNL     1      -9.305  51.695  54.059  0.00  0.00    +0.000 A 
ATOM     22  C   UNL     1      -7.180  51.414  55.178  0.00  0.00    +0.000 A 
ATOM     23  C   UNL     1      -8.475  50.971  54.919  0.00  0.00    +0.000 A 
ATOM     24  H   UNL     1      -7.993  56.098  51.408  0.00  0.00    +0.000 HD
ATOM     25  H   UNL     1     -10.624  53.296  52.530  0.00  0.00    +0.000 HD
ENDBRANCH   1  17
BRANCH   3  26
ATOM     26  O   UNL     1     -11.953  55.707  52.435  0.00  0.00    +0.000 OA
ATOM     27  H   UNL     1     -12.723  56.207  52.625  0.00  0.00    +0.000 HD
ENDBRANCH   3  26
BRANCH   5  28
ATOM     28  C   UNL     1     -10.260  55.625  47.004  0.00  0.00    +0.000 C 
BRANCH  28  29
ATOM     29  C   UNL     1     -10.595  54.307  46.286  0.00  0.00    +0.000 C 
BRANCH  29  30
ATOM     30  C   UNL     1      -9.381  53.594  45.651  0.00  0.00    +0.000 C 
ATOM     31  C   UNL     1      -8.212  54.578  45.522  0.00  0.00    +0.000 C 
BRANCH  30  32
ATOM     32  C   UNL     1      -9.687  52.939  44.301  0.00  0.00    +0.000 C 
ATOM     33  F   UNL     1      -8.839  53.339  43.330  0.00  0.00    +0.000 F 
ATOM     34  F   UNL     1      -9.621  51.591  44.350  0.00  0.00    +0.000 F 
ATOM     35  F   UNL     1     -10.937  53.266  43.899  0.00  0.00    +0.000 F 
ENDBRANCH  30  32
ENDBRANCH  29  30
ENDBRANCH  28  29
ENDBRANCH   5  28
TORSDOF 6
ENDMDL
MODEL 5
REMARK VINA RESULT:      -8.5      3.995      8.164
REMARK  Name = 338535
REMARK  7 active torsions:
REMARK  status: ('A' for Active; 'I' for Inactive)
REMARK    1  A    between atoms: C_6  and  C_10
REMARK    2  A    between atoms: C_14  and  O_18
REMARK    3  A    between atoms: N_17  and  C_21
REMARK    4  A    between atoms: C_21  and  C_24
REMARK    5  A    between atoms: C_24  and  C_27
REMARK    6  A    between atoms: C_27  and  C_28
REMARK    7  A    between atoms: C_27  and  C_29
REMARK                            x       y       z     vdW  Elec       q    Type
REMARK                         _______ _______ _______ _____ _____    ______ ____
ROOT
ATOM      1  C   UNL     1     -10.033  54.396  52.350  0.00  0.00    +0.000 A 
ATOM      2  C   UNL     1      -8.655  54.977  52.288  0.00  0.00    +0.000 A 
ATOM      3  C   UNL     1     -10.259  53.279  53.058  0.00  0.00    +0.000 A 
ATOM      4  O   UNL     1      -8.492  56.043  51.688  0.00  0.00    +0.000 OA
ATOM      5  N   UNL     1      -7.613  54.305  52.912  0.00  0.00    +0.000 N 
ATOM      6  C   UNL     1      -9.161  52.618  53.784  0.00  0.00    +0.000 A 
ATOM      7  C   UNL     1      -7.850  53.122  53.684  0.00  0.00    +0.000 A 
ATOM      8  C   UNL     1      -9.413  51.491  54.586  0.00  0.00    +0.000 A 
ATOM      9  C   UNL     1      -6.824  52.465  54.379  0.00  0.00    +0.000 A 
ATOM     10  C   UNL     1      -8.388  50.871  55.294  0.00  0.00    +0.000 A 
ATOM     11  C   UNL     1      -7.092  51.356  55.187  0.00  0.00    +0.000 A 
ENDROOT
BRANCH   1  17
ATOM     12  S   UNL     1     -12.292  55.905  49.505  0.00  0.00    +0.000 S 
ATOM     13  O   UNL     1     -13.166  54.920  48.900  0.00  0.00    +0.000 OA
ATOM     14  O   UNL     1     -11.614  56.887  48.685  0.00  0.00    +0.000 OA
ATOM     15  N   UNL     1     -11.167  55.105  50.358  0.00  0.00    +0.000 N 
ATOM     16  C   UNL     1     -13.290  56.816  50.626  0.00  0.00    +0.000 A 
ATOM     17  C   UNL     1     -11.168  55.125  51.659  0.00  0.00    +0.000 C 
ATOM     18  C   UNL     1     -13.067  56.642  51.982  0.00  0.00    +0.000 A 
ATOM     19  C   UNL     1     -14.263  57.696  50.144  0.00  0.00    +0.000 A 
ATOM     20  N   UNL     1     -12.102  55.754  52.451  0.00  0.00    +0.000 N 
ATOM     21  C   UNL     1     -13.894  57.321  52.882  0.00  0.00    +0.000 A 
ATOM     22  C   UNL     1     -15.056  58.393  51.053  0.00  0.00    +0.000 A 
ATOM     23  C   UNL     1     -14.879  58.198  52.420  0.00  0.00    +0.000 A 
ATOM     24  H   UNL     1     -10.470  54.597  49.884  0.00  0.00    +0.000 HD
ATOM     25  H   UNL     1     -12.086  55.565  53.417  0.00  0.00    +0.000 HD
ENDBRANCH   1  17
BRANCH   3  26
ATOM     26  O   UNL     1     -11.497  52.674  53.193  0.00  0.00    +0.000 OA
ATOM     27  H   UNL     1     -12.196  52.904  52.614  0.00  0.00    +0.000 HD
ENDBRANCH   3  26
BRANCH   5  28
ATOM     28  C   UNL     1      -6.263  54.863  52.761  0.00  0.00    +0.000 C 
BRANCH  28  29
ATOM     29  C   UNL     1      -5.437  54.082  51.724  0.00  0.00    +0.000 C 
BRANCH  29  30
ATOM     30  C   UNL     1      -6.156  53.839  50.380  0.00  0.00    +0.000 C 
ATOM     31  C   UNL     1      -5.967  52.380  49.948  0.00  0.00    +0.000 C 
BRANCH  30  32
ATOM     32  C   UNL     1      -5.718  54.792  49.265  0.00  0.00    +0.000 C 
ATOM     33  F   UNL     1      -4.401  54.693  48.989  0.00  0.00    +0.000 F 
ATOM     34  F   UNL     1      -6.380  54.577  48.107  0.00  0.00    +0.000 F 
ATOM     35  F   UNL     1      -5.954  56.074  49.629  0.00  0.00    +0.000 F 
ENDBRANCH  30  32
ENDBRANCH  29  30
ENDBRANCH  28  29
ENDBRANCH   5  28
TORSDOF 6
ENDMDL
MODEL 6
REMARK VINA RESULT:      -8.4      5.376      8.587
REMARK  Name = 338535
REMARK  7 active torsions:
REMARK  status: ('A' for Active; 'I' for Inactive)
REMARK    1  A    between atoms: C_6  and  C_10
REMARK    2  A    between atoms: C_14  and  O_18
REMARK    3  A    between atoms: N_17  and  C_21
REMARK    4  A    between atoms: C_21  and  C_24
REMARK    5  A    between atoms: C_24  and  C_27
REMARK    6  A    between atoms: C_27  and  C_28
REMARK    7  A    between atoms: C_27  and  C_29
REMARK                            x       y       z     vdW  Elec       q    Type
REMARK                         _______ _______ _______ _____ _____    ______ ____
ROOT
ATOM      1  C   UNL     1     -12.514  54.173  49.684  0.00  0.00    +0.000 A 
ATOM      2  C   UNL     1     -12.003  54.078  48.281  0.00  0.00    +0.000 A 
ATOM      3  C   UNL     1     -12.234  53.202  50.568  0.00  0.00    +0.000 A 
ATOM      4  O   UNL     1     -12.217  55.020  47.512  0.00  0.00    +0.000 OA
ATOM      5  N   UNL     1     -11.300  52.946  47.895  0.00  0.00    +0.000 N 
ATOM      6  C   UNL     1     -11.417  52.042  50.170  0.00  0.00    +0.000 A 
ATOM      7  C   UNL     1     -10.981  51.915  48.837  0.00  0.00    +0.000 A 
ATOM      8  C   UNL     1     -11.061  51.064  51.115  0.00  0.00    +0.000 A 
ATOM      9  C   UNL     1     -10.214  50.794  48.487  0.00  0.00    +0.000 A 
ATOM     10  C   UNL     1     -10.271  49.975  50.756  0.00  0.00    +0.000 A 
ATOM     11  C   UNL     1      -9.851  49.838  49.441  0.00  0.00    +0.000 A 
ENDROOT
BRANCH   1  17
ATOM     12  S   UNL     1     -15.363  56.441  51.170  0.00  0.00    +0.000 S 
ATOM     13  O   UNL     1     -15.292  56.560  52.612  0.00  0.00    +0.000 OA
ATOM     14  O   UNL     1     -16.642  56.275  50.510  0.00  0.00    +0.000 OA
ATOM     15  N   UNL     1     -14.410  55.203  50.731  0.00  0.00    +0.000 N 
ATOM     16  C   UNL     1     -14.675  57.922  50.525  0.00  0.00    +0.000 A 
ATOM     17  C   UNL     1     -13.291  55.405  50.101  0.00  0.00    +0.000 C 
ATOM     18  C   UNL     1     -13.449  57.842  49.886  0.00  0.00    +0.000 A 
ATOM     19  C   UNL     1     -15.367  59.131  50.650  0.00  0.00    +0.000 A 
ATOM     20  N   UNL     1     -12.764  56.635  49.776  0.00  0.00    +0.000 N 
ATOM     21  C   UNL     1     -12.868  59.026  49.418  0.00  0.00    +0.000 A 
ATOM     22  C   UNL     1     -14.792  60.296  50.148  0.00  0.00    +0.000 A 
ATOM     23  C   UNL     1     -13.539  60.245  49.542  0.00  0.00    +0.000 A 
ATOM     24  H   UNL     1     -14.684  54.282  50.946  0.00  0.00    +0.000 HD
ATOM     25  H   UNL     1     -11.838  56.664  49.442  0.00  0.00    +0.000 HD
ENDBRANCH   1  17
BRANCH   3  26
ATOM     26  O   UNL     1     -12.642  53.203  51.890  0.00  0.00    +0.000 OA
ATOM     27  H   UNL     1     -13.003  52.426  52.269  0.00  0.00    +0.000 HD
ENDBRANCH   3  26
BRANCH   5  28
ATOM     28  C   UNL     1     -10.884  52.854  46.489  0.00  0.00    +0.000 C 
BRANCH  28  29
ATOM     29  C   UNL     1     -12.017  52.323  45.594  0.00  0.00    +0.000 C 
BRANCH  29  30
ATOM     30  C   UNL     1     -11.567  51.305  44.524  0.00  0.00    +0.000 C 
ATOM     31  C   UNL     1     -11.115  50.007  45.202  0.00  0.00    +0.000 C 
BRANCH  30  32
ATOM     32  C   UNL     1     -10.475  51.835  43.591  0.00  0.00    +0.000 C 
ATOM     33  F   UNL     1     -10.483  51.223  42.388  0.00  0.00    +0.000 F 
ATOM     34  F   UNL     1     -10.588  53.161  43.358  0.00  0.00    +0.000 F 
ATOM     35  F   UNL     1      -9.255  51.627  44.137  0.00  0.00    +0.000 F 
ENDBRANCH  30  32
ENDBRANCH  29  30
ENDBRANCH  28  29
ENDBRANCH   5  28
TORSDOF 6
ENDMDL
MODEL 7
REMARK VINA RESULT:      -8.4      3.635      7.136
REMARK  Name = 338535
REMARK  7 active torsions:
REMARK  status: ('A' for Active; 'I' for Inactive)
REMARK    1  A    between atoms: C_6  and  C_10
REMARK    2  A    between atoms: C_14  and  O_18
REMARK    3  A    between atoms: N_17  and  C_21
REMARK    4  A    between atoms: C_21  and  C_24
REMARK    5  A    between atoms: C_24  and  C_27
REMARK    6  A    between atoms: C_27  and  C_28
REMARK    7  A    between atoms: C_27  and  C_29
REMARK                            x       y       z     vdW  Elec       q    Type
REMARK                         _______ _______ _______ _____ _____    ______ ____
ROOT
ATOM      1  C   UNL     1     -11.454  55.895  48.849  0.00  0.00    +0.000 A 
ATOM      2  C   UNL     1     -10.441  55.250  49.742  0.00  0.00    +0.000 A 
ATOM      3  C   UNL     1     -11.518  55.557  47.552  0.00  0.00    +0.000 A 
ATOM      4  O   UNL     1     -10.454  55.529  50.944  0.00  0.00    +0.000 OA
ATOM      5  N   UNL     1      -9.532  54.356  49.193  0.00  0.00    +0.000 N 
ATOM      6  C   UNL     1     -10.600  54.547  46.996  0.00  0.00    +0.000 A 
ATOM      7  C   UNL     1      -9.606  53.978  47.814  0.00  0.00    +0.000 A 
ATOM      8  C   UNL     1     -10.717  54.139  45.656  0.00  0.00    +0.000 A 
ATOM      9  C   UNL     1      -8.741  53.026  47.253  0.00  0.00    +0.000 A 
ATOM     10  C   UNL     1      -9.871  53.169  45.126  0.00  0.00    +0.000 A 
ATOM     11  C   UNL     1      -8.880  52.616  45.923  0.00  0.00    +0.000 A 
ENDROOT
BRANCH   1  17
ATOM     12  S   UNL     1     -13.525  59.187  49.433  0.00  0.00    +0.000 S 
ATOM     13  O   UNL     1     -14.655  59.307  48.534  0.00  0.00    +0.000 OA
ATOM     14  O   UNL     1     -12.707  60.342  49.740  0.00  0.00    +0.000 OA
ATOM     15  N   UNL     1     -12.553  58.027  48.848  0.00  0.00    +0.000 N 
ATOM     16  C   UNL     1     -14.180  58.637  50.967  0.00  0.00    +0.000 A 
ATOM     17  C   UNL     1     -12.439  56.879  49.448  0.00  0.00    +0.000 C 
ATOM     18  C   UNL     1     -13.891  57.344  51.368  0.00  0.00    +0.000 A 
ATOM     19  C   UNL     1     -14.955  59.499  51.748  0.00  0.00    +0.000 A 
ATOM     20  N   UNL     1     -13.127  56.491  50.576  0.00  0.00    +0.000 N 
ATOM     21  C   UNL     1     -14.454  56.879  52.561  0.00  0.00    +0.000 A 
ATOM     22  C   UNL     1     -15.481  59.033  52.952  0.00  0.00    +0.000 A 
ATOM     23  C   UNL     1     -15.239  57.721  53.352  0.00  0.00    +0.000 A 
ATOM     24  H   UNL     1     -12.039  58.196  48.025  0.00  0.00    +0.000 HD
ATOM     25  H   UNL     1     -13.074  55.544  50.842  0.00  0.00    +0.000 HD
ENDBRANCH   1  17
BRANCH   3  26
ATOM     26  O   UNL     1     -12.427  56.081  46.649  0.00  0.00    +0.000 OA
ATOM     27  H   UNL     1     -13.342  56.073  46.849  0.00  0.00    +0.000 HD
ENDBRANCH   3  26
BRANCH   5  28
ATOM     28  C   UNL     1      -8.503  53.805  50.085  0.00  0.00    +0.000 C 
BRANCH  28  29
ATOM     29  C   UNL     1      -7.282  54.735  50.188  0.00  0.00    +0.000 C 
BRANCH  29  30
ATOM     30  C   UNL     1      -6.615  54.769  51.580  0.00  0.00    +0.000 C 
ATOM     31  C   UNL     1      -6.663  53.373  52.211  0.00  0.00    +0.000 C 
BRANCH  30  32
ATOM     32  C   UNL     1      -7.218  55.810  52.527  0.00  0.00    +0.000 C 
ATOM     33  F   UNL     1      -8.351  55.375  53.117  0.00  0.00    +0.000 F 
ATOM     34  F   UNL     1      -6.370  56.166  53.516  0.00  0.00    +0.000 F 
ATOM     35  F   UNL     1      -7.531  56.935  51.843  0.00  0.00    +0.000 F 
ENDBRANCH  30  32
ENDBRANCH  29  30
ENDBRANCH  28  29
ENDBRANCH   5  28
TORSDOF 6
ENDMDL
MODEL 8
REMARK VINA RESULT:      -8.0      4.373      7.702
REMARK  Name = 338535
REMARK  7 active torsions:
REMARK  status: ('A' for Active; 'I' for Inactive)
REMARK    1  A    between atoms: C_6  and  C_10
REMARK    2  A    between atoms: C_14  and  O_18
REMARK    3  A    between atoms: N_17  and  C_21
REMARK    4  A    between atoms: C_21  and  C_24
REMARK    5  A    between atoms: C_24  and  C_27
REMARK    6  A    between atoms: C_27  and  C_28
REMARK    7  A    between atoms: C_27  and  C_29
REMARK                            x       y       z     vdW  Elec       q    Type
REMARK                         _______ _______ _______ _____ _____    ______ ____
ROOT
ATOM      1  C   UNL     1     -11.522  54.135  50.171  0.00  0.00    +0.000 A 
ATOM      2  C   UNL     1     -10.309  54.312  49.313  0.00  0.00    +0.000 A 
ATOM      3  C   UNL     1     -11.679  53.011  50.888  0.00  0.00    +0.000 A 
ATOM      4  O   UNL     1     -10.158  55.385  48.722  0.00  0.00    +0.000 OA
ATOM      5  N   UNL     1      -9.394  53.273  49.219  0.00  0.00    +0.000 N 
ATOM      6  C   UNL     1     -10.660  51.948  50.843  0.00  0.00    +0.000 A 
ATOM      7  C   UNL     1      -9.545  52.079  49.994  0.00  0.00    +0.000 A 
ATOM      8  C   UNL     1     -10.789  50.805  51.652  0.00  0.00    +0.000 A 
ATOM      9  C   UNL     1      -8.598  51.045  49.967  0.00  0.00    +0.000 A 
ATOM     10  C   UNL     1      -9.822  49.803  51.636  0.00  0.00    +0.000 A 
ATOM     11  C   UNL     1      -8.728  49.922  50.790  0.00  0.00    +0.000 A 
ENDROOT
BRANCH   1  17
ATOM     12  S   UNL     1     -13.993  57.005  49.109  0.00  0.00    +0.000 S 
ATOM     13  O   UNL     1     -15.284  56.505  48.682  0.00  0.00    +0.000 OA
ATOM     14  O   UNL     1     -13.352  58.088  48.392  0.00  0.00    +0.000 OA
ATOM     15  N   UNL     1     -12.966  55.749  49.139  0.00  0.00    +0.000 N 
ATOM     16  C   UNL     1     -14.213  57.578  50.754  0.00  0.00    +0.000 A 
ATOM     17  C   UNL     1     -12.527  55.266  50.264  0.00  0.00    +0.000 C 
ATOM     18  C   UNL     1     -13.619  56.856  51.776  0.00  0.00    +0.000 A 
ATOM     19  C   UNL     1     -14.956  58.736  51.001  0.00  0.00    +0.000 A 
ATOM     20  N   UNL     1     -12.890  55.699  51.520  0.00  0.00    +0.000 N 
ATOM     21  C   UNL     1     -13.836  57.273  53.094  0.00  0.00    +0.000 A 
ATOM     22  C   UNL     1     -15.134  59.159  52.316  0.00  0.00    +0.000 A 
ATOM     23  C   UNL     1     -14.583  58.423  53.362  0.00  0.00    +0.000 A 
ATOM     24  H   UNL     1     -12.669  55.346  48.291  0.00  0.00    +0.000 HD
ATOM     25  H   UNL     1     -12.614  55.151  52.291  0.00  0.00    +0.000 HD
ENDBRANCH   1  17
BRANCH   3  26
ATOM     26  O   UNL     1     -12.753  52.758  51.723  0.00  0.00    +0.000 OA
ATOM     27  H   UNL     1     -12.605  52.433  52.590  0.00  0.00    +0.000 HD
ENDBRANCH   3  26
BRANCH   5  28
ATOM     28  C   UNL     1      -8.258  53.454  48.304  0.00  0.00    +0.000 C 
BRANCH  28  29
ATOM     29  C   UNL     1      -8.455  52.677  46.991  0.00  0.00    +0.000 C 
BRANCH  29  30
ATOM     30  C   UNL     1      -8.867  53.548  45.785  0.00  0.00    +0.000 C 
ATOM     31  C   UNL     1      -8.235  54.939  45.911  0.00  0.00    +0.000 C 
BRANCH  30  32
ATOM     32  C   UNL     1     -10.382  53.659  45.593  0.00  0.00    +0.000 C 
ATOM     33  F   UNL     1     -10.764  53.379  44.330  0.00  0.00    +0.000 F 
ATOM     34  F   UNL     1     -11.071  52.830  46.406  0.00  0.00    +0.000 F 
ATOM     35  F   UNL     1     -10.794  54.920  45.865  0.00  0.00    +0.000 F 
ENDBRANCH  30  32
ENDBRANCH  29  30
ENDBRANCH  28  29
ENDBRANCH   5  28
TORSDOF 6
ENDMDL
MODEL 9
REMARK VINA RESULT:      -8.0      2.112      2.806
REMARK  Name = 338535
REMARK  7 active torsions:
REMARK  status: ('A' for Active; 'I' for Inactive)
REMARK    1  A    between atoms: C_6  and  C_10
REMARK    2  A    between atoms: C_14  and  O_18
REMARK    3  A    between atoms: N_17  and  C_21
REMARK    4  A    between atoms: C_21  and  C_24
REMARK    5  A    between atoms: C_24  and  C_27
REMARK    6  A    between atoms: C_27  and  C_28
REMARK    7  A    between atoms: C_27  and  C_29
REMARK                            x       y       z     vdW  Elec       q    Type
REMARK                         _______ _______ _______ _____ _____    ______ ____
ROOT
ATOM      1  C   UNL     1      -9.339  54.209  49.591  0.00  0.00    +0.000 A 
ATOM      2  C   UNL     1     -10.368  55.292  49.516  0.00  0.00    +0.000 A 
ATOM      3  C   UNL     1      -9.158  53.381  48.550  0.00  0.00    +0.000 A 
ATOM      4  O   UNL     1     -10.462  56.081  50.461  0.00  0.00    +0.000 OA
ATOM      5  N   UNL     1     -11.172  55.380  48.388  0.00  0.00    +0.000 N 
ATOM      6  C   UNL     1      -9.961  53.534  47.324  0.00  0.00    +0.000 A 
ATOM      7  C   UNL     1     -10.972  54.512  47.266  0.00  0.00    +0.000 A 
ATOM      8  C   UNL     1      -9.719  52.717  46.207  0.00  0.00    +0.000 A 
ATOM      9  C   UNL     1     -11.727  54.626  46.089  0.00  0.00    +0.000 A 
ATOM     10  C   UNL     1     -10.457  52.866  45.036  0.00  0.00    +0.000 A 
ATOM     11  C   UNL     1     -11.464  53.819  44.979  0.00  0.00    +0.000 A 
ENDROOT
BRANCH   1  17
ATOM     12  S   UNL     1      -8.256  54.077  53.370  0.00  0.00    +0.000 S 
ATOM     13  O   UNL     1      -8.465  52.774  53.969  0.00  0.00    +0.000 OA
ATOM     14  O   UNL     1      -8.573  55.283  54.107  0.00  0.00    +0.000 OA
ATOM     15  N   UNL     1      -9.083  54.114  51.974  0.00  0.00    +0.000 N 
ATOM     16  C   UNL     1      -6.543  54.174  52.999  0.00  0.00    +0.000 A 
ATOM     17  C   UNL     1      -8.469  54.107  50.828  0.00  0.00    +0.000 C 
ATOM     18  C   UNL     1      -6.166  54.148  51.667  0.00  0.00    +0.000 A 
ATOM     19  C   UNL     1      -5.606  54.287  54.031  0.00  0.00    +0.000 A 
ATOM     20  N   UNL     1      -7.106  54.024  50.648  0.00  0.00    +0.000 N 
ATOM     21  C   UNL     1      -4.800  54.168  51.365  0.00  0.00    +0.000 A 
ATOM     22  C   UNL     1      -4.251  54.342  53.713  0.00  0.00    +0.000 A 
ATOM     23  C   UNL     1      -3.848  54.272  52.382  0.00  0.00    +0.000 A 
ATOM     24  H   UNL     1     -10.067  54.143  51.995  0.00  0.00    +0.000 HD
ATOM     25  H   UNL     1      -6.773  53.867  49.735  0.00  0.00    +0.000 HD
ENDBRANCH   1  17
BRANCH   3  26
ATOM     26  O   UNL     1      -8.222  52.362  48.512  0.00  0.00    +0.000 OA
ATOM     27  H   UNL     1      -7.969  51.989  47.690  0.00  0.00    +0.000 HD
ENDBRANCH   3  26
BRANCH   5  28
ATOM     28  C   UNL     1     -12.224  56.405  48.386  0.00  0.00    +0.000 C 
BRANCH  28  29
ATOM     29  C   UNL     1     -13.501  55.912  49.088  0.00  0.00    +0.000 C 
BRANCH  29  30
ATOM     30  C   UNL     1     -14.446  57.035  49.567  0.00  0.00    +0.000 C 
ATOM     31  C   UNL     1     -13.665  58.348  49.696  0.00  0.00    +0.000 C 
BRANCH  30  32
ATOM     32  C   UNL     1     -15.177  56.711  50.873  0.00  0.00    +0.000 C 
ATOM     33  F   UNL     1     -14.425  55.971  51.714  0.00  0.00    +0.000 F 
ATOM     34  F   UNL     1     -15.549  57.819  51.549  0.00  0.00    +0.000 F 
ATOM     35  F   UNL     1     -16.300  56.003  50.613  0.00  0.00    +0.000 F 
ENDBRANCH  30  32
ENDBRANCH  29  30
ENDBRANCH  28  29
ENDBRANCH   5  28
TORSDOF 6
ENDMDL
