MODEL 1
REMARK VINA RESULT:      -8.6      0.000      0.000
REMARK  Name = 338063
REMARK  8 active torsions:
REMARK  status: ('A' for Active; 'I' for Inactive)
REMARK    1  A    between atoms: C_6  and  C_10
REMARK    2  A    between atoms: C_14  and  O_18
REMARK    3  A    between atoms: N_17  and  C_21
REMARK    4  A    between atoms: C_21  and  C_24
REMARK    5  A    between atoms: C_24  and  C_27
REMARK    6  A    between atoms: C_25  and  C_28
REMARK    7  A    between atoms: C_27  and  C_29
REMARK    8  A    between atoms: C_27  and  C_30
REMARK                            x       y       z     vdW  Elec       q    Type
REMARK                         _______ _______ _______ _____ _____    ______ ____
ROOT
ATOM      1  C   UNL     1     -10.150  54.416  52.197  0.00  0.00    +0.000 A 
ATOM      2  C   UNL     1      -8.769  54.987  52.124  0.00  0.00    +0.000 A 
ATOM      3  C   UNL     1     -10.381  53.310  52.926  0.00  0.00    +0.000 A 
ATOM      4  O   UNL     1      -8.616  56.064  51.540  0.00  0.00    +0.000 OA
ATOM      5  N   UNL     1      -7.724  54.296  52.727  0.00  0.00    +0.000 N 
ATOM      6  C   UNL     1      -9.288  52.662  53.664  0.00  0.00    +0.000 A 
ATOM      7  C   UNL     1      -7.982  53.175  53.577  0.00  0.00    +0.000 A 
ATOM      8  C   UNL     1      -9.539  51.542  54.479  0.00  0.00    +0.000 A 
ATOM      9  C   UNL     1      -6.976  52.582  54.355  0.00  0.00    +0.000 A 
ATOM     10  C   UNL     1      -8.520  50.932  55.215  0.00  0.00    +0.000 A 
ATOM     11  C   UNL     1      -7.236  51.467  55.152  0.00  0.00    +0.000 A 
ATOM     12  C   UNL     1      -8.796  49.749  56.092  0.00  0.00    +0.000 C 
ENDROOT
BRANCH   1  18
ATOM     13  S   UNL     1     -12.376  55.964  49.350  0.00  0.00    +0.000 S 
ATOM     14  O   UNL     1     -13.223  54.986  48.698  0.00  0.00    +0.000 OA
ATOM     15  O   UNL     1     -11.695  56.979  48.570  0.00  0.00    +0.000 OA
ATOM     16  N   UNL     1     -11.256  55.157  50.202  0.00  0.00    +0.000 N 
ATOM     17  C   UNL     1     -13.408  56.834  50.472  0.00  0.00    +0.000 A 
ATOM     18  C   UNL     1     -11.288  55.138  51.502  0.00  0.00    +0.000 C 
ATOM     19  C   UNL     1     -13.217  56.618  51.827  0.00  0.00    +0.000 A 
ATOM     20  C   UNL     1     -14.376  57.721  49.991  0.00  0.00    +0.000 A 
ATOM     21  N   UNL     1     -12.253  55.727  52.291  0.00  0.00    +0.000 N 
ATOM     22  C   UNL     1     -14.076  57.262  52.725  0.00  0.00    +0.000 A 
ATOM     23  C   UNL     1     -15.200  58.384  50.898  0.00  0.00    +0.000 A 
ATOM     24  C   UNL     1     -15.056  58.146  52.265  0.00  0.00    +0.000 A 
ATOM     25  H   UNL     1     -10.541  54.674  49.728  0.00  0.00    +0.000 HD
ATOM     26  H   UNL     1     -12.261  55.502  53.250  0.00  0.00    +0.000 HD
ENDBRANCH   1  18
BRANCH   3  27
ATOM     27  O   UNL     1     -11.627  52.727  53.087  0.00  0.00    +0.000 OA
ATOM     28  H   UNL     1     -12.170  52.568  52.340  0.00  0.00    +0.000 HD
ENDBRANCH   3  27
BRANCH   5  29
ATOM     29  C   UNL     1      -6.368  54.837  52.573  0.00  0.00    +0.000 C 
BRANCH  29  30
ATOM     30  C   UNL     1      -5.502  54.189  51.478  0.00  0.00    +0.000 C 
BRANCH  30  31
ATOM     31  C   UNL     1      -4.121  53.662  51.907  0.00  0.00    +0.000 C 
ATOM     32  C   UNL     1      -3.847  53.881  53.392  0.00  0.00    +0.000 C 
ATOM     33  C   UNL     1      -4.044  52.164  51.582  0.00  0.00    +0.000 C 
ENDBRANCH  30  31
ENDBRANCH  29  30
ENDBRANCH   5  29
TORSDOF 5
ENDMDL
MODEL 2
REMARK VINA RESULT:      -8.3      3.657      5.413
REMARK  Name = 338063
REMARK  8 active torsions:
REMARK  status: ('A' for Active; 'I' for Inactive)
REMARK    1  A    between atoms: C_6  and  C_10
REMARK    2  A    between atoms: C_14  and  O_18
REMARK    3  A    between atoms: N_17  and  C_21
REMARK    4  A    between atoms: C_21  and  C_24
REMARK    5  A    between atoms: C_24  and  C_27
REMARK    6  A    between atoms: C_25  and  C_28
REMARK    7  A    between atoms: C_27  and  C_29
REMARK    8  A    between atoms: C_27  and  C_30
REMARK                            x       y       z     vdW  Elec       q    Type
REMARK                         _______ _______ _______ _____ _____    ______ ____
ROOT
ATOM      1  C   UNL     1     -11.373  56.127  48.739  0.00  0.00    +0.000 A 
ATOM      2  C   UNL     1     -10.189  55.681  49.540  0.00  0.00    +0.000 A 
ATOM      3  C   UNL     1     -11.545  55.671  47.486  0.00  0.00    +0.000 A 
ATOM      4  O   UNL     1     -10.124  56.029  50.723  0.00  0.00    +0.000 OA
ATOM      5  N   UNL     1      -9.227  54.884  48.929  0.00  0.00    +0.000 N 
ATOM      6  C   UNL     1     -10.585  54.726  46.898  0.00  0.00    +0.000 A 
ATOM      7  C   UNL     1      -9.455  54.325  47.633  0.00  0.00    +0.000 A 
ATOM      8  C   UNL     1     -10.798  54.198  45.610  0.00  0.00    +0.000 A 
ATOM      9  C   UNL     1      -8.601  53.363  47.074  0.00  0.00    +0.000 A 
ATOM     10  C   UNL     1      -9.915  53.274  45.046  0.00  0.00    +0.000 A 
ATOM     11  C   UNL     1      -8.817  52.854  45.793  0.00  0.00    +0.000 A 
ATOM     12  C   UNL     1     -10.153  52.704  43.681  0.00  0.00    +0.000 C 
ENDROOT
BRANCH   1  18
ATOM     13  S   UNL     1     -13.599  59.282  49.472  0.00  0.00    +0.000 S 
ATOM     14  O   UNL     1     -14.750  59.379  48.597  0.00  0.00    +0.000 OA
ATOM     15  O   UNL     1     -12.834  60.467  49.807  0.00  0.00    +0.000 OA
ATOM     16  N   UNL     1     -12.580  58.197  48.828  0.00  0.00    +0.000 N 
ATOM     17  C   UNL     1     -14.197  58.650  50.997  0.00  0.00    +0.000 A 
ATOM     18  C   UNL     1     -12.403  57.034  49.383  0.00  0.00    +0.000 C 
ATOM     19  C   UNL     1     -13.843  57.356  51.343  0.00  0.00    +0.000 A 
ATOM     20  C   UNL     1     -14.990  59.450  51.825  0.00  0.00    +0.000 A 
ATOM     21  N   UNL     1     -13.057  56.570  50.505  0.00  0.00    +0.000 N 
ATOM     22  C   UNL     1     -14.365  56.825  52.528  0.00  0.00    +0.000 A 
ATOM     23  C   UNL     1     -15.472  58.920  53.020  0.00  0.00    +0.000 A 
ATOM     24  C   UNL     1     -15.167  57.604  53.366  0.00  0.00    +0.000 A 
ATOM     25  H   UNL     1     -12.090  58.421  48.005  0.00  0.00    +0.000 HD
ATOM     26  H   UNL     1     -12.962  55.615  50.728  0.00  0.00    +0.000 HD
ENDBRANCH   1  18
BRANCH   3  27
ATOM     27  O   UNL     1     -12.623  55.993  46.680  0.00  0.00    +0.000 OA
ATOM     28  H   UNL     1     -12.521  56.616  45.987  0.00  0.00    +0.000 HD
ENDBRANCH   3  27
BRANCH   5  29
ATOM     29  C   UNL     1      -8.038  54.527  49.712  0.00  0.00    +0.000 C 
BRANCH  29  30
ATOM     30  C   UNL     1      -6.868  55.525  49.659  0.00  0.00    +0.000 C 
BRANCH  30  31
ATOM     31  C   UNL     1      -5.449  54.932  49.694  0.00  0.00    +0.000 C 
ATOM     32  C   UNL     1      -5.153  54.202  51.001  0.00  0.00    +0.000 C 
ATOM     33  C   UNL     1      -5.290  53.964  48.514  0.00  0.00    +0.000 C 
ENDBRANCH  30  31
ENDBRANCH  29  30
ENDBRANCH   5  29
TORSDOF 5
ENDMDL
MODEL 3
REMARK VINA RESULT:      -8.1      3.751      4.769
REMARK  Name = 338063
REMARK  8 active torsions:
REMARK  status: ('A' for Active; 'I' for Inactive)
REMARK    1  A    between atoms: C_6  and  C_10
REMARK    2  A    between atoms: C_14  and  O_18
REMARK    3  A    between atoms: N_17  and  C_21
REMARK    4  A    between atoms: C_21  and  C_24
REMARK    5  A    between atoms: C_24  and  C_27
REMARK    6  A    between atoms: C_25  and  C_28
REMARK    7  A    between atoms: C_27  and  C_29
REMARK    8  A    between atoms: C_27  and  C_30
REMARK                            x       y       z     vdW  Elec       q    Type
REMARK                         _______ _______ _______ _____ _____    ______ ____
ROOT
ATOM      1  C   UNL     1     -12.364  54.293  49.849  0.00  0.00    +0.000 A 
ATOM      2  C   UNL     1     -11.895  54.146  48.435  0.00  0.00    +0.000 A 
ATOM      3  C   UNL     1     -11.990  53.395  50.777  0.00  0.00    +0.000 A 
ATOM      4  O   UNL     1     -12.164  55.049  47.637  0.00  0.00    +0.000 OA
ATOM      5  N   UNL     1     -11.165  53.016  48.085  0.00  0.00    +0.000 N 
ATOM      6  C   UNL     1     -11.111  52.274  50.417  0.00  0.00    +0.000 A 
ATOM      7  C   UNL     1     -10.689  52.112  49.086  0.00  0.00    +0.000 A 
ATOM      8  C   UNL     1     -10.665  51.370  51.400  0.00  0.00    +0.000 A 
ATOM      9  C   UNL     1      -9.788  51.079  48.790  0.00  0.00    +0.000 A 
ATOM     10  C   UNL     1      -9.803  50.316  51.085  0.00  0.00    +0.000 A 
ATOM     11  C   UNL     1      -9.361  50.183  49.771  0.00  0.00    +0.000 A 
ATOM     12  C   UNL     1      -9.320  49.366  52.137  0.00  0.00    +0.000 C 
ENDROOT
BRANCH   1  18
ATOM     13  S   UNL     1     -15.346  56.462  51.213  0.00  0.00    +0.000 S 
ATOM     14  O   UNL     1     -15.325  56.610  52.655  0.00  0.00    +0.000 OA
ATOM     15  O   UNL     1     -16.598  56.229  50.520  0.00  0.00    +0.000 OA
ATOM     16  N   UNL     1     -14.330  55.257  50.827  0.00  0.00    +0.000 N 
ATOM     17  C   UNL     1     -14.707  57.961  50.559  0.00  0.00    +0.000 A 
ATOM     18  C   UNL     1     -13.201  55.499  50.229  0.00  0.00    +0.000 C 
ATOM     19  C   UNL     1     -13.456  57.925  49.965  0.00  0.00    +0.000 A 
ATOM     20  C   UNL     1     -15.460  59.136  50.633  0.00  0.00    +0.000 A 
ATOM     21  N   UNL     1     -12.714  56.748  49.904  0.00  0.00    +0.000 N 
ATOM     22  C   UNL     1     -12.914  59.127  49.495  0.00  0.00    +0.000 A 
ATOM     23  C   UNL     1     -14.924  60.318  50.127  0.00  0.00    +0.000 A 
ATOM     24  C   UNL     1     -13.647  60.315  49.568  0.00  0.00    +0.000 A 
ATOM     25  H   UNL     1     -14.572  54.330  51.049  0.00  0.00    +0.000 HD
ATOM     26  H   UNL     1     -11.777  56.811  49.608  0.00  0.00    +0.000 HD
ENDBRANCH   1  18
BRANCH   3  27
ATOM     27  O   UNL     1     -12.339  53.464  52.115  0.00  0.00    +0.000 OA
ATOM     28  H   UNL     1     -12.128  52.756  52.691  0.00  0.00    +0.000 HD
ENDBRANCH   3  27
BRANCH   5  29
ATOM     29  C   UNL     1     -10.784  52.857  46.675  0.00  0.00    +0.000 C 
BRANCH  29  30
ATOM     30  C   UNL     1      -9.325  53.199  46.326  0.00  0.00    +0.000 C 
BRANCH  30  31
ATOM     31  C   UNL     1      -8.973  54.691  46.201  0.00  0.00    +0.000 C 
ATOM     32  C   UNL     1      -8.554  55.307  47.534  0.00  0.00    +0.000 C 
ATOM     33  C   UNL     1      -7.836  54.845  45.182  0.00  0.00    +0.000 C 
ENDBRANCH  30  31
ENDBRANCH  29  30
ENDBRANCH   5  29
TORSDOF 5
ENDMDL
MODEL 4
REMARK VINA RESULT:      -8.1      4.430      6.344
REMARK  Name = 338063
REMARK  8 active torsions:
REMARK  status: ('A' for Active; 'I' for Inactive)
REMARK    1  A    between atoms: C_6  and  C_10
REMARK    2  A    between atoms: C_14  and  O_18
REMARK    3  A    between atoms: N_17  and  C_21
REMARK    4  A    between atoms: C_21  and  C_24
REMARK    5  A    between atoms: C_24  and  C_27
REMARK    6  A    between atoms: C_25  and  C_28
REMARK    7  A    between atoms: C_27  and  C_29
REMARK    8  A    between atoms: C_27  and  C_30
REMARK                            x       y       z     vdW  Elec       q    Type
REMARK                         _______ _______ _______ _____ _____    ______ ____
ROOT
ATOM      1  C   UNL     1     -11.445  56.281  48.530  0.00  0.00    +0.000 A 
ATOM      2  C   UNL     1     -11.810  55.691  47.203  0.00  0.00    +0.000 A 
ATOM      3  C   UNL     1     -10.215  56.083  49.036  0.00  0.00    +0.000 A 
ATOM      4  O   UNL     1     -12.906  55.986  46.719  0.00  0.00    +0.000 OA
ATOM      5  N   UNL     1     -10.899  54.855  46.567  0.00  0.00    +0.000 N 
ATOM      6  C   UNL     1      -9.218  55.302  48.290  0.00  0.00    +0.000 A 
ATOM      7  C   UNL     1      -9.563  54.721  47.057  0.00  0.00    +0.000 A 
ATOM      8  C   UNL     1      -7.910  55.149  48.787  0.00  0.00    +0.000 A 
ATOM      9  C   UNL     1      -8.567  54.048  46.333  0.00  0.00    +0.000 A 
ATOM     10  C   UNL     1      -6.939  54.438  48.078  0.00  0.00    +0.000 A 
ATOM     11  C   UNL     1      -7.276  53.895  46.841  0.00  0.00    +0.000 A 
ATOM     12  C   UNL     1      -5.544  54.290  48.606  0.00  0.00    +0.000 C 
ENDROOT
BRANCH   1  18
ATOM     13  S   UNL     1     -13.630  59.402  49.498  0.00  0.00    +0.000 S 
ATOM     14  O   UNL     1     -14.805  59.551  48.664  0.00  0.00    +0.000 OA
ATOM     15  O   UNL     1     -12.847  60.563  49.875  0.00  0.00    +0.000 OA
ATOM     16  N   UNL     1     -12.637  58.348  48.767  0.00  0.00    +0.000 N 
ATOM     17  C   UNL     1     -14.186  58.690  51.004  0.00  0.00    +0.000 A 
ATOM     18  C   UNL     1     -12.450  57.156  49.253  0.00  0.00    +0.000 C 
ATOM     19  C   UNL     1     -13.831  57.377  51.268  0.00  0.00    +0.000 A 
ATOM     20  C   UNL     1     -14.951  59.447  51.897  0.00  0.00    +0.000 A 
ATOM     21  N   UNL     1     -13.074  56.634  50.366  0.00  0.00    +0.000 N 
ATOM     22  C   UNL     1     -14.321  56.784  52.437  0.00  0.00    +0.000 A 
ATOM     23  C   UNL     1     -15.401  58.855  53.075  0.00  0.00    +0.000 A 
ATOM     24  C   UNL     1     -15.094  57.520  53.340  0.00  0.00    +0.000 A 
ATOM     25  H   UNL     1     -12.169  58.615  47.944  0.00  0.00    +0.000 HD
ATOM     26  H   UNL     1     -12.978  55.669  50.534  0.00  0.00    +0.000 HD
ENDBRANCH   1  18
BRANCH   3  27
ATOM     27  O   UNL     1      -9.769  56.616  50.233  0.00  0.00    +0.000 OA
ATOM     28  H   UNL     1     -10.196  57.366  50.600  0.00  0.00    +0.000 HD
ENDBRANCH   3  27
BRANCH   5  29
ATOM     29  C   UNL     1     -11.313  54.227  45.306  0.00  0.00    +0.000 C 
BRANCH  29  30
ATOM     30  C   UNL     1     -11.799  52.770  45.404  0.00  0.00    +0.000 C 
BRANCH  30  31
ATOM     31  C   UNL     1     -11.113  51.747  44.483  0.00  0.00    +0.000 C 
ATOM     32  C   UNL     1     -10.210  52.407  43.445  0.00  0.00    +0.000 C 
ATOM     33  C   UNL     1     -10.287  50.783  45.347  0.00  0.00    +0.000 C 
ENDBRANCH  30  31
ENDBRANCH  29  30
ENDBRANCH   5  29
TORSDOF 5
ENDMDL
MODEL 5
REMARK VINA RESULT:      -8.1      3.857      5.552
REMARK  Name = 338063
REMARK  8 active torsions:
REMARK  status: ('A' for Active; 'I' for Inactive)
REMARK    1  A    between atoms: C_6  and  C_10
REMARK    2  A    between atoms: C_14  and  O_18
REMARK    3  A    between atoms: N_17  and  C_21
REMARK    4  A    between atoms: C_21  and  C_24
REMARK    5  A    between atoms: C_24  and  C_27
REMARK    6  A    between atoms: C_25  and  C_28
REMARK    7  A    between atoms: C_27  and  C_29
REMARK    8  A    between atoms: C_27  and  C_30
REMARK                            x       y       z     vdW  Elec       q    Type
REMARK                         _______ _______ _______ _____ _____    ______ ____
ROOT
ATOM      1  C   UNL     1     -10.897  55.520  48.720  0.00  0.00    +0.000 A 
ATOM      2  C   UNL     1      -9.620  55.077  49.363  0.00  0.00    +0.000 A 
ATOM      3  C   UNL     1     -11.163  55.175  47.449  0.00  0.00    +0.000 A 
ATOM      4  O   UNL     1      -9.461  55.316  50.564  0.00  0.00    +0.000 OA
ATOM      5  N   UNL     1      -8.679  54.404  48.592  0.00  0.00    +0.000 N 
ATOM      6  C   UNL     1     -10.214  54.352  46.685  0.00  0.00    +0.000 A 
ATOM      7  C   UNL     1      -8.999  53.956  47.272  0.00  0.00    +0.000 A 
ATOM      8  C   UNL     1     -10.520  53.935  45.376  0.00  0.00    +0.000 A 
ATOM      9  C   UNL     1      -8.151  53.107  46.546  0.00  0.00    +0.000 A 
ATOM     10  C   UNL     1      -9.646  53.126  44.646  0.00  0.00    +0.000 A 
ATOM     11  C   UNL     1      -8.460  52.708  45.246  0.00  0.00    +0.000 A 
ATOM     12  C   UNL     1      -9.982  52.672  43.258  0.00  0.00    +0.000 C 
ENDROOT
BRANCH   1  18
ATOM     13  S   UNL     1     -13.577  56.374  51.467  0.00  0.00    +0.000 S 
ATOM     14  O   UNL     1     -12.988  56.697  52.751  0.00  0.00    +0.000 OA
ATOM     15  O   UNL     1     -14.766  55.548  51.394  0.00  0.00    +0.000 OA
ATOM     16  N   UNL     1     -12.428  55.675  50.560  0.00  0.00    +0.000 N 
ATOM     17  C   UNL     1     -14.012  57.907  50.730  0.00  0.00    +0.000 A 
ATOM     18  C   UNL     1     -11.909  56.296  49.542  0.00  0.00    +0.000 C 
ATOM     19  C   UNL     1     -13.275  58.331  49.636  0.00  0.00    +0.000 A 
ATOM     20  C   UNL     1     -15.080  58.652  51.240  0.00  0.00    +0.000 A 
ATOM     21  N   UNL     1     -12.210  57.581  49.144  0.00  0.00    +0.000 N 
ATOM     22  C   UNL     1     -13.577  59.580  49.082  0.00  0.00    +0.000 A 
ATOM     23  C   UNL     1     -15.394  59.876  50.654  0.00  0.00    +0.000 A 
ATOM     24  C   UNL     1     -14.636  60.344  49.581  0.00  0.00    +0.000 A 
ATOM     25  H   UNL     1     -12.119  54.768  50.784  0.00  0.00    +0.000 HD
ATOM     26  H   UNL     1     -11.632  57.998  48.465  0.00  0.00    +0.000 HD
ENDBRANCH   1  18
BRANCH   3  27
ATOM     27  O   UNL     1     -12.330  55.502  46.778  0.00  0.00    +0.000 OA
ATOM     28  H   UNL     1     -12.462  56.376  46.467  0.00  0.00    +0.000 HD
ENDBRANCH   3  27
BRANCH   5  29
ATOM     29  C   UNL     1      -7.403  54.051  49.226  0.00  0.00    +0.000 C 
BRANCH  29  30
ATOM     30  C   UNL     1      -6.293  55.115  49.151  0.00  0.00    +0.000 C 
BRANCH  30  31
ATOM     31  C   UNL     1      -4.845  54.619  49.304  0.00  0.00    +0.000 C 
ATOM     32  C   UNL     1      -4.565  54.053  50.693  0.00  0.00    +0.000 C 
ATOM     33  C   UNL     1      -4.580  53.541  48.243  0.00  0.00    +0.000 C 
ENDBRANCH  30  31
ENDBRANCH  29  30
ENDBRANCH   5  29
TORSDOF 5
ENDMDL
MODEL 6
REMARK VINA RESULT:      -7.9      4.257      6.258
REMARK  Name = 338063
REMARK  8 active torsions:
REMARK  status: ('A' for Active; 'I' for Inactive)
REMARK    1  A    between atoms: C_6  and  C_10
REMARK    2  A    between atoms: C_14  and  O_18
REMARK    3  A    between atoms: N_17  and  C_21
REMARK    4  A    between atoms: C_21  and  C_24
REMARK    5  A    between atoms: C_24  and  C_27
REMARK    6  A    between atoms: C_25  and  C_28
REMARK    7  A    between atoms: C_27  and  C_29
REMARK    8  A    between atoms: C_27  and  C_30
REMARK                            x       y       z     vdW  Elec       q    Type
REMARK                         _______ _______ _______ _____ _____    ______ ____
ROOT
ATOM      1  C   UNL     1     -10.780  55.673  48.719  0.00  0.00    +0.000 A 
ATOM      2  C   UNL     1     -11.120  55.234  47.329  0.00  0.00    +0.000 A 
ATOM      3  C   UNL     1      -9.539  55.483  49.198  0.00  0.00    +0.000 A 
ATOM      4  O   UNL     1     -12.234  55.525  46.883  0.00  0.00    +0.000 OA
ATOM      5  N   UNL     1     -10.167  54.536  46.594  0.00  0.00    +0.000 N 
ATOM      6  C   UNL     1      -8.504  54.859  48.362  0.00  0.00    +0.000 A 
ATOM      7  C   UNL     1      -8.823  54.417  47.065  0.00  0.00    +0.000 A 
ATOM      8  C   UNL     1      -7.187  54.718  48.838  0.00  0.00    +0.000 A 
ATOM      9  C   UNL     1      -7.795  53.897  46.264  0.00  0.00    +0.000 A 
ATOM     10  C   UNL     1      -6.181  54.157  48.046  0.00  0.00    +0.000 A 
ATOM     11  C   UNL     1      -6.495  53.754  46.751  0.00  0.00    +0.000 A 
ATOM     12  C   UNL     1      -4.778  54.023  48.553  0.00  0.00    +0.000 C 
ENDROOT
BRANCH   1  18
ATOM     13  S   UNL     1     -13.524  56.369  51.447  0.00  0.00    +0.000 S 
ATOM     14  O   UNL     1     -12.964  56.680  52.747  0.00  0.00    +0.000 OA
ATOM     15  O   UNL     1     -14.683  55.505  51.337  0.00  0.00    +0.000 OA
ATOM     16  N   UNL     1     -12.340  55.731  50.540  0.00  0.00    +0.000 N 
ATOM     17  C   UNL     1     -14.002  57.904  50.741  0.00  0.00    +0.000 A 
ATOM     18  C   UNL     1     -11.829  56.394  49.544  0.00  0.00    +0.000 C 
ATOM     19  C   UNL     1     -13.265  58.378  49.668  0.00  0.00    +0.000 A 
ATOM     20  C   UNL     1     -15.101  58.599  51.253  0.00  0.00    +0.000 A 
ATOM     21  N   UNL     1     -12.168  57.677  49.173  0.00  0.00    +0.000 N 
ATOM     22  C   UNL     1     -13.602  59.630  49.139  0.00  0.00    +0.000 A 
ATOM     23  C   UNL     1     -15.449  59.826  50.692  0.00  0.00    +0.000 A 
ATOM     24  C   UNL     1     -14.693  60.346  49.641  0.00  0.00    +0.000 A 
ATOM     25  H   UNL     1     -12.003  54.830  50.746  0.00  0.00    +0.000 HD
ATOM     26  H   UNL     1     -11.596  58.130  48.512  0.00  0.00    +0.000 HD
ENDBRANCH   1  18
BRANCH   3  27
ATOM     27  O   UNL     1      -9.116  55.887  50.453  0.00  0.00    +0.000 OA
ATOM     28  H   UNL     1      -9.416  55.434  51.217  0.00  0.00    +0.000 HD
ENDBRANCH   3  27
BRANCH   5  29
ATOM     29  C   UNL     1     -10.553  54.048  45.264  0.00  0.00    +0.000 C 
BRANCH  29  30
ATOM     30  C   UNL     1     -11.161  52.635  45.213  0.00  0.00    +0.000 C 
BRANCH  30  31
ATOM     31  C   UNL     1     -10.540  51.650  44.207  0.00  0.00    +0.000 C 
ATOM     32  C   UNL     1      -9.939  52.353  42.994  0.00  0.00    +0.000 C 
ATOM     33  C   UNL     1      -9.455  50.835  44.923  0.00  0.00    +0.000 C 
ENDBRANCH  30  31
ENDBRANCH  29  30
ENDBRANCH   5  29
TORSDOF 5
ENDMDL
MODEL 7
REMARK VINA RESULT:      -7.8      3.681      5.762
REMARK  Name = 338063
REMARK  8 active torsions:
REMARK  status: ('A' for Active; 'I' for Inactive)
REMARK    1  A    between atoms: C_6  and  C_10
REMARK    2  A    between atoms: C_14  and  O_18
REMARK    3  A    between atoms: N_17  and  C_21
REMARK    4  A    between atoms: C_21  and  C_24
REMARK    5  A    between atoms: C_24  and  C_27
REMARK    6  A    between atoms: C_25  and  C_28
REMARK    7  A    between atoms: C_27  and  C_29
REMARK    8  A    between atoms: C_27  and  C_30
REMARK                            x       y       z     vdW  Elec       q    Type
REMARK                         _______ _______ _______ _____ _____    ______ ____
ROOT
ATOM      1  C   UNL     1     -11.490  56.049  48.780  0.00  0.00    +0.000 A 
ATOM      2  C   UNL     1     -10.386  55.488  49.620  0.00  0.00    +0.000 A 
ATOM      3  C   UNL     1     -11.631  55.652  47.504  0.00  0.00    +0.000 A 
ATOM      4  O   UNL     1     -10.355  55.789  50.817  0.00  0.00    +0.000 OA
ATOM      5  N   UNL     1      -9.455  54.643  49.026  0.00  0.00    +0.000 N 
ATOM      6  C   UNL     1     -10.715  54.659  46.927  0.00  0.00    +0.000 A 
ATOM      7  C   UNL     1      -9.657  54.148  47.699  0.00  0.00    +0.000 A 
ATOM      8  C   UNL     1     -10.900  54.193  45.611  0.00  0.00    +0.000 A 
ATOM      9  C   UNL     1      -8.848  53.145  47.146  0.00  0.00    +0.000 A 
ATOM     10  C   UNL     1     -10.059  53.225  45.055  0.00  0.00    +0.000 A 
ATOM     11  C   UNL     1      -9.035  52.698  45.837  0.00  0.00    +0.000 A 
ATOM     12  C   UNL     1     -10.269  52.723  43.659  0.00  0.00    +0.000 C 
ENDROOT
BRANCH   1  18
ATOM     13  S   UNL     1     -13.577  59.310  49.466  0.00  0.00    +0.000 S 
ATOM     14  O   UNL     1     -14.718  59.448  48.583  0.00  0.00    +0.000 OA
ATOM     15  O   UNL     1     -12.761  60.463  49.793  0.00  0.00    +0.000 OA
ATOM     16  N   UNL     1     -12.605  58.172  48.840  0.00  0.00    +0.000 N 
ATOM     17  C   UNL     1     -14.211  58.721  50.994  0.00  0.00    +0.000 A 
ATOM     18  C   UNL     1     -12.483  57.009  49.409  0.00  0.00    +0.000 C 
ATOM     19  C   UNL     1     -13.918  57.417  51.355  0.00  0.00    +0.000 A 
ATOM     20  C   UNL     1     -14.973  59.565  51.808  0.00  0.00    +0.000 A 
ATOM     21  N   UNL     1     -13.163  56.586  50.531  0.00  0.00    +0.000 N 
ATOM     22  C   UNL     1     -14.470  56.922  52.543  0.00  0.00    +0.000 A 
ATOM     23  C   UNL     1     -15.485  59.070  53.006  0.00  0.00    +0.000 A 
ATOM     24  C   UNL     1     -15.241  57.746  53.368  0.00  0.00    +0.000 A 
ATOM     25  H   UNL     1     -12.099  58.365  48.018  0.00  0.00    +0.000 HD
ATOM     26  H   UNL     1     -13.112  55.632  50.765  0.00  0.00    +0.000 HD
ENDBRANCH   1  18
BRANCH   3  27
ATOM     27  O   UNL     1     -12.641  56.083  46.659  0.00  0.00    +0.000 OA
ATOM     28  H   UNL     1     -12.564  55.954  45.734  0.00  0.00    +0.000 HD
ENDBRANCH   3  27
BRANCH   5  29
ATOM     29  C   UNL     1      -8.337  54.169  49.851  0.00  0.00    +0.000 C 
BRANCH  29  30
ATOM     30  C   UNL     1      -8.566  52.848  50.606  0.00  0.00    +0.000 C 
BRANCH  30  31
ATOM     31  C   UNL     1     -10.001  52.294  50.615  0.00  0.00    +0.000 C 
ATOM     32  C   UNL     1     -10.091  50.896  50.009  0.00  0.00    +0.000 C 
ATOM     33  C   UNL     1     -10.508  52.263  52.063  0.00  0.00    +0.000 C 
ENDBRANCH  30  31
ENDBRANCH  29  30
ENDBRANCH   5  29
TORSDOF 5
ENDMDL
MODEL 8
REMARK VINA RESULT:      -7.8      3.163      7.528
REMARK  Name = 338063
REMARK  8 active torsions:
REMARK  status: ('A' for Active; 'I' for Inactive)
REMARK    1  A    between atoms: C_6  and  C_10
REMARK    2  A    between atoms: C_14  and  O_18
REMARK    3  A    between atoms: N_17  and  C_21
REMARK    4  A    between atoms: C_21  and  C_24
REMARK    5  A    between atoms: C_24  and  C_27
REMARK    6  A    between atoms: C_25  and  C_28
REMARK    7  A    between atoms: C_27  and  C_29
REMARK    8  A    between atoms: C_27  and  C_30
REMARK                            x       y       z     vdW  Elec       q    Type
REMARK                         _______ _______ _______ _____ _____    ______ ____
ROOT
ATOM      1  C   UNL     1     -10.125  55.170  51.043  0.00  0.00    +0.000 A 
ATOM      2  C   UNL     1      -9.850  55.171  49.572  0.00  0.00    +0.000 A 
ATOM      3  C   UNL     1     -11.339  55.523  51.499  0.00  0.00    +0.000 A 
ATOM      4  O   UNL     1      -8.763  54.734  49.183  0.00  0.00    +0.000 OA
ATOM      5  N   UNL     1     -10.830  55.646  48.707  0.00  0.00    +0.000 N 
ATOM      6  C   UNL     1     -12.407  55.899  50.563  0.00  0.00    +0.000 A 
ATOM      7  C   UNL     1     -12.149  55.932  49.181  0.00  0.00    +0.000 A 
ATOM      8  C   UNL     1     -13.697  56.206  51.034  0.00  0.00    +0.000 A 
ATOM      9  C   UNL     1     -13.209  56.219  48.309  0.00  0.00    +0.000 A 
ATOM     10  C   UNL     1     -14.735  56.535  50.158  0.00  0.00    +0.000 A 
ATOM     11  C   UNL     1     -14.482  56.531  48.788  0.00  0.00    +0.000 A 
ATOM     12  C   UNL     1     -16.110  56.847  50.663  0.00  0.00    +0.000 C 
ENDROOT
BRANCH   1  18
ATOM     13  S   UNL     1      -6.651  54.860  52.857  0.00  0.00    +0.000 S 
ATOM     14  O   UNL     1      -6.451  55.871  53.875  0.00  0.00    +0.000 OA
ATOM     15  O   UNL     1      -5.564  54.490  51.970  0.00  0.00    +0.000 OA
ATOM     16  N   UNL     1      -7.906  55.324  51.940  0.00  0.00    +0.000 N 
ATOM     17  C   UNL     1      -7.096  53.391  53.708  0.00  0.00    +0.000 A 
ATOM     18  C   UNL     1      -9.044  54.698  51.997  0.00  0.00    +0.000 C 
ATOM     19  C   UNL     1      -8.401  52.944  53.587  0.00  0.00    +0.000 A 
ATOM     20  C   UNL     1      -6.143  52.703  54.466  0.00  0.00    +0.000 A 
ATOM     21  N   UNL     1      -9.341  53.643  52.834  0.00  0.00    +0.000 N 
ATOM     22  C   UNL     1      -8.779  51.807  54.311  0.00  0.00    +0.000 A 
ATOM     23  C   UNL     1      -6.524  51.551  55.151  0.00  0.00    +0.000 A 
ATOM     24  C   UNL     1      -7.844  51.110  55.081  0.00  0.00    +0.000 A 
ATOM     25  H   UNL     1      -7.805  56.091  51.332  0.00  0.00    +0.000 HD
ATOM     26  H   UNL     1     -10.283  53.365  52.904  0.00  0.00    +0.000 HD
ENDBRANCH   1  18
BRANCH   3  27
ATOM     27  O   UNL     1     -11.703  55.517  52.835  0.00  0.00    +0.000 OA
ATOM     28  H   UNL     1     -12.608  55.562  53.074  0.00  0.00    +0.000 HD
ENDBRANCH   3  27
BRANCH   5  29
ATOM     29  C   UNL     1     -10.506  55.711  47.276  0.00  0.00    +0.000 C 
BRANCH  29  30
ATOM     30  C   UNL     1     -10.853  54.462  46.447  0.00  0.00    +0.000 C 
BRANCH  30  31
ATOM     31  C   UNL     1      -9.674  53.682  45.841  0.00  0.00    +0.000 C 
ATOM     32  C   UNL     1     -10.006  53.086  44.476  0.00  0.00    +0.000 C 
ATOM     33  C   UNL     1      -8.472  54.628  45.713  0.00  0.00    +0.000 C 
ENDBRANCH  30  31
ENDBRANCH  29  30
ENDBRANCH   5  29
TORSDOF 5
ENDMDL
MODEL 9
REMARK VINA RESULT:      -7.7      4.533      7.146
REMARK  Name = 338063
REMARK  8 active torsions:
REMARK  status: ('A' for Active; 'I' for Inactive)
REMARK    1  A    between atoms: C_6  and  C_10
REMARK    2  A    between atoms: C_14  and  O_18
REMARK    3  A    between atoms: N_17  and  C_21
REMARK    4  A    between atoms: C_21  and  C_24
REMARK    5  A    between atoms: C_24  and  C_27
REMARK    6  A    between atoms: C_25  and  C_28
REMARK    7  A    between atoms: C_27  and  C_29
REMARK    8  A    between atoms: C_27  and  C_30
REMARK                            x       y       z     vdW  Elec       q    Type
REMARK                         _______ _______ _______ _____ _____    ______ ____
ROOT
ATOM      1  C   UNL     1     -10.758  54.479  48.634  0.00  0.00    +0.000 A 
ATOM      2  C   UNL     1     -10.297  54.021  49.982  0.00  0.00    +0.000 A 
ATOM      3  C   UNL     1     -11.751  55.379  48.535  0.00  0.00    +0.000 A 
ATOM      4  O   UNL     1      -9.310  53.281  50.038  0.00  0.00    +0.000 OA
ATOM      5  N   UNL     1     -10.984  54.456  51.110  0.00  0.00    +0.000 N 
ATOM      6  C   UNL     1     -12.383  55.929  49.743  0.00  0.00    +0.000 A 
ATOM      7  C   UNL     1     -11.976  55.482  51.012  0.00  0.00    +0.000 A 
ATOM      8  C   UNL     1     -13.378  56.920  49.643  0.00  0.00    +0.000 A 
ATOM      9  C   UNL     1     -12.542  56.082  52.146  0.00  0.00    +0.000 A 
ATOM     10  C   UNL     1     -13.967  57.478  50.780  0.00  0.00    +0.000 A 
ATOM     11  C   UNL     1     -13.535  57.057  52.035  0.00  0.00    +0.000 A 
ATOM     12  C   UNL     1     -15.016  58.542  50.668  0.00  0.00    +0.000 C 
ENDROOT
BRANCH   1  18
ATOM     13  S   UNL     1      -7.996  53.992  45.879  0.00  0.00    +0.000 S 
ATOM     14  O   UNL     1      -6.946  53.081  46.285  0.00  0.00    +0.000 OA
ATOM     15  O   UNL     1      -7.672  55.210  45.161  0.00  0.00    +0.000 OA
ATOM     16  N   UNL     1      -8.832  54.404  47.206  0.00  0.00    +0.000 N 
ATOM     17  C   UNL     1      -9.053  53.077  44.817  0.00  0.00    +0.000 A 
ATOM     18  C   UNL     1     -10.044  53.972  47.396  0.00  0.00    +0.000 C 
ATOM     19  C   UNL     1     -10.314  52.748  45.287  0.00  0.00    +0.000 A 
ATOM     20  C   UNL     1      -8.620  52.715  43.538  0.00  0.00    +0.000 A 
ATOM     21  N   UNL     1     -10.730  53.111  46.565  0.00  0.00    +0.000 N 
ATOM     22  C   UNL     1     -11.140  51.967  44.470  0.00  0.00    +0.000 A 
ATOM     23  C   UNL     1      -9.467  51.969  42.720  0.00  0.00    +0.000 A 
ATOM     24  C   UNL     1     -10.722  51.587  43.191  0.00  0.00    +0.000 A 
ATOM     25  H   UNL     1      -8.416  54.990  47.879  0.00  0.00    +0.000 HD
ATOM     26  H   UNL     1     -11.572  52.725  46.900  0.00  0.00    +0.000 HD
ENDBRANCH   1  18
BRANCH   3  27
ATOM     27  O   UNL     1     -12.222  55.894  47.338  0.00  0.00    +0.000 OA
ATOM     28  H   UNL     1     -12.796  55.382  46.802  0.00  0.00    +0.000 HD
ENDBRANCH   3  27
BRANCH   5  29
ATOM     29  C   UNL     1     -10.561  53.930  52.413  0.00  0.00    +0.000 C 
BRANCH  29  30
ATOM     30  C   UNL     1      -9.692  54.866  53.272  0.00  0.00    +0.000 C 
BRANCH  30  31
ATOM     31  C   UNL     1      -8.185  54.887  52.965  0.00  0.00    +0.000 C 
ATOM     32  C   UNL     1      -7.816  55.927  51.911  0.00  0.00    +0.000 C 
ATOM     33  C   UNL     1      -7.422  55.176  54.266  0.00  0.00    +0.000 C 
ENDBRANCH  30  31
ENDBRANCH  29  30
ENDBRANCH   5  29
TORSDOF 5
ENDMDL
