MODEL 1
REMARK VINA RESULT:      -9.1      0.000      0.000
REMARK  Name = 338125
REMARK  3 active torsions:
REMARK  status: ('A' for Active; 'I' for Inactive)
REMARK    1  A    between atoms: C_6  and  C_10
REMARK    2  A    between atoms: C_14  and  O_18
REMARK    3  A    between atoms: N_17  and  C_21
REMARK                            x       y       z     vdW  Elec       q    Type
REMARK                         _______ _______ _______ _____ _____    ______ ____
ROOT
ATOM      1  C   UNL     1     -12.485  54.239  49.718  0.00  0.00    +0.000 A 
ATOM      2  C   UNL     1     -11.919  54.161  48.338  0.00  0.00    +0.000 A 
ATOM      3  C   UNL     1     -12.240  53.253  50.600  0.00  0.00    +0.000 A 
ATOM      4  O   UNL     1     -12.105  55.127  47.587  0.00  0.00    +0.000 OA
ATOM      5  N   UNL     1     -11.244  53.003  47.968  0.00  0.00    +0.000 N 
ATOM      6  C   UNL     1     -11.401  52.104  50.231  0.00  0.00    +0.000 A 
ATOM      7  C   UNL     1     -10.922  51.980  48.912  0.00  0.00    +0.000 A 
ATOM      8  C   UNL     1     -11.048  51.142  51.197  0.00  0.00    +0.000 A 
ATOM      9  C   UNL     1     -10.068  50.903  48.606  0.00  0.00    +0.000 A 
ATOM     10  C   UNL     1     -10.205  50.083  50.876  0.00  0.00    +0.000 A 
ATOM     11  C   UNL     1      -9.711  49.966  49.582  0.00  0.00    +0.000 A 
ENDROOT
BRANCH   1  17
ATOM     12  S   UNL     1     -15.375  56.461  51.186  0.00  0.00    +0.000 S 
ATOM     13  O   UNL     1     -15.284  56.578  52.627  0.00  0.00    +0.000 OA
ATOM     14  O   UNL     1     -16.664  56.280  50.546  0.00  0.00    +0.000 OA
ATOM     15  N   UNL     1     -14.414  55.242  50.727  0.00  0.00    +0.000 N 
ATOM     16  C   UNL     1     -14.719  57.954  50.535  0.00  0.00    +0.000 A 
ATOM     17  C   UNL     1     -13.286  55.464  50.119  0.00  0.00    +0.000 C 
ATOM     18  C   UNL     1     -13.486  57.899  49.907  0.00  0.00    +0.000 A 
ATOM     19  C   UNL     1     -15.441  59.144  50.653  0.00  0.00    +0.000 A 
ATOM     20  N   UNL     1     -12.775  56.706  49.808  0.00  0.00    +0.000 N 
ATOM     21  C   UNL     1     -12.928  59.095  49.445  0.00  0.00    +0.000 A 
ATOM     22  C   UNL     1     -14.891  60.322  50.157  0.00  0.00    +0.000 A 
ATOM     23  C   UNL     1     -13.629  60.299  49.560  0.00  0.00    +0.000 A 
ATOM     24  H   UNL     1     -14.688  54.315  50.913  0.00  0.00    +0.000 HD
ATOM     25  H   UNL     1     -11.843  56.752  49.494  0.00  0.00    +0.000 HD
ENDBRANCH   1  17
BRANCH   5  26
ATOM     26  C   UNL     1     -10.809  52.883  46.619  0.00  0.00    +0.000 A 
ATOM     27  C   UNL     1      -9.579  53.431  46.231  0.00  0.00    +0.000 A 
ATOM     28  C   UNL     1     -11.656  52.342  45.641  0.00  0.00    +0.000 A 
ATOM     29  C   UNL     1      -9.193  53.429  44.891  0.00  0.00    +0.000 A 
ATOM     30  C   UNL     1     -11.273  52.355  44.297  0.00  0.00    +0.000 A 
ATOM     31  C   UNL     1     -10.044  52.898  43.924  0.00  0.00    +0.000 A 
ENDBRANCH   5  26
BRANCH   3  32
ATOM     32  O   UNL     1     -12.699  53.242  51.906  0.00  0.00    +0.000 OA
ATOM     33  H   UNL     1     -13.054  54.023  52.285  0.00  0.00    +0.000 HD
ENDBRANCH   3  32
TORSDOF 3
ENDMDL
MODEL 2
REMARK VINA RESULT:      -9.0      4.371      5.812
REMARK  Name = 338125
REMARK  3 active torsions:
REMARK  status: ('A' for Active; 'I' for Inactive)
REMARK    1  A    between atoms: C_6  and  C_10
REMARK    2  A    between atoms: C_14  and  O_18
REMARK    3  A    between atoms: N_17  and  C_21
REMARK                            x       y       z     vdW  Elec       q    Type
REMARK                         _______ _______ _______ _____ _____    ______ ____
ROOT
ATOM      1  C   UNL     1     -10.289  54.126  52.454  0.00  0.00    +0.000 A 
ATOM      2  C   UNL     1      -8.884  54.627  52.544  0.00  0.00    +0.000 A 
ATOM      3  C   UNL     1     -10.639  52.992  53.087  0.00  0.00    +0.000 A 
ATOM      4  O   UNL     1      -8.628  55.713  52.010  0.00  0.00    +0.000 OA
ATOM      5  N   UNL     1      -7.944  53.835  53.193  0.00  0.00    +0.000 N 
ATOM      6  C   UNL     1      -9.659  52.246  53.890  0.00  0.00    +0.000 A 
ATOM      7  C   UNL     1      -8.315  52.665  53.924  0.00  0.00    +0.000 A 
ATOM      8  C   UNL     1     -10.065  51.131  54.650  0.00  0.00    +0.000 A 
ATOM      9  C   UNL     1      -7.415  51.968  54.753  0.00  0.00    +0.000 A 
ATOM     10  C   UNL     1      -9.161  50.453  55.461  0.00  0.00    +0.000 A 
ATOM     11  C   UNL     1      -7.838  50.874  55.516  0.00  0.00    +0.000 A 
ENDROOT
BRANCH   1  17
ATOM     12  S   UNL     1     -12.191  55.824  49.462  0.00  0.00    +0.000 S 
ATOM     13  O   UNL     1     -13.050  54.885  48.771  0.00  0.00    +0.000 OA
ATOM     14  O   UNL     1     -11.406  56.788  48.715  0.00  0.00    +0.000 OA
ATOM     15  N   UNL     1     -11.177  54.972  50.394  0.00  0.00    +0.000 N 
ATOM     16  C   UNL     1     -13.241  56.764  50.508  0.00  0.00    +0.000 A 
ATOM     17  C   UNL     1     -11.315  54.942  51.687  0.00  0.00    +0.000 C 
ATOM     18  C   UNL     1     -13.164  56.540  51.873  0.00  0.00    +0.000 A 
ATOM     19  C   UNL     1     -14.111  57.709  49.957  0.00  0.00    +0.000 A 
ATOM     20  N   UNL     1     -12.299  55.587  52.404  0.00  0.00    +0.000 N 
ATOM     21  C   UNL     1     -14.044  57.239  52.706  0.00  0.00    +0.000 A 
ATOM     22  C   UNL     1     -14.956  58.423  50.800  0.00  0.00    +0.000 A 
ATOM     23  C   UNL     1     -14.930  58.181  52.176  0.00  0.00    +0.000 A 
ATOM     24  H   UNL     1     -10.444  54.467  49.975  0.00  0.00    +0.000 HD
ATOM     25  H   UNL     1     -12.396  55.360  53.357  0.00  0.00    +0.000 HD
ENDBRANCH   1  17
BRANCH   5  26
ATOM     26  C   UNL     1      -6.585  54.257  53.176  0.00  0.00    +0.000 A 
ATOM     27  C   UNL     1      -5.734  53.823  52.151  0.00  0.00    +0.000 A 
ATOM     28  C   UNL     1      -6.052  54.991  54.244  0.00  0.00    +0.000 A 
ATOM     29  C   UNL     1      -4.373  54.127  52.183  0.00  0.00    +0.000 A 
ATOM     30  C   UNL     1      -4.685  55.281  54.282  0.00  0.00    +0.000 A 
ATOM     31  C   UNL     1      -3.848  54.849  53.252  0.00  0.00    +0.000 A 
ENDBRANCH   5  26
BRANCH   3  32
ATOM     32  O   UNL     1     -11.915  52.458  53.084  0.00  0.00    +0.000 OA
ATOM     33  H   UNL     1     -12.442  52.508  52.310  0.00  0.00    +0.000 HD
ENDBRANCH   3  32
TORSDOF 3
ENDMDL
MODEL 3
REMARK VINA RESULT:      -8.8      2.982      4.634
REMARK  Name = 338125
REMARK  3 active torsions:
REMARK  status: ('A' for Active; 'I' for Inactive)
REMARK    1  A    between atoms: C_6  and  C_10
REMARK    2  A    between atoms: C_14  and  O_18
REMARK    3  A    between atoms: N_17  and  C_21
REMARK                            x       y       z     vdW  Elec       q    Type
REMARK                         _______ _______ _______ _____ _____    ______ ____
ROOT
ATOM      1  C   UNL     1     -11.498  56.142  48.654  0.00  0.00    +0.000 A 
ATOM      2  C   UNL     1     -10.289  55.673  49.396  0.00  0.00    +0.000 A 
ATOM      3  C   UNL     1     -11.732  55.701  47.405  0.00  0.00    +0.000 A 
ATOM      4  O   UNL     1     -10.157  56.043  50.569  0.00  0.00    +0.000 OA
ATOM      5  N   UNL     1      -9.373  54.873  48.721  0.00  0.00    +0.000 N 
ATOM      6  C   UNL     1     -10.822  54.741  46.763  0.00  0.00    +0.000 A 
ATOM      7  C   UNL     1      -9.641  54.346  47.420  0.00  0.00    +0.000 A 
ATOM      8  C   UNL     1     -11.142  54.191  45.506  0.00  0.00    +0.000 A 
ATOM      9  C   UNL     1      -8.824  53.377  46.808  0.00  0.00    +0.000 A 
ATOM     10  C   UNL     1     -10.321  53.236  44.915  0.00  0.00    +0.000 A 
ATOM     11  C   UNL     1      -9.165  52.826  45.568  0.00  0.00    +0.000 A 
ENDROOT
BRANCH   1  17
ATOM     12  S   UNL     1     -13.596  59.357  49.494  0.00  0.00    +0.000 S 
ATOM     13  O   UNL     1     -14.752  59.485  48.631  0.00  0.00    +0.000 OA
ATOM     14  O   UNL     1     -12.807  60.524  49.838  0.00  0.00    +0.000 OA
ATOM     15  N   UNL     1     -12.605  58.261  48.834  0.00  0.00    +0.000 N 
ATOM     16  C   UNL     1     -14.194  58.715  51.014  0.00  0.00    +0.000 A 
ATOM     17  C   UNL     1     -12.474  57.074  49.350  0.00  0.00    +0.000 C 
ATOM     18  C   UNL     1     -13.883  57.402  51.329  0.00  0.00    +0.000 A 
ATOM     19  C   UNL     1     -14.951  59.524  51.866  0.00  0.00    +0.000 A 
ATOM     20  N   UNL     1     -13.136  56.606  50.464  0.00  0.00    +0.000 N 
ATOM     21  C   UNL     1     -14.410  56.864  52.507  0.00  0.00    +0.000 A 
ATOM     22  C   UNL     1     -15.440  58.987  53.052  0.00  0.00    +0.000 A 
ATOM     23  C   UNL     1     -15.178  57.653  53.370  0.00  0.00    +0.000 A 
ATOM     24  H   UNL     1     -12.093  58.496  48.027  0.00  0.00    +0.000 HD
ATOM     25  H   UNL     1     -13.078  55.644  50.663  0.00  0.00    +0.000 HD
ENDBRANCH   1  17
BRANCH   5  26
ATOM     26  C   UNL     1      -8.167  54.524  49.391  0.00  0.00    +0.000 A 
ATOM     27  C   UNL     1      -8.160  53.463  50.306  0.00  0.00    +0.000 A 
ATOM     28  C   UNL     1      -7.018  55.314  49.249  0.00  0.00    +0.000 A 
ATOM     29  C   UNL     1      -7.020  53.186  51.060  0.00  0.00    +0.000 A 
ATOM     30  C   UNL     1      -5.882  55.043  50.017  0.00  0.00    +0.000 A 
ATOM     31  C   UNL     1      -5.884  53.980  50.920  0.00  0.00    +0.000 A 
ENDBRANCH   5  26
BRANCH   3  32
ATOM     32  O   UNL     1     -12.831  56.059  46.644  0.00  0.00    +0.000 OA
ATOM     33  H   UNL     1     -12.757  56.113  45.711  0.00  0.00    +0.000 HD
ENDBRANCH   3  32
TORSDOF 3
ENDMDL
MODEL 4
REMARK VINA RESULT:      -8.5      3.841      7.803
REMARK  Name = 338125
REMARK  3 active torsions:
REMARK  status: ('A' for Active; 'I' for Inactive)
REMARK    1  A    between atoms: C_6  and  C_10
REMARK    2  A    between atoms: C_14  and  O_18
REMARK    3  A    between atoms: N_17  and  C_21
REMARK                            x       y       z     vdW  Elec       q    Type
REMARK                         _______ _______ _______ _____ _____    ______ ____
ROOT
ATOM      1  C   UNL     1     -10.736  54.756  50.711  0.00  0.00    +0.000 A 
ATOM      2  C   UNL     1     -11.705  55.630  51.438  0.00  0.00    +0.000 A 
ATOM      3  C   UNL     1     -10.774  54.682  49.369  0.00  0.00    +0.000 A 
ATOM      4  O   UNL     1     -11.582  55.726  52.665  0.00  0.00    +0.000 OA
ATOM      5  N   UNL     1     -12.703  56.259  50.701  0.00  0.00    +0.000 N 
ATOM      6  C   UNL     1     -11.748  55.470  48.599  0.00  0.00    +0.000 A 
ATOM      7  C   UNL     1     -12.715  56.241  49.272  0.00  0.00    +0.000 A 
ATOM      8  C   UNL     1     -11.698  55.482  47.192  0.00  0.00    +0.000 A 
ATOM      9  C   UNL     1     -13.591  57.035  48.508  0.00  0.00    +0.000 A 
ATOM     10  C   UNL     1     -12.573  56.271  46.453  0.00  0.00    +0.000 A 
ATOM     11  C   UNL     1     -13.517  57.051  47.111  0.00  0.00    +0.000 A 
ENDROOT
BRANCH   1  17
ATOM     12  S   UNL     1      -8.679  51.785  52.258  0.00  0.00    +0.000 S 
ATOM     13  O   UNL     1      -7.745  51.225  51.303  0.00  0.00    +0.000 OA
ATOM     14  O   UNL     1      -9.437  50.916  53.138  0.00  0.00    +0.000 OA
ATOM     15  N   UNL     1      -9.730  52.705  51.439  0.00  0.00    +0.000 N 
ATOM     16  C   UNL     1      -7.735  52.828  53.307  0.00  0.00    +0.000 A 
ATOM     17  C   UNL     1      -9.684  54.003  51.506  0.00  0.00    +0.000 C 
ATOM     18  C   UNL     1      -7.901  54.197  53.178  0.00  0.00    +0.000 A 
ATOM     19  C   UNL     1      -6.857  52.270  54.240  0.00  0.00    +0.000 A 
ATOM     20  N   UNL     1      -8.773  54.736  52.236  0.00  0.00    +0.000 N 
ATOM     21  C   UNL     1      -7.104  55.034  53.965  0.00  0.00    +0.000 A 
ATOM     22  C   UNL     1      -6.096  53.114  55.042  0.00  0.00    +0.000 A 
ATOM     23  C   UNL     1      -6.212  54.498  54.899  0.00  0.00    +0.000 A 
ATOM     24  H   UNL     1     -10.416  52.274  50.880  0.00  0.00    +0.000 HD
ATOM     25  H   UNL     1      -8.736  55.708  52.081  0.00  0.00    +0.000 HD
ENDBRANCH   1  17
BRANCH   5  26
ATOM     26  C   UNL     1     -13.695  56.995  51.407  0.00  0.00    +0.000 A 
ATOM     27  C   UNL     1     -13.505  58.362  51.653  0.00  0.00    +0.000 A 
ATOM     28  C   UNL     1     -14.796  56.343  51.979  0.00  0.00    +0.000 A 
ATOM     29  C   UNL     1     -14.406  59.071  52.447  0.00  0.00    +0.000 A 
ATOM     30  C   UNL     1     -15.689  57.053  52.787  0.00  0.00    +0.000 A 
ATOM     31  C   UNL     1     -15.493  58.415  53.019  0.00  0.00    +0.000 A 
ENDBRANCH   5  26
BRANCH   3  32
ATOM     32  O   UNL     1      -9.908  53.920  48.604  0.00  0.00    +0.000 OA
ATOM     33  H   UNL     1      -9.379  54.329  47.948  0.00  0.00    +0.000 HD
ENDBRANCH   3  32
TORSDOF 3
ENDMDL
MODEL 5
REMARK VINA RESULT:      -8.5      2.686      4.220
REMARK  Name = 338125
REMARK  3 active torsions:
REMARK  status: ('A' for Active; 'I' for Inactive)
REMARK    1  A    between atoms: C_6  and  C_10
REMARK    2  A    between atoms: C_14  and  O_18
REMARK    3  A    between atoms: N_17  and  C_21
REMARK                            x       y       z     vdW  Elec       q    Type
REMARK                         _______ _______ _______ _____ _____    ______ ____
ROOT
ATOM      1  C   UNL     1     -10.817  55.534  48.685  0.00  0.00    +0.000 A 
ATOM      2  C   UNL     1      -9.539  55.122  49.340  0.00  0.00    +0.000 A 
ATOM      3  C   UNL     1     -11.053  55.200  47.404  0.00  0.00    +0.000 A 
ATOM      4  O   UNL     1      -9.400  55.384  50.541  0.00  0.00    +0.000 OA
ATOM      5  N   UNL     1      -8.572  54.497  48.559  0.00  0.00    +0.000 N 
ATOM      6  C   UNL     1     -10.074  54.412  46.639  0.00  0.00    +0.000 A 
ATOM      7  C   UNL     1      -8.834  54.080  47.218  0.00  0.00    +0.000 A 
ATOM      8  C   UNL     1     -10.384  53.961  45.341  0.00  0.00    +0.000 A 
ATOM      9  C   UNL     1      -7.947  53.270  46.485  0.00  0.00    +0.000 A 
ATOM     10  C   UNL     1      -9.493  53.163  44.631  0.00  0.00    +0.000 A 
ATOM     11  C   UNL     1      -8.276  52.814  45.204  0.00  0.00    +0.000 A 
ENDROOT
BRANCH   1  17
ATOM     12  S   UNL     1     -13.526  56.302  51.428  0.00  0.00    +0.000 S 
ATOM     13  O   UNL     1     -12.921  56.608  52.708  0.00  0.00    +0.000 OA
ATOM     14  O   UNL     1     -14.712  55.471  51.357  0.00  0.00    +0.000 OA
ATOM     15  N   UNL     1     -12.388  55.628  50.493  0.00  0.00    +0.000 N 
ATOM     16  C   UNL     1     -13.975  57.844  50.721  0.00  0.00    +0.000 A 
ATOM     17  C   UNL     1     -11.856  56.281  49.502  0.00  0.00    +0.000 C 
ATOM     18  C   UNL     1     -13.239  58.301  49.640  0.00  0.00    +0.000 A 
ATOM     19  C   UNL     1     -15.051  58.566  51.246  0.00  0.00    +0.000 A 
ATOM     20  N   UNL     1     -12.163  57.574  49.137  0.00  0.00    +0.000 N 
ATOM     21  C   UNL     1     -13.550  59.558  49.115  0.00  0.00    +0.000 A 
ATOM     22  C   UNL     1     -15.373  59.800  50.691  0.00  0.00    +0.000 A 
ATOM     23  C   UNL     1     -14.616  60.302  49.630  0.00  0.00    +0.000 A 
ATOM     24  H   UNL     1     -12.093  54.708  50.679  0.00  0.00    +0.000 HD
ATOM     25  H   UNL     1     -11.582  58.014  48.475  0.00  0.00    +0.000 HD
ENDBRANCH   1  17
BRANCH   5  26
ATOM     26  C   UNL     1      -7.311  54.213  49.155  0.00  0.00    +0.000 A 
ATOM     27  C   UNL     1      -6.259  55.130  49.031  0.00  0.00    +0.000 A 
ATOM     28  C   UNL     1      -7.067  52.966  49.748  0.00  0.00    +0.000 A 
ATOM     29  C   UNL     1      -4.985  54.814  49.503  0.00  0.00    +0.000 A 
ATOM     30  C   UNL     1      -5.786  52.647  50.206  0.00  0.00    +0.000 A 
ATOM     31  C   UNL     1      -4.748  53.570  50.083  0.00  0.00    +0.000 A 
ENDBRANCH   5  26
BRANCH   3  32
ATOM     32  O   UNL     1     -12.211  55.514  46.715  0.00  0.00    +0.000 OA
ATOM     33  H   UNL     1     -12.930  54.912  46.708  0.00  0.00    +0.000 HD
ENDBRANCH   3  32
TORSDOF 3
ENDMDL
MODEL 6
REMARK VINA RESULT:      -8.4      4.321      5.679
REMARK  Name = 338125
REMARK  3 active torsions:
REMARK  status: ('A' for Active; 'I' for Inactive)
REMARK    1  A    between atoms: C_6  and  C_10
REMARK    2  A    between atoms: C_14  and  O_18
REMARK    3  A    between atoms: N_17  and  C_21
REMARK                            x       y       z     vdW  Elec       q    Type
REMARK                         _______ _______ _______ _____ _____    ______ ____
ROOT
ATOM      1  C   UNL     1     -10.280  54.222  52.273  0.00  0.00    +0.000 A 
ATOM      2  C   UNL     1      -8.867  54.692  52.391  0.00  0.00    +0.000 A 
ATOM      3  C   UNL     1     -10.670  53.102  52.906  0.00  0.00    +0.000 A 
ATOM      4  O   UNL     1      -8.574  55.768  51.857  0.00  0.00    +0.000 OA
ATOM      5  N   UNL     1      -7.960  53.884  53.069  0.00  0.00    +0.000 N 
ATOM      6  C   UNL     1      -9.726  52.339  53.736  0.00  0.00    +0.000 A 
ATOM      7  C   UNL     1      -8.374  52.728  53.799  0.00  0.00    +0.000 A 
ATOM      8  C   UNL     1     -10.175  51.240  54.494  0.00  0.00    +0.000 A 
ATOM      9  C   UNL     1      -7.510  52.017  54.653  0.00  0.00    +0.000 A 
ATOM     10  C   UNL     1      -9.306  50.547  55.331  0.00  0.00    +0.000 A 
ATOM     11  C   UNL     1      -7.975  50.938  55.414  0.00  0.00    +0.000 A 
ENDROOT
BRANCH   1  17
ATOM     12  S   UNL     1     -13.441  56.386  51.393  0.00  0.00    +0.000 S 
ATOM     13  O   UNL     1     -13.290  57.759  51.830  0.00  0.00    +0.000 OA
ATOM     14  O   UNL     1     -14.709  55.701  51.555  0.00  0.00    +0.000 OA
ATOM     15  N   UNL     1     -12.300  55.505  52.130  0.00  0.00    +0.000 N 
ATOM     16  C   UNL     1     -13.109  56.385  49.670  0.00  0.00    +0.000 A 
ATOM     17  C   UNL     1     -11.269  55.055  51.477  0.00  0.00    +0.000 C 
ATOM     18  C   UNL     1     -11.925  55.810  49.239  0.00  0.00    +0.000 A 
ATOM     19  C   UNL     1     -14.030  56.946  48.780  0.00  0.00    +0.000 A 
ATOM     20  N   UNL     1     -11.013  55.265  50.139  0.00  0.00    +0.000 N 
ATOM     21  C   UNL     1     -11.625  55.864  47.874  0.00  0.00    +0.000 A 
ATOM     22  C   UNL     1     -13.736  56.962  47.421  0.00  0.00    +0.000 A 
ATOM     23  C   UNL     1     -12.527  56.429  46.968  0.00  0.00    +0.000 A 
ATOM     24  H   UNL     1     -12.387  55.307  53.090  0.00  0.00    +0.000 HD
ATOM     25  H   UNL     1     -10.125  55.013  49.797  0.00  0.00    +0.000 HD
ENDBRANCH   1  17
BRANCH   5  26
ATOM     26  C   UNL     1      -6.592  54.275  53.079  0.00  0.00    +0.000 A 
ATOM     27  C   UNL     1      -5.713  53.760  52.118  0.00  0.00    +0.000 A 
ATOM     28  C   UNL     1      -6.083  55.062  54.121  0.00  0.00    +0.000 A 
ATOM     29  C   UNL     1      -4.347  54.036  52.186  0.00  0.00    +0.000 A 
ATOM     30  C   UNL     1      -4.712  55.325  54.196  0.00  0.00    +0.000 A 
ATOM     31  C   UNL     1      -3.847  54.812  53.229  0.00  0.00    +0.000 A 
ENDBRANCH   5  26
BRANCH   3  32
ATOM     32  O   UNL     1     -11.958  52.596  52.876  0.00  0.00    +0.000 OA
ATOM     33  H   UNL     1     -12.561  52.809  53.562  0.00  0.00    +0.000 HD
ENDBRANCH   3  32
TORSDOF 3
ENDMDL
MODEL 7
REMARK VINA RESULT:      -8.4      2.382      2.936
REMARK  Name = 338125
REMARK  3 active torsions:
REMARK  status: ('A' for Active; 'I' for Inactive)
REMARK    1  A    between atoms: C_6  and  C_10
REMARK    2  A    between atoms: C_14  and  O_18
REMARK    3  A    between atoms: N_17  and  C_21
REMARK                            x       y       z     vdW  Elec       q    Type
REMARK                         _______ _______ _______ _____ _____    ______ ____
ROOT
ATOM      1  C   UNL     1     -11.329  55.482  49.324  0.00  0.00    +0.000 A 
ATOM      2  C   UNL     1     -11.491  54.850  47.980  0.00  0.00    +0.000 A 
ATOM      3  C   UNL     1     -10.288  55.141  50.105  0.00  0.00    +0.000 A 
ATOM      4  O   UNL     1     -12.418  55.252  47.266  0.00  0.00    +0.000 OA
ATOM      5  N   UNL     1     -10.614  53.832  47.623  0.00  0.00    +0.000 N 
ATOM      6  C   UNL     1      -9.290  54.164  49.645  0.00  0.00    +0.000 A 
ATOM      7  C   UNL     1      -9.470  53.505  48.413  0.00  0.00    +0.000 A 
ATOM      8  C   UNL     1      -8.140  53.908  50.415  0.00  0.00    +0.000 A 
ATOM      9  C   UNL     1      -8.464  52.625  47.970  0.00  0.00    +0.000 A 
ATOM     10  C   UNL     1      -7.158  53.032  49.963  0.00  0.00    +0.000 A 
ATOM     11  C   UNL     1      -7.318  52.394  48.739  0.00  0.00    +0.000 A 
ENDROOT
BRANCH   1  17
ATOM     12  S   UNL     1     -13.366  58.843  49.406  0.00  0.00    +0.000 S 
ATOM     13  O   UNL     1     -14.450  58.837  48.446  0.00  0.00    +0.000 OA
ATOM     14  O   UNL     1     -12.561  60.035  49.596  0.00  0.00    +0.000 OA
ATOM     15  N   UNL     1     -12.369  57.623  49.034  0.00  0.00    +0.000 N 
ATOM     16  C   UNL     1     -14.096  58.501  50.965  0.00  0.00    +0.000 A 
ATOM     17  C   UNL     1     -12.319  56.546  49.762  0.00  0.00    +0.000 C 
ATOM     18  C   UNL     1     -13.856  57.261  51.534  0.00  0.00    +0.000 A 
ATOM     19  C   UNL     1     -14.883  59.468  51.596  0.00  0.00    +0.000 A 
ATOM     20  N   UNL     1     -13.078  56.304  50.887  0.00  0.00    +0.000 N 
ATOM     21  C   UNL     1     -14.487  56.958  52.744  0.00  0.00    +0.000 A 
ATOM     22  C   UNL     1     -15.477  59.167  52.817  0.00  0.00    +0.000 A 
ATOM     23  C   UNL     1     -15.287  57.907  53.388  0.00  0.00    +0.000 A 
ATOM     24  H   UNL     1     -11.791  57.696  48.240  0.00  0.00    +0.000 HD
ATOM     25  H   UNL     1     -13.068  55.393  51.259  0.00  0.00    +0.000 HD
ENDBRANCH   1  17
BRANCH   5  26
ATOM     26  C   UNL     1     -10.843  53.151  46.394  0.00  0.00    +0.000 A 
ATOM     27  C   UNL     1     -11.586  51.963  46.383  0.00  0.00    +0.000 A 
ATOM     28  C   UNL     1     -10.220  53.580  45.214  0.00  0.00    +0.000 A 
ATOM     29  C   UNL     1     -11.717  51.220  45.210  0.00  0.00    +0.000 A 
ATOM     30  C   UNL     1     -10.340  52.825  44.044  0.00  0.00    +0.000 A 
ATOM     31  C   UNL     1     -11.088  51.648  44.043  0.00  0.00    +0.000 A 
ENDBRANCH   5  26
BRANCH   3  32
ATOM     32  O   UNL     1     -10.038  55.684  51.353  0.00  0.00    +0.000 OA
ATOM     33  H   UNL     1      -9.333  55.353  51.875  0.00  0.00    +0.000 HD
ENDBRANCH   3  32
TORSDOF 3
ENDMDL
MODEL 8
REMARK VINA RESULT:      -8.4      3.908      7.705
REMARK  Name = 338125
REMARK  3 active torsions:
REMARK  status: ('A' for Active; 'I' for Inactive)
REMARK    1  A    between atoms: C_6  and  C_10
REMARK    2  A    between atoms: C_14  and  O_18
REMARK    3  A    between atoms: N_17  and  C_21
REMARK                            x       y       z     vdW  Elec       q    Type
REMARK                         _______ _______ _______ _____ _____    ______ ____
ROOT
ATOM      1  C   UNL     1      -9.979  54.486  50.759  0.00  0.00    +0.000 A 
ATOM      2  C   UNL     1     -11.141  55.373  51.065  0.00  0.00    +0.000 A 
ATOM      3  C   UNL     1      -9.727  54.123  49.488  0.00  0.00    +0.000 A 
ATOM      4  O   UNL     1     -11.287  55.743  52.236  0.00  0.00    +0.000 OA
ATOM      5  N   UNL     1     -12.004  55.707  50.026  0.00  0.00    +0.000 N 
ATOM      6  C   UNL     1     -10.572  54.607  48.386  0.00  0.00    +0.000 A 
ATOM      7  C   UNL     1     -11.713  55.383  48.666  0.00  0.00    +0.000 A 
ATOM      8  C   UNL     1     -10.226  54.324  47.050  0.00  0.00    +0.000 A 
ATOM      9  C   UNL     1     -12.464  55.885  47.586  0.00  0.00    +0.000 A 
ATOM     10  C   UNL     1     -10.982  54.827  45.996  0.00  0.00    +0.000 A 
ATOM     11  C   UNL     1     -12.098  55.611  46.264  0.00  0.00    +0.000 A 
ENDROOT
BRANCH   1  17
ATOM     12  S   UNL     1      -6.824  54.238  53.090  0.00  0.00    +0.000 S 
ATOM     13  O   UNL     1      -6.768  55.333  54.036  0.00  0.00    +0.000 OA
ATOM     14  O   UNL     1      -5.617  53.777  52.430  0.00  0.00    +0.000 OA
ATOM     15  N   UNL     1      -7.901  54.628  51.946  0.00  0.00    +0.000 N 
ATOM     16  C   UNL     1      -7.443  52.858  53.981  0.00  0.00    +0.000 A 
ATOM     17  C   UNL     1      -9.065  54.051  51.891  0.00  0.00    +0.000 C 
ATOM     18  C   UNL     1      -8.732  52.434  53.703  0.00  0.00    +0.000 A 
ATOM     19  C   UNL     1      -6.638  52.220  54.928  0.00  0.00    +0.000 A 
ATOM     20  N   UNL     1      -9.524  53.088  52.763  0.00  0.00    +0.000 N 
ATOM     21  C   UNL     1      -9.254  51.377  54.455  0.00  0.00    +0.000 A 
ATOM     22  C   UNL     1      -7.157  51.146  55.644  0.00  0.00    +0.000 A 
ATOM     23  C   UNL     1      -8.470  50.729  55.415  0.00  0.00    +0.000 A 
ATOM     24  H   UNL     1      -7.670  55.314  51.279  0.00  0.00    +0.000 HD
ATOM     25  H   UNL     1     -10.477  52.845  52.718  0.00  0.00    +0.000 HD
ENDBRANCH   1  17
BRANCH   5  26
ATOM     26  C   UNL     1     -13.174  56.453  50.341  0.00  0.00    +0.000 A 
ATOM     27  C   UNL     1     -13.159  57.850  50.234  0.00  0.00    +0.000 A 
ATOM     28  C   UNL     1     -14.299  55.820  50.888  0.00  0.00    +0.000 A 
ATOM     29  C   UNL     1     -14.254  58.605  50.653  0.00  0.00    +0.000 A 
ATOM     30  C   UNL     1     -15.389  56.581  51.321  0.00  0.00    +0.000 A 
ATOM     31  C   UNL     1     -15.366  57.970  51.203  0.00  0.00    +0.000 A 
ENDBRANCH   5  26
BRANCH   3  32
ATOM     32  O   UNL     1      -8.666  53.324  49.100  0.00  0.00    +0.000 OA
ATOM     33  H   UNL     1      -8.820  52.442  48.823  0.00  0.00    +0.000 HD
ENDBRANCH   3  32
TORSDOF 3
ENDMDL
MODEL 9
REMARK VINA RESULT:      -8.3      3.982      6.966
REMARK  Name = 338125
REMARK  3 active torsions:
REMARK  status: ('A' for Active; 'I' for Inactive)
REMARK    1  A    between atoms: C_6  and  C_10
REMARK    2  A    between atoms: C_14  and  O_18
REMARK    3  A    between atoms: N_17  and  C_21
REMARK                            x       y       z     vdW  Elec       q    Type
REMARK                         _______ _______ _______ _____ _____    ______ ____
ROOT
ATOM      1  C   UNL     1      -9.698  54.556  50.823  0.00  0.00    +0.000 A 
ATOM      2  C   UNL     1      -9.289  54.192  49.433  0.00  0.00    +0.000 A 
ATOM      3  C   UNL     1     -10.787  55.319  51.024  0.00  0.00    +0.000 A 
ATOM      4  O   UNL     1      -8.328  53.425  49.301  0.00  0.00    +0.000 OA
ATOM      5  N   UNL     1      -9.991  54.755  48.372  0.00  0.00    +0.000 N 
ATOM      6  C   UNL     1     -11.599  55.786  49.890  0.00  0.00    +0.000 A 
ATOM      7  C   UNL     1     -11.186  55.513  48.572  0.00  0.00    +0.000 A 
ATOM      8  C   UNL     1     -12.805  56.477  50.117  0.00  0.00    +0.000 A 
ATOM      9  C   UNL     1     -12.018  55.916  47.511  0.00  0.00    +0.000 A 
ATOM     10  C   UNL     1     -13.613  56.870  49.056  0.00  0.00    +0.000 A 
ATOM     11  C   UNL     1     -13.222  56.586  47.753  0.00  0.00    +0.000 A 
ENDROOT
BRANCH   1  17
ATOM     12  S   UNL     1      -6.737  53.969  53.341  0.00  0.00    +0.000 S 
ATOM     13  O   UNL     1      -6.660  55.021  54.332  0.00  0.00    +0.000 OA
ATOM     14  O   UNL     1      -5.529  53.436  52.742  0.00  0.00    +0.000 OA
ATOM     15  N   UNL     1      -7.700  54.486  52.146  0.00  0.00    +0.000 N 
ATOM     16  C   UNL     1      -7.522  52.613  54.132  0.00  0.00    +0.000 A 
ATOM     17  C   UNL     1      -8.900  54.008  51.993  0.00  0.00    +0.000 C 
ATOM     18  C   UNL     1      -8.819  52.305  53.754  0.00  0.00    +0.000 A 
ATOM     19  C   UNL     1      -6.836  51.878  55.102  0.00  0.00    +0.000 A 
ATOM     20  N   UNL     1      -9.492  53.055  52.793  0.00  0.00    +0.000 N 
ATOM     21  C   UNL     1      -9.472  51.268  54.427  0.00  0.00    +0.000 A 
ATOM     22  C   UNL     1      -7.485  50.825  55.739  0.00  0.00    +0.000 A 
ATOM     23  C   UNL     1      -8.808  50.525  55.408  0.00  0.00    +0.000 A 
ATOM     24  H   UNL     1      -7.372  55.175  51.525  0.00  0.00    +0.000 HD
ATOM     25  H   UNL     1     -10.456  52.892  52.676  0.00  0.00    +0.000 HD
ENDBRANCH   1  17
BRANCH   5  26
ATOM     26  C   UNL     1      -9.527  54.501  47.052  0.00  0.00    +0.000 A 
ATOM     27  C   UNL     1      -9.983  53.371  46.358  0.00  0.00    +0.000 A 
ATOM     28  C   UNL     1      -8.516  55.290  46.485  0.00  0.00    +0.000 A 
ATOM     29  C   UNL     1      -9.449  53.041  45.113  0.00  0.00    +0.000 A 
ATOM     30  C   UNL     1      -7.972  54.948  45.244  0.00  0.00    +0.000 A 
ATOM     31  C   UNL     1      -8.439  53.825  44.560  0.00  0.00    +0.000 A 
ENDBRANCH   5  26
BRANCH   3  32
ATOM     32  O   UNL     1     -11.259  55.693  52.270  0.00  0.00    +0.000 OA
ATOM     33  H   UNL     1     -12.136  56.012  52.362  0.00  0.00    +0.000 HD
ENDBRANCH   3  32
TORSDOF 3
ENDMDL
