MODEL 1
REMARK VINA RESULT:      -8.4      0.000      0.000
REMARK  Name = 338257
REMARK  6 active torsions:
REMARK  status: ('A' for Active; 'I' for Inactive)
REMARK    1  A    between atoms: C_6  and  C_10
REMARK    2  A    between atoms: C_14  and  O_18
REMARK    3  A    between atoms: N_17  and  C_21
REMARK    4  A    between atoms: C_21  and  C_24
REMARK    5  A    between atoms: C_24  and  C_27
REMARK    6  A    between atoms: C_25  and  N_28
REMARK                            x       y       z     vdW  Elec       q    Type
REMARK                         _______ _______ _______ _____ _____    ______ ____
ROOT
ATOM      1  C   UNL     1     -10.089  54.398  52.284  0.00  0.00    +0.000 A 
ATOM      2  C   UNL     1      -8.713  54.945  52.120  0.00  0.00    +0.000 A 
ATOM      3  C   UNL     1     -10.297  53.309  53.037  0.00  0.00    +0.000 A 
ATOM      4  O   UNL     1      -8.603  55.944  51.406  0.00  0.00    +0.000 OA
ATOM      5  N   UNL     1      -7.648  54.343  52.780  0.00  0.00    +0.000 N 
ATOM      6  C   UNL     1      -9.172  52.662  53.726  0.00  0.00    +0.000 A 
ATOM      7  C   UNL     1      -7.865  53.167  53.582  0.00  0.00    +0.000 A 
ATOM      8  C   UNL     1      -9.408  51.547  54.558  0.00  0.00    +0.000 A 
ATOM      9  C   UNL     1      -6.831  52.514  54.271  0.00  0.00    +0.000 A 
ATOM     10  C   UNL     1      -8.375  50.904  55.233  0.00  0.00    +0.000 A 
ATOM     11  C   UNL     1      -7.093  51.425  55.115  0.00  0.00    +0.000 A 
ENDROOT
BRANCH   1  17
ATOM     12  S   UNL     1     -12.408  55.921  49.504  0.00  0.00    +0.000 S 
ATOM     13  O   UNL     1     -13.311  54.948  48.921  0.00  0.00    +0.000 OA
ATOM     14  O   UNL     1     -11.743  56.893  48.664  0.00  0.00    +0.000 OA
ATOM     15  N   UNL     1     -11.273  55.109  50.324  0.00  0.00    +0.000 N 
ATOM     16  C   UNL     1     -13.363  56.849  50.650  0.00  0.00    +0.000 A 
ATOM     17  C   UNL     1     -11.241  55.131  51.623  0.00  0.00    +0.000 C 
ATOM     18  C   UNL     1     -13.105  56.675  51.999  0.00  0.00    +0.000 A 
ATOM     19  C   UNL     1     -14.332  57.745  50.192  0.00  0.00    +0.000 A 
ATOM     20  N   UNL     1     -12.149  55.767  52.442  0.00  0.00    +0.000 N 
ATOM     21  C   UNL     1     -13.893  57.376  52.921  0.00  0.00    +0.000 A 
ATOM     22  C   UNL     1     -15.088  58.460  51.119  0.00  0.00    +0.000 A 
ATOM     23  C   UNL     1     -14.873  58.271  52.482  0.00  0.00    +0.000 A 
ATOM     24  H   UNL     1     -10.596  54.590  49.831  0.00  0.00    +0.000 HD
ATOM     25  H   UNL     1     -12.120  55.564  53.405  0.00  0.00    +0.000 HD
ENDBRANCH   1  17
BRANCH  10  26
ATOM     26  N   UNL     1      -8.658  49.925  56.190  0.00  0.00    +0.000 N 
ATOM     27  H   UNL     1      -8.977  49.038  55.907  0.00  0.00    +0.000 HD
ATOM     28  H   UNL     1      -8.538  50.123  57.147  0.00  0.00    +0.000 HD
ENDBRANCH  10  26
BRANCH   3  29
ATOM     29  O   UNL     1     -11.537  52.731  53.245  0.00  0.00    +0.000 OA
ATOM     30  H   UNL     1     -11.604  51.809  53.400  0.00  0.00    +0.000 HD
ENDBRANCH   3  29
BRANCH   5  31
ATOM     31  C   UNL     1      -6.276  54.842  52.525  0.00  0.00    +0.000 C 
BRANCH  31  32
ATOM     32  C   UNL     1      -5.498  54.154  51.387  0.00  0.00    +0.000 C 
BRANCH  32  33
ATOM     33  C   UNL     1      -5.474  54.943  50.112  0.00  0.00    +0.000 C 
ATOM     34  C   UNL     1      -6.355  54.636  48.928  0.00  0.00    +0.000 C 
ATOM     35  C   UNL     1      -4.892  54.288  48.883  0.00  0.00    +0.000 C 
ENDBRANCH  32  33
ENDBRANCH  31  32
ENDBRANCH   5  31
TORSDOF 6
ENDMDL
MODEL 2
REMARK VINA RESULT:      -8.0      3.344      4.391
REMARK  Name = 338257
REMARK  6 active torsions:
REMARK  status: ('A' for Active; 'I' for Inactive)
REMARK    1  A    between atoms: C_6  and  C_10
REMARK    2  A    between atoms: C_14  and  O_18
REMARK    3  A    between atoms: N_17  and  C_21
REMARK    4  A    between atoms: C_21  and  C_24
REMARK    5  A    between atoms: C_24  and  C_27
REMARK    6  A    between atoms: C_25  and  N_28
REMARK                            x       y       z     vdW  Elec       q    Type
REMARK                         _______ _______ _______ _____ _____    ______ ____
ROOT
ATOM      1  C   UNL     1     -12.398  54.279  49.945  0.00  0.00    +0.000 A 
ATOM      2  C   UNL     1     -12.134  54.003  48.506  0.00  0.00    +0.000 A 
ATOM      3  C   UNL     1     -11.882  53.482  50.891  0.00  0.00    +0.000 A 
ATOM      4  O   UNL     1     -12.649  54.777  47.696  0.00  0.00    +0.000 OA
ATOM      5  N   UNL     1     -11.318  52.935  48.146  0.00  0.00    +0.000 N 
ATOM      6  C   UNL     1     -11.030  52.345  50.515  0.00  0.00    +0.000 A 
ATOM      7  C   UNL     1     -10.770  52.070  49.158  0.00  0.00    +0.000 A 
ATOM      8  C   UNL     1     -10.449  51.543  51.520  0.00  0.00    +0.000 A 
ATOM      9  C   UNL     1      -9.942  50.978  48.859  0.00  0.00    +0.000 A 
ATOM     10  C   UNL     1      -9.634  50.458  51.212  0.00  0.00    +0.000 A 
ATOM     11  C   UNL     1      -9.353  50.210  49.874  0.00  0.00    +0.000 A 
ENDROOT
BRANCH   1  17
ATOM     12  S   UNL     1     -15.341  56.510  51.283  0.00  0.00    +0.000 S 
ATOM     13  O   UNL     1     -15.312  56.685  52.722  0.00  0.00    +0.000 OA
ATOM     14  O   UNL     1     -16.597  56.281  50.602  0.00  0.00    +0.000 OA
ATOM     15  N   UNL     1     -14.344  55.288  50.917  0.00  0.00    +0.000 N 
ATOM     16  C   UNL     1     -14.683  57.987  50.597  0.00  0.00    +0.000 A 
ATOM     17  C   UNL     1     -13.216  55.504  50.307  0.00  0.00    +0.000 C 
ATOM     18  C   UNL     1     -13.442  57.922  49.989  0.00  0.00    +0.000 A 
ATOM     19  C   UNL     1     -15.417  59.174  50.654  0.00  0.00    +0.000 A 
ATOM     20  N   UNL     1     -12.713  56.738  49.954  0.00  0.00    +0.000 N 
ATOM     21  C   UNL     1     -12.889  59.104  49.480  0.00  0.00    +0.000 A 
ATOM     22  C   UNL     1     -14.870  60.337  50.116  0.00  0.00    +0.000 A 
ATOM     23  C   UNL     1     -13.605  60.304  49.535  0.00  0.00    +0.000 A 
ATOM     24  H   UNL     1     -14.595  54.367  51.161  0.00  0.00    +0.000 HD
ATOM     25  H   UNL     1     -11.776  56.783  49.659  0.00  0.00    +0.000 HD
ENDBRANCH   1  17
BRANCH  10  26
ATOM     26  N   UNL     1      -8.926  49.797  52.220  0.00  0.00    +0.000 N 
ATOM     27  H   UNL     1      -9.234  48.921  52.544  0.00  0.00    +0.000 HD
ATOM     28  H   UNL     1      -8.119  50.209  52.606  0.00  0.00    +0.000 HD
ENDBRANCH  10  26
BRANCH   3  29
ATOM     29  O   UNL     1     -12.074  53.660  52.250  0.00  0.00    +0.000 OA
ATOM     30  H   UNL     1     -12.822  54.134  52.559  0.00  0.00    +0.000 HD
ENDBRANCH   3  29
BRANCH   5  31
ATOM     31  C   UNL     1     -11.148  52.619  46.708  0.00  0.00    +0.000 C 
BRANCH  31  32
ATOM     32  C   UNL     1     -10.276  53.591  45.892  0.00  0.00    +0.000 C 
BRANCH  32  33
ATOM     33  C   UNL     1      -8.977  53.938  46.556  0.00  0.00    +0.000 C 
ATOM     34  C   UNL     1      -8.695  55.280  47.180  0.00  0.00    +0.000 C 
ATOM     35  C   UNL     1      -8.065  54.920  45.862  0.00  0.00    +0.000 C 
ENDBRANCH  32  33
ENDBRANCH  31  32
ENDBRANCH   5  31
TORSDOF 6
ENDMDL
MODEL 3
REMARK VINA RESULT:      -8.0      3.227      7.331
REMARK  Name = 338257
REMARK  6 active torsions:
REMARK  status: ('A' for Active; 'I' for Inactive)
REMARK    1  A    between atoms: C_6  and  C_10
REMARK    2  A    between atoms: C_14  and  O_18
REMARK    3  A    between atoms: N_17  and  C_21
REMARK    4  A    between atoms: C_21  and  C_24
REMARK    5  A    between atoms: C_24  and  C_27
REMARK    6  A    between atoms: C_25  and  N_28
REMARK                            x       y       z     vdW  Elec       q    Type
REMARK                         _______ _______ _______ _____ _____    ______ ____
ROOT
ATOM      1  C   UNL     1     -10.156  55.196  50.922  0.00  0.00    +0.000 A 
ATOM      2  C   UNL     1      -9.787  55.205  49.479  0.00  0.00    +0.000 A 
ATOM      3  C   UNL     1     -11.387  55.563  51.305  0.00  0.00    +0.000 A 
ATOM      4  O   UNL     1      -8.635  54.862  49.206  0.00  0.00    +0.000 OA
ATOM      5  N   UNL     1     -10.736  55.560  48.526  0.00  0.00    +0.000 N 
ATOM      6  C   UNL     1     -12.389  55.951  50.303  0.00  0.00    +0.000 A 
ATOM      7  C   UNL     1     -12.056  55.964  48.934  0.00  0.00    +0.000 A 
ATOM      8  C   UNL     1     -13.697  56.285  50.712  0.00  0.00    +0.000 A 
ATOM      9  C   UNL     1     -13.055  56.334  48.021  0.00  0.00    +0.000 A 
ATOM     10  C   UNL     1     -14.679  56.656  49.799  0.00  0.00    +0.000 A 
ATOM     11  C   UNL     1     -14.357  56.636  48.448  0.00  0.00    +0.000 A 
ENDROOT
BRANCH   1  17
ATOM     12  S   UNL     1      -6.789  54.885  52.919  0.00  0.00    +0.000 S 
ATOM     13  O   UNL     1      -6.652  55.884  53.961  0.00  0.00    +0.000 OA
ATOM     14  O   UNL     1      -5.654  54.537  52.090  0.00  0.00    +0.000 OA
ATOM     15  N   UNL     1      -7.994  55.355  51.944  0.00  0.00    +0.000 N 
ATOM     16  C   UNL     1      -7.271  53.400  53.723  0.00  0.00    +0.000 A 
ATOM     17  C   UNL     1      -9.127  54.718  51.927  0.00  0.00    +0.000 C 
ATOM     18  C   UNL     1      -8.560  52.941  53.516  0.00  0.00    +0.000 A 
ATOM     19  C   UNL     1      -6.360  52.709  54.524  0.00  0.00    +0.000 A 
ATOM     20  N   UNL     1      -9.464  53.649  52.729  0.00  0.00    +0.000 N 
ATOM     21  C   UNL     1      -8.969  51.783  54.190  0.00  0.00    +0.000 A 
ATOM     22  C   UNL     1      -6.769  51.540  55.164  0.00  0.00    +0.000 A 
ATOM     23  C   UNL     1      -8.073  51.081  55.003  0.00  0.00    +0.000 A 
ATOM     24  H   UNL     1      -7.866  56.134  51.356  0.00  0.00    +0.000 HD
ATOM     25  H   UNL     1     -10.407  53.368  52.748  0.00  0.00    +0.000 HD
ENDBRANCH   1  17
BRANCH  10  26
ATOM     26  N   UNL     1     -16.007  56.801  50.209  0.00  0.00    +0.000 N 
ATOM     27  H   UNL     1     -16.706  56.222  49.829  0.00  0.00    +0.000 HD
ATOM     28  H   UNL     1     -16.244  57.483  50.879  0.00  0.00    +0.000 HD
ENDBRANCH  10  26
BRANCH   3  29
ATOM     29  O   UNL     1     -11.818  55.586  52.620  0.00  0.00    +0.000 OA
ATOM     30  H   UNL     1     -11.771  54.809  53.142  0.00  0.00    +0.000 HD
ENDBRANCH   3  29
BRANCH   5  31
ATOM     31  C   UNL     1     -10.320  55.658  47.106  0.00  0.00    +0.000 C 
BRANCH  31  32
ATOM     32  C   UNL     1     -10.170  54.328  46.344  0.00  0.00    +0.000 C 
BRANCH  32  33
ATOM     33  C   UNL     1     -11.346  53.995  45.476  0.00  0.00    +0.000 C 
ATOM     34  C   UNL     1     -12.011  52.642  45.460  0.00  0.00    +0.000 C 
ATOM     35  C   UNL     1     -11.128  53.056  44.315  0.00  0.00    +0.000 C 
ENDBRANCH  32  33
ENDBRANCH  31  32
ENDBRANCH   5  31
TORSDOF 6
ENDMDL
MODEL 4
REMARK VINA RESULT:      -8.0      3.495      5.483
REMARK  Name = 338257
REMARK  6 active torsions:
REMARK  status: ('A' for Active; 'I' for Inactive)
REMARK    1  A    between atoms: C_6  and  C_10
REMARK    2  A    between atoms: C_14  and  O_18
REMARK    3  A    between atoms: N_17  and  C_21
REMARK    4  A    between atoms: C_21  and  C_24
REMARK    5  A    between atoms: C_24  and  C_27
REMARK    6  A    between atoms: C_25  and  N_28
REMARK                            x       y       z     vdW  Elec       q    Type
REMARK                         _______ _______ _______ _____ _____    ______ ____
ROOT
ATOM      1  C   UNL     1     -11.656  55.981  48.698  0.00  0.00    +0.000 A 
ATOM      2  C   UNL     1     -10.580  55.364  49.522  0.00  0.00    +0.000 A 
ATOM      3  C   UNL     1     -11.807  55.631  47.413  0.00  0.00    +0.000 A 
ATOM      4  O   UNL     1     -10.501  55.744  50.693  0.00  0.00    +0.000 OA
ATOM      5  N   UNL     1      -9.754  54.395  48.965  0.00  0.00    +0.000 N 
ATOM      6  C   UNL     1     -10.928  54.616  46.817  0.00  0.00    +0.000 A 
ATOM      7  C   UNL     1      -9.905  54.022  47.583  0.00  0.00    +0.000 A 
ATOM      8  C   UNL     1     -11.127  54.215  45.479  0.00  0.00    +0.000 A 
ATOM      9  C   UNL     1      -9.103  53.052  46.963  0.00  0.00    +0.000 A 
ATOM     10  C   UNL     1     -10.322  53.256  44.872  0.00  0.00    +0.000 A 
ATOM     11  C   UNL     1      -9.337  52.650  45.640  0.00  0.00    +0.000 A 
ENDROOT
BRANCH   1  17
ATOM     12  S   UNL     1     -13.589  59.309  49.482  0.00  0.00    +0.000 S 
ATOM     13  O   UNL     1     -14.735  59.517  48.618  0.00  0.00    +0.000 OA
ATOM     14  O   UNL     1     -12.721  60.417  49.820  0.00  0.00    +0.000 OA
ATOM     15  N   UNL     1     -12.679  58.146  48.818  0.00  0.00    +0.000 N 
ATOM     16  C   UNL     1     -14.226  58.714  51.006  0.00  0.00    +0.000 A 
ATOM     17  C   UNL     1     -12.597  56.968  49.362  0.00  0.00    +0.000 C 
ATOM     18  C   UNL     1     -13.976  57.395  51.341  0.00  0.00    +0.000 A 
ATOM     19  C   UNL     1     -14.940  59.568  51.849  0.00  0.00    +0.000 A 
ATOM     20  N   UNL     1     -13.277  56.549  50.485  0.00  0.00    +0.000 N 
ATOM     21  C   UNL     1     -14.519  56.897  52.533  0.00  0.00    +0.000 A 
ATOM     22  C   UNL     1     -15.449  59.070  53.047  0.00  0.00    +0.000 A 
ATOM     23  C   UNL     1     -15.245  57.735  53.386  0.00  0.00    +0.000 A 
ATOM     24  H   UNL     1     -12.180  58.334  47.989  0.00  0.00    +0.000 HD
ATOM     25  H   UNL     1     -13.269  55.588  50.694  0.00  0.00    +0.000 HD
ENDBRANCH   1  17
BRANCH  10  26
ATOM     26  N   UNL     1     -10.655  52.747  43.614  0.00  0.00    +0.000 N 
ATOM     27  H   UNL     1     -11.253  51.968  43.541  0.00  0.00    +0.000 HD
ATOM     28  H   UNL     1     -10.292  53.167  42.801  0.00  0.00    +0.000 HD
ENDBRANCH  10  26
BRANCH   3  29
ATOM     29  O   UNL     1     -12.776  56.150  46.573  0.00  0.00    +0.000 OA
ATOM     30  H   UNL     1     -13.572  55.677  46.428  0.00  0.00    +0.000 HD
ENDBRANCH   3  29
BRANCH   5  31
ATOM     31  C   UNL     1      -8.628  53.866  49.772  0.00  0.00    +0.000 C 
BRANCH  31  32
ATOM     32  C   UNL     1      -7.456  54.832  50.027  0.00  0.00    +0.000 C 
BRANCH  32  33
ATOM     33  C   UNL     1      -6.487  54.919  48.886  0.00  0.00    +0.000 C 
ATOM     34  C   UNL     1      -5.612  53.772  48.450  0.00  0.00    +0.000 C 
ATOM     35  C   UNL     1      -5.012  54.926  49.206  0.00  0.00    +0.000 C 
ENDBRANCH  32  33
ENDBRANCH  31  32
ENDBRANCH   5  31
TORSDOF 6
ENDMDL
MODEL 5
REMARK VINA RESULT:      -7.9      4.362      6.052
REMARK  Name = 338257
REMARK  6 active torsions:
REMARK  status: ('A' for Active; 'I' for Inactive)
REMARK    1  A    between atoms: C_6  and  C_10
REMARK    2  A    between atoms: C_14  and  O_18
REMARK    3  A    between atoms: N_17  and  C_21
REMARK    4  A    between atoms: C_21  and  C_24
REMARK    5  A    between atoms: C_24  and  C_27
REMARK    6  A    between atoms: C_25  and  N_28
REMARK                            x       y       z     vdW  Elec       q    Type
REMARK                         _______ _______ _______ _____ _____    ______ ____
ROOT
ATOM      1  C   UNL     1     -11.410  56.302  48.522  0.00  0.00    +0.000 A 
ATOM      2  C   UNL     1     -11.822  55.626  47.260  0.00  0.00    +0.000 A 
ATOM      3  C   UNL     1     -10.155  56.176  48.976  0.00  0.00    +0.000 A 
ATOM      4  O   UNL     1     -12.994  55.784  46.911  0.00  0.00    +0.000 OA
ATOM      5  N   UNL     1     -10.890  54.892  46.535  0.00  0.00    +0.000 N 
ATOM      6  C   UNL     1      -9.171  55.390  48.219  0.00  0.00    +0.000 A 
ATOM      7  C   UNL     1      -9.544  54.745  47.024  0.00  0.00    +0.000 A 
ATOM      8  C   UNL     1      -7.840  55.306  48.679  0.00  0.00    +0.000 A 
ATOM      9  C   UNL     1      -8.560  54.017  46.339  0.00  0.00    +0.000 A 
ATOM     10  C   UNL     1      -6.872  54.576  47.994  0.00  0.00    +0.000 A 
ATOM     11  C   UNL     1      -7.236  53.969  46.799  0.00  0.00    +0.000 A 
ENDROOT
BRANCH   1  17
ATOM     12  S   UNL     1     -13.623  59.402  49.482  0.00  0.00    +0.000 S 
ATOM     13  O   UNL     1     -14.796  59.544  48.642  0.00  0.00    +0.000 OA
ATOM     14  O   UNL     1     -12.853  60.567  49.862  0.00  0.00    +0.000 OA
ATOM     15  N   UNL     1     -12.622  58.358  48.754  0.00  0.00    +0.000 N 
ATOM     16  C   UNL     1     -14.180  58.682  50.984  0.00  0.00    +0.000 A 
ATOM     17  C   UNL     1     -12.426  57.169  49.241  0.00  0.00    +0.000 C 
ATOM     18  C   UNL     1     -13.807  57.377  51.253  0.00  0.00    +0.000 A 
ATOM     19  C   UNL     1     -14.956  59.428  51.874  0.00  0.00    +0.000 A 
ATOM     20  N   UNL     1     -13.048  56.639  50.351  0.00  0.00    +0.000 N 
ATOM     21  C   UNL     1     -14.285  56.778  52.426  0.00  0.00    +0.000 A 
ATOM     22  C   UNL     1     -15.399  58.832  53.053  0.00  0.00    +0.000 A 
ATOM     23  C   UNL     1     -15.070  57.507  53.326  0.00  0.00    +0.000 A 
ATOM     24  H   UNL     1     -12.155  58.628  47.930  0.00  0.00    +0.000 HD
ATOM     25  H   UNL     1     -12.950  55.673  50.515  0.00  0.00    +0.000 HD
ENDBRANCH   1  17
BRANCH  10  26
ATOM     26  N   UNL     1      -5.528  54.661  48.367  0.00  0.00    +0.000 N 
ATOM     27  H   UNL     1      -4.840  54.203  47.833  0.00  0.00    +0.000 HD
ATOM     28  H   UNL     1      -5.270  55.179  49.163  0.00  0.00    +0.000 HD
ENDBRANCH  10  26
BRANCH   3  29
ATOM     29  O   UNL     1      -9.684  56.766  50.136  0.00  0.00    +0.000 OA
ATOM     30  H   UNL     1      -9.413  56.232  50.856  0.00  0.00    +0.000 HD
ENDBRANCH   3  29
BRANCH   5  31
ATOM     31  C   UNL     1     -11.345  54.146  45.336  0.00  0.00    +0.000 C 
BRANCH  31  32
ATOM     32  C   UNL     1     -12.005  52.778  45.591  0.00  0.00    +0.000 C 
BRANCH  32  33
ATOM     33  C   UNL     1     -11.094  51.614  45.339  0.00  0.00    +0.000 C 
ATOM     34  C   UNL     1     -10.791  51.078  43.963  0.00  0.00    +0.000 C 
ATOM     35  C   UNL     1     -11.712  50.317  44.877  0.00  0.00    +0.000 C 
ENDBRANCH  32  33
ENDBRANCH  31  32
ENDBRANCH   5  31
TORSDOF 6
ENDMDL
MODEL 6
REMARK VINA RESULT:      -7.7      3.341      5.780
REMARK  Name = 338257
REMARK  6 active torsions:
REMARK  status: ('A' for Active; 'I' for Inactive)
REMARK    1  A    between atoms: C_6  and  C_10
REMARK    2  A    between atoms: C_14  and  O_18
REMARK    3  A    between atoms: N_17  and  C_21
REMARK    4  A    between atoms: C_21  and  C_24
REMARK    5  A    between atoms: C_24  and  C_27
REMARK    6  A    between atoms: C_25  and  N_28
REMARK                            x       y       z     vdW  Elec       q    Type
REMARK                         _______ _______ _______ _____ _____    ______ ____
ROOT
ATOM      1  C   UNL     1     -10.793  55.619  48.262  0.00  0.00    +0.000 A 
ATOM      2  C   UNL     1      -9.353  55.547  48.637  0.00  0.00    +0.000 A 
ATOM      3  C   UNL     1     -11.219  55.075  47.114  0.00  0.00    +0.000 A 
ATOM      4  O   UNL     1      -9.038  56.077  49.705  0.00  0.00    +0.000 OA
ATOM      5  N   UNL     1      -8.457  54.880  47.810  0.00  0.00    +0.000 N 
ATOM      6  C   UNL     1     -10.273  54.380  46.230  0.00  0.00    +0.000 A 
ATOM      7  C   UNL     1      -8.908  54.302  46.571  0.00  0.00    +0.000 A 
ATOM      8  C   UNL     1     -10.740  53.765  45.049  0.00  0.00    +0.000 A 
ATOM      9  C   UNL     1      -8.053  53.618  45.693  0.00  0.00    +0.000 A 
ATOM     10  C   UNL     1      -9.882  53.094  44.183  0.00  0.00    +0.000 A 
ATOM     11  C   UNL     1      -8.543  52.991  44.539  0.00  0.00    +0.000 A 
ENDROOT
BRANCH   1  17
ATOM     12  S   UNL     1     -13.238  56.116  51.296  0.00  0.00    +0.000 S 
ATOM     13  O   UNL     1     -12.548  56.373  52.545  0.00  0.00    +0.000 OA
ATOM     14  O   UNL     1     -14.386  55.235  51.265  0.00  0.00    +0.000 OA
ATOM     15  N   UNL     1     -12.147  55.553  50.240  0.00  0.00    +0.000 N 
ATOM     16  C   UNL     1     -13.811  57.675  50.724  0.00  0.00    +0.000 A 
ATOM     17  C   UNL     1     -11.759  56.274  49.230  0.00  0.00    +0.000 C 
ATOM     18  C   UNL     1     -13.209  58.214  49.601  0.00  0.00    +0.000 A 
ATOM     19  C   UNL     1     -14.858  58.322  51.385  0.00  0.00    +0.000 A 
ATOM     20  N   UNL     1     -12.156  57.567  48.962  0.00  0.00    +0.000 N 
ATOM     21  C   UNL     1     -13.627  59.478  49.165  0.00  0.00    +0.000 A 
ATOM     22  C   UNL     1     -15.287  59.565  50.923  0.00  0.00    +0.000 A 
ATOM     23  C   UNL     1     -14.669  60.145  49.818  0.00  0.00    +0.000 A 
ATOM     24  H   UNL     1     -11.772  54.651  50.364  0.00  0.00    +0.000 HD
ATOM     25  H   UNL     1     -11.660  58.066  48.274  0.00  0.00    +0.000 HD
ENDBRANCH   1  17
BRANCH  10  26
ATOM     26  N   UNL     1     -10.395  52.340  43.124  0.00  0.00    +0.000 N 
ATOM     27  H   UNL     1     -10.051  52.475  42.212  0.00  0.00    +0.000 HD
ATOM     28  H   UNL     1     -11.101  51.674  43.290  0.00  0.00    +0.000 HD
ENDBRANCH  10  26
BRANCH   3  29
ATOM     29  O   UNL     1     -12.534  55.094  46.684  0.00  0.00    +0.000 OA
ATOM     30  H   UNL     1     -13.015  55.898  46.685  0.00  0.00    +0.000 HD
ENDBRANCH   3  29
BRANCH   5  31
ATOM     31  C   UNL     1      -7.015  54.905  48.151  0.00  0.00    +0.000 C 
BRANCH  31  32
ATOM     32  C   UNL     1      -6.550  53.910  49.232  0.00  0.00    +0.000 C 
BRANCH  32  33
ATOM     33  C   UNL     1      -5.629  54.514  50.250  0.00  0.00    +0.000 C 
ATOM     34  C   UNL     1      -4.419  53.804  50.800  0.00  0.00    +0.000 C 
ATOM     35  C   UNL     1      -5.652  53.950  51.650  0.00  0.00    +0.000 C 
ENDBRANCH  32  33
ENDBRANCH  31  32
ENDBRANCH   5  31
TORSDOF 6
ENDMDL
MODEL 7
REMARK VINA RESULT:      -7.7      4.034      5.900
REMARK  Name = 338257
REMARK  6 active torsions:
REMARK  status: ('A' for Active; 'I' for Inactive)
REMARK    1  A    between atoms: C_6  and  C_10
REMARK    2  A    between atoms: C_14  and  O_18
REMARK    3  A    between atoms: N_17  and  C_21
REMARK    4  A    between atoms: C_21  and  C_24
REMARK    5  A    between atoms: C_24  and  C_27
REMARK    6  A    between atoms: C_25  and  N_28
REMARK                            x       y       z     vdW  Elec       q    Type
REMARK                         _______ _______ _______ _____ _____    ______ ____
ROOT
ATOM      1  C   UNL     1     -10.795  55.696  48.747  0.00  0.00    +0.000 A 
ATOM      2  C   UNL     1     -11.183  55.149  47.417  0.00  0.00    +0.000 A 
ATOM      3  C   UNL     1      -9.532  55.583  49.180  0.00  0.00    +0.000 A 
ATOM      4  O   UNL     1     -12.365  55.285  47.092  0.00  0.00    +0.000 OA
ATOM      5  N   UNL     1     -10.221  54.554  46.608  0.00  0.00    +0.000 N 
ATOM      6  C   UNL     1      -8.515  54.943  48.334  0.00  0.00    +0.000 A 
ATOM      7  C   UNL     1      -8.865  54.422  47.073  0.00  0.00    +0.000 A 
ATOM      8  C   UNL     1      -7.177  54.876  48.777  0.00  0.00    +0.000 A 
ATOM      9  C   UNL     1      -7.850  53.831  46.305  0.00  0.00    +0.000 A 
ATOM     10  C   UNL     1      -6.179  54.282  48.009  0.00  0.00    +0.000 A 
ATOM     11  C   UNL     1      -6.522  53.799  46.753  0.00  0.00    +0.000 A 
ENDROOT
BRANCH   1  17
ATOM     12  S   UNL     1     -13.558  56.394  51.450  0.00  0.00    +0.000 S 
ATOM     13  O   UNL     1     -13.009  56.696  52.758  0.00  0.00    +0.000 OA
ATOM     14  O   UNL     1     -14.718  55.538  51.326  0.00  0.00    +0.000 OA
ATOM     15  N   UNL     1     -12.369  55.756  50.555  0.00  0.00    +0.000 N 
ATOM     16  C   UNL     1     -14.019  57.935  50.744  0.00  0.00    +0.000 A 
ATOM     17  C   UNL     1     -11.848  56.419  49.565  0.00  0.00    +0.000 C 
ATOM     18  C   UNL     1     -13.277  58.405  49.675  0.00  0.00    +0.000 A 
ATOM     19  C   UNL     1     -15.117  58.636  51.248  0.00  0.00    +0.000 A 
ATOM     20  N   UNL     1     -12.176  57.705  49.193  0.00  0.00    +0.000 N 
ATOM     21  C   UNL     1     -13.608  59.655  49.135  0.00  0.00    +0.000 A 
ATOM     22  C   UNL     1     -15.456  59.864  50.683  0.00  0.00    +0.000 A 
ATOM     23  C   UNL     1     -14.699  60.376  49.632  0.00  0.00    +0.000 A 
ATOM     24  H   UNL     1     -12.036  54.853  50.763  0.00  0.00    +0.000 HD
ATOM     25  H   UNL     1     -11.591  58.159  48.545  0.00  0.00    +0.000 HD
ENDBRANCH   1  17
BRANCH  10  26
ATOM     26  N   UNL     1      -4.838  54.394  48.386  0.00  0.00    +0.000 N 
ATOM     27  H   UNL     1      -4.273  53.590  48.437  0.00  0.00    +0.000 HD
ATOM     28  H   UNL     1      -4.458  55.277  48.600  0.00  0.00    +0.000 HD
ENDBRANCH  10  26
BRANCH   3  29
ATOM     29  O   UNL     1      -9.082  56.059  50.399  0.00  0.00    +0.000 OA
ATOM     30  H   UNL     1      -8.209  55.868  50.683  0.00  0.00    +0.000 HD
ENDBRANCH   3  29
BRANCH   5  31
ATOM     31  C   UNL     1     -10.647  53.929  45.333  0.00  0.00    +0.000 C 
BRANCH  31  32
ATOM     32  C   UNL     1     -10.847  52.402  45.352  0.00  0.00    +0.000 C 
BRANCH  32  33
ATOM     33  C   UNL     1     -12.151  51.973  45.954  0.00  0.00    +0.000 C 
ATOM     34  C   UNL     1     -12.325  51.647  47.416  0.00  0.00    +0.000 C 
ATOM     35  C   UNL     1     -12.289  50.538  46.400  0.00  0.00    +0.000 C 
ENDBRANCH  32  33
ENDBRANCH  31  32
ENDBRANCH   5  31
TORSDOF 6
ENDMDL
MODEL 8
REMARK VINA RESULT:      -7.7      3.249      7.265
REMARK  Name = 338257
REMARK  6 active torsions:
REMARK  status: ('A' for Active; 'I' for Inactive)
REMARK    1  A    between atoms: C_6  and  C_10
REMARK    2  A    between atoms: C_14  and  O_18
REMARK    3  A    between atoms: N_17  and  C_21
REMARK    4  A    between atoms: C_21  and  C_24
REMARK    5  A    between atoms: C_24  and  C_27
REMARK    6  A    between atoms: C_25  and  N_28
REMARK                            x       y       z     vdW  Elec       q    Type
REMARK                         _______ _______ _______ _____ _____    ______ ____
ROOT
ATOM      1  C   UNL     1     -10.069  55.189  50.461  0.00  0.00    +0.000 A 
ATOM      2  C   UNL     1     -10.266  55.357  48.995  0.00  0.00    +0.000 A 
ATOM      3  C   UNL     1     -11.067  55.466  51.312  0.00  0.00    +0.000 A 
ATOM      4  O   UNL     1      -9.298  55.090  48.278  0.00  0.00    +0.000 OA
ATOM      5  N   UNL     1     -11.501  55.767  48.506  0.00  0.00    +0.000 N 
ATOM      6  C   UNL     1     -12.371  55.912  50.801  0.00  0.00    +0.000 A 
ATOM      7  C   UNL     1     -12.574  56.075  49.416  0.00  0.00    +0.000 A 
ATOM      8  C   UNL     1     -13.431  56.151  51.700  0.00  0.00    +0.000 A 
ATOM      9  C   UNL     1     -13.842  56.494  48.986  0.00  0.00    +0.000 A 
ATOM     10  C   UNL     1     -14.684  56.571  51.263  0.00  0.00    +0.000 A 
ATOM     11  C   UNL     1     -14.889  56.699  49.895  0.00  0.00    +0.000 A 
ENDROOT
BRANCH   1  17
ATOM     12  S   UNL     1      -6.952  52.842  50.910  0.00  0.00    +0.000 S 
ATOM     13  O   UNL     1      -5.964  53.003  49.861  0.00  0.00    +0.000 OA
ATOM     14  O   UNL     1      -7.287  51.522  51.400  0.00  0.00    +0.000 OA
ATOM     15  N   UNL     1      -8.319  53.551  50.410  0.00  0.00    +0.000 N 
ATOM     16  C   UNL     1      -6.341  53.729  52.298  0.00  0.00    +0.000 A 
ATOM     17  C   UNL     1      -8.738  54.655  50.955  0.00  0.00    +0.000 C 
ATOM     18  C   UNL     1      -7.001  54.890  52.665  0.00  0.00    +0.000 A 
ATOM     19  C   UNL     1      -5.238  53.250  53.007  0.00  0.00    +0.000 A 
ATOM     20  N   UNL     1      -8.088  55.366  51.940  0.00  0.00    +0.000 N 
ATOM     21  C   UNL     1      -6.493  55.629  53.741  0.00  0.00    +0.000 A 
ATOM     22  C   UNL     1      -4.762  53.977  54.095  0.00  0.00    +0.000 A 
ATOM     23  C   UNL     1      -5.384  55.169  54.459  0.00  0.00    +0.000 A 
ATOM     24  H   UNL     1      -8.841  53.141  49.683  0.00  0.00    +0.000 HD
ATOM     25  H   UNL     1      -8.414  56.272  52.143  0.00  0.00    +0.000 HD
ENDBRANCH   1  17
BRANCH  10  26
ATOM     26  N   UNL     1     -15.762  56.621  52.150  0.00  0.00    +0.000 N 
ATOM     27  H   UNL     1     -16.517  57.226  51.974  0.00  0.00    +0.000 HD
ATOM     28  H   UNL     1     -15.766  56.050  52.953  0.00  0.00    +0.000 HD
ENDBRANCH  10  26
BRANCH   3  29
ATOM     29  O   UNL     1     -10.976  55.341  52.687  0.00  0.00    +0.000 OA
ATOM     30  H   UNL     1     -11.376  55.980  53.243  0.00  0.00    +0.000 HD
ENDBRANCH   3  29
BRANCH   5  31
ATOM     31  C   UNL     1     -11.646  56.023  47.053  0.00  0.00    +0.000 C 
BRANCH  31  32
ATOM     32  C   UNL     1     -12.082  54.825  46.188  0.00  0.00    +0.000 C 
BRANCH  32  33
ATOM     33  C   UNL     1     -10.940  54.113  45.526  0.00  0.00    +0.000 C 
ATOM     34  C   UNL     1     -11.122  52.999  44.527  0.00  0.00    +0.000 C 
ATOM     35  C   UNL     1     -10.667  52.684  45.926  0.00  0.00    +0.000 C 
ENDBRANCH  32  33
ENDBRANCH  31  32
ENDBRANCH   5  31
TORSDOF 6
ENDMDL
MODEL 9
REMARK VINA RESULT:      -7.5      4.035      7.324
REMARK  Name = 338257
REMARK  6 active torsions:
REMARK  status: ('A' for Active; 'I' for Inactive)
REMARK    1  A    between atoms: C_6  and  C_10
REMARK    2  A    between atoms: C_14  and  O_18
REMARK    3  A    between atoms: N_17  and  C_21
REMARK    4  A    between atoms: C_21  and  C_24
REMARK    5  A    between atoms: C_24  and  C_27
REMARK    6  A    between atoms: C_25  and  N_28
REMARK                            x       y       z     vdW  Elec       q    Type
REMARK                         _______ _______ _______ _____ _____    ______ ____
ROOT
ATOM      1  C   UNL     1     -10.881  54.586  48.580  0.00  0.00    +0.000 A 
ATOM      2  C   UNL     1     -10.500  54.091  49.932  0.00  0.00    +0.000 A 
ATOM      3  C   UNL     1     -11.839  55.514  48.447  0.00  0.00    +0.000 A 
ATOM      4  O   UNL     1      -9.616  53.231  49.972  0.00  0.00    +0.000 OA
ATOM      5  N   UNL     1     -11.115  54.622  51.060  0.00  0.00    +0.000 N 
ATOM      6  C   UNL     1     -12.500  56.069  49.636  0.00  0.00    +0.000 A 
ATOM      7  C   UNL     1     -12.150  55.613  50.922  0.00  0.00    +0.000 A 
ATOM      8  C   UNL     1     -13.469  57.084  49.488  0.00  0.00    +0.000 A 
ATOM      9  C   UNL     1     -12.808  56.186  52.021  0.00  0.00    +0.000 A 
ATOM     10  C   UNL     1     -14.120  57.642  50.585  0.00  0.00    +0.000 A 
ATOM     11  C   UNL     1     -13.749  57.212  51.853  0.00  0.00    +0.000 A 
ENDROOT
BRANCH   1  17
ATOM     12  S   UNL     1      -8.041  54.048  45.922  0.00  0.00    +0.000 S 
ATOM     13  O   UNL     1      -6.993  53.157  46.382  0.00  0.00    +0.000 OA
ATOM     14  O   UNL     1      -7.706  55.246  45.182  0.00  0.00    +0.000 OA
ATOM     15  N   UNL     1      -8.915  54.485  47.212  0.00  0.00    +0.000 N 
ATOM     16  C   UNL     1      -9.061  53.094  44.857  0.00  0.00    +0.000 A 
ATOM     17  C   UNL     1     -10.129  54.051  47.377  0.00  0.00    +0.000 C 
ATOM     18  C   UNL     1     -10.335  52.776  45.295  0.00  0.00    +0.000 A 
ATOM     19  C   UNL     1      -8.591  52.698  43.603  0.00  0.00    +0.000 A 
ATOM     20  N   UNL     1     -10.786  53.162  46.553  0.00  0.00    +0.000 N 
ATOM     21  C   UNL     1     -11.140  51.977  44.473  0.00  0.00    +0.000 A 
ATOM     22  C   UNL     1      -9.412  51.929  42.781  0.00  0.00    +0.000 A 
ATOM     23  C   UNL     1     -10.683  51.563  43.218  0.00  0.00    +0.000 A 
ATOM     24  H   UNL     1      -8.521  55.091  47.882  0.00  0.00    +0.000 HD
ATOM     25  H   UNL     1     -11.630  52.775  46.877  0.00  0.00    +0.000 HD
ENDBRANCH   1  17
BRANCH  10  26
ATOM     26  N   UNL     1     -14.934  58.766  50.426  0.00  0.00    +0.000 N 
ATOM     27  H   UNL     1     -15.698  58.909  51.030  0.00  0.00    +0.000 HD
ATOM     28  H   UNL     1     -14.744  59.415  49.710  0.00  0.00    +0.000 HD
ENDBRANCH  10  26
BRANCH   3  29
ATOM     29  O   UNL     1     -12.258  56.031  47.234  0.00  0.00    +0.000 OA
ATOM     30  H   UNL     1     -12.952  55.614  46.762  0.00  0.00    +0.000 HD
ENDBRANCH   3  29
BRANCH   5  31
ATOM     31  C   UNL     1     -10.792  54.047  52.388  0.00  0.00    +0.000 C 
BRANCH  31  32
ATOM     32  C   UNL     1      -9.921  54.914  53.317  0.00  0.00    +0.000 C 
BRANCH  32  33
ATOM     33  C   UNL     1      -8.459  54.591  53.246  0.00  0.00    +0.000 C 
ATOM     34  C   UNL     1      -7.418  55.256  54.111  0.00  0.00    +0.000 C 
ATOM     35  C   UNL     1      -7.531  55.626  52.657  0.00  0.00    +0.000 C 
ENDBRANCH  32  33
ENDBRANCH  31  32
ENDBRANCH   5  31
TORSDOF 6
ENDMDL
