MODEL 1
REMARK VINA RESULT:      -8.5      0.000      0.000
REMARK  Name = 338506
REMARK  5 active torsions:
REMARK  status: ('A' for Active; 'I' for Inactive)
REMARK    1  A    between atoms: C_6  and  C_10
REMARK    2  A    between atoms: C_14  and  O_18
REMARK    3  A    between atoms: N_17  and  C_21
REMARK    4  A    between atoms: C_21  and  C_24
REMARK    5  A    between atoms: C_24  and  C_28
REMARK                            x       y       z     vdW  Elec       q    Type
REMARK                         _______ _______ _______ _____ _____    ______ ____
ROOT
ATOM      1  C   UNL     1     -10.019  54.961  50.939  0.00  0.00    +0.000 A 
ATOM      2  C   UNL     1     -11.366  55.461  51.334  0.00  0.00    +0.000 A 
ATOM      3  C   UNL     1      -9.672  54.919  49.644  0.00  0.00    +0.000 A 
ATOM      4  O   UNL     1     -11.609  55.475  52.542  0.00  0.00    +0.000 OA
ATOM      5  N   UNL     1     -12.255  55.897  50.358  0.00  0.00    +0.000 N 
ATOM      6  C   UNL     1     -10.630  55.314  48.603  0.00  0.00    +0.000 A 
ATOM      7  C   UNL     1     -11.917  55.773  48.955  0.00  0.00    +0.000 A 
ATOM      8  C   UNL     1     -10.266  55.188  47.245  0.00  0.00    +0.000 A 
ATOM      9  C   UNL     1     -12.799  56.072  47.895  0.00  0.00    +0.000 A 
ATOM     10  C   UNL     1     -11.157  55.503  46.226  0.00  0.00    +0.000 A 
ATOM     11  F   UNL     1     -14.061  56.472  48.108  0.00  0.00    +0.000 F 
ATOM     12  C   UNL     1     -12.427  55.946  46.555  0.00  0.00    +0.000 A 
ENDROOT
BRANCH   1  18
ATOM     13  S   UNL     1      -6.780  54.722  53.147  0.00  0.00    +0.000 S 
ATOM     14  O   UNL     1      -6.725  55.732  54.190  0.00  0.00    +0.000 OA
ATOM     15  O   UNL     1      -5.587  54.392  52.393  0.00  0.00    +0.000 OA
ATOM     16  N   UNL     1      -7.928  55.161  52.096  0.00  0.00    +0.000 N 
ATOM     17  C   UNL     1      -7.282  53.237  53.934  0.00  0.00    +0.000 A 
ATOM     18  C   UNL     1      -9.056  54.520  52.031  0.00  0.00    +0.000 C 
ATOM     19  C   UNL     1      -8.558  52.769  53.670  0.00  0.00    +0.000 A 
ATOM     20  C   UNL     1      -6.403  52.556  54.779  0.00  0.00    +0.000 A 
ATOM     21  N   UNL     1      -9.430  53.466  52.837  0.00  0.00    +0.000 N 
ATOM     22  C   UNL     1      -8.989  51.614  54.332  0.00  0.00    +0.000 A 
ATOM     23  C   UNL     1      -6.833  51.390  55.408  0.00  0.00    +0.000 A 
ATOM     24  C   UNL     1      -8.129  50.923  55.190  0.00  0.00    +0.000 A 
ATOM     25  H   UNL     1      -7.771  55.926  51.496  0.00  0.00    +0.000 HD
ATOM     26  H   UNL     1     -10.374  53.188  52.823  0.00  0.00    +0.000 HD
ENDBRANCH   1  18
BRANCH   3  27
ATOM     27  O   UNL     1      -8.437  54.495  49.183  0.00  0.00    +0.000 OA
ATOM     28  H   UNL     1      -7.666  54.983  49.392  0.00  0.00    +0.000 HD
ENDBRANCH   3  27
BRANCH   5  29
ATOM     29  C   UNL     1     -13.625  56.305  50.754  0.00  0.00    +0.000 C 
BRANCH  29  30
ATOM     30  C   UNL     1     -13.882  57.805  51.004  0.00  0.00    +0.000 C 
BRANCH  30  31
ATOM     31  C   UNL     1     -14.119  58.134  52.452  0.00  0.00    +0.000 C 
ATOM     32  C   UNL     1     -15.374  57.753  53.191  0.00  0.00    +0.000 C 
ATOM     33  C   UNL     1     -15.148  59.183  52.790  0.00  0.00    +0.000 C 
ENDBRANCH  30  31
ENDBRANCH  29  30
ENDBRANCH   5  29
TORSDOF 5
ENDMDL
MODEL 2
REMARK VINA RESULT:      -8.4      1.339      4.159
REMARK  Name = 338506
REMARK  5 active torsions:
REMARK  status: ('A' for Active; 'I' for Inactive)
REMARK    1  A    between atoms: C_6  and  C_10
REMARK    2  A    between atoms: C_14  and  O_18
REMARK    3  A    between atoms: N_17  and  C_21
REMARK    4  A    between atoms: C_21  and  C_24
REMARK    5  A    between atoms: C_24  and  C_28
REMARK                            x       y       z     vdW  Elec       q    Type
REMARK                         _______ _______ _______ _____ _____    ______ ____
ROOT
ATOM      1  C   UNL     1     -10.203  55.100  50.863  0.00  0.00    +0.000 A 
ATOM      2  C   UNL     1      -9.772  55.046  49.437  0.00  0.00    +0.000 A 
ATOM      3  C   UNL     1     -11.440  55.514  51.174  0.00  0.00    +0.000 A 
ATOM      4  O   UNL     1      -8.624  54.648  49.230  0.00  0.00    +0.000 OA
ATOM      5  N   UNL     1     -10.660  55.412  48.432  0.00  0.00    +0.000 N 
ATOM      6  C   UNL     1     -12.361  55.968  50.123  0.00  0.00    +0.000 A 
ATOM      7  C   UNL     1     -11.965  55.942  48.769  0.00  0.00    +0.000 A 
ATOM      8  C   UNL     1     -13.628  56.471  50.485  0.00  0.00    +0.000 A 
ATOM      9  C   UNL     1     -12.883  56.453  47.827  0.00  0.00    +0.000 A 
ATOM     10  C   UNL     1     -14.513  56.956  49.529  0.00  0.00    +0.000 A 
ATOM     11  F   UNL     1     -12.599  56.522  46.518  0.00  0.00    +0.000 F 
ATOM     12  C   UNL     1     -14.136  56.946  48.197  0.00  0.00    +0.000 A 
ENDROOT
BRANCH   1  18
ATOM     13  S   UNL     1      -6.939  54.903  53.038  0.00  0.00    +0.000 S 
ATOM     14  O   UNL     1      -6.901  55.894  54.100  0.00  0.00    +0.000 OA
ATOM     15  O   UNL     1      -5.746  54.618  52.268  0.00  0.00    +0.000 OA
ATOM     16  N   UNL     1      -8.109  55.332  52.006  0.00  0.00    +0.000 N 
ATOM     17  C   UNL     1      -7.396  53.390  53.801  0.00  0.00    +0.000 A 
ATOM     18  C   UNL     1      -9.220  54.663  51.938  0.00  0.00    +0.000 C 
ATOM     19  C   UNL     1      -8.662  52.894  53.539  0.00  0.00    +0.000 A 
ATOM     20  C   UNL     1      -6.492  52.717  54.625  0.00  0.00    +0.000 A 
ATOM     21  N   UNL     1      -9.559  53.585  52.727  0.00  0.00    +0.000 N 
ATOM     22  C   UNL     1      -9.056  51.716  54.183  0.00  0.00    +0.000 A 
ATOM     23  C   UNL     1      -6.886  51.528  55.235  0.00  0.00    +0.000 A 
ATOM     24  C   UNL     1      -8.171  51.032  55.020  0.00  0.00    +0.000 A 
ATOM     25  H   UNL     1      -7.976  56.112  51.419  0.00  0.00    +0.000 HD
ATOM     26  H   UNL     1     -10.496  53.282  52.717  0.00  0.00    +0.000 HD
ENDBRANCH   1  18
BRANCH   3  27
ATOM     27  O   UNL     1     -11.938  55.574  52.464  0.00  0.00    +0.000 OA
ATOM     28  H   UNL     1     -11.920  56.383  52.937  0.00  0.00    +0.000 HD
ENDBRANCH   3  27
BRANCH   5  29
ATOM     29  C   UNL     1     -10.191  55.443  47.025  0.00  0.00    +0.000 C 
BRANCH  29  30
ATOM     30  C   UNL     1     -10.057  54.097  46.285  0.00  0.00    +0.000 C 
BRANCH  30  31
ATOM     31  C   UNL     1     -11.131  53.875  45.256  0.00  0.00    +0.000 C 
ATOM     32  C   UNL     1     -11.979  52.632  45.202  0.00  0.00    +0.000 C 
ATOM     33  C   UNL     1     -10.895  52.840  44.184  0.00  0.00    +0.000 C 
ENDBRANCH  30  31
ENDBRANCH  29  30
ENDBRANCH   5  29
TORSDOF 5
ENDMDL
MODEL 3
REMARK VINA RESULT:      -8.3      3.231      7.959
REMARK  Name = 338506
REMARK  5 active torsions:
REMARK  status: ('A' for Active; 'I' for Inactive)
REMARK    1  A    between atoms: C_6  and  C_10
REMARK    2  A    between atoms: C_14  and  O_18
REMARK    3  A    between atoms: N_17  and  C_21
REMARK    4  A    between atoms: C_21  and  C_24
REMARK    5  A    between atoms: C_24  and  C_28
REMARK                            x       y       z     vdW  Elec       q    Type
REMARK                         _______ _______ _______ _____ _____    ______ ____
ROOT
ATOM      1  C   UNL     1     -10.046  54.377  52.391  0.00  0.00    +0.000 A 
ATOM      2  C   UNL     1      -8.673  54.931  52.219  0.00  0.00    +0.000 A 
ATOM      3  C   UNL     1     -10.249  53.323  53.194  0.00  0.00    +0.000 A 
ATOM      4  O   UNL     1      -8.568  55.904  51.471  0.00  0.00    +0.000 OA
ATOM      5  N   UNL     1      -7.608  54.361  52.906  0.00  0.00    +0.000 N 
ATOM      6  C   UNL     1      -9.118  52.672  53.869  0.00  0.00    +0.000 A 
ATOM      7  C   UNL     1      -7.808  53.169  53.706  0.00  0.00    +0.000 A 
ATOM      8  C   UNL     1      -9.350  51.518  54.648  0.00  0.00    +0.000 A 
ATOM      9  C   UNL     1      -6.770  52.451  54.336  0.00  0.00    +0.000 A 
ATOM     10  C   UNL     1      -8.303  50.841  55.265  0.00  0.00    +0.000 A 
ATOM     11  F   UNL     1      -5.482  52.802  54.214  0.00  0.00    +0.000 F 
ATOM     12  C   UNL     1      -7.011  51.311  55.106  0.00  0.00    +0.000 A 
ENDROOT
BRANCH   1  18
ATOM     13  S   UNL     1     -12.268  55.734  49.450  0.00  0.00    +0.000 S 
ATOM     14  O   UNL     1     -13.132  54.718  48.873  0.00  0.00    +0.000 OA
ATOM     15  O   UNL     1     -11.579  56.674  48.589  0.00  0.00    +0.000 OA
ATOM     16  N   UNL     1     -11.158  54.980  50.354  0.00  0.00    +0.000 N 
ATOM     17  C   UNL     1     -13.286  56.697  50.504  0.00  0.00    +0.000 A 
ATOM     18  C   UNL     1     -11.197  55.042  51.651  0.00  0.00    +0.000 C 
ATOM     19  C   UNL     1     -13.100  56.569  51.871  0.00  0.00    +0.000 A 
ATOM     20  C   UNL     1     -14.231  57.571  49.964  0.00  0.00    +0.000 A 
ATOM     21  N   UNL     1     -12.164  55.682  52.397  0.00  0.00    +0.000 N 
ATOM     22  C   UNL     1     -13.941  57.293  52.723  0.00  0.00    +0.000 A 
ATOM     23  C   UNL     1     -15.041  58.310  50.824  0.00  0.00    +0.000 A 
ATOM     24  C   UNL     1     -14.901  58.164  52.203  0.00  0.00    +0.000 A 
ATOM     25  H   UNL     1     -10.442  54.467  49.915  0.00  0.00    +0.000 HD
ATOM     26  H   UNL     1     -12.195  55.500  53.364  0.00  0.00    +0.000 HD
ENDBRANCH   1  18
BRANCH   3  27
ATOM     27  O   UNL     1     -11.489  52.756  53.435  0.00  0.00    +0.000 OA
ATOM     28  H   UNL     1     -11.905  52.874  54.265  0.00  0.00    +0.000 HD
ENDBRANCH   3  27
BRANCH   5  29
ATOM     29  C   UNL     1      -6.233  54.860  52.658  0.00  0.00    +0.000 C 
BRANCH  29  30
ATOM     30  C   UNL     1      -5.435  54.216  51.506  0.00  0.00    +0.000 C 
BRANCH  30  31
ATOM     31  C   UNL     1      -5.531  54.982  50.215  0.00  0.00    +0.000 C 
ATOM     32  C   UNL     1      -6.320  54.501  49.027  0.00  0.00    +0.000 C 
ATOM     33  C   UNL     1      -4.820  54.436  49.002  0.00  0.00    +0.000 C 
ENDBRANCH  30  31
ENDBRANCH  29  30
ENDBRANCH   5  29
TORSDOF 5
ENDMDL
MODEL 4
REMARK VINA RESULT:      -8.0      3.451      7.375
REMARK  Name = 338506
REMARK  5 active torsions:
REMARK  status: ('A' for Active; 'I' for Inactive)
REMARK    1  A    between atoms: C_6  and  C_10
REMARK    2  A    between atoms: C_14  and  O_18
REMARK    3  A    between atoms: N_17  and  C_21
REMARK    4  A    between atoms: C_21  and  C_24
REMARK    5  A    between atoms: C_24  and  C_28
REMARK                            x       y       z     vdW  Elec       q    Type
REMARK                         _______ _______ _______ _____ _____    ______ ____
ROOT
ATOM      1  C   UNL     1     -11.732  53.905  51.060  0.00  0.00    +0.000 A 
ATOM      2  C   UNL     1     -10.791  53.916  52.215  0.00  0.00    +0.000 A 
ATOM      3  C   UNL     1     -11.821  52.820  50.278  0.00  0.00    +0.000 A 
ATOM      4  O   UNL     1     -10.770  54.946  52.891  0.00  0.00    +0.000 OA
ATOM      5  N   UNL     1     -10.018  52.794  52.487  0.00  0.00    +0.000 N 
ATOM      6  C   UNL     1     -10.958  51.655  50.517  0.00  0.00    +0.000 A 
ATOM      7  C   UNL     1     -10.047  51.653  51.595  0.00  0.00    +0.000 A 
ATOM      8  C   UNL     1     -11.017  50.557  49.633  0.00  0.00    +0.000 A 
ATOM      9  C   UNL     1      -9.210  50.524  51.720  0.00  0.00    +0.000 A 
ATOM     10  C   UNL     1     -10.184  49.455  49.793  0.00  0.00    +0.000 A 
ATOM     11  F   UNL     1      -8.275  50.431  52.676  0.00  0.00    +0.000 F 
ATOM     12  C   UNL     1      -9.279  49.442  50.840  0.00  0.00    +0.000 A 
ENDROOT
BRANCH   1  18
ATOM     13  S   UNL     1     -13.291  57.024  49.253  0.00  0.00    +0.000 S 
ATOM     14  O   UNL     1     -14.396  56.681  48.374  0.00  0.00    +0.000 OA
ATOM     15  O   UNL     1     -12.308  58.003  48.834  0.00  0.00    +0.000 OA
ATOM     16  N   UNL     1     -12.509  55.656  49.618  0.00  0.00    +0.000 N 
ATOM     17  C   UNL     1     -14.014  57.661  50.718  0.00  0.00    +0.000 A 
ATOM     18  C   UNL     1     -12.588  55.136  50.806  0.00  0.00    +0.000 C 
ATOM     19  C   UNL     1     -13.942  56.883  51.862  0.00  0.00    +0.000 A 
ATOM     20  C   UNL     1     -14.621  58.919  50.714  0.00  0.00    +0.000 A 
ATOM     21  N   UNL     1     -13.348  55.624  51.848  0.00  0.00    +0.000 N 
ATOM     22  C   UNL     1     -14.561  57.358  53.024  0.00  0.00    +0.000 A 
ATOM     23  C   UNL     1     -15.206  59.393  51.887  0.00  0.00    +0.000 A 
ATOM     24  C   UNL     1     -15.183  58.609  53.039  0.00  0.00    +0.000 A 
ATOM     25  H   UNL     1     -11.964  55.210  48.930  0.00  0.00    +0.000 HD
ATOM     26  H   UNL     1     -13.478  55.045  52.633  0.00  0.00    +0.000 HD
ENDBRANCH   1  18
BRANCH   3  27
ATOM     27  O   UNL     1     -12.682  52.706  49.199  0.00  0.00    +0.000 OA
ATOM     28  H   UNL     1     -13.303  52.005  49.166  0.00  0.00    +0.000 HD
ENDBRANCH   3  27
BRANCH   5  29
ATOM     29  C   UNL     1      -9.018  52.849  53.582  0.00  0.00    +0.000 C 
BRANCH  29  30
ATOM     30  C   UNL     1      -7.643  53.472  53.266  0.00  0.00    +0.000 C 
BRANCH  30  31
ATOM     31  C   UNL     1      -7.284  54.613  54.178  0.00  0.00    +0.000 C 
ATOM     32  C   UNL     1      -6.170  55.582  53.889  0.00  0.00    +0.000 C 
ATOM     33  C   UNL     1      -5.992  54.535  54.950  0.00  0.00    +0.000 C 
ENDBRANCH  30  31
ENDBRANCH  29  30
ENDBRANCH   5  29
TORSDOF 5
ENDMDL
MODEL 5
REMARK VINA RESULT:      -8.0      1.974      4.764
REMARK  Name = 338506
REMARK  5 active torsions:
REMARK  status: ('A' for Active; 'I' for Inactive)
REMARK    1  A    between atoms: C_6  and  C_10
REMARK    2  A    between atoms: C_14  and  O_18
REMARK    3  A    between atoms: N_17  and  C_21
REMARK    4  A    between atoms: C_21  and  C_24
REMARK    5  A    between atoms: C_24  and  C_28
REMARK                            x       y       z     vdW  Elec       q    Type
REMARK                         _______ _______ _______ _____ _____    ______ ____
ROOT
ATOM      1  C   UNL     1     -10.656  54.982  50.654  0.00  0.00    +0.000 A 
ATOM      2  C   UNL     1     -10.450  54.955  49.178  0.00  0.00    +0.000 A 
ATOM      3  C   UNL     1     -11.714  55.623  51.172  0.00  0.00    +0.000 A 
ATOM      4  O   UNL     1      -9.460  54.341  48.777  0.00  0.00    +0.000 OA
ATOM      5  N   UNL     1     -11.366  55.583  48.342  0.00  0.00    +0.000 N 
ATOM      6  C   UNL     1     -12.648  56.346  50.300  0.00  0.00    +0.000 A 
ATOM      7  C   UNL     1     -12.461  56.348  48.901  0.00  0.00    +0.000 A 
ATOM      8  C   UNL     1     -13.709  57.075  50.877  0.00  0.00    +0.000 A 
ATOM      9  C   UNL     1     -13.364  57.118  48.138  0.00  0.00    +0.000 A 
ATOM     10  C   UNL     1     -14.589  57.815  50.093  0.00  0.00    +0.000 A 
ATOM     11  F   UNL     1     -13.258  57.233  46.806  0.00  0.00    +0.000 F 
ATOM     12  C   UNL     1     -14.412  57.834  48.720  0.00  0.00    +0.000 A 
ENDROOT
BRANCH   1  18
ATOM     13  S   UNL     1      -9.037  52.212  52.920  0.00  0.00    +0.000 S 
ATOM     14  O   UNL     1      -8.366  51.173  52.158  0.00  0.00    +0.000 OA
ATOM     15  O   UNL     1      -9.842  51.862  54.072  0.00  0.00    +0.000 OA
ATOM     16  N   UNL     1      -9.968  53.050  51.896  0.00  0.00    +0.000 N 
ATOM     17  C   UNL     1      -7.773  53.272  53.517  0.00  0.00    +0.000 A 
ATOM     18  C   UNL     1      -9.655  54.260  51.542  0.00  0.00    +0.000 C 
ATOM     19  C   UNL     1      -7.673  54.535  52.956  0.00  0.00    +0.000 A 
ATOM     20  C   UNL     1      -6.919  52.843  54.536  0.00  0.00    +0.000 A 
ATOM     21  N   UNL     1      -8.522  54.943  51.930  0.00  0.00    +0.000 N 
ATOM     22  C   UNL     1      -6.636  55.369  53.388  0.00  0.00    +0.000 A 
ATOM     23  C   UNL     1      -5.910  53.697  54.978  0.00  0.00    +0.000 A 
ATOM     24  C   UNL     1      -5.764  54.956  54.398  0.00  0.00    +0.000 A 
ATOM     25  H   UNL     1     -10.786  52.636  51.535  0.00  0.00    +0.000 HD
ATOM     26  H   UNL     1      -8.297  55.772  51.451  0.00  0.00    +0.000 HD
ENDBRANCH   1  18
BRANCH   3  27
ATOM     27  O   UNL     1     -12.001  55.681  52.525  0.00  0.00    +0.000 OA
ATOM     28  H   UNL     1     -11.511  55.162  53.132  0.00  0.00    +0.000 HD
ENDBRANCH   3  27
BRANCH   5  29
ATOM     29  C   UNL     1     -11.103  55.629  46.882  0.00  0.00    +0.000 C 
BRANCH  29  30
ATOM     30  C   UNL     1     -11.618  54.457  46.024  0.00  0.00    +0.000 C 
BRANCH  30  31
ATOM     31  C   UNL     1     -10.530  53.760  45.255  0.00  0.00    +0.000 C 
ATOM     32  C   UNL     1     -10.798  52.703  44.217  0.00  0.00    +0.000 C 
ATOM     33  C   UNL     1     -10.252  52.309  45.559  0.00  0.00    +0.000 C 
ENDBRANCH  30  31
ENDBRANCH  29  30
ENDBRANCH   5  29
TORSDOF 5
ENDMDL
MODEL 6
REMARK VINA RESULT:      -8.0      3.314      6.898
REMARK  Name = 338506
REMARK  5 active torsions:
REMARK  status: ('A' for Active; 'I' for Inactive)
REMARK    1  A    between atoms: C_6  and  C_10
REMARK    2  A    between atoms: C_14  and  O_18
REMARK    3  A    between atoms: N_17  and  C_21
REMARK    4  A    between atoms: C_21  and  C_24
REMARK    5  A    between atoms: C_24  and  C_28
REMARK                            x       y       z     vdW  Elec       q    Type
REMARK                         _______ _______ _______ _____ _____    ______ ____
ROOT
ATOM      1  C   UNL     1     -10.866  54.954  48.177  0.00  0.00    +0.000 A 
ATOM      2  C   UNL     1     -10.384  54.794  49.579  0.00  0.00    +0.000 A 
ATOM      3  C   UNL     1     -11.967  55.675  47.925  0.00  0.00    +0.000 A 
ATOM      4  O   UNL     1      -9.362  54.122  49.730  0.00  0.00    +0.000 OA
ATOM      5  N   UNL     1     -11.071  55.407  50.620  0.00  0.00    +0.000 N 
ATOM      6  C   UNL     1     -12.738  56.269  49.026  0.00  0.00    +0.000 A 
ATOM      7  C   UNL     1     -12.309  56.114  50.362  0.00  0.00    +0.000 A 
ATOM      8  C   UNL     1     -13.935  56.958  48.739  0.00  0.00    +0.000 A 
ATOM      9  C   UNL     1     -13.137  56.659  51.365  0.00  0.00    +0.000 A 
ATOM     10  C   UNL     1     -14.722  57.494  49.752  0.00  0.00    +0.000 A 
ATOM     11  F   UNL     1     -12.856  56.533  52.670  0.00  0.00    +0.000 F 
ATOM     12  C   UNL     1     -14.319  57.342  51.068  0.00  0.00    +0.000 A 
ENDROOT
BRANCH   1  18
ATOM     13  S   UNL     1      -7.958  54.192  45.650  0.00  0.00    +0.000 S 
ATOM     14  O   UNL     1      -6.922  53.342  46.212  0.00  0.00    +0.000 OA
ATOM     15  O   UNL     1      -7.597  55.325  44.822  0.00  0.00    +0.000 OA
ATOM     16  N   UNL     1      -8.866  54.736  46.873  0.00  0.00    +0.000 N 
ATOM     17  C   UNL     1      -8.946  53.151  44.642  0.00  0.00    +0.000 A 
ATOM     18  C   UNL     1     -10.075  54.298  47.056  0.00  0.00    +0.000 C 
ATOM     19  C   UNL     1     -10.224  52.850  45.085  0.00  0.00    +0.000 A 
ATOM     20  C   UNL     1      -8.450  52.668  43.429  0.00  0.00    +0.000 A 
ATOM     21  N   UNL     1     -10.700  53.326  46.305  0.00  0.00    +0.000 N 
ATOM     22  C   UNL     1     -11.002  51.979  44.316  0.00  0.00    +0.000 A 
ATOM     23  C   UNL     1      -9.248  51.827  42.657  0.00  0.00    +0.000 A 
ATOM     24  C   UNL     1     -10.521  51.476  43.104  0.00  0.00    +0.000 A 
ATOM     25  H   UNL     1      -8.497  55.411  47.488  0.00  0.00    +0.000 HD
ATOM     26  H   UNL     1     -11.537  52.942  46.652  0.00  0.00    +0.000 HD
ENDBRANCH   1  18
BRANCH   3  27
ATOM     27  O   UNL     1     -12.476  55.900  46.658  0.00  0.00    +0.000 OA
ATOM     28  H   UNL     1     -12.191  55.374  45.937  0.00  0.00    +0.000 HD
ENDBRANCH   3  27
BRANCH   5  29
ATOM     29  C   UNL     1     -10.638  55.165  52.018  0.00  0.00    +0.000 C 
BRANCH  29  30
ATOM     30  C   UNL     1     -10.972  53.796  52.645  0.00  0.00    +0.000 C 
BRANCH  30  31
ATOM     31  C   UNL     1      -9.932  53.320  53.622  0.00  0.00    +0.000 C 
ATOM     32  C   UNL     1      -8.480  53.151  53.266  0.00  0.00    +0.000 C 
ATOM     33  C   UNL     1      -9.352  51.941  53.436  0.00  0.00    +0.000 C 
ENDBRANCH  30  31
ENDBRANCH  29  30
ENDBRANCH   5  29
TORSDOF 5
ENDMDL
MODEL 7
REMARK VINA RESULT:      -7.9      3.250      6.889
REMARK  Name = 338506
REMARK  5 active torsions:
REMARK  status: ('A' for Active; 'I' for Inactive)
REMARK    1  A    between atoms: C_6  and  C_10
REMARK    2  A    between atoms: C_14  and  O_18
REMARK    3  A    between atoms: N_17  and  C_21
REMARK    4  A    between atoms: C_21  and  C_24
REMARK    5  A    between atoms: C_24  and  C_28
REMARK                            x       y       z     vdW  Elec       q    Type
REMARK                         _______ _______ _______ _____ _____    ______ ____
ROOT
ATOM      1  C   UNL     1     -11.359  55.839  48.955  0.00  0.00    +0.000 A 
ATOM      2  C   UNL     1     -10.347  55.282  49.897  0.00  0.00    +0.000 A 
ATOM      3  C   UNL     1     -11.351  55.469  47.667  0.00  0.00    +0.000 A 
ATOM      4  O   UNL     1     -10.422  55.664  51.066  0.00  0.00    +0.000 OA
ATOM      5  N   UNL     1      -9.405  54.368  49.438  0.00  0.00    +0.000 N 
ATOM      6  C   UNL     1     -10.317  54.557  47.159  0.00  0.00    +0.000 A 
ATOM      7  C   UNL     1      -9.338  54.033  48.031  0.00  0.00    +0.000 A 
ATOM      8  C   UNL     1     -10.286  54.245  45.783  0.00  0.00    +0.000 A 
ATOM      9  C   UNL     1      -8.344  53.215  47.454  0.00  0.00    +0.000 A 
ATOM     10  C   UNL     1      -9.296  53.426  45.251  0.00  0.00    +0.000 A 
ATOM     11  F   UNL     1      -7.337  52.700  48.175  0.00  0.00    +0.000 F 
ATOM     12  C   UNL     1      -8.324  52.911  46.091  0.00  0.00    +0.000 A 
ENDROOT
BRANCH   1  18
ATOM     13  S   UNL     1     -13.483  59.111  49.411  0.00  0.00    +0.000 S 
ATOM     14  O   UNL     1     -14.599  59.200  48.485  0.00  0.00    +0.000 OA
ATOM     15  O   UNL     1     -12.684  60.285  49.699  0.00  0.00    +0.000 OA
ATOM     16  N   UNL     1     -12.490  57.951  48.876  0.00  0.00    +0.000 N 
ATOM     17  C   UNL     1     -14.162  58.599  50.945  0.00  0.00    +0.000 A 
ATOM     18  C   UNL     1     -12.396  56.812  49.493  0.00  0.00    +0.000 C 
ATOM     19  C   UNL     1     -13.886  57.311  51.373  0.00  0.00    +0.000 A 
ATOM     20  C   UNL     1     -14.936  59.482  51.702  0.00  0.00    +0.000 A 
ATOM     21  N   UNL     1     -13.126  56.436  50.601  0.00  0.00    +0.000 N 
ATOM     22  C   UNL     1     -14.466  56.874  52.569  0.00  0.00    +0.000 A 
ATOM     23  C   UNL     1     -15.481  59.043  52.907  0.00  0.00    +0.000 A 
ATOM     24  C   UNL     1     -15.252  57.737  53.337  0.00  0.00    +0.000 A 
ATOM     25  H   UNL     1     -11.948  58.111  48.069  0.00  0.00    +0.000 HD
ATOM     26  H   UNL     1     -13.108  55.487  50.863  0.00  0.00    +0.000 HD
ENDBRANCH   1  18
BRANCH   3  27
ATOM     27  O   UNL     1     -12.264  55.912  46.725  0.00  0.00    +0.000 OA
ATOM     28  H   UNL     1     -12.887  56.574  46.951  0.00  0.00    +0.000 HD
ENDBRANCH   3  27
BRANCH   5  29
ATOM     29  C   UNL     1      -8.346  53.892  50.361  0.00  0.00    +0.000 C 
BRANCH  29  30
ATOM     30  C   UNL     1      -7.191  54.861  50.687  0.00  0.00    +0.000 C 
BRANCH  30  31
ATOM     31  C   UNL     1      -6.789  54.840  52.136  0.00  0.00    +0.000 C 
ATOM     32  C   UNL     1      -7.778  54.733  53.266  0.00  0.00    +0.000 C 
ATOM     33  C   UNL     1      -7.105  56.046  52.985  0.00  0.00    +0.000 C 
ENDBRANCH  30  31
ENDBRANCH  29  30
ENDBRANCH   5  29
TORSDOF 5
ENDMDL
MODEL 8
REMARK VINA RESULT:      -7.5      3.803      7.540
REMARK  Name = 338506
REMARK  5 active torsions:
REMARK  status: ('A' for Active; 'I' for Inactive)
REMARK    1  A    between atoms: C_6  and  C_10
REMARK    2  A    between atoms: C_14  and  O_18
REMARK    3  A    between atoms: N_17  and  C_21
REMARK    4  A    between atoms: C_21  and  C_24
REMARK    5  A    between atoms: C_24  and  C_28
REMARK                            x       y       z     vdW  Elec       q    Type
REMARK                         _______ _______ _______ _____ _____    ______ ____
ROOT
ATOM      1  C   UNL     1     -11.942  54.685  48.746  0.00  0.00    +0.000 A 
ATOM      2  C   UNL     1     -11.289  53.618  49.557  0.00  0.00    +0.000 A 
ATOM      3  C   UNL     1     -11.762  54.723  47.418  0.00  0.00    +0.000 A 
ATOM      4  O   UNL     1     -11.508  53.645  50.769  0.00  0.00    +0.000 OA
ATOM      5  N   UNL     1     -10.506  52.656  48.930  0.00  0.00    +0.000 N 
ATOM      6  C   UNL     1     -10.880  53.752  46.757  0.00  0.00    +0.000 A 
ATOM      7  C   UNL     1     -10.238  52.744  47.509  0.00  0.00    +0.000 A 
ATOM      8  C   UNL     1     -10.647  53.862  45.370  0.00  0.00    +0.000 A 
ATOM      9  C   UNL     1      -9.359  51.890  46.811  0.00  0.00    +0.000 A 
ATOM     10  C   UNL     1      -9.783  52.994  44.711  0.00  0.00    +0.000 A 
ATOM     11  F   UNL     1      -8.659  50.927  47.428  0.00  0.00    +0.000 F 
ATOM     12  C   UNL     1      -9.138  52.007  45.437  0.00  0.00    +0.000 A 
ENDROOT
BRANCH   1  18
ATOM     13  S   UNL     1     -14.894  56.217  50.836  0.00  0.00    +0.000 S 
ATOM     14  O   UNL     1     -14.680  56.134  52.270  0.00  0.00    +0.000 OA
ATOM     15  O   UNL     1     -16.203  55.939  50.280  0.00  0.00    +0.000 OA
ATOM     16  N   UNL     1     -13.829  55.231  50.121  0.00  0.00    +0.000 N 
ATOM     17  C   UNL     1     -14.516  57.868  50.381  0.00  0.00    +0.000 A 
ATOM     18  C   UNL     1     -12.819  55.705  49.456  0.00  0.00    +0.000 C 
ATOM     19  C   UNL     1     -13.359  58.087  49.651  0.00  0.00    +0.000 A 
ATOM     20  C   UNL     1     -15.375  58.910  50.739  0.00  0.00    +0.000 A 
ATOM     21  N   UNL     1     -12.504  57.040  49.316  0.00  0.00    +0.000 N 
ATOM     22  C   UNL     1     -13.020  59.405  49.329  0.00  0.00    +0.000 A 
ATOM     23  C   UNL     1     -15.041  60.216  50.384  0.00  0.00    +0.000 A 
ATOM     24  C   UNL     1     -13.859  60.463  49.686  0.00  0.00    +0.000 A 
ATOM     25  H   UNL     1     -13.948  54.256  50.191  0.00  0.00    +0.000 HD
ATOM     26  H   UNL     1     -11.617  57.268  48.955  0.00  0.00    +0.000 HD
ENDBRANCH   1  18
BRANCH   3  27
ATOM     27  O   UNL     1     -12.345  55.658  46.581  0.00  0.00    +0.000 OA
ATOM     28  H   UNL     1     -12.259  56.573  46.766  0.00  0.00    +0.000 HD
ENDBRANCH   3  27
BRANCH   5  29
ATOM     29  C   UNL     1      -9.786  51.655  49.755  0.00  0.00    +0.000 C 
BRANCH  29  30
ATOM     30  C   UNL     1      -8.612  52.153  50.623  0.00  0.00    +0.000 C 
BRANCH  30  31
ATOM     31  C   UNL     1      -7.706  53.113  49.903  0.00  0.00    +0.000 C 
ATOM     32  C   UNL     1      -6.466  52.684  49.166  0.00  0.00    +0.000 C 
ATOM     33  C   UNL     1      -6.343  53.388  50.486  0.00  0.00    +0.000 C 
ENDBRANCH  30  31
ENDBRANCH  29  30
ENDBRANCH   5  29
TORSDOF 5
ENDMDL
MODEL 9
REMARK VINA RESULT:      -7.3      3.524      6.882
REMARK  Name = 338506
REMARK  5 active torsions:
REMARK  status: ('A' for Active; 'I' for Inactive)
REMARK    1  A    between atoms: C_6  and  C_10
REMARK    2  A    between atoms: C_14  and  O_18
REMARK    3  A    between atoms: N_17  and  C_21
REMARK    4  A    between atoms: C_21  and  C_24
REMARK    5  A    between atoms: C_24  and  C_28
REMARK                            x       y       z     vdW  Elec       q    Type
REMARK                         _______ _______ _______ _____ _____    ______ ____
ROOT
ATOM      1  C   UNL     1     -12.390  55.027  48.740  0.00  0.00    +0.000 A 
ATOM      2  C   UNL     1     -12.071  53.875  49.630  0.00  0.00    +0.000 A 
ATOM      3  C   UNL     1     -12.070  54.979  47.439  0.00  0.00    +0.000 A 
ATOM      4  O   UNL     1     -12.401  53.991  50.811  0.00  0.00    +0.000 OA
ATOM      5  N   UNL     1     -11.455  52.745  49.104  0.00  0.00    +0.000 N 
ATOM      6  C   UNL     1     -11.357  53.817  46.889  0.00  0.00    +0.000 A 
ATOM      7  C   UNL     1     -11.030  52.723  47.719  0.00  0.00    +0.000 A 
ATOM      8  C   UNL     1     -10.965  53.825  45.534  0.00  0.00    +0.000 A 
ATOM      9  C   UNL     1     -10.291  51.676  47.131  0.00  0.00    +0.000 A 
ATOM     10  C   UNL     1     -10.247  52.769  44.984  0.00  0.00    +0.000 A 
ATOM     11  F   UNL     1      -9.884  50.608  47.832  0.00  0.00    +0.000 F 
ATOM     12  C   UNL     1      -9.910  51.693  45.787  0.00  0.00    +0.000 A 
ENDROOT
BRANCH   1  18
ATOM     13  S   UNL     1     -13.475  58.751  49.355  0.00  0.00    +0.000 S 
ATOM     14  O   UNL     1     -14.540  59.189  48.468  0.00  0.00    +0.000 OA
ATOM     15  O   UNL     1     -12.367  59.637  49.650  0.00  0.00    +0.000 OA
ATOM     16  N   UNL     1     -12.869  57.377  48.756  0.00  0.00    +0.000 N 
ATOM     17  C   UNL     1     -14.238  58.400  50.895  0.00  0.00    +0.000 A 
ATOM     18  C   UNL     1     -13.092  56.237  49.338  0.00  0.00    +0.000 C 
ATOM     19  C   UNL     1     -14.334  57.072  51.277  0.00  0.00    +0.000 A 
ATOM     20  C   UNL     1     -14.709  59.439  51.700  0.00  0.00    +0.000 A 
ATOM     21  N   UNL     1     -13.874  56.045  50.457  0.00  0.00    +0.000 N 
ATOM     22  C   UNL     1     -14.987  56.776  52.479  0.00  0.00    +0.000 A 
ATOM     23  C   UNL     1     -15.330  59.131  52.909  0.00  0.00    +0.000 A 
ATOM     24  C   UNL     1     -15.475  57.799  53.294  0.00  0.00    +0.000 A 
ATOM     25  H   UNL     1     -12.322  57.404  47.937  0.00  0.00    +0.000 HD
ATOM     26  H   UNL     1     -14.123  55.122  50.692  0.00  0.00    +0.000 HD
ENDBRANCH   1  18
BRANCH   3  27
ATOM     27  O   UNL     1     -12.347  55.987  46.531  0.00  0.00    +0.000 OA
ATOM     28  H   UNL     1     -11.718  56.213  45.875  0.00  0.00    +0.000 HD
ENDBRANCH   3  27
BRANCH   5  29
ATOM     29  C   UNL     1     -11.059  51.644  50.014  0.00  0.00    +0.000 C 
BRANCH  29  30
ATOM     30  C   UNL     1      -9.836  51.872  50.926  0.00  0.00    +0.000 C 
BRANCH  30  31
ATOM     31  C   UNL     1     -10.114  51.588  52.376  0.00  0.00    +0.000 C 
ATOM     32  C   UNL     1     -10.464  52.658  53.375  0.00  0.00    +0.000 C 
ATOM     33  C   UNL     1      -9.101  52.030  53.401  0.00  0.00    +0.000 C 
ENDBRANCH  30  31
ENDBRANCH  29  30
ENDBRANCH   5  29
TORSDOF 5
ENDMDL
