MODEL 1
REMARK VINA RESULT:      -8.4      0.000      0.000
REMARK  Name = 338085
REMARK  8 active torsions:
REMARK  status: ('A' for Active; 'I' for Inactive)
REMARK    1  A    between atoms: C_6  and  C_10
REMARK    2  A    between atoms: C_14  and  O_18
REMARK    3  A    between atoms: N_17  and  C_21
REMARK    4  A    between atoms: C_21  and  C_24
REMARK    5  A    between atoms: C_22  and  N_25
REMARK    6  A    between atoms: C_24  and  C_28
REMARK    7  A    between atoms: C_28  and  C_31
REMARK    8  A    between atoms: C_28  and  C_32
REMARK                            x       y       z     vdW  Elec       q    Type
REMARK                         _______ _______ _______ _____ _____    ______ ____
ROOT
ATOM      1  C   UNL     1     -10.301  55.291  50.754  0.00  0.00    +0.000 A 
ATOM      2  C   UNL     1      -9.862  55.251  49.330  0.00  0.00    +0.000 A 
ATOM      3  C   UNL     1     -11.537  55.715  51.066  0.00  0.00    +0.000 A 
ATOM      4  O   UNL     1      -8.744  54.803  49.068  0.00  0.00    +0.000 OA
ATOM      5  N   UNL     1     -10.758  55.656  48.349  0.00  0.00    +0.000 N 
ATOM      6  C   UNL     1     -12.456  56.231  50.037  0.00  0.00    +0.000 A 
ATOM      7  C   UNL     1     -12.066  56.141  48.681  0.00  0.00    +0.000 A 
ATOM      8  C   UNL     1     -13.728  56.781  50.316  0.00  0.00    +0.000 A 
ATOM      9  C   UNL     1     -12.974  56.529  47.677  0.00  0.00    +0.000 A 
ATOM     10  C   UNL     1     -14.642  57.109  49.308  0.00  0.00    +0.000 A 
ATOM     11  C   UNL     1     -14.263  56.967  47.983  0.00  0.00    +0.000 A 
ENDROOT
BRANCH   1  17
ATOM     12  S   UNL     1      -7.167  54.845  53.075  0.00  0.00    +0.000 S 
ATOM     13  O   UNL     1      -7.168  55.774  54.193  0.00  0.00    +0.000 OA
ATOM     14  O   UNL     1      -5.939  54.556  52.361  0.00  0.00    +0.000 OA
ATOM     15  N   UNL     1      -8.263  55.368  52.001  0.00  0.00    +0.000 N 
ATOM     16  C   UNL     1      -7.724  53.311  53.721  0.00  0.00    +0.000 A 
ATOM     17  C   UNL     1      -9.386  54.734  51.823  0.00  0.00    +0.000 C 
ATOM     18  C   UNL     1      -8.979  52.863  53.345  0.00  0.00    +0.000 A 
ATOM     19  C   UNL     1      -6.900  52.574  54.579  0.00  0.00    +0.000 A 
ATOM     20  N   UNL     1      -9.798  53.615  52.505  0.00  0.00    +0.000 N 
ATOM     21  C   UNL     1      -9.448  51.666  53.895  0.00  0.00    +0.000 A 
ATOM     22  C   UNL     1      -7.368  51.370  55.095  0.00  0.00    +0.000 A 
ATOM     23  C   UNL     1      -8.644  50.918  54.760  0.00  0.00    +0.000 A 
ATOM     24  H   UNL     1      -8.076  56.180  51.476  0.00  0.00    +0.000 HD
ATOM     25  H   UNL     1     -10.732  53.325  52.394  0.00  0.00    +0.000 HD
ENDBRANCH   1  17
BRANCH   8  26
ATOM     26  N   UNL     1     -14.121  57.166  51.664  0.00  0.00    +0.000 N 
ATOM     27  O   UNL     1     -13.728  58.270  52.067  0.00  0.00    +0.000 OA
ATOM     28  O   UNL     1     -14.916  56.419  52.252  0.00  0.00    +0.000 OA
ENDBRANCH   8  26
BRANCH   3  29
ATOM     29  O   UNL     1     -12.075  55.612  52.335  0.00  0.00    +0.000 OA
ATOM     30  H   UNL     1     -12.789  55.027  52.495  0.00  0.00    +0.000 HD
ENDBRANCH   3  29
BRANCH   5  31
ATOM     31  C   UNL     1     -10.303  55.573  46.950  0.00  0.00    +0.000 C 
BRANCH  31  32
ATOM     32  C   UNL     1     -10.610  54.210  46.312  0.00  0.00    +0.000 C 
BRANCH  32  33
ATOM     33  C   UNL     1      -9.392  53.527  45.656  0.00  0.00    +0.000 C 
ATOM     34  C   UNL     1      -9.703  52.977  44.262  0.00  0.00    +0.000 C 
ATOM     35  C   UNL     1      -8.233  54.526  45.559  0.00  0.00    +0.000 C 
ENDBRANCH  32  33
ENDBRANCH  31  32
ENDBRANCH   5  31
TORSDOF 6
ENDMDL
MODEL 2
REMARK VINA RESULT:      -8.1      1.512      2.076
REMARK  Name = 338085
REMARK  8 active torsions:
REMARK  status: ('A' for Active; 'I' for Inactive)
REMARK    1  A    between atoms: C_6  and  C_10
REMARK    2  A    between atoms: C_14  and  O_18
REMARK    3  A    between atoms: N_17  and  C_21
REMARK    4  A    between atoms: C_21  and  C_24
REMARK    5  A    between atoms: C_22  and  N_25
REMARK    6  A    between atoms: C_24  and  C_28
REMARK    7  A    between atoms: C_28  and  C_31
REMARK    8  A    between atoms: C_28  and  C_32
REMARK                            x       y       z     vdW  Elec       q    Type
REMARK                         _______ _______ _______ _____ _____    ______ ____
ROOT
ATOM      1  C   UNL     1     -10.470  54.905  50.479  0.00  0.00    +0.000 A 
ATOM      2  C   UNL     1     -10.057  54.938  49.048  0.00  0.00    +0.000 A 
ATOM      3  C   UNL     1     -11.659  55.411  50.849  0.00  0.00    +0.000 A 
ATOM      4  O   UNL     1      -8.988  54.413  48.729  0.00  0.00    +0.000 OA
ATOM      5  N   UNL     1     -10.926  55.497  48.120  0.00  0.00    +0.000 N 
ATOM      6  C   UNL     1     -12.542  56.087  49.882  0.00  0.00    +0.000 A 
ATOM      7  C   UNL     1     -12.180  56.069  48.515  0.00  0.00    +0.000 A 
ATOM      8  C   UNL     1     -13.754  56.724  50.229  0.00  0.00    +0.000 A 
ATOM      9  C   UNL     1     -13.063  56.614  47.563  0.00  0.00    +0.000 A 
ATOM     10  C   UNL     1     -14.649  57.211  49.269  0.00  0.00    +0.000 A 
ATOM     11  C   UNL     1     -14.303  57.140  47.929  0.00  0.00    +0.000 A 
ENDROOT
BRANCH   1  17
ATOM     12  S   UNL     1      -9.262  52.234  53.089  0.00  0.00    +0.000 S 
ATOM     13  O   UNL     1      -8.747  51.032  52.455  0.00  0.00    +0.000 OA
ATOM     14  O   UNL     1     -10.098  52.141  54.270  0.00  0.00    +0.000 OA
ATOM     15  N   UNL     1     -10.071  53.074  51.964  0.00  0.00    +0.000 N 
ATOM     16  C   UNL     1      -7.855  53.170  53.565  0.00  0.00    +0.000 A 
ATOM     17  C   UNL     1      -9.595  54.187  51.483  0.00  0.00    +0.000 C 
ATOM     18  C   UNL     1      -7.591  54.342  52.876  0.00  0.00    +0.000 A 
ATOM     19  C   UNL     1      -7.049  52.732  54.620  0.00  0.00    +0.000 A 
ATOM     20  N   UNL     1      -8.390  54.759  51.815  0.00  0.00    +0.000 N 
ATOM     21  C   UNL     1      -6.445  55.067  53.218  0.00  0.00    +0.000 A 
ATOM     22  C   UNL     1      -5.928  53.479  54.968  0.00  0.00    +0.000 A 
ATOM     23  C   UNL     1      -5.620  54.643  54.265  0.00  0.00    +0.000 A 
ATOM     24  H   UNL     1     -10.937  52.736  51.638  0.00  0.00    +0.000 HD
ATOM     25  H   UNL     1      -8.072  55.512  51.267  0.00  0.00    +0.000 HD
ENDBRANCH   1  17
BRANCH   8  26
ATOM     26  N   UNL     1     -14.092  57.035  51.610  0.00  0.00    +0.000 N 
ATOM     27  O   UNL     1     -13.601  58.069  52.087  0.00  0.00    +0.000 OA
ATOM     28  O   UNL     1     -14.938  56.315  52.158  0.00  0.00    +0.000 OA
ENDBRANCH   8  26
BRANCH   3  29
ATOM     29  O   UNL     1     -12.186  55.258  52.117  0.00  0.00    +0.000 OA
ATOM     30  H   UNL     1     -11.719  55.583  52.861  0.00  0.00    +0.000 HD
ENDBRANCH   3  29
BRANCH   5  31
ATOM     31  C   UNL     1     -10.500  55.483  46.709  0.00  0.00    +0.000 C 
BRANCH  31  32
ATOM     32  C   UNL     1     -11.101  54.308  45.925  0.00  0.00    +0.000 C 
BRANCH  32  33
ATOM     33  C   UNL     1     -10.057  53.333  45.341  0.00  0.00    +0.000 C 
ATOM     34  C   UNL     1     -10.470  52.769  43.980  0.00  0.00    +0.000 C 
ATOM     35  C   UNL     1      -8.707  54.048  45.204  0.00  0.00    +0.000 C 
ENDBRANCH  32  33
ENDBRANCH  31  32
ENDBRANCH   5  31
TORSDOF 6
ENDMDL
MODEL 3
REMARK VINA RESULT:      -8.0      1.651      4.726
REMARK  Name = 338085
REMARK  8 active torsions:
REMARK  status: ('A' for Active; 'I' for Inactive)
REMARK    1  A    between atoms: C_6  and  C_10
REMARK    2  A    between atoms: C_14  and  O_18
REMARK    3  A    between atoms: N_17  and  C_21
REMARK    4  A    between atoms: C_21  and  C_24
REMARK    5  A    between atoms: C_22  and  N_25
REMARK    6  A    between atoms: C_24  and  C_28
REMARK    7  A    between atoms: C_28  and  C_31
REMARK    8  A    between atoms: C_28  and  C_32
REMARK                            x       y       z     vdW  Elec       q    Type
REMARK                         _______ _______ _______ _____ _____    ______ ____
ROOT
ATOM      1  C   UNL     1     -10.160  54.919  50.972  0.00  0.00    +0.000 A 
ATOM      2  C   UNL     1     -11.476  55.369  51.505  0.00  0.00    +0.000 A 
ATOM      3  C   UNL     1      -9.917  54.961  49.651  0.00  0.00    +0.000 A 
ATOM      4  O   UNL     1     -11.650  55.375  52.725  0.00  0.00    +0.000 OA
ATOM      5  N   UNL     1     -12.431  55.831  50.607  0.00  0.00    +0.000 N 
ATOM      6  C   UNL     1     -10.959  55.363  48.690  0.00  0.00    +0.000 A 
ATOM      7  C   UNL     1     -12.188  55.846  49.195  0.00  0.00    +0.000 A 
ATOM      8  C   UNL     1     -10.794  55.332  47.287  0.00  0.00    +0.000 A 
ATOM      9  C   UNL     1     -13.154  56.336  48.296  0.00  0.00    +0.000 A 
ATOM     10  C   UNL     1     -11.739  55.875  46.408  0.00  0.00    +0.000 A 
ATOM     11  C   UNL     1     -12.918  56.391  46.921  0.00  0.00    +0.000 A 
ENDROOT
BRANCH   1  17
ATOM     12  S   UNL     1      -6.696  54.892  52.820  0.00  0.00    +0.000 S 
ATOM     13  O   UNL     1      -6.592  55.945  53.817  0.00  0.00    +0.000 OA
ATOM     14  O   UNL     1      -5.571  54.578  51.962  0.00  0.00    +0.000 OA
ATOM     15  N   UNL     1      -7.970  55.235  51.877  0.00  0.00    +0.000 N 
ATOM     16  C   UNL     1      -7.054  53.420  53.707  0.00  0.00    +0.000 A 
ATOM     17  C   UNL     1      -9.064  54.534  51.943  0.00  0.00    +0.000 C 
ATOM     18  C   UNL     1      -8.320  52.874  53.579  0.00  0.00    +0.000 A 
ATOM     19  C   UNL     1      -6.068  52.828  54.503  0.00  0.00    +0.000 A 
ATOM     20  N   UNL     1      -9.300  53.484  52.798  0.00  0.00    +0.000 N 
ATOM     21  C   UNL     1      -8.627  51.730  54.321  0.00  0.00    +0.000 A 
ATOM     22  C   UNL     1      -6.379  51.672  55.213  0.00  0.00    +0.000 A 
ATOM     23  C   UNL     1      -7.658  51.125  55.128  0.00  0.00    +0.000 A 
ATOM     24  H   UNL     1      -7.913  55.987  51.244  0.00  0.00    +0.000 HD
ATOM     25  H   UNL     1     -10.219  53.140  52.863  0.00  0.00    +0.000 HD
ENDBRANCH   1  17
BRANCH   8  26
ATOM     26  N   UNL     1      -9.694  54.617  46.656  0.00  0.00    +0.000 N 
ATOM     27  O   UNL     1      -8.714  55.291  46.308  0.00  0.00    +0.000 OA
ATOM     28  O   UNL     1      -9.770  53.380  46.631  0.00  0.00    +0.000 OA
ENDBRANCH   8  26
BRANCH   3  29
ATOM     29  O   UNL     1      -8.669  54.731  49.103  0.00  0.00    +0.000 OA
ATOM     30  H   UNL     1      -8.186  55.439  48.726  0.00  0.00    +0.000 HD
ENDBRANCH   3  29
BRANCH   5  31
ATOM     31  C   UNL     1     -13.709  56.300  51.171  0.00  0.00    +0.000 C 
BRANCH  31  32
ATOM     32  C   UNL     1     -13.627  57.741  51.696  0.00  0.00    +0.000 C 
BRANCH  32  33
ATOM     33  C   UNL     1     -14.944  58.536  51.578  0.00  0.00    +0.000 C 
ATOM     34  C   UNL     1     -15.340  59.223  52.886  0.00  0.00    +0.000 C 
ATOM     35  C   UNL     1     -14.811  59.590  50.472  0.00  0.00    +0.000 C 
ENDBRANCH  32  33
ENDBRANCH  31  32
ENDBRANCH   5  31
TORSDOF 6
ENDMDL
MODEL 4
REMARK VINA RESULT:      -7.8      3.140      6.392
REMARK  Name = 338085
REMARK  8 active torsions:
REMARK  status: ('A' for Active; 'I' for Inactive)
REMARK    1  A    between atoms: C_6  and  C_10
REMARK    2  A    between atoms: C_14  and  O_18
REMARK    3  A    between atoms: N_17  and  C_21
REMARK    4  A    between atoms: C_21  and  C_24
REMARK    5  A    between atoms: C_22  and  N_25
REMARK    6  A    between atoms: C_24  and  C_28
REMARK    7  A    between atoms: C_28  and  C_31
REMARK    8  A    between atoms: C_28  and  C_32
REMARK                            x       y       z     vdW  Elec       q    Type
REMARK                         _______ _______ _______ _____ _____    ______ ____
ROOT
ATOM      1  C   UNL     1     -11.514  55.719  48.937  0.00  0.00    +0.000 A 
ATOM      2  C   UNL     1     -11.628  55.343  47.500  0.00  0.00    +0.000 A 
ATOM      3  C   UNL     1     -10.504  55.237  49.682  0.00  0.00    +0.000 A 
ATOM      4  O   UNL     1     -12.530  55.845  46.826  0.00  0.00    +0.000 OA
ATOM      5  N   UNL     1     -10.670  54.493  46.959  0.00  0.00    +0.000 N 
ATOM      6  C   UNL     1      -9.542  54.264  49.135  0.00  0.00    +0.000 A 
ATOM      7  C   UNL     1      -9.612  53.950  47.758  0.00  0.00    +0.000 A 
ATOM      8  C   UNL     1      -8.522  53.649  49.896  0.00  0.00    +0.000 A 
ATOM      9  C   UNL     1      -8.634  53.107  47.196  0.00  0.00    +0.000 A 
ATOM     10  C   UNL     1      -7.524  52.859  49.313  0.00  0.00    +0.000 A 
ATOM     11  C   UNL     1      -7.577  52.602  47.953  0.00  0.00    +0.000 A 
ENDROOT
BRANCH   1  17
ATOM     12  S   UNL     1     -13.482  59.081  49.417  0.00  0.00    +0.000 S 
ATOM     13  O   UNL     1     -14.609  59.198  48.506  0.00  0.00    +0.000 OA
ATOM     14  O   UNL     1     -12.637  60.226  49.692  0.00  0.00    +0.000 OA
ATOM     15  N   UNL     1     -12.540  57.877  48.877  0.00  0.00    +0.000 N 
ATOM     16  C   UNL     1     -14.159  58.595  50.962  0.00  0.00    +0.000 A 
ATOM     17  C   UNL     1     -12.471  56.741  49.510  0.00  0.00    +0.000 C 
ATOM     18  C   UNL     1     -13.910  57.307  51.405  0.00  0.00    +0.000 A 
ATOM     19  C   UNL     1     -14.912  59.505  51.711  0.00  0.00    +0.000 A 
ATOM     20  N   UNL     1     -13.175  56.404  50.641  0.00  0.00    +0.000 N 
ATOM     21  C   UNL     1     -14.487  56.899  52.612  0.00  0.00    +0.000 A 
ATOM     22  C   UNL     1     -15.455  59.094  52.924  0.00  0.00    +0.000 A 
ATOM     23  C   UNL     1     -15.249  57.790  53.373  0.00  0.00    +0.000 A 
ATOM     24  H   UNL     1     -12.011  58.008  48.057  0.00  0.00    +0.000 HD
ATOM     25  H   UNL     1     -13.157  55.464  50.931  0.00  0.00    +0.000 HD
ENDBRANCH   1  17
BRANCH   8  26
ATOM     26  N   UNL     1      -8.517  53.687  51.351  0.00  0.00    +0.000 N 
ATOM     27  O   UNL     1      -9.263  52.887  51.934  0.00  0.00    +0.000 OA
ATOM     28  O   UNL     1      -7.681  54.425  51.891  0.00  0.00    +0.000 OA
ENDBRANCH   8  26
BRANCH   3  29
ATOM     29  O   UNL     1     -10.231  55.677  50.963  0.00  0.00    +0.000 OA
ATOM     30  H   UNL     1     -10.864  55.562  51.643  0.00  0.00    +0.000 HD
ENDBRANCH   3  29
BRANCH   5  31
ATOM     31  C   UNL     1     -10.795  54.168  45.528  0.00  0.00    +0.000 C 
BRANCH  31  32
ATOM     32  C   UNL     1     -11.676  52.936  45.278  0.00  0.00    +0.000 C 
BRANCH  32  33
ATOM     33  C   UNL     1     -11.076  51.916  44.287  0.00  0.00    +0.000 C 
ATOM     34  C   UNL     1      -9.949  52.508  43.439  0.00  0.00    +0.000 C 
ATOM     35  C   UNL     1     -10.545  50.702  45.058  0.00  0.00    +0.000 C 
ENDBRANCH  32  33
ENDBRANCH  31  32
ENDBRANCH   5  31
TORSDOF 6
ENDMDL
MODEL 5
REMARK VINA RESULT:      -7.8      2.534      5.244
REMARK  Name = 338085
REMARK  8 active torsions:
REMARK  status: ('A' for Active; 'I' for Inactive)
REMARK    1  A    between atoms: C_6  and  C_10
REMARK    2  A    between atoms: C_14  and  O_18
REMARK    3  A    between atoms: N_17  and  C_21
REMARK    4  A    between atoms: C_21  and  C_24
REMARK    5  A    between atoms: C_22  and  N_25
REMARK    6  A    between atoms: C_24  and  C_28
REMARK    7  A    between atoms: C_28  and  C_31
REMARK    8  A    between atoms: C_28  and  C_32
REMARK                            x       y       z     vdW  Elec       q    Type
REMARK                         _______ _______ _______ _____ _____    ______ ____
ROOT
ATOM      1  C   UNL     1      -9.921  54.031  50.666  0.00  0.00    +0.000 A 
ATOM      2  C   UNL     1     -11.150  54.399  51.424  0.00  0.00    +0.000 A 
ATOM      3  C   UNL     1      -9.809  54.354  49.366  0.00  0.00    +0.000 A 
ATOM      4  O   UNL     1     -11.201  54.142  52.629  0.00  0.00    +0.000 OA
ATOM      5  N   UNL     1     -12.161  55.078  50.757  0.00  0.00    +0.000 N 
ATOM      6  C   UNL     1     -10.917  54.993  48.634  0.00  0.00    +0.000 A 
ATOM      7  C   UNL     1     -12.061  55.395  49.363  0.00  0.00    +0.000 A 
ATOM      8  C   UNL     1     -10.896  55.265  47.248  0.00  0.00    +0.000 A 
ATOM      9  C   UNL     1     -13.083  56.103  48.702  0.00  0.00    +0.000 A 
ATOM     10  C   UNL     1     -11.891  56.019  46.615  0.00  0.00    +0.000 A 
ATOM     11  C   UNL     1     -12.981  56.450  47.354  0.00  0.00    +0.000 A 
ENDROOT
BRANCH   1  17
ATOM     12  S   UNL     1      -7.902  51.659  53.054  0.00  0.00    +0.000 S 
ATOM     13  O   UNL     1      -7.635  50.364  52.452  0.00  0.00    +0.000 OA
ATOM     14  O   UNL     1      -8.288  51.757  54.448  0.00  0.00    +0.000 OA
ATOM     15  N   UNL     1      -9.044  52.387  52.163  0.00  0.00    +0.000 N 
ATOM     16  C   UNL     1      -6.416  52.581  52.898  0.00  0.00    +0.000 A 
ATOM     17  C   UNL     1      -8.758  53.406  51.404  0.00  0.00    +0.000 C 
ATOM     18  C   UNL     1      -6.399  53.642  52.008  0.00  0.00    +0.000 A 
ATOM     19  C   UNL     1      -5.300  52.242  53.669  0.00  0.00    +0.000 A 
ATOM     20  N   UNL     1      -7.511  53.958  51.231  0.00  0.00    +0.000 N 
ATOM     21  C   UNL     1      -5.205  54.349  51.843  0.00  0.00    +0.000 A 
ATOM     22  C   UNL     1      -4.127  52.974  53.516  0.00  0.00    +0.000 A 
ATOM     23  C   UNL     1      -4.074  54.023  52.600  0.00  0.00    +0.000 A 
ATOM     24  H   UNL     1      -9.969  52.052  52.196  0.00  0.00    +0.000 HD
ATOM     25  H   UNL     1      -7.397  54.619  50.512  0.00  0.00    +0.000 HD
ENDBRANCH   1  17
BRANCH   8  26
ATOM     26  N   UNL     1      -9.907  54.669  46.361  0.00  0.00    +0.000 N 
ATOM     27  O   UNL     1      -8.883  55.332  46.138  0.00  0.00    +0.000 OA
ATOM     28  O   UNL     1     -10.107  53.500  46.001  0.00  0.00    +0.000 OA
ENDBRANCH   8  26
BRANCH   3  29
ATOM     29  O   UNL     1      -8.638  54.209  48.647  0.00  0.00    +0.000 OA
ATOM     30  H   UNL     1      -8.418  54.828  47.980  0.00  0.00    +0.000 HD
ENDBRANCH   3  29
BRANCH   5  31
ATOM     31  C   UNL     1     -13.348  55.455  51.545  0.00  0.00    +0.000 C 
BRANCH  31  32
ATOM     32  C   UNL     1     -13.153  56.772  52.309  0.00  0.00    +0.000 C 
BRANCH  32  33
ATOM     33  C   UNL     1     -14.467  57.471  52.717  0.00  0.00    +0.000 C 
ATOM     34  C   UNL     1     -14.439  58.980  52.465  0.00  0.00    +0.000 C 
ATOM     35  C   UNL     1     -15.640  56.851  51.947  0.00  0.00    +0.000 C 
ENDBRANCH  32  33
ENDBRANCH  31  32
ENDBRANCH   5  31
TORSDOF 6
ENDMDL
MODEL 6
REMARK VINA RESULT:      -7.8      2.790      6.359
REMARK  Name = 338085
REMARK  8 active torsions:
REMARK  status: ('A' for Active; 'I' for Inactive)
REMARK    1  A    between atoms: C_6  and  C_10
REMARK    2  A    between atoms: C_14  and  O_18
REMARK    3  A    between atoms: N_17  and  C_21
REMARK    4  A    between atoms: C_21  and  C_24
REMARK    5  A    between atoms: C_22  and  N_25
REMARK    6  A    between atoms: C_24  and  C_28
REMARK    7  A    between atoms: C_28  and  C_31
REMARK    8  A    between atoms: C_28  and  C_32
REMARK                            x       y       z     vdW  Elec       q    Type
REMARK                         _______ _______ _______ _____ _____    ______ ____
ROOT
ATOM      1  C   UNL     1     -11.337  55.218  49.633  0.00  0.00    +0.000 A 
ATOM      2  C   UNL     1     -11.412  54.541  48.309  0.00  0.00    +0.000 A 
ATOM      3  C   UNL     1     -10.335  54.930  50.482  0.00  0.00    +0.000 A 
ATOM      4  O   UNL     1     -12.308  54.867  47.527  0.00  0.00    +0.000 OA
ATOM      5  N   UNL     1     -10.427  53.617  47.979  0.00  0.00    +0.000 N 
ATOM      6  C   UNL     1      -9.343  53.885  50.173  0.00  0.00    +0.000 A 
ATOM      7  C   UNL     1      -9.377  53.283  48.895  0.00  0.00    +0.000 A 
ATOM      8  C   UNL     1      -8.328  53.470  51.065  0.00  0.00    +0.000 A 
ATOM      9  C   UNL     1      -8.371  52.361  48.543  0.00  0.00    +0.000 A 
ATOM     10  C   UNL     1      -7.303  52.597  50.683  0.00  0.00    +0.000 A 
ATOM     11  C   UNL     1      -7.321  52.054  49.409  0.00  0.00    +0.000 A 
ENDROOT
BRANCH   1  17
ATOM     12  S   UNL     1     -13.338  58.585  49.378  0.00  0.00    +0.000 S 
ATOM     13  O   UNL     1     -14.417  58.516  48.407  0.00  0.00    +0.000 OA
ATOM     14  O   UNL     1     -12.512  59.773  49.476  0.00  0.00    +0.000 OA
ATOM     15  N   UNL     1     -12.365  57.314  49.121  0.00  0.00    +0.000 N 
ATOM     16  C   UNL     1     -14.091  58.388  50.952  0.00  0.00    +0.000 A 
ATOM     17  C   UNL     1     -12.325  56.317  49.957  0.00  0.00    +0.000 C 
ATOM     18  C   UNL     1     -13.861  57.208  51.639  0.00  0.00    +0.000 A 
ATOM     19  C   UNL     1     -14.884  59.412  51.480  0.00  0.00    +0.000 A 
ATOM     20  N   UNL     1     -13.084  56.188  51.095  0.00  0.00    +0.000 N 
ATOM     21  C   UNL     1     -14.497  57.025  52.871  0.00  0.00    +0.000 A 
ATOM     22  C   UNL     1     -15.487  59.227  52.720  0.00  0.00    +0.000 A 
ATOM     23  C   UNL     1     -15.300  58.033  53.414  0.00  0.00    +0.000 A 
ATOM     24  H   UNL     1     -11.796  57.296  48.317  0.00  0.00    +0.000 HD
ATOM     25  H   UNL     1     -13.079  55.318  51.556  0.00  0.00    +0.000 HD
ENDBRANCH   1  17
BRANCH   8  26
ATOM     26  N   UNL     1      -8.356  53.819  52.479  0.00  0.00    +0.000 N 
ATOM     27  O   UNL     1      -9.090  53.136  53.209  0.00  0.00    +0.000 OA
ATOM     28  O   UNL     1      -7.556  54.684  52.860  0.00  0.00    +0.000 OA
ENDBRANCH   8  26
BRANCH   3  29
ATOM     29  O   UNL     1     -10.098  55.640  51.643  0.00  0.00    +0.000 OA
ATOM     30  H   UNL     1     -10.713  55.603  52.348  0.00  0.00    +0.000 HD
ENDBRANCH   3  29
BRANCH   5  31
ATOM     31  C   UNL     1     -10.514  52.991  46.648  0.00  0.00    +0.000 C 
BRANCH  31  32
ATOM     32  C   UNL     1     -10.187  53.973  45.514  0.00  0.00    +0.000 C 
BRANCH  32  33
ATOM     33  C   UNL     1      -8.770  53.813  44.925  0.00  0.00    +0.000 C 
ATOM     34  C   UNL     1      -7.720  54.633  45.679  0.00  0.00    +0.000 C 
ATOM     35  C   UNL     1      -8.368  52.333  44.946  0.00  0.00    +0.000 C 
ENDBRANCH  32  33
ENDBRANCH  31  32
ENDBRANCH   5  31
TORSDOF 6
ENDMDL
MODEL 7
REMARK VINA RESULT:      -7.7      3.480      6.723
REMARK  Name = 338085
REMARK  8 active torsions:
REMARK  status: ('A' for Active; 'I' for Inactive)
REMARK    1  A    between atoms: C_6  and  C_10
REMARK    2  A    between atoms: C_14  and  O_18
REMARK    3  A    between atoms: N_17  and  C_21
REMARK    4  A    between atoms: C_21  and  C_24
REMARK    5  A    between atoms: C_22  and  N_25
REMARK    6  A    between atoms: C_24  and  C_28
REMARK    7  A    between atoms: C_28  and  C_31
REMARK    8  A    between atoms: C_28  and  C_32
REMARK                            x       y       z     vdW  Elec       q    Type
REMARK                         _______ _______ _______ _____ _____    ______ ____
ROOT
ATOM      1  C   UNL     1     -10.950  55.597  48.612  0.00  0.00    +0.000 A 
ATOM      2  C   UNL     1     -11.373  55.075  47.283  0.00  0.00    +0.000 A 
ATOM      3  C   UNL     1      -9.668  55.494  49.000  0.00  0.00    +0.000 A 
ATOM      4  O   UNL     1     -12.543  55.235  46.928  0.00  0.00    +0.000 OA
ATOM      5  N   UNL     1     -10.414  54.489  46.465  0.00  0.00    +0.000 N 
ATOM      6  C   UNL     1      -8.669  54.792  48.175  0.00  0.00    +0.000 A 
ATOM      7  C   UNL     1      -9.052  54.347  46.889  0.00  0.00    +0.000 A 
ATOM      8  C   UNL     1      -7.332  54.566  48.574  0.00  0.00    +0.000 A 
ATOM      9  C   UNL     1      -8.084  53.772  46.044  0.00  0.00    +0.000 A 
ATOM     10  C   UNL     1      -6.367  54.045  47.704  0.00  0.00    +0.000 A 
ATOM     11  C   UNL     1      -6.747  53.660  46.429  0.00  0.00    +0.000 A 
ENDROOT
BRANCH   1  17
ATOM     12  S   UNL     1     -13.557  56.376  51.442  0.00  0.00    +0.000 S 
ATOM     13  O   UNL     1     -12.921  56.691  52.710  0.00  0.00    +0.000 OA
ATOM     14  O   UNL     1     -14.741  55.540  51.402  0.00  0.00    +0.000 OA
ATOM     15  N   UNL     1     -12.434  55.706  50.484  0.00  0.00    +0.000 N 
ATOM     16  C   UNL     1     -14.027  57.915  50.741  0.00  0.00    +0.000 A 
ATOM     17  C   UNL     1     -11.951  56.351  49.461  0.00  0.00    +0.000 C 
ATOM     18  C   UNL     1     -13.337  58.359  49.626  0.00  0.00    +0.000 A 
ATOM     19  C   UNL     1     -15.079  58.645  51.303  0.00  0.00    +0.000 A 
ATOM     20  N   UNL     1     -12.278  57.632  49.087  0.00  0.00    +0.000 N 
ATOM     21  C   UNL     1     -13.674  59.607  49.092  0.00  0.00    +0.000 A 
ATOM     22  C   UNL     1     -15.423  59.872  50.743  0.00  0.00    +0.000 A 
ATOM     23  C   UNL     1     -14.718  60.358  49.643  0.00  0.00    +0.000 A 
ATOM     24  H   UNL     1     -12.111  54.797  50.680  0.00  0.00    +0.000 HD
ATOM     25  H   UNL     1     -11.729  58.064  48.394  0.00  0.00    +0.000 HD
ENDBRANCH   1  17
BRANCH   8  26
ATOM     26  N   UNL     1      -6.902  54.736  49.954  0.00  0.00    +0.000 N 
ATOM     27  O   UNL     1      -6.342  55.805  50.238  0.00  0.00    +0.000 OA
ATOM     28  O   UNL     1      -7.238  53.857  50.760  0.00  0.00    +0.000 OA
ENDBRANCH   8  26
BRANCH   3  29
ATOM     29  O   UNL     1      -9.167  56.109  50.132  0.00  0.00    +0.000 OA
ATOM     30  H   UNL     1      -8.851  56.989  50.086  0.00  0.00    +0.000 HD
ENDBRANCH   3  29
BRANCH   5  31
ATOM     31  C   UNL     1     -10.860  54.014  45.144  0.00  0.00    +0.000 C 
BRANCH  31  32
ATOM     32  C   UNL     1     -11.378  52.569  45.182  0.00  0.00    +0.000 C 
BRANCH  32  33
ATOM     33  C   UNL     1     -10.757  51.642  44.116  0.00  0.00    +0.000 C 
ATOM     34  C   UNL     1      -9.996  52.412  43.034  0.00  0.00    +0.000 C 
ATOM     35  C   UNL     1      -9.807  50.646  44.791  0.00  0.00    +0.000 C 
ENDBRANCH  32  33
ENDBRANCH  31  32
ENDBRANCH   5  31
TORSDOF 6
ENDMDL
MODEL 8
REMARK VINA RESULT:      -7.7      3.317      6.805
REMARK  Name = 338085
REMARK  8 active torsions:
REMARK  status: ('A' for Active; 'I' for Inactive)
REMARK    1  A    between atoms: C_6  and  C_10
REMARK    2  A    between atoms: C_14  and  O_18
REMARK    3  A    between atoms: N_17  and  C_21
REMARK    4  A    between atoms: C_21  and  C_24
REMARK    5  A    between atoms: C_22  and  N_25
REMARK    6  A    between atoms: C_24  and  C_28
REMARK    7  A    between atoms: C_28  and  C_31
REMARK    8  A    between atoms: C_28  and  C_32
REMARK                            x       y       z     vdW  Elec       q    Type
REMARK                         _______ _______ _______ _____ _____    ______ ____
ROOT
ATOM      1  C   UNL     1     -11.811  54.690  48.983  0.00  0.00    +0.000 A 
ATOM      2  C   UNL     1     -11.483  54.775  47.532  0.00  0.00    +0.000 A 
ATOM      3  C   UNL     1     -11.193  53.786  49.761  0.00  0.00    +0.000 A 
ATOM      4  O   UNL     1     -12.022  55.653  46.854  0.00  0.00    +0.000 OA
ATOM      5  N   UNL     1     -10.530  53.907  47.016  0.00  0.00    +0.000 N 
ATOM      6  C   UNL     1     -10.250  52.803  49.198  0.00  0.00    +0.000 A 
ATOM      7  C   UNL     1      -9.893  52.918  47.835  0.00  0.00    +0.000 A 
ATOM      8  C   UNL     1      -9.646  51.767  49.947  0.00  0.00    +0.000 A 
ATOM      9  C   UNL     1      -8.912  52.057  47.306  0.00  0.00    +0.000 A 
ATOM     10  C   UNL     1      -8.632  50.956  49.425  0.00  0.00    +0.000 A 
ATOM     11  C   UNL     1      -8.257  51.115  48.101  0.00  0.00    +0.000 A 
ENDROOT
BRANCH   1  17
ATOM     12  S   UNL     1     -14.889  56.214  50.883  0.00  0.00    +0.000 S 
ATOM     13  O   UNL     1     -14.727  56.170  52.326  0.00  0.00    +0.000 OA
ATOM     14  O   UNL     1     -16.170  55.904  50.277  0.00  0.00    +0.000 OA
ATOM     15  N   UNL     1     -13.774  55.232  50.234  0.00  0.00    +0.000 N 
ATOM     16  C   UNL     1     -14.513  57.860  50.403  0.00  0.00    +0.000 A 
ATOM     17  C   UNL     1     -12.750  55.710  49.588  0.00  0.00    +0.000 C 
ATOM     18  C   UNL     1     -13.341  58.081  49.700  0.00  0.00    +0.000 A 
ATOM     19  C   UNL     1     -15.393  58.899  50.723  0.00  0.00    +0.000 A 
ATOM     20  N   UNL     1     -12.463  57.041  49.404  0.00  0.00    +0.000 N 
ATOM     21  C   UNL     1     -13.012  59.396  49.358  0.00  0.00    +0.000 A 
ATOM     22  C   UNL     1     -15.067  60.199  50.350  0.00  0.00    +0.000 A 
ATOM     23  C   UNL     1     -13.874  60.450  49.674  0.00  0.00    +0.000 A 
ATOM     24  H   UNL     1     -13.874  54.257  50.332  0.00  0.00    +0.000 HD
ATOM     25  H   UNL     1     -11.579  57.275  49.039  0.00  0.00    +0.000 HD
ENDBRANCH   1  17
BRANCH   8  26
ATOM     26  N   UNL     1     -10.130  51.390  51.267  0.00  0.00    +0.000 N 
ATOM     27  O   UNL     1     -11.117  50.641  51.308  0.00  0.00    +0.000 OA
ATOM     28  O   UNL     1      -9.446  51.742  52.238  0.00  0.00    +0.000 OA
ENDBRANCH   8  26
BRANCH   3  29
ATOM     29  O   UNL     1     -11.310  53.764  51.138  0.00  0.00    +0.000 OA
ATOM     30  H   UNL     1     -12.009  53.289  51.541  0.00  0.00    +0.000 HD
ENDBRANCH   3  29
BRANCH   5  31
ATOM     31  C   UNL     1     -10.206  54.041  45.584  0.00  0.00    +0.000 C 
BRANCH  31  32
ATOM     32  C   UNL     1     -11.135  53.207  44.690  0.00  0.00    +0.000 C 
BRANCH  32  33
ATOM     33  C   UNL     1     -10.399  52.304  43.678  0.00  0.00    +0.000 C 
ATOM     34  C   UNL     1      -8.926  52.682  43.509  0.00  0.00    +0.000 C 
ATOM     35  C   UNL     1     -10.498  50.841  44.128  0.00  0.00    +0.000 C 
ENDBRANCH  32  33
ENDBRANCH  31  32
ENDBRANCH   5  31
TORSDOF 6
ENDMDL
MODEL 9
REMARK VINA RESULT:      -7.7      2.561      6.617
REMARK  Name = 338085
REMARK  8 active torsions:
REMARK  status: ('A' for Active; 'I' for Inactive)
REMARK    1  A    between atoms: C_6  and  C_10
REMARK    2  A    between atoms: C_14  and  O_18
REMARK    3  A    between atoms: N_17  and  C_21
REMARK    4  A    between atoms: C_21  and  C_24
REMARK    5  A    between atoms: C_22  and  N_25
REMARK    6  A    between atoms: C_24  and  C_28
REMARK    7  A    between atoms: C_28  and  C_31
REMARK    8  A    between atoms: C_28  and  C_32
REMARK                            x       y       z     vdW  Elec       q    Type
REMARK                         _______ _______ _______ _____ _____    ______ ____
ROOT
ATOM      1  C   UNL     1     -11.427  55.051  50.109  0.00  0.00    +0.000 A 
ATOM      2  C   UNL     1     -11.546  54.518  48.722  0.00  0.00    +0.000 A 
ATOM      3  C   UNL     1     -10.415  54.654  50.899  0.00  0.00    +0.000 A 
ATOM      4  O   UNL     1     -12.450  54.943  48.000  0.00  0.00    +0.000 OA
ATOM      5  N   UNL     1     -10.590  53.614  48.276  0.00  0.00    +0.000 N 
ATOM      6  C   UNL     1      -9.454  53.627  50.460  0.00  0.00    +0.000 A 
ATOM      7  C   UNL     1      -9.529  53.163  49.127  0.00  0.00    +0.000 A 
ATOM      8  C   UNL     1      -8.431  53.100  51.280  0.00  0.00    +0.000 A 
ATOM      9  C   UNL     1      -8.553  52.262  48.657  0.00  0.00    +0.000 A 
ATOM     10  C   UNL     1      -7.435  52.250  50.785  0.00  0.00    +0.000 A 
ATOM     11  C   UNL     1      -7.493  51.843  49.462  0.00  0.00    +0.000 A 
ENDROOT
BRANCH   1  17
ATOM     12  S   UNL     1     -14.161  56.918  52.218  0.00  0.00    +0.000 S 
ATOM     13  O   UNL     1     -13.618  57.510  53.429  0.00  0.00    +0.000 OA
ATOM     14  O   UNL     1     -15.448  56.251  52.239  0.00  0.00    +0.000 OA
ATOM     15  N   UNL     1     -13.061  55.872  51.648  0.00  0.00    +0.000 N 
ATOM     16  C   UNL     1     -14.315  58.232  51.064  0.00  0.00    +0.000 A 
ATOM     17  C   UNL     1     -12.383  56.130  50.568  0.00  0.00    +0.000 C 
ATOM     18  C   UNL     1     -13.454  58.250  49.980  0.00  0.00    +0.000 A 
ATOM     19  C   UNL     1     -15.295  59.213  51.250  0.00  0.00    +0.000 A 
ATOM     20  N   UNL     1     -12.469  57.278  49.816  0.00  0.00    +0.000 N 
ATOM     21  C   UNL     1     -13.538  59.320  49.084  0.00  0.00    +0.000 A 
ATOM     22  C   UNL     1     -15.387  60.255  50.334  0.00  0.00    +0.000 A 
ATOM     23  C   UNL     1     -14.506  60.315  49.255  0.00  0.00    +0.000 A 
ATOM     24  H   UNL     1     -12.904  55.027  52.129  0.00  0.00    +0.000 HD
ATOM     25  H   UNL     1     -11.792  57.423  49.117  0.00  0.00    +0.000 HD
ENDBRANCH   1  17
BRANCH   8  26
ATOM     26  N   UNL     1      -8.422  53.298  52.722  0.00  0.00    +0.000 N 
ATOM     27  O   UNL     1      -7.683  54.193  53.159  0.00  0.00    +0.000 OA
ATOM     28  O   UNL     1      -9.241  52.647  53.385  0.00  0.00    +0.000 OA
ENDBRANCH   8  26
BRANCH   3  29
ATOM     29  O   UNL     1     -10.137  55.234  52.122  0.00  0.00    +0.000 OA
ATOM     30  H   UNL     1     -10.156  54.714  52.901  0.00  0.00    +0.000 HD
ENDBRANCH   3  29
BRANCH   5  31
ATOM     31  C   UNL     1     -10.719  53.132  46.889  0.00  0.00    +0.000 C 
BRANCH  31  32
ATOM     32  C   UNL     1     -10.312  54.194  45.858  0.00  0.00    +0.000 C 
BRANCH  32  33
ATOM     33  C   UNL     1      -8.973  53.907  45.145  0.00  0.00    +0.000 C 
ATOM     34  C   UNL     1      -7.781  54.569  45.839  0.00  0.00    +0.000 C 
ATOM     35  C   UNL     1      -8.742  52.393  45.076  0.00  0.00    +0.000 C 
ENDBRANCH  32  33
ENDBRANCH  31  32
ENDBRANCH   5  31
TORSDOF 6
ENDMDL
