MODEL 1
REMARK VINA RESULT:      -8.6      0.000      0.000
REMARK  Name = 338168
REMARK  5 active torsions:
REMARK  status: ('A' for Active; 'I' for Inactive)
REMARK    1  A    between atoms: C_6  and  C_10
REMARK    2  A    between atoms: C_14  and  O_18
REMARK    3  A    between atoms: N_17  and  C_21
REMARK    4  A    between atoms: C_21  and  C_24
REMARK    5  A    between atoms: C_24  and  C_27
REMARK                            x       y       z     vdW  Elec       q    Type
REMARK                         _______ _______ _______ _____ _____    ______ ____
ROOT
ATOM      1  C   UNL     1     -10.002  54.560  52.367  0.00  0.00    +0.000 A 
ATOM      2  C   UNL     1      -8.606  55.064  52.254  0.00  0.00    +0.000 A 
ATOM      3  C   UNL     1     -10.253  53.429  53.048  0.00  0.00    +0.000 A 
ATOM      4  O   UNL     1      -8.405  56.004  51.481  0.00  0.00    +0.000 OA
ATOM      5  N   UNL     1      -7.610  54.484  53.041  0.00  0.00    +0.000 N 
ATOM      6  C   UNL     1      -9.171  52.715  53.735  0.00  0.00    +0.000 A 
ATOM      7  C   UNL     1      -7.869  53.255  53.750  0.00  0.00    +0.000 A 
ATOM      8  C   UNL     1      -9.450  51.516  54.418  0.00  0.00    +0.000 A 
ATOM      9  C   UNL     1      -6.874  52.558  54.461  0.00  0.00    +0.000 A 
ATOM     10  C   UNL     1      -8.454  50.871  55.131  0.00  0.00    +0.000 A 
ATOM     11  C   UNL     1      -7.169  51.381  55.160  0.00  0.00    +0.000 A 
ATOM     12  F   UNL     1      -8.739  49.749  55.803  0.00  0.00    +0.000 F 
ENDROOT
BRANCH   1  18
ATOM     13  S   UNL     1     -12.394  55.797  49.434  0.00  0.00    +0.000 S 
ATOM     14  O   UNL     1     -13.072  54.554  49.152  0.00  0.00    +0.000 OA
ATOM     15  O   UNL     1     -11.954  56.688  48.381  0.00  0.00    +0.000 OA
ATOM     16  N   UNL     1     -11.069  55.467  50.360  0.00  0.00    +0.000 N 
ATOM     17  C   UNL     1     -13.377  56.710  50.543  0.00  0.00    +0.000 A 
ATOM     18  C   UNL     1     -11.140  55.289  51.740  0.00  0.00    +0.000 C 
ATOM     19  C   UNL     1     -13.114  56.571  51.900  0.00  0.00    +0.000 A 
ATOM     20  C   UNL     1     -14.369  57.568  50.059  0.00  0.00    +0.000 A 
ATOM     21  N   UNL     1     -12.129  55.740  52.451  0.00  0.00    +0.000 N 
ATOM     22  C   UNL     1     -13.869  57.340  52.790  0.00  0.00    +0.000 A 
ATOM     23  C   UNL     1     -15.115  58.316  50.960  0.00  0.00    +0.000 A 
ATOM     24  C   UNL     1     -14.863  58.208  52.328  0.00  0.00    +0.000 A 
ATOM     25  H   UNL     1     -10.191  55.392  49.919  0.00  0.00    +0.000 HD
ATOM     26  H   UNL     1     -12.188  55.492  53.402  0.00  0.00    +0.000 HD
ENDBRANCH   1  18
BRANCH   3  27
ATOM     27  O   UNL     1     -11.509  52.858  53.189  0.00  0.00    +0.000 OA
ATOM     28  H   UNL     1     -12.135  53.241  53.770  0.00  0.00    +0.000 HD
ENDBRANCH   3  27
BRANCH   5  29
ATOM     29  C   UNL     1      -6.233  55.027  52.973  0.00  0.00    +0.000 C 
BRANCH  29  30
ATOM     30  C   UNL     1      -5.225  54.236  52.117  0.00  0.00    +0.000 C 
BRANCH  30  31
ATOM     31  C   UNL     1      -5.350  54.517  50.645  0.00  0.00    +0.000 C 
ATOM     32  C   UNL     1      -6.142  53.653  49.700  0.00  0.00    +0.000 C 
ATOM     33  C   UNL     1      -4.641  53.600  49.680  0.00  0.00    +0.000 C 
ENDBRANCH  30  31
ENDBRANCH  29  30
ENDBRANCH   5  29
TORSDOF 5
ENDMDL
MODEL 2
REMARK VINA RESULT:      -8.3      3.870      7.420
REMARK  Name = 338168
REMARK  5 active torsions:
REMARK  status: ('A' for Active; 'I' for Inactive)
REMARK    1  A    between atoms: C_6  and  C_10
REMARK    2  A    between atoms: C_14  and  O_18
REMARK    3  A    between atoms: N_17  and  C_21
REMARK    4  A    between atoms: C_21  and  C_24
REMARK    5  A    between atoms: C_24  and  C_27
REMARK                            x       y       z     vdW  Elec       q    Type
REMARK                         _______ _______ _______ _____ _____    ______ ____
ROOT
ATOM      1  C   UNL     1     -10.151  55.098  50.801  0.00  0.00    +0.000 A 
ATOM      2  C   UNL     1      -9.764  55.185  49.366  0.00  0.00    +0.000 A 
ATOM      3  C   UNL     1     -11.360  55.532  51.198  0.00  0.00    +0.000 A 
ATOM      4  O   UNL     1      -8.590  54.936  49.081  0.00  0.00    +0.000 OA
ATOM      5  N   UNL     1     -10.740  55.504  48.421  0.00  0.00    +0.000 N 
ATOM      6  C   UNL     1     -12.330  56.036  50.220  0.00  0.00    +0.000 A 
ATOM      7  C   UNL     1     -12.028  55.996  48.843  0.00  0.00    +0.000 A 
ATOM      8  C   UNL     1     -13.580  56.513  50.658  0.00  0.00    +0.000 A 
ATOM      9  C   UNL     1     -13.008  56.448  47.939  0.00  0.00    +0.000 A 
ATOM     10  C   UNL     1     -14.532  56.923  49.741  0.00  0.00    +0.000 A 
ATOM     11  C   UNL     1     -14.258  56.893  48.386  0.00  0.00    +0.000 A 
ATOM     12  F   UNL     1     -15.728  57.344  50.168  0.00  0.00    +0.000 F 
ENDROOT
BRANCH   1  18
ATOM     13  S   UNL     1      -6.900  54.905  53.092  0.00  0.00    +0.000 S 
ATOM     14  O   UNL     1      -7.199  55.982  54.005  0.00  0.00    +0.000 OA
ATOM     15  O   UNL     1      -5.571  54.698  52.558  0.00  0.00    +0.000 OA
ATOM     16  N   UNL     1      -7.917  55.023  51.799  0.00  0.00    +0.000 N 
ATOM     17  C   UNL     1      -7.431  53.415  53.820  0.00  0.00    +0.000 A 
ATOM     18  C   UNL     1      -9.221  54.533  51.820  0.00  0.00    +0.000 C 
ATOM     19  C   UNL     1      -8.707  52.966  53.506  0.00  0.00    +0.000 A 
ATOM     20  C   UNL     1      -6.574  52.701  54.662  0.00  0.00    +0.000 A 
ATOM     21  N   UNL     1      -9.612  53.626  52.663  0.00  0.00    +0.000 N 
ATOM     22  C   UNL     1      -9.119  51.746  54.051  0.00  0.00    +0.000 A 
ATOM     23  C   UNL     1      -7.004  51.495  55.200  0.00  0.00    +0.000 A 
ATOM     24  C   UNL     1      -8.276  51.012  54.891  0.00  0.00    +0.000 A 
ATOM     25  H   UNL     1      -7.590  55.460  50.979  0.00  0.00    +0.000 HD
ATOM     26  H   UNL     1     -10.568  53.394  52.710  0.00  0.00    +0.000 HD
ENDBRANCH   1  18
BRANCH   3  27
ATOM     27  O   UNL     1     -11.806  55.524  52.510  0.00  0.00    +0.000 OA
ATOM     28  H   UNL     1     -12.718  55.410  52.694  0.00  0.00    +0.000 HD
ENDBRANCH   3  27
BRANCH   5  29
ATOM     29  C   UNL     1     -10.368  55.530  46.987  0.00  0.00    +0.000 C 
BRANCH  29  30
ATOM     30  C   UNL     1     -10.202  54.163  46.295  0.00  0.00    +0.000 C 
BRANCH  30  31
ATOM     31  C   UNL     1     -11.254  53.893  45.256  0.00  0.00    +0.000 C 
ATOM     32  C   UNL     1     -12.060  52.622  45.204  0.00  0.00    +0.000 C 
ATOM     33  C   UNL     1     -10.966  52.855  44.201  0.00  0.00    +0.000 C 
ENDBRANCH  30  31
ENDBRANCH  29  30
ENDBRANCH   5  29
TORSDOF 5
ENDMDL
MODEL 3
REMARK VINA RESULT:      -8.3      3.822      5.398
REMARK  Name = 338168
REMARK  5 active torsions:
REMARK  status: ('A' for Active; 'I' for Inactive)
REMARK    1  A    between atoms: C_6  and  C_10
REMARK    2  A    between atoms: C_14  and  O_18
REMARK    3  A    between atoms: N_17  and  C_21
REMARK    4  A    between atoms: C_21  and  C_24
REMARK    5  A    between atoms: C_24  and  C_27
REMARK                            x       y       z     vdW  Elec       q    Type
REMARK                         _______ _______ _______ _____ _____    ______ ____
ROOT
ATOM      1  C   UNL     1     -11.483  55.798  48.981  0.00  0.00    +0.000 A 
ATOM      2  C   UNL     1     -10.399  55.117  49.742  0.00  0.00    +0.000 A 
ATOM      3  C   UNL     1     -11.649  55.540  47.673  0.00  0.00    +0.000 A 
ATOM      4  O   UNL     1     -10.179  55.512  50.889  0.00  0.00    +0.000 OA
ATOM      5  N   UNL     1      -9.717  54.055  49.144  0.00  0.00    +0.000 N 
ATOM      6  C   UNL     1     -10.809  54.545  46.996  0.00  0.00    +0.000 A 
ATOM      7  C   UNL     1      -9.871  53.794  47.735  0.00  0.00    +0.000 A 
ATOM      8  C   UNL     1     -10.978  54.310  45.618  0.00  0.00    +0.000 A 
ATOM      9  C   UNL     1      -9.122  52.818  47.051  0.00  0.00    +0.000 A 
ATOM     10  C   UNL     1     -10.244  53.324  44.983  0.00  0.00    +0.000 A 
ATOM     11  C   UNL     1      -9.319  52.575  45.686  0.00  0.00    +0.000 A 
ATOM     12  F   UNL     1     -10.437  53.088  43.679  0.00  0.00    +0.000 F 
ENDROOT
BRANCH   1  18
ATOM     13  S   UNL     1     -13.521  59.186  49.449  0.00  0.00    +0.000 S 
ATOM     14  O   UNL     1     -14.509  59.004  48.412  0.00  0.00    +0.000 OA
ATOM     15  O   UNL     1     -12.883  60.464  49.685  0.00  0.00    +0.000 OA
ATOM     16  N   UNL     1     -12.313  58.089  49.213  0.00  0.00    +0.000 N 
ATOM     17  C   UNL     1     -14.206  58.635  50.952  0.00  0.00    +0.000 A 
ATOM     18  C   UNL     1     -12.401  56.768  49.644  0.00  0.00    +0.000 C 
ATOM     19  C   UNL     1     -13.961  57.319  51.324  0.00  0.00    +0.000 A 
ATOM     20  C   UNL     1     -14.945  59.512  51.750  0.00  0.00    +0.000 A 
ATOM     21  N   UNL     1     -13.220  56.392  50.578  0.00  0.00    +0.000 N 
ATOM     22  C   UNL     1     -14.469  56.887  52.553  0.00  0.00    +0.000 A 
ATOM     23  C   UNL     1     -15.449  59.061  52.963  0.00  0.00    +0.000 A 
ATOM     24  C   UNL     1     -15.207  57.749  53.370  0.00  0.00    +0.000 A 
ATOM     25  H   UNL     1     -11.495  58.380  48.746  0.00  0.00    +0.000 HD
ATOM     26  H   UNL     1     -13.324  55.431  50.769  0.00  0.00    +0.000 HD
ENDBRANCH   1  18
BRANCH   3  27
ATOM     27  O   UNL     1     -12.604  56.140  46.868  0.00  0.00    +0.000 OA
ATOM     28  H   UNL     1     -13.239  55.615  46.423  0.00  0.00    +0.000 HD
ENDBRANCH   3  27
BRANCH   5  29
ATOM     29  C   UNL     1      -8.681  53.338  49.924  0.00  0.00    +0.000 C 
BRANCH  29  30
ATOM     30  C   UNL     1      -7.470  54.171  50.385  0.00  0.00    +0.000 C 
BRANCH  30  31
ATOM     31  C   UNL     1      -6.761  54.863  49.254  0.00  0.00    +0.000 C 
ATOM     32  C   UNL     1      -5.808  54.164  48.321  0.00  0.00    +0.000 C 
ATOM     33  C   UNL     1      -5.276  55.093  49.375  0.00  0.00    +0.000 C 
ENDBRANCH  30  31
ENDBRANCH  29  30
ENDBRANCH   5  29
TORSDOF 5
ENDMDL
MODEL 4
REMARK VINA RESULT:      -8.2      3.678      7.279
REMARK  Name = 338168
REMARK  5 active torsions:
REMARK  status: ('A' for Active; 'I' for Inactive)
REMARK    1  A    between atoms: C_6  and  C_10
REMARK    2  A    between atoms: C_14  and  O_18
REMARK    3  A    between atoms: N_17  and  C_21
REMARK    4  A    between atoms: C_21  and  C_24
REMARK    5  A    between atoms: C_24  and  C_27
REMARK                            x       y       z     vdW  Elec       q    Type
REMARK                         _______ _______ _______ _____ _____    ______ ____
ROOT
ATOM      1  C   UNL     1     -10.165  55.455  50.468  0.00  0.00    +0.000 A 
ATOM      2  C   UNL     1     -10.339  55.708  49.011  0.00  0.00    +0.000 A 
ATOM      3  C   UNL     1     -11.201  55.626  51.307  0.00  0.00    +0.000 A 
ATOM      4  O   UNL     1      -9.323  55.704  48.311  0.00  0.00    +0.000 OA
ATOM      5  N   UNL     1     -11.626  55.898  48.506  0.00  0.00    +0.000 N 
ATOM      6  C   UNL     1     -12.523  56.001  50.794  0.00  0.00    +0.000 A 
ATOM      7  C   UNL     1     -12.735  56.110  49.404  0.00  0.00    +0.000 A 
ATOM      8  C   UNL     1     -13.589  56.204  51.691  0.00  0.00    +0.000 A 
ATOM      9  C   UNL     1     -14.031  56.427  48.956  0.00  0.00    +0.000 A 
ATOM     10  C   UNL     1     -14.858  56.487  51.216  0.00  0.00    +0.000 A 
ATOM     11  C   UNL     1     -15.089  56.599  49.857  0.00  0.00    +0.000 A 
ATOM     12  F   UNL     1     -15.869  56.646  52.078  0.00  0.00    +0.000 F 
ENDROOT
BRANCH   1  18
ATOM     13  S   UNL     1      -6.559  53.767  50.456  0.00  0.00    +0.000 S 
ATOM     14  O   UNL     1      -5.855  54.737  49.652  0.00  0.00    +0.000 OA
ATOM     15  O   UNL     1      -6.356  52.343  50.293  0.00  0.00    +0.000 OA
ATOM     16  N   UNL     1      -8.178  54.036  50.294  0.00  0.00    +0.000 N 
ATOM     17  C   UNL     1      -6.303  54.164  52.131  0.00  0.00    +0.000 A 
ATOM     18  C   UNL     1      -8.856  55.010  51.025  0.00  0.00    +0.000 C 
ATOM     19  C   UNL     1      -7.251  54.967  52.752  0.00  0.00    +0.000 A 
ATOM     20  C   UNL     1      -5.193  53.657  52.811  0.00  0.00    +0.000 A 
ATOM     21  N   UNL     1      -8.391  55.498  52.134  0.00  0.00    +0.000 N 
ATOM     22  C   UNL     1      -7.074  55.248  54.111  0.00  0.00    +0.000 A 
ATOM     23  C   UNL     1      -5.030  53.954  54.158  0.00  0.00    +0.000 A 
ATOM     24  C   UNL     1      -5.973  54.746  54.812  0.00  0.00    +0.000 A 
ATOM     25  H   UNL     1      -8.687  53.487  49.654  0.00  0.00    +0.000 HD
ATOM     26  H   UNL     1      -8.852  56.262  52.553  0.00  0.00    +0.000 HD
ENDBRANCH   1  18
BRANCH   3  27
ATOM     27  O   UNL     1     -11.139  55.447  52.680  0.00  0.00    +0.000 OA
ATOM     28  H   UNL     1     -11.812  55.797  53.229  0.00  0.00    +0.000 HD
ENDBRANCH   3  27
BRANCH   5  29
ATOM     29  C   UNL     1     -11.804  56.088  47.048  0.00  0.00    +0.000 C 
BRANCH  29  30
ATOM     30  C   UNL     1     -12.088  54.821  46.219  0.00  0.00    +0.000 C 
BRANCH  30  31
ATOM     31  C   UNL     1     -10.857  54.240  45.583  0.00  0.00    +0.000 C 
ATOM     32  C   UNL     1     -10.894  53.130  44.565  0.00  0.00    +0.000 C 
ATOM     33  C   UNL     1     -10.444  52.842  45.969  0.00  0.00    +0.000 C 
ENDBRANCH  30  31
ENDBRANCH  29  30
ENDBRANCH   5  29
TORSDOF 5
ENDMDL
MODEL 5
REMARK VINA RESULT:      -8.1      3.974      5.821
REMARK  Name = 338168
REMARK  5 active torsions:
REMARK  status: ('A' for Active; 'I' for Inactive)
REMARK    1  A    between atoms: C_6  and  C_10
REMARK    2  A    between atoms: C_14  and  O_18
REMARK    3  A    between atoms: N_17  and  C_21
REMARK    4  A    between atoms: C_21  and  C_24
REMARK    5  A    between atoms: C_24  and  C_27
REMARK                            x       y       z     vdW  Elec       q    Type
REMARK                         _______ _______ _______ _____ _____    ______ ____
ROOT
ATOM      1  C   UNL     1     -11.520  55.840  48.897  0.00  0.00    +0.000 A 
ATOM      2  C   UNL     1     -10.371  55.211  49.604  0.00  0.00    +0.000 A 
ATOM      3  C   UNL     1     -11.758  55.547  47.607  0.00  0.00    +0.000 A 
ATOM      4  O   UNL     1     -10.093  55.639  50.727  0.00  0.00    +0.000 OA
ATOM      5  N   UNL     1      -9.694  54.156  48.989  0.00  0.00    +0.000 N 
ATOM      6  C   UNL     1     -10.930  54.561  46.902  0.00  0.00    +0.000 A 
ATOM      7  C   UNL     1      -9.926  53.857  47.597  0.00  0.00    +0.000 A 
ATOM      8  C   UNL     1     -11.176  54.289  45.542  0.00  0.00    +0.000 A 
ATOM      9  C   UNL     1      -9.189  52.889  46.890  0.00  0.00    +0.000 A 
ATOM     10  C   UNL     1     -10.452  53.310  44.885  0.00  0.00    +0.000 A 
ATOM     11  C   UNL     1      -9.462  52.606  45.546  0.00  0.00    +0.000 A 
ATOM     12  F   UNL     1     -10.716  53.038  43.601  0.00  0.00    +0.000 F 
ENDROOT
BRANCH   1  18
ATOM     13  S   UNL     1     -13.522  59.232  49.482  0.00  0.00    +0.000 S 
ATOM     14  O   UNL     1     -14.515  59.094  48.443  0.00  0.00    +0.000 OA
ATOM     15  O   UNL     1     -12.870  60.495  49.757  0.00  0.00    +0.000 OA
ATOM     16  N   UNL     1     -12.326  58.131  49.205  0.00  0.00    +0.000 N 
ATOM     17  C   UNL     1     -14.207  58.640  50.968  0.00  0.00    +0.000 A 
ATOM     18  C   UNL     1     -12.426  56.797  49.595  0.00  0.00    +0.000 C 
ATOM     19  C   UNL     1     -13.975  57.310  51.297  0.00  0.00    +0.000 A 
ATOM     20  C   UNL     1     -14.935  59.498  51.797  0.00  0.00    +0.000 A 
ATOM     21  N   UNL     1     -13.246  56.400  50.519  0.00  0.00    +0.000 N 
ATOM     22  C   UNL     1     -14.483  56.844  52.513  0.00  0.00    +0.000 A 
ATOM     23  C   UNL     1     -15.439  59.014  52.997  0.00  0.00    +0.000 A 
ATOM     24  C   UNL     1     -15.209  57.687  53.360  0.00  0.00    +0.000 A 
ATOM     25  H   UNL     1     -11.506  58.429  48.746  0.00  0.00    +0.000 HD
ATOM     26  H   UNL     1     -13.359  55.435  50.679  0.00  0.00    +0.000 HD
ENDBRANCH   1  18
BRANCH   3  27
ATOM     27  O   UNL     1     -12.779  56.098  46.850  0.00  0.00    +0.000 OA
ATOM     28  H   UNL     1     -13.385  56.694  47.244  0.00  0.00    +0.000 HD
ENDBRANCH   3  27
BRANCH   5  29
ATOM     29  C   UNL     1      -8.590  53.489  49.718  0.00  0.00    +0.000 C 
BRANCH  29  30
ATOM     30  C   UNL     1      -8.948  52.194  50.471  0.00  0.00    +0.000 C 
BRANCH  30  31
ATOM     31  C   UNL     1     -10.428  52.008  50.660  0.00  0.00    +0.000 C 
ATOM     32  C   UNL     1     -11.106  52.062  52.004  0.00  0.00    +0.000 C 
ATOM     33  C   UNL     1     -10.911  50.740  51.316  0.00  0.00    +0.000 C 
ENDBRANCH  30  31
ENDBRANCH  29  30
ENDBRANCH   5  29
TORSDOF 5
ENDMDL
MODEL 6
REMARK VINA RESULT:      -8.0      3.557      7.915
REMARK  Name = 338168
REMARK  5 active torsions:
REMARK  status: ('A' for Active; 'I' for Inactive)
REMARK    1  A    between atoms: C_6  and  C_10
REMARK    2  A    between atoms: C_14  and  O_18
REMARK    3  A    between atoms: N_17  and  C_21
REMARK    4  A    between atoms: C_21  and  C_24
REMARK    5  A    between atoms: C_24  and  C_27
REMARK                            x       y       z     vdW  Elec       q    Type
REMARK                         _______ _______ _______ _____ _____    ______ ____
ROOT
ATOM      1  C   UNL     1      -9.985  54.415  50.645  0.00  0.00    +0.000 A 
ATOM      2  C   UNL     1     -11.069  55.405  50.888  0.00  0.00    +0.000 A 
ATOM      3  C   UNL     1      -9.793  53.918  49.412  0.00  0.00    +0.000 A 
ATOM      4  O   UNL     1     -11.316  55.700  52.060  0.00  0.00    +0.000 OA
ATOM      5  N   UNL     1     -11.723  55.974  49.794  0.00  0.00    +0.000 N 
ATOM      6  C   UNL     1     -10.603  54.389  48.283  0.00  0.00    +0.000 A 
ATOM      7  C   UNL     1     -11.541  55.425  48.473  0.00  0.00    +0.000 A 
ATOM      8  C   UNL     1     -10.407  53.836  47.003  0.00  0.00    +0.000 A 
ATOM      9  C   UNL     1     -12.262  55.875  47.351  0.00  0.00    +0.000 A 
ATOM     10  C   UNL     1     -11.113  54.321  45.917  0.00  0.00    +0.000 A 
ATOM     11  C   UNL     1     -12.038  55.336  46.078  0.00  0.00    +0.000 A 
ATOM     12  F   UNL     1     -10.894  53.808  44.700  0.00  0.00    +0.000 F 
ENDROOT
BRANCH   1  18
ATOM     13  S   UNL     1      -6.791  54.422  53.024  0.00  0.00    +0.000 S 
ATOM     14  O   UNL     1      -7.074  55.616  53.784  0.00  0.00    +0.000 OA
ATOM     15  O   UNL     1      -5.458  54.109  52.554  0.00  0.00    +0.000 OA
ATOM     16  N   UNL     1      -7.776  54.403  51.701  0.00  0.00    +0.000 N 
ATOM     17  C   UNL     1      -7.385  53.055  53.922  0.00  0.00    +0.000 A 
ATOM     18  C   UNL     1      -9.095  53.958  51.751  0.00  0.00    +0.000 C 
ATOM     19  C   UNL     1      -8.668  52.607  53.636  0.00  0.00    +0.000 A 
ATOM     20  C   UNL     1      -6.569  52.430  54.870  0.00  0.00    +0.000 A 
ATOM     21  N   UNL     1      -9.533  53.178  52.693  0.00  0.00    +0.000 N 
ATOM     22  C   UNL     1      -9.130  51.479  54.322  0.00  0.00    +0.000 A 
ATOM     23  C   UNL     1      -7.050  51.316  55.547  0.00  0.00    +0.000 A 
ATOM     24  C   UNL     1      -8.329  50.835  55.270  0.00  0.00    +0.000 A 
ATOM     25  H   UNL     1      -7.417  54.721  50.840  0.00  0.00    +0.000 HD
ATOM     26  H   UNL     1     -10.496  52.983  52.745  0.00  0.00    +0.000 HD
ENDBRANCH   1  18
BRANCH   3  27
ATOM     27  O   UNL     1      -8.834  52.972  49.085  0.00  0.00    +0.000 OA
ATOM     28  H   UNL     1      -9.034  52.294  48.471  0.00  0.00    +0.000 HD
ENDBRANCH   3  27
BRANCH   5  29
ATOM     29  C   UNL     1     -12.760  57.005  50.033  0.00  0.00    +0.000 C 
BRANCH  29  30
ATOM     30  C   UNL     1     -14.164  56.493  50.408  0.00  0.00    +0.000 C 
BRANCH  30  31
ATOM     31  C   UNL     1     -14.922  57.438  51.297  0.00  0.00    +0.000 C 
ATOM     32  C   UNL     1     -14.406  57.918  52.628  0.00  0.00    +0.000 C 
ATOM     33  C   UNL     1     -15.509  56.900  52.577  0.00  0.00    +0.000 C 
ENDBRANCH  30  31
ENDBRANCH  29  30
ENDBRANCH   5  29
TORSDOF 5
ENDMDL
MODEL 7
REMARK VINA RESULT:      -8.0      4.900      7.792
REMARK  Name = 338168
REMARK  5 active torsions:
REMARK  status: ('A' for Active; 'I' for Inactive)
REMARK    1  A    between atoms: C_6  and  C_10
REMARK    2  A    between atoms: C_14  and  O_18
REMARK    3  A    between atoms: N_17  and  C_21
REMARK    4  A    between atoms: C_21  and  C_24
REMARK    5  A    between atoms: C_24  and  C_27
REMARK                            x       y       z     vdW  Elec       q    Type
REMARK                         _______ _______ _______ _____ _____    ______ ____
ROOT
ATOM      1  C   UNL     1     -11.387  54.315  47.923  0.00  0.00    +0.000 A 
ATOM      2  C   UNL     1     -11.502  53.489  49.155  0.00  0.00    +0.000 A 
ATOM      3  C   UNL     1     -12.028  55.494  47.842  0.00  0.00    +0.000 A 
ATOM      4  O   UNL     1     -11.040  52.346  49.116  0.00  0.00    +0.000 OA
ATOM      5  N   UNL     1     -12.087  54.048  50.293  0.00  0.00    +0.000 N 
ATOM      6  C   UNL     1     -12.795  56.006  48.983  0.00  0.00    +0.000 A 
ATOM      7  C   UNL     1     -12.800  55.298  50.203  0.00  0.00    +0.000 A 
ATOM      8  C   UNL     1     -13.484  57.228  48.869  0.00  0.00    +0.000 A 
ATOM      9  C   UNL     1     -13.511  55.853  51.284  0.00  0.00    +0.000 A 
ATOM     10  C   UNL     1     -14.150  57.758  49.960  0.00  0.00    +0.000 A 
ATOM     11  C   UNL     1     -14.169  57.083  51.166  0.00  0.00    +0.000 A 
ATOM     12  F   UNL     1     -14.775  58.937  49.848  0.00  0.00    +0.000 F 
ENDROOT
BRANCH   1  18
ATOM     13  S   UNL     1      -8.172  54.049  45.588  0.00  0.00    +0.000 S 
ATOM     14  O   UNL     1      -7.322  53.271  46.458  0.00  0.00    +0.000 OA
ATOM     15  O   UNL     1      -7.665  55.162  44.814  0.00  0.00    +0.000 OA
ATOM     16  N   UNL     1      -9.435  54.626  46.478  0.00  0.00    +0.000 N 
ATOM     17  C   UNL     1      -8.980  52.955  44.501  0.00  0.00    +0.000 A 
ATOM     18  C   UNL     1     -10.565  53.863  46.763  0.00  0.00    +0.000 C 
ATOM     19  C   UNL     1     -10.237  52.494  44.872  0.00  0.00    +0.000 A 
ATOM     20  C   UNL     1      -8.378  52.593  43.293  0.00  0.00    +0.000 A 
ATOM     21  N   UNL     1     -10.902  52.825  46.060  0.00  0.00    +0.000 N 
ATOM     22  C   UNL     1     -10.909  51.654  43.979  0.00  0.00    +0.000 A 
ATOM     23  C   UNL     1      -9.058  51.751  42.424  0.00  0.00    +0.000 A 
ATOM     24  C   UNL     1     -10.328  51.284  42.762  0.00  0.00    +0.000 A 
ATOM     25  H   UNL     1      -9.388  55.548  46.823  0.00  0.00    +0.000 HD
ATOM     26  H   UNL     1     -11.644  52.256  46.368  0.00  0.00    +0.000 HD
ENDBRANCH   1  18
BRANCH   3  27
ATOM     27  O   UNL     1     -12.011  56.324  46.732  0.00  0.00    +0.000 OA
ATOM     28  H   UNL     1     -12.064  57.252  46.840  0.00  0.00    +0.000 HD
ENDBRANCH   3  27
BRANCH   5  29
ATOM     29  C   UNL     1     -12.146  53.247  51.537  0.00  0.00    +0.000 C 
BRANCH  29  30
ATOM     30  C   UNL     1     -10.895  53.280  52.436  0.00  0.00    +0.000 C 
BRANCH  30  31
ATOM     31  C   UNL     1     -10.376  54.670  52.678  0.00  0.00    +0.000 C 
ATOM     32  C   UNL     1      -9.159  55.232  51.992  0.00  0.00    +0.000 C 
ATOM     33  C   UNL     1      -9.083  54.828  53.437  0.00  0.00    +0.000 C 
ENDBRANCH  30  31
ENDBRANCH  29  30
ENDBRANCH   5  29
TORSDOF 5
ENDMDL
MODEL 8
REMARK VINA RESULT:      -7.9      4.093      5.139
REMARK  Name = 338168
REMARK  5 active torsions:
REMARK  status: ('A' for Active; 'I' for Inactive)
REMARK    1  A    between atoms: C_6  and  C_10
REMARK    2  A    between atoms: C_14  and  O_18
REMARK    3  A    between atoms: N_17  and  C_21
REMARK    4  A    between atoms: C_21  and  C_24
REMARK    5  A    between atoms: C_24  and  C_27
REMARK                            x       y       z     vdW  Elec       q    Type
REMARK                         _______ _______ _______ _____ _____    ______ ____
ROOT
ATOM      1  C   UNL     1     -12.340  54.570  49.374  0.00  0.00    +0.000 A 
ATOM      2  C   UNL     1     -11.709  54.491  48.028  0.00  0.00    +0.000 A 
ATOM      3  C   UNL     1     -12.174  53.567  50.253  0.00  0.00    +0.000 A 
ATOM      4  O   UNL     1     -12.029  55.349  47.202  0.00  0.00    +0.000 OA
ATOM      5  N   UNL     1     -10.772  53.487  47.777  0.00  0.00    +0.000 N 
ATOM      6  C   UNL     1     -11.325  52.417  49.921  0.00  0.00    +0.000 A 
ATOM      7  C   UNL     1     -10.613  52.394  48.704  0.00  0.00    +0.000 A 
ATOM      8  C   UNL     1     -11.188  51.362  50.843  0.00  0.00    +0.000 A 
ATOM      9  C   UNL     1      -9.775  51.292  48.451  0.00  0.00    +0.000 A 
ATOM     10  C   UNL     1     -10.334  50.307  50.575  0.00  0.00    +0.000 A 
ATOM     11  C   UNL     1      -9.625  50.262  49.388  0.00  0.00    +0.000 A 
ATOM     12  F   UNL     1     -10.187  49.325  51.473  0.00  0.00    +0.000 F 
ENDROOT
BRANCH   1  18
ATOM     13  S   UNL     1     -15.293  56.544  51.174  0.00  0.00    +0.000 S 
ATOM     14  O   UNL     1     -14.850  56.420  52.542  0.00  0.00    +0.000 OA
ATOM     15  O   UNL     1     -16.683  56.394  50.800  0.00  0.00    +0.000 OA
ATOM     16  N   UNL     1     -14.437  55.476  50.253  0.00  0.00    +0.000 N 
ATOM     17  C   UNL     1     -14.726  58.070  50.558  0.00  0.00    +0.000 A 
ATOM     18  C   UNL     1     -13.157  55.750  49.776  0.00  0.00    +0.000 C 
ATOM     19  C   UNL     1     -13.512  58.079  49.883  0.00  0.00    +0.000 A 
ATOM     20  C   UNL     1     -15.496  59.224  50.725  0.00  0.00    +0.000 A 
ATOM     21  N   UNL     1     -12.696  56.959  49.671  0.00  0.00    +0.000 N 
ATOM     22  C   UNL     1     -13.077  59.294  49.345  0.00  0.00    +0.000 A 
ATOM     23  C   UNL     1     -15.043  60.424  50.191  0.00  0.00    +0.000 A 
ATOM     24  C   UNL     1     -13.834  60.460  49.495  0.00  0.00    +0.000 A 
ATOM     25  H   UNL     1     -14.848  54.608  50.031  0.00  0.00    +0.000 HD
ATOM     26  H   UNL     1     -11.749  57.094  49.435  0.00  0.00    +0.000 HD
ENDBRANCH   1  18
BRANCH   3  27
ATOM     27  O   UNL     1     -12.741  53.527  51.517  0.00  0.00    +0.000 OA
ATOM     28  H   UNL     1     -13.581  53.132  51.642  0.00  0.00    +0.000 HD
ENDBRANCH   3  27
BRANCH   5  29
ATOM     29  C   UNL     1     -10.100  53.446  46.458  0.00  0.00    +0.000 C 
BRANCH  29  30
ATOM     30  C   UNL     1     -10.890  52.799  45.304  0.00  0.00    +0.000 C 
BRANCH  30  31
ATOM     31  C   UNL     1     -10.011  52.127  44.287  0.00  0.00    +0.000 C 
ATOM     32  C   UNL     1      -8.699  52.699  43.817  0.00  0.00    +0.000 C 
ATOM     33  C   UNL     1      -9.900  52.746  42.917  0.00  0.00    +0.000 C 
ENDBRANCH  30  31
ENDBRANCH  29  30
ENDBRANCH   5  29
TORSDOF 5
ENDMDL
MODEL 9
REMARK VINA RESULT:      -7.8      3.731      8.170
REMARK  Name = 338168
REMARK  5 active torsions:
REMARK  status: ('A' for Active; 'I' for Inactive)
REMARK    1  A    between atoms: C_6  and  C_10
REMARK    2  A    between atoms: C_14  and  O_18
REMARK    3  A    between atoms: N_17  and  C_21
REMARK    4  A    between atoms: C_21  and  C_24
REMARK    5  A    between atoms: C_24  and  C_27
REMARK                            x       y       z     vdW  Elec       q    Type
REMARK                         _______ _______ _______ _____ _____    ______ ____
ROOT
ATOM      1  C   UNL     1      -9.113  54.713  50.031  0.00  0.00    +0.000 A 
ATOM      2  C   UNL     1     -10.507  55.149  50.319  0.00  0.00    +0.000 A 
ATOM      3  C   UNL     1      -8.785  54.276  48.803  0.00  0.00    +0.000 A 
ATOM      4  O   UNL     1     -10.798  55.376  51.496  0.00  0.00    +0.000 OA
ATOM      5  N   UNL     1     -11.397  55.312  49.256  0.00  0.00    +0.000 N 
ATOM      6  C   UNL     1      -9.775  54.282  47.721  0.00  0.00    +0.000 A 
ATOM      7  C   UNL     1     -11.060  54.819  47.943  0.00  0.00    +0.000 A 
ATOM      8  C   UNL     1      -9.422  53.793  46.448  0.00  0.00    +0.000 A 
ATOM      9  C   UNL     1     -11.961  54.845  46.862  0.00  0.00    +0.000 A 
ATOM     10  C   UNL     1     -10.322  53.859  45.400  0.00  0.00    +0.000 A 
ATOM     11  C   UNL     1     -11.588  54.382  45.594  0.00  0.00    +0.000 A 
ATOM     12  F   UNL     1      -9.963  53.421  44.187  0.00  0.00    +0.000 F 
ENDROOT
BRANCH   1  18
ATOM     13  S   UNL     1      -7.266  55.974  53.326  0.00  0.00    +0.000 S 
ATOM     14  O   UNL     1      -8.194  55.475  54.314  0.00  0.00    +0.000 OA
ATOM     15  O   UNL     1      -6.658  57.283  53.437  0.00  0.00    +0.000 OA
ATOM     16  N   UNL     1      -7.999  55.915  51.850  0.00  0.00    +0.000 N 
ATOM     17  C   UNL     1      -5.996  54.799  53.135  0.00  0.00    +0.000 A 
ATOM     18  C   UNL     1      -8.058  54.753  51.085  0.00  0.00    +0.000 C 
ATOM     19  C   UNL     1      -6.142  53.854  52.126  0.00  0.00    +0.000 A 
ATOM     20  C   UNL     1      -4.868  54.844  53.957  0.00  0.00    +0.000 A 
ATOM     21  N   UNL     1      -7.240  53.760  51.260  0.00  0.00    +0.000 N 
ATOM     22  C   UNL     1      -5.102  52.940  51.938  0.00  0.00    +0.000 A 
ATOM     23  C   UNL     1      -3.849  53.921  53.760  0.00  0.00    +0.000 A 
ATOM     24  C   UNL     1      -3.961  52.970  52.746  0.00  0.00    +0.000 A 
ATOM     25  H   UNL     1      -8.412  56.736  51.494  0.00  0.00    +0.000 HD
ATOM     26  H   UNL     1      -7.393  52.919  50.771  0.00  0.00    +0.000 HD
ENDBRANCH   1  18
BRANCH   3  27
ATOM     27  O   UNL     1      -7.527  53.821  48.440  0.00  0.00    +0.000 OA
ATOM     28  H   UNL     1      -7.382  52.907  48.299  0.00  0.00    +0.000 HD
ENDBRANCH   3  27
BRANCH   5  29
ATOM     29  C   UNL     1     -12.766  55.805  49.536  0.00  0.00    +0.000 C 
BRANCH  29  30
ATOM     30  C   UNL     1     -12.977  57.329  49.456  0.00  0.00    +0.000 C 
BRANCH  30  31
ATOM     31  C   UNL     1     -13.724  57.886  50.636  0.00  0.00    +0.000 C 
ATOM     32  C   UNL     1     -15.213  57.752  50.814  0.00  0.00    +0.000 C 
ATOM     33  C   UNL     1     -14.624  59.075  50.415  0.00  0.00    +0.000 C 
ENDBRANCH  30  31
ENDBRANCH  29  30
ENDBRANCH   5  29
TORSDOF 5
ENDMDL
