MODEL 1
REMARK VINA RESULT:      -8.0      0.000      0.000
REMARK  Name = 338097
REMARK  10 active torsions:
REMARK  status: ('A' for Active; 'I' for Inactive)
REMARK    1  A    between atoms: C_6  and  C_10
REMARK    2  A    between atoms: C_14  and  O_18
REMARK    3  A    between atoms: N_17  and  C_21
REMARK    4  A    between atoms: C_21  and  C_24
REMARK    5  A    between atoms: C_24  and  C_27
REMARK    6  A    between atoms: C_25  and  O_28
REMARK    7  A    between atoms: C_27  and  C_29
REMARK    8  A    between atoms: C_27  and  C_30
REMARK    9  A    between atoms: O_28  and  C_31
REMARK   10  A    between atoms: C_31  and  C_32
REMARK                            x       y       z     vdW  Elec       q    Type
REMARK                         _______ _______ _______ _____ _____    ______ ____
ROOT
ATOM      1  C   UNL     1     -11.479  56.155  48.658  0.00  0.00    +0.000 A 
ATOM      2  C   UNL     1     -10.280  55.698  49.428  0.00  0.00    +0.000 A 
ATOM      3  C   UNL     1     -11.701  55.689  47.417  0.00  0.00    +0.000 A 
ATOM      4  O   UNL     1     -10.178  56.046  50.609  0.00  0.00    +0.000 OA
ATOM      5  N   UNL     1      -9.349  54.887  48.795  0.00  0.00    +0.000 N 
ATOM      6  C   UNL     1     -10.771  54.729  46.810  0.00  0.00    +0.000 A 
ATOM      7  C   UNL     1      -9.623  54.326  47.510  0.00  0.00    +0.000 A 
ATOM      8  C   UNL     1     -11.032  54.182  45.540  0.00  0.00    +0.000 A 
ATOM      9  C   UNL     1      -8.799  53.348  46.939  0.00  0.00    +0.000 A 
ATOM     10  C   UNL     1     -10.175  53.246  44.964  0.00  0.00    +0.000 A 
ATOM     11  C   UNL     1      -9.062  52.820  45.674  0.00  0.00    +0.000 A 
ENDROOT
BRANCH   1  17
ATOM     12  S   UNL     1     -13.594  59.356  49.479  0.00  0.00    +0.000 S 
ATOM     13  O   UNL     1     -14.748  59.506  48.621  0.00  0.00    +0.000 OA
ATOM     14  O   UNL     1     -12.787  60.510  49.830  0.00  0.00    +0.000 OA
ATOM     15  N   UNL     1     -12.615  58.256  48.801  0.00  0.00    +0.000 N 
ATOM     16  C   UNL     1     -14.193  58.708  50.996  0.00  0.00    +0.000 A 
ATOM     17  C   UNL     1     -12.469  57.078  49.329  0.00  0.00    +0.000 C 
ATOM     18  C   UNL     1     -13.871  57.401  51.312  0.00  0.00    +0.000 A 
ATOM     19  C   UNL     1     -14.958  59.510  51.847  0.00  0.00    +0.000 A 
ATOM     20  N   UNL     1     -13.125  56.608  50.446  0.00  0.00    +0.000 N 
ATOM     21  C   UNL     1     -14.381  56.859  52.496  0.00  0.00    +0.000 A 
ATOM     22  C   UNL     1     -15.437  58.967  53.037  0.00  0.00    +0.000 A 
ATOM     23  C   UNL     1     -15.154  57.639  53.359  0.00  0.00    +0.000 A 
ATOM     24  H   UNL     1     -12.125  58.484  47.979  0.00  0.00    +0.000 HD
ATOM     25  H   UNL     1     -13.062  55.645  50.644  0.00  0.00    +0.000 HD
ENDBRANCH   1  17
BRANCH   3  26
ATOM     26  O   UNL     1     -12.804  56.009  46.646  0.00  0.00    +0.000 OA
ATOM     27  H   UNL     1     -13.268  55.335  46.189  0.00  0.00    +0.000 HD
ENDBRANCH   3  26
BRANCH   5  28
ATOM     28  C   UNL     1      -8.153  54.500  49.553  0.00  0.00    +0.000 C 
BRANCH  28  29
ATOM     29  C   UNL     1      -7.023  55.542  49.602  0.00  0.00    +0.000 C 
BRANCH  29  30
ATOM     30  C   UNL     1      -5.585  55.005  49.533  0.00  0.00    +0.000 C 
ATOM     31  C   UNL     1      -5.149  54.344  50.838  0.00  0.00    +0.000 C 
ATOM     32  C   UNL     1      -5.501  53.995  48.382  0.00  0.00    +0.000 C 
ENDBRANCH  29  30
ENDBRANCH  28  29
ENDBRANCH   5  28
BRANCH  10  33
ATOM     33  O   UNL     1     -10.560  52.767  43.746  0.00  0.00    +0.000 OA
BRANCH  33  34
ATOM     34  C   UNL     1      -9.522  52.647  42.770  0.00  0.00    +0.000 C 
BRANCH  34  35
ATOM     35  C   UNL     1      -9.338  51.234  42.408  0.00  0.00    +0.000 C 
ATOM     36  N   UNL     1      -9.168  50.119  42.145  0.00  0.00    +0.000 NA
ENDBRANCH  34  35
ENDBRANCH  33  34
ENDBRANCH  10  33
TORSDOF 8
ENDMDL
MODEL 2
REMARK VINA RESULT:      -8.0      2.735      7.954
REMARK  Name = 338097
REMARK  10 active torsions:
REMARK  status: ('A' for Active; 'I' for Inactive)
REMARK    1  A    between atoms: C_6  and  C_10
REMARK    2  A    between atoms: C_14  and  O_18
REMARK    3  A    between atoms: N_17  and  C_21
REMARK    4  A    between atoms: C_21  and  C_24
REMARK    5  A    between atoms: C_24  and  C_27
REMARK    6  A    between atoms: C_25  and  O_28
REMARK    7  A    between atoms: C_27  and  C_29
REMARK    8  A    between atoms: C_27  and  C_30
REMARK    9  A    between atoms: O_28  and  C_31
REMARK   10  A    between atoms: C_31  and  C_32
REMARK                            x       y       z     vdW  Elec       q    Type
REMARK                         _______ _______ _______ _____ _____    ______ ____
ROOT
ATOM      1  C   UNL     1     -10.801  54.342  48.547  0.00  0.00    +0.000 A 
ATOM      2  C   UNL     1     -10.281  53.970  49.899  0.00  0.00    +0.000 A 
ATOM      3  C   UNL     1     -11.862  55.159  48.433  0.00  0.00    +0.000 A 
ATOM      4  O   UNL     1      -9.230  53.325  49.962  0.00  0.00    +0.000 OA
ATOM      5  N   UNL     1     -10.984  54.383  51.022  0.00  0.00    +0.000 N 
ATOM      6  C   UNL     1     -12.517  55.692  49.634  0.00  0.00    +0.000 A 
ATOM      7  C   UNL     1     -12.060  55.316  50.907  0.00  0.00    +0.000 A 
ATOM      8  C   UNL     1     -13.584  56.603  49.525  0.00  0.00    +0.000 A 
ATOM      9  C   UNL     1     -12.653  55.904  52.032  0.00  0.00    +0.000 A 
ATOM     10  C   UNL     1     -14.195  57.141  50.656  0.00  0.00    +0.000 A 
ATOM     11  C   UNL     1     -13.717  56.798  51.912  0.00  0.00    +0.000 A 
ENDROOT
BRANCH   1  17
ATOM     12  S   UNL     1      -8.014  53.930  45.815  0.00  0.00    +0.000 S 
ATOM     13  O   UNL     1      -6.935  53.063  46.234  0.00  0.00    +0.000 OA
ATOM     14  O   UNL     1      -7.731  55.154  45.087  0.00  0.00    +0.000 OA
ATOM     15  N   UNL     1      -8.869  54.327  47.133  0.00  0.00    +0.000 N 
ATOM     16  C   UNL     1      -9.034  52.968  44.759  0.00  0.00    +0.000 A 
ATOM     17  C   UNL     1     -10.064  53.853  47.321  0.00  0.00    +0.000 C 
ATOM     18  C   UNL     1     -10.285  52.605  45.225  0.00  0.00    +0.000 A 
ATOM     19  C   UNL     1      -8.581  52.604  43.489  0.00  0.00    +0.000 A 
ATOM     20  N   UNL     1     -10.715  52.959  46.499  0.00  0.00    +0.000 N 
ATOM     21  C   UNL     1     -11.088  51.800  44.411  0.00  0.00    +0.000 A 
ATOM     22  C   UNL     1      -9.402  51.825  42.677  0.00  0.00    +0.000 A 
ATOM     23  C   UNL     1     -10.653  51.417  43.141  0.00  0.00    +0.000 A 
ATOM     24  H   UNL     1      -8.477  54.935  47.801  0.00  0.00    +0.000 HD
ATOM     25  H   UNL     1     -11.540  52.542  46.838  0.00  0.00    +0.000 HD
ENDBRANCH   1  17
BRANCH   3  26
ATOM     26  O   UNL     1     -12.385  55.602  47.231  0.00  0.00    +0.000 OA
ATOM     27  H   UNL     1     -13.104  56.204  47.227  0.00  0.00    +0.000 HD
ENDBRANCH   3  26
BRANCH   5  28
ATOM     28  C   UNL     1     -10.486  53.956  52.335  0.00  0.00    +0.000 C 
BRANCH  28  29
ATOM     29  C   UNL     1      -9.665  54.997  53.112  0.00  0.00    +0.000 C 
BRANCH  29  30
ATOM     30  C   UNL     1      -8.153  55.026  52.842  0.00  0.00    +0.000 C 
ATOM     31  C   UNL     1      -7.781  56.007  51.733  0.00  0.00    +0.000 C 
ATOM     32  C   UNL     1      -7.436  55.411  54.142  0.00  0.00    +0.000 C 
ENDBRANCH  29  30
ENDBRANCH  28  29
ENDBRANCH   5  28
BRANCH  10  33
ATOM     33  O   UNL     1     -15.193  58.040  50.414  0.00  0.00    +0.000 OA
BRANCH  33  34
ATOM     34  C   UNL     1     -15.016  59.335  50.994  0.00  0.00    +0.000 C 
BRANCH  34  35
ATOM     35  C   UNL     1     -13.957  60.062  50.278  0.00  0.00    +0.000 C 
ATOM     36  N   UNL     1     -13.103  60.609  49.720  0.00  0.00    +0.000 NA
ENDBRANCH  34  35
ENDBRANCH  33  34
ENDBRANCH  10  33
TORSDOF 8
ENDMDL
MODEL 3
REMARK VINA RESULT:      -7.9      3.600      6.067
REMARK  Name = 338097
REMARK  10 active torsions:
REMARK  status: ('A' for Active; 'I' for Inactive)
REMARK    1  A    between atoms: C_6  and  C_10
REMARK    2  A    between atoms: C_14  and  O_18
REMARK    3  A    between atoms: N_17  and  C_21
REMARK    4  A    between atoms: C_21  and  C_24
REMARK    5  A    between atoms: C_24  and  C_27
REMARK    6  A    between atoms: C_25  and  O_28
REMARK    7  A    between atoms: C_27  and  C_29
REMARK    8  A    between atoms: C_27  and  C_30
REMARK    9  A    between atoms: O_28  and  C_31
REMARK   10  A    between atoms: C_31  and  C_32
REMARK                            x       y       z     vdW  Elec       q    Type
REMARK                         _______ _______ _______ _____ _____    ______ ____
ROOT
ATOM      1  C   UNL     1     -12.220  54.304  50.296  0.00  0.00    +0.000 A 
ATOM      2  C   UNL     1     -11.955  53.889  48.884  0.00  0.00    +0.000 A 
ATOM      3  C   UNL     1     -11.628  53.655  51.313  0.00  0.00    +0.000 A 
ATOM      4  O   UNL     1     -12.413  54.587  47.975  0.00  0.00    +0.000 OA
ATOM      5  N   UNL     1     -11.188  52.755  48.654  0.00  0.00    +0.000 N 
ATOM      6  C   UNL     1     -10.715  52.536  51.045  0.00  0.00    +0.000 A 
ATOM      7  C   UNL     1     -10.492  52.114  49.724  0.00  0.00    +0.000 A 
ATOM      8  C   UNL     1     -10.036  51.897  52.098  0.00  0.00    +0.000 A 
ATOM      9  C   UNL     1      -9.555  51.099  49.495  0.00  0.00    +0.000 A 
ATOM     10  C   UNL     1      -9.143  50.854  51.856  0.00  0.00    +0.000 A 
ATOM     11  C   UNL     1      -8.895  50.464  50.548  0.00  0.00    +0.000 A 
ENDROOT
BRANCH   1  17
ATOM     12  S   UNL     1     -15.300  56.492  51.359  0.00  0.00    +0.000 S 
ATOM     13  O   UNL     1     -15.355  56.737  52.782  0.00  0.00    +0.000 OA
ATOM     14  O   UNL     1     -16.511  56.184  50.620  0.00  0.00    +0.000 OA
ATOM     15  N   UNL     1     -14.248  55.285  51.106  0.00  0.00    +0.000 N 
ATOM     16  C   UNL     1     -14.654  57.954  50.634  0.00  0.00    +0.000 A 
ATOM     17  C   UNL     1     -13.095  55.510  50.550  0.00  0.00    +0.000 C 
ATOM     18  C   UNL     1     -13.378  57.901  50.102  0.00  0.00    +0.000 A 
ATOM     19  C   UNL     1     -15.426  59.117  50.594  0.00  0.00    +0.000 A 
ATOM     20  N   UNL     1     -12.613  56.742  50.165  0.00  0.00    +0.000 N 
ATOM     21  C   UNL     1     -12.835  59.072  49.564  0.00  0.00    +0.000 A 
ATOM     22  C   UNL     1     -14.884  60.269  50.031  0.00  0.00    +0.000 A 
ATOM     23  C   UNL     1     -13.585  60.248  49.520  0.00  0.00    +0.000 A 
ATOM     24  H   UNL     1     -14.485  54.369  51.377  0.00  0.00    +0.000 HD
ATOM     25  H   UNL     1     -11.661  56.805  49.920  0.00  0.00    +0.000 HD
ENDBRANCH   1  17
BRANCH   3  26
ATOM     26  O   UNL     1     -11.767  53.995  52.647  0.00  0.00    +0.000 OA
ATOM     27  H   UNL     1     -12.583  53.848  53.085  0.00  0.00    +0.000 HD
ENDBRANCH   3  26
BRANCH   5  28
ATOM     28  C   UNL     1     -10.991  52.335  47.262  0.00  0.00    +0.000 C 
BRANCH  28  29
ATOM     29  C   UNL     1      -9.793  52.965  46.534  0.00  0.00    +0.000 C 
BRANCH  29  30
ATOM     30  C   UNL     1     -10.068  53.579  45.152  0.00  0.00    +0.000 C 
ATOM     31  C   UNL     1      -9.122  53.044  44.081  0.00  0.00    +0.000 C 
ATOM     32  C   UNL     1     -11.521  53.271  44.767  0.00  0.00    +0.000 C 
ENDBRANCH  29  30
ENDBRANCH  28  29
ENDBRANCH   5  28
BRANCH  10  33
ATOM     33  O   UNL     1      -8.523  50.343  52.959  0.00  0.00    +0.000 OA
BRANCH  33  34
ATOM     34  C   UNL     1      -8.375  51.242  54.061  0.00  0.00    +0.000 C 
BRANCH  34  35
ATOM     35  C   UNL     1      -8.573  50.518  55.326  0.00  0.00    +0.000 C 
ATOM     36  N   UNL     1      -8.742  49.923  56.305  0.00  0.00    +0.000 NA
ENDBRANCH  34  35
ENDBRANCH  33  34
ENDBRANCH  10  33
TORSDOF 8
ENDMDL
MODEL 4
REMARK VINA RESULT:      -7.8      3.571      7.778
REMARK  Name = 338097
REMARK  10 active torsions:
REMARK  status: ('A' for Active; 'I' for Inactive)
REMARK    1  A    between atoms: C_6  and  C_10
REMARK    2  A    between atoms: C_14  and  O_18
REMARK    3  A    between atoms: N_17  and  C_21
REMARK    4  A    between atoms: C_21  and  C_24
REMARK    5  A    between atoms: C_24  and  C_27
REMARK    6  A    between atoms: C_25  and  O_28
REMARK    7  A    between atoms: C_27  and  C_29
REMARK    8  A    between atoms: C_27  and  C_30
REMARK    9  A    between atoms: O_28  and  C_31
REMARK   10  A    between atoms: C_31  and  C_32
REMARK                            x       y       z     vdW  Elec       q    Type
REMARK                         _______ _______ _______ _____ _____    ______ ____
ROOT
ATOM      1  C   UNL     1      -9.692  54.906  50.919  0.00  0.00    +0.000 A 
ATOM      2  C   UNL     1      -9.282  54.770  49.487  0.00  0.00    +0.000 A 
ATOM      3  C   UNL     1     -10.878  55.455  51.231  0.00  0.00    +0.000 A 
ATOM      4  O   UNL     1      -8.247  54.145  49.234  0.00  0.00    +0.000 OA
ATOM      5  N   UNL     1     -10.089  55.326  48.505  0.00  0.00    +0.000 N 
ATOM      6  C   UNL     1     -11.780  55.923  50.170  0.00  0.00    +0.000 A 
ATOM      7  C   UNL     1     -11.384  55.834  48.825  0.00  0.00    +0.000 A 
ATOM      8  C   UNL     1     -13.052  56.434  50.483  0.00  0.00    +0.000 A 
ATOM      9  C   UNL     1     -12.298  56.213  47.833  0.00  0.00    +0.000 A 
ATOM     10  C   UNL     1     -13.931  56.852  49.486  0.00  0.00    +0.000 A 
ATOM     11  C   UNL     1     -13.554  56.728  48.156  0.00  0.00    +0.000 A 
ENDROOT
BRANCH   1  17
ATOM     12  S   UNL     1      -6.498  54.220  53.093  0.00  0.00    +0.000 S 
ATOM     13  O   UNL     1      -6.259  55.245  54.084  0.00  0.00    +0.000 OA
ATOM     14  O   UNL     1      -5.394  53.658  52.338  0.00  0.00    +0.000 OA
ATOM     15  N   UNL     1      -7.575  54.803  52.031  0.00  0.00    +0.000 N 
ATOM     16  C   UNL     1      -7.232  52.874  53.947  0.00  0.00    +0.000 A 
ATOM     17  C   UNL     1      -8.790  54.344  51.993  0.00  0.00    +0.000 C 
ATOM     18  C   UNL     1      -8.566  52.603  53.702  0.00  0.00    +0.000 A 
ATOM     19  C   UNL     1      -6.470  52.106  54.831  0.00  0.00    +0.000 A 
ATOM     20  N   UNL     1      -9.318  53.388  52.834  0.00  0.00    +0.000 N 
ATOM     21  C   UNL     1      -9.174  51.563  54.412  0.00  0.00    +0.000 A 
ATOM     22  C   UNL     1      -7.079  51.055  55.511  0.00  0.00    +0.000 A 
ATOM     23  C   UNL     1      -8.433  50.787  55.306  0.00  0.00    +0.000 A 
ATOM     24  H   UNL     1      -7.305  55.514  51.406  0.00  0.00    +0.000 HD
ATOM     25  H   UNL     1     -10.293  53.253  52.820  0.00  0.00    +0.000 HD
ENDBRANCH   1  17
BRANCH   3  26
ATOM     26  O   UNL     1     -11.370  55.579  52.518  0.00  0.00    +0.000 OA
ATOM     27  H   UNL     1     -12.263  55.830  52.656  0.00  0.00    +0.000 HD
ENDBRANCH   3  26
BRANCH   5  28
ATOM     28  C   UNL     1      -9.635  55.229  47.112  0.00  0.00    +0.000 C 
BRANCH  28  29
ATOM     29  C   UNL     1      -9.812  53.857  46.442  0.00  0.00    +0.000 C 
BRANCH  29  30
ATOM     30  C   UNL     1     -11.150  53.604  45.729  0.00  0.00    +0.000 C 
ATOM     31  C   UNL     1     -10.961  53.014  44.334  0.00  0.00    +0.000 C 
ATOM     32  C   UNL     1     -11.984  52.648  46.592  0.00  0.00    +0.000 C 
ENDBRANCH  29  30
ENDBRANCH  28  29
ENDBRANCH   5  28
BRANCH  10  33
ATOM     33  O   UNL     1     -15.147  57.293  49.919  0.00  0.00    +0.000 OA
BRANCH  33  34
ATOM     34  C   UNL     1     -15.120  58.411  50.811  0.00  0.00    +0.000 C 
BRANCH  34  35
ATOM     35  C   UNL     1     -14.638  59.605  50.102  0.00  0.00    +0.000 C 
ATOM     36  N   UNL     1     -14.233  60.528  49.533  0.00  0.00    +0.000 NA
ENDBRANCH  34  35
ENDBRANCH  33  34
ENDBRANCH  10  33
TORSDOF 8
ENDMDL
MODEL 5
REMARK VINA RESULT:      -7.7      3.209      7.980
REMARK  Name = 338097
REMARK  10 active torsions:
REMARK  status: ('A' for Active; 'I' for Inactive)
REMARK    1  A    between atoms: C_6  and  C_10
REMARK    2  A    between atoms: C_14  and  O_18
REMARK    3  A    between atoms: N_17  and  C_21
REMARK    4  A    between atoms: C_21  and  C_24
REMARK    5  A    between atoms: C_24  and  C_27
REMARK    6  A    between atoms: C_25  and  O_28
REMARK    7  A    between atoms: C_27  and  C_29
REMARK    8  A    between atoms: C_27  and  C_30
REMARK    9  A    between atoms: O_28  and  C_31
REMARK   10  A    between atoms: C_31  and  C_32
REMARK                            x       y       z     vdW  Elec       q    Type
REMARK                         _______ _______ _______ _____ _____    ______ ____
ROOT
ATOM      1  C   UNL     1     -10.135  54.676  50.016  0.00  0.00    +0.000 A 
ATOM      2  C   UNL     1     -10.047  54.436  48.542  0.00  0.00    +0.000 A 
ATOM      3  C   UNL     1     -11.079  55.492  50.512  0.00  0.00    +0.000 A 
ATOM      4  O   UNL     1      -9.252  53.583  48.136  0.00  0.00    +0.000 OA
ATOM      5  N   UNL     1     -10.875  55.162  47.697  0.00  0.00    +0.000 N 
ATOM      6  C   UNL     1     -12.033  56.153  49.611  0.00  0.00    +0.000 A 
ATOM      7  C   UNL     1     -11.932  55.965  48.223  0.00  0.00    +0.000 A 
ATOM      8  C   UNL     1     -13.069  56.954  50.126  0.00  0.00    +0.000 A 
ATOM      9  C   UNL     1     -12.905  56.543  47.397  0.00  0.00    +0.000 A 
ATOM     10  C   UNL     1     -14.000  57.561  49.286  0.00  0.00    +0.000 A 
ATOM     11  C   UNL     1     -13.922  57.343  47.918  0.00  0.00    +0.000 A 
ENDROOT
BRANCH   1  17
ATOM     12  S   UNL     1      -8.316  51.714  51.837  0.00  0.00    +0.000 S 
ATOM     13  O   UNL     1      -7.254  51.131  51.048  0.00  0.00    +0.000 OA
ATOM     14  O   UNL     1      -9.213  50.865  52.600  0.00  0.00    +0.000 OA
ATOM     15  N   UNL     1      -9.221  52.627  50.850  0.00  0.00    +0.000 N 
ATOM     16  C   UNL     1      -7.537  52.764  53.008  0.00  0.00    +0.000 A 
ATOM     17  C   UNL     1      -9.200  53.923  50.934  0.00  0.00    +0.000 C 
ATOM     18  C   UNL     1      -7.693  54.130  52.854  0.00  0.00    +0.000 A 
ATOM     19  C   UNL     1      -6.800  52.215  54.060  0.00  0.00    +0.000 A 
ATOM     20  N   UNL     1      -8.414  54.663  51.791  0.00  0.00    +0.000 N 
ATOM     21  C   UNL     1      -7.038  54.978  53.753  0.00  0.00    +0.000 A 
ATOM     22  C   UNL     1      -6.176  53.070  54.965  0.00  0.00    +0.000 A 
ATOM     23  C   UNL     1      -6.290  54.452  54.808  0.00  0.00    +0.000 A 
ATOM     24  H   UNL     1      -9.795  52.193  50.178  0.00  0.00    +0.000 HD
ATOM     25  H   UNL     1      -8.358  55.634  51.639  0.00  0.00    +0.000 HD
ENDBRANCH   1  17
BRANCH   3  26
ATOM     26  O   UNL     1     -11.275  55.738  51.859  0.00  0.00    +0.000 OA
ATOM     27  H   UNL     1     -11.719  55.106  52.391  0.00  0.00    +0.000 HD
ENDBRANCH   3  26
BRANCH   5  28
ATOM     28  C   UNL     1     -10.729  54.951  46.252  0.00  0.00    +0.000 C 
BRANCH  28  29
ATOM     29  C   UNL     1     -11.611  53.849  45.642  0.00  0.00    +0.000 C 
BRANCH  29  30
ATOM     30  C   UNL     1     -11.012  53.053  44.471  0.00  0.00    +0.000 C 
ATOM     31  C   UNL     1      -9.486  53.103  44.457  0.00  0.00    +0.000 C 
ATOM     32  C   UNL     1     -11.486  51.599  44.582  0.00  0.00    +0.000 C 
ENDBRANCH  29  30
ENDBRANCH  28  29
ENDBRANCH   5  28
BRANCH  10  33
ATOM     33  O   UNL     1     -14.976  58.282  49.911  0.00  0.00    +0.000 OA
BRANCH  33  34
ATOM     34  C   UNL     1     -14.524  59.392  50.692  0.00  0.00    +0.000 C 
BRANCH  34  35
ATOM     35  C   UNL     1     -15.016  59.266  52.071  0.00  0.00    +0.000 C 
ATOM     36  N   UNL     1     -15.375  59.153  53.167  0.00  0.00    +0.000 NA
ENDBRANCH  34  35
ENDBRANCH  33  34
ENDBRANCH  10  33
TORSDOF 8
ENDMDL
MODEL 6
REMARK VINA RESULT:      -7.5      2.295      5.157
REMARK  Name = 338097
REMARK  10 active torsions:
REMARK  status: ('A' for Active; 'I' for Inactive)
REMARK    1  A    between atoms: C_6  and  C_10
REMARK    2  A    between atoms: C_14  and  O_18
REMARK    3  A    between atoms: N_17  and  C_21
REMARK    4  A    between atoms: C_21  and  C_24
REMARK    5  A    between atoms: C_24  and  C_27
REMARK    6  A    between atoms: C_25  and  O_28
REMARK    7  A    between atoms: C_27  and  C_29
REMARK    8  A    between atoms: C_27  and  C_30
REMARK    9  A    between atoms: O_28  and  C_31
REMARK   10  A    between atoms: C_31  and  C_32
REMARK                            x       y       z     vdW  Elec       q    Type
REMARK                         _______ _______ _______ _____ _____    ______ ____
ROOT
ATOM      1  C   UNL     1     -10.802  55.691  48.768  0.00  0.00    +0.000 A 
ATOM      2  C   UNL     1     -11.148  55.215  47.393  0.00  0.00    +0.000 A 
ATOM      3  C   UNL     1      -9.553  55.539  49.240  0.00  0.00    +0.000 A 
ATOM      4  O   UNL     1     -12.266  55.487  46.946  0.00  0.00    +0.000 OA
ATOM      5  N   UNL     1     -10.194  54.513  46.669  0.00  0.00    +0.000 N 
ATOM      6  C   UNL     1      -8.520  54.908  48.410  0.00  0.00    +0.000 A 
ATOM      7  C   UNL     1      -8.846  54.423  47.133  0.00  0.00    +0.000 A 
ATOM      8  C   UNL     1      -7.193  54.809  48.867  0.00  0.00    +0.000 A 
ATOM      9  C   UNL     1      -7.821  53.900  46.334  0.00  0.00    +0.000 A 
ATOM     10  C   UNL     1      -6.195  54.241  48.078  0.00  0.00    +0.000 A 
ATOM     11  C   UNL     1      -6.511  53.797  46.802  0.00  0.00    +0.000 A 
ENDROOT
BRANCH   1  17
ATOM     12  S   UNL     1     -13.572  56.400  51.455  0.00  0.00    +0.000 S 
ATOM     13  O   UNL     1     -13.029  56.709  52.759  0.00  0.00    +0.000 OA
ATOM     14  O   UNL     1     -14.734  55.539  51.330  0.00  0.00    +0.000 OA
ATOM     15  N   UNL     1     -12.382  55.754  50.565  0.00  0.00    +0.000 N 
ATOM     16  C   UNL     1     -14.032  57.935  50.739  0.00  0.00    +0.000 A 
ATOM     17  C   UNL     1     -11.855  56.413  49.577  0.00  0.00    +0.000 C 
ATOM     18  C   UNL     1     -13.284  58.400  49.673  0.00  0.00    +0.000 A 
ATOM     19  C   UNL     1     -15.130  58.640  51.238  0.00  0.00    +0.000 A 
ATOM     20  N   UNL     1     -12.181  57.697  49.199  0.00  0.00    +0.000 N 
ATOM     21  C   UNL     1     -13.611  59.644  49.125  0.00  0.00    +0.000 A 
ATOM     22  C   UNL     1     -15.463  59.865  50.665  0.00  0.00    +0.000 A 
ATOM     23  C   UNL     1     -14.700  60.370  49.612  0.00  0.00    +0.000 A 
ATOM     24  H   UNL     1     -12.053  54.851  50.776  0.00  0.00    +0.000 HD
ATOM     25  H   UNL     1     -11.593  58.148  48.551  0.00  0.00    +0.000 HD
ENDBRANCH   1  17
BRANCH   3  26
ATOM     26  O   UNL     1      -9.122  55.990  50.475  0.00  0.00    +0.000 OA
ATOM     27  H   UNL     1      -8.220  55.907  50.715  0.00  0.00    +0.000 HD
ENDBRANCH   3  26
BRANCH   5  28
ATOM     28  C   UNL     1     -10.577  54.006  45.346  0.00  0.00    +0.000 C 
BRANCH  28  29
ATOM     29  C   UNL     1     -11.367  52.687  45.335  0.00  0.00    +0.000 C 
BRANCH  29  30
ATOM     30  C   UNL     1     -10.589  51.419  44.951  0.00  0.00    +0.000 C 
ATOM     31  C   UNL     1      -9.528  51.689  43.887  0.00  0.00    +0.000 C 
ATOM     32  C   UNL     1      -9.928  50.856  46.216  0.00  0.00    +0.000 C 
ENDBRANCH  29  30
ENDBRANCH  28  29
ENDBRANCH   5  28
BRANCH  10  33
ATOM     33  O   UNL     1      -4.944  54.237  48.623  0.00  0.00    +0.000 OA
BRANCH  33  34
ATOM     34  C   UNL     1      -4.644  53.133  49.481  0.00  0.00    +0.000 C 
BRANCH  34  35
ATOM     35  C   UNL     1      -4.289  53.624  50.821  0.00  0.00    +0.000 C 
ATOM     36  N   UNL     1      -4.015  54.042  51.866  0.00  0.00    +0.000 NA
ENDBRANCH  34  35
ENDBRANCH  33  34
ENDBRANCH  10  33
TORSDOF 8
ENDMDL
MODEL 7
REMARK VINA RESULT:      -7.4      2.973      8.211
REMARK  Name = 338097
REMARK  10 active torsions:
REMARK  status: ('A' for Active; 'I' for Inactive)
REMARK    1  A    between atoms: C_6  and  C_10
REMARK    2  A    between atoms: C_14  and  O_18
REMARK    3  A    between atoms: N_17  and  C_21
REMARK    4  A    between atoms: C_21  and  C_24
REMARK    5  A    between atoms: C_24  and  C_27
REMARK    6  A    between atoms: C_25  and  O_28
REMARK    7  A    between atoms: C_27  and  C_29
REMARK    8  A    between atoms: C_27  and  C_30
REMARK    9  A    between atoms: O_28  and  C_31
REMARK   10  A    between atoms: C_31  and  C_32
REMARK                            x       y       z     vdW  Elec       q    Type
REMARK                         _______ _______ _______ _____ _____    ______ ____
ROOT
ATOM      1  C   UNL     1      -9.825  54.618  49.821  0.00  0.00    +0.000 A 
ATOM      2  C   UNL     1      -9.818  54.410  48.341  0.00  0.00    +0.000 A 
ATOM      3  C   UNL     1     -10.774  55.380  50.391  0.00  0.00    +0.000 A 
ATOM      4  O   UNL     1      -9.012  53.603  47.869  0.00  0.00    +0.000 OA
ATOM      5  N   UNL     1     -10.730  55.111  47.563  0.00  0.00    +0.000 N 
ATOM      6  C   UNL     1     -11.811  56.011  49.565  0.00  0.00    +0.000 A 
ATOM      7  C   UNL     1     -11.788  55.853  48.170  0.00  0.00    +0.000 A 
ATOM      8  C   UNL     1     -12.849  56.752  50.159  0.00  0.00    +0.000 A 
ATOM      9  C   UNL     1     -12.836  56.399  47.417  0.00  0.00    +0.000 A 
ATOM     10  C   UNL     1     -13.857  57.331  49.390  0.00  0.00    +0.000 A 
ATOM     11  C   UNL     1     -13.855  57.141  48.016  0.00  0.00    +0.000 A 
ENDROOT
BRANCH   1  17
ATOM     12  S   UNL     1      -8.261  52.253  52.534  0.00  0.00    +0.000 S 
ATOM     13  O   UNL     1      -8.203  50.871  52.113  0.00  0.00    +0.000 OA
ATOM     14  O   UNL     1      -8.652  52.590  53.891  0.00  0.00    +0.000 OA
ATOM     15  N   UNL     1      -9.260  53.034  51.525  0.00  0.00    +0.000 N 
ATOM     16  C   UNL     1      -6.643  52.898  52.325  0.00  0.00    +0.000 A 
ATOM     17  C   UNL     1      -8.801  53.894  50.665  0.00  0.00    +0.000 C 
ATOM     18  C   UNL     1      -6.441  53.822  51.316  0.00  0.00    +0.000 A 
ATOM     19  C   UNL     1      -5.610  52.487  53.171  0.00  0.00    +0.000 A 
ATOM     20  N   UNL     1      -7.474  54.207  50.468  0.00  0.00    +0.000 N 
ATOM     21  C   UNL     1      -5.146  54.308  51.109  0.00  0.00    +0.000 A 
ATOM     22  C   UNL     1      -4.331  53.000  52.973  0.00  0.00    +0.000 A 
ATOM     23  C   UNL     1      -4.097  53.906  51.938  0.00  0.00    +0.000 A 
ATOM     24  H   UNL     1     -10.227  52.855  51.564  0.00  0.00    +0.000 HD
ATOM     25  H   UNL     1      -7.242  54.739  49.673  0.00  0.00    +0.000 HD
ENDBRANCH   1  17
BRANCH   3  26
ATOM     26  O   UNL     1     -10.897  55.591  51.753  0.00  0.00    +0.000 OA
ATOM     27  H   UNL     1     -11.745  55.713  52.133  0.00  0.00    +0.000 HD
ENDBRANCH   3  26
BRANCH   5  28
ATOM     28  C   UNL     1     -10.664  54.933  46.107  0.00  0.00    +0.000 C 
BRANCH  28  29
ATOM     29  C   UNL     1     -11.621  53.885  45.515  0.00  0.00    +0.000 C 
BRANCH  29  30
ATOM     30  C   UNL     1     -10.976  52.698  44.783  0.00  0.00    +0.000 C 
ATOM     31  C   UNL     1      -9.564  53.013  44.298  0.00  0.00    +0.000 C 
ATOM     32  C   UNL     1     -10.946  51.499  45.740  0.00  0.00    +0.000 C 
ENDBRANCH  29  30
ENDBRANCH  28  29
ENDBRANCH   5  28
BRANCH  10  33
ATOM     33  O   UNL     1     -14.825  57.992  50.090  0.00  0.00    +0.000 OA
BRANCH  33  34
ATOM     34  C   UNL     1     -14.400  59.180  50.764  0.00  0.00    +0.000 C 
BRANCH  34  35
ATOM     35  C   UNL     1     -14.953  59.206  52.126  0.00  0.00    +0.000 C 
ATOM     36  N   UNL     1     -15.361  59.241  53.209  0.00  0.00    +0.000 NA
ENDBRANCH  34  35
ENDBRANCH  33  34
ENDBRANCH  10  33
TORSDOF 8
ENDMDL
MODEL 8
REMARK VINA RESULT:      -7.4      1.920      2.469
REMARK  Name = 338097
REMARK  10 active torsions:
REMARK  status: ('A' for Active; 'I' for Inactive)
REMARK    1  A    between atoms: C_6  and  C_10
REMARK    2  A    between atoms: C_14  and  O_18
REMARK    3  A    between atoms: N_17  and  C_21
REMARK    4  A    between atoms: C_21  and  C_24
REMARK    5  A    between atoms: C_24  and  C_27
REMARK    6  A    between atoms: C_25  and  O_28
REMARK    7  A    between atoms: C_27  and  C_29
REMARK    8  A    between atoms: C_27  and  C_30
REMARK    9  A    between atoms: O_28  and  C_31
REMARK   10  A    between atoms: C_31  and  C_32
REMARK                            x       y       z     vdW  Elec       q    Type
REMARK                         _______ _______ _______ _____ _____    ______ ____
ROOT
ATOM      1  C   UNL     1     -10.750  55.737  48.490  0.00  0.00    +0.000 A 
ATOM      2  C   UNL     1      -9.352  55.571  48.993  0.00  0.00    +0.000 A 
ATOM      3  C   UNL     1     -11.101  55.237  47.293  0.00  0.00    +0.000 A 
ATOM      4  O   UNL     1      -9.101  55.929  50.148  0.00  0.00    +0.000 OA
ATOM      5  N   UNL     1      -8.403  55.003  48.154  0.00  0.00    +0.000 N 
ATOM      6  C   UNL     1     -10.114  54.523  46.472  0.00  0.00    +0.000 A 
ATOM      7  C   UNL     1      -8.789  54.398  46.919  0.00  0.00    +0.000 A 
ATOM      8  C   UNL     1     -10.489  53.936  45.250  0.00  0.00    +0.000 A 
ATOM      9  C   UNL     1      -7.892  53.643  46.152  0.00  0.00    +0.000 A 
ATOM     10  C   UNL     1      -9.571  53.228  44.475  0.00  0.00    +0.000 A 
ATOM     11  C   UNL     1      -8.272  53.073  44.937  0.00  0.00    +0.000 A 
ENDROOT
BRANCH   1  17
ATOM     12  S   UNL     1     -13.383  56.270  51.351  0.00  0.00    +0.000 S 
ATOM     13  O   UNL     1     -12.776  56.542  52.634  0.00  0.00    +0.000 OA
ATOM     14  O   UNL     1     -14.530  55.386  51.254  0.00  0.00    +0.000 OA
ATOM     15  N   UNL     1     -12.229  55.690  50.372  0.00  0.00    +0.000 N 
ATOM     16  C   UNL     1     -13.917  57.820  50.723  0.00  0.00    +0.000 A 
ATOM     17  C   UNL     1     -11.773  56.400  49.383  0.00  0.00    +0.000 C 
ATOM     18  C   UNL     1     -13.240  58.345  49.637  0.00  0.00    +0.000 A 
ATOM     19  C   UNL     1     -15.002  58.477  51.309  0.00  0.00    +0.000 A 
ATOM     20  N   UNL     1     -12.150  57.689  49.076  0.00  0.00    +0.000 N 
ATOM     21  C   UNL     1     -13.626  59.601  49.158  0.00  0.00    +0.000 A 
ATOM     22  C   UNL     1     -15.395  59.714  50.805  0.00  0.00    +0.000 A 
ATOM     23  C   UNL     1     -14.703  60.279  49.733  0.00  0.00    +0.000 A 
ATOM     24  H   UNL     1     -11.869  54.787  50.528  0.00  0.00    +0.000 HD
ATOM     25  H   UNL     1     -11.609  58.180  48.416  0.00  0.00    +0.000 HD
ENDBRANCH   1  17
BRANCH   3  26
ATOM     26  O   UNL     1     -12.377  55.293  46.763  0.00  0.00    +0.000 OA
ATOM     27  H   UNL     1     -13.122  55.257  47.331  0.00  0.00    +0.000 HD
ENDBRANCH   3  26
BRANCH   5  28
ATOM     28  C   UNL     1      -7.025  54.905  48.649  0.00  0.00    +0.000 C 
BRANCH  28  29
ATOM     29  C   UNL     1      -6.715  53.687  49.536  0.00  0.00    +0.000 C 
BRANCH  29  30
ATOM     30  C   UNL     1      -5.521  52.815  49.119  0.00  0.00    +0.000 C 
ATOM     31  C   UNL     1      -5.959  51.496  48.487  0.00  0.00    +0.000 C 
ATOM     32  C   UNL     1      -4.664  53.611  48.126  0.00  0.00    +0.000 C 
ENDBRANCH  29  30
ENDBRANCH  28  29
ENDBRANCH   5  28
BRANCH  10  33
ATOM     33  O   UNL     1     -10.069  52.677  43.331  0.00  0.00    +0.000 OA
BRANCH  33  34
ATOM     34  C   UNL     1     -10.096  51.247  43.291  0.00  0.00    +0.000 C 
BRANCH  34  35
ATOM     35  C   UNL     1     -11.110  50.741  44.227  0.00  0.00    +0.000 C 
ATOM     36  N   UNL     1     -11.885  50.322  44.979  0.00  0.00    +0.000 NA
ENDBRANCH  34  35
ENDBRANCH  33  34
ENDBRANCH  10  33
TORSDOF 8
ENDMDL
MODEL 9
REMARK VINA RESULT:      -7.4      3.568      6.400
REMARK  Name = 338097
REMARK  10 active torsions:
REMARK  status: ('A' for Active; 'I' for Inactive)
REMARK    1  A    between atoms: C_6  and  C_10
REMARK    2  A    between atoms: C_14  and  O_18
REMARK    3  A    between atoms: N_17  and  C_21
REMARK    4  A    between atoms: C_21  and  C_24
REMARK    5  A    between atoms: C_24  and  C_27
REMARK    6  A    between atoms: C_25  and  O_28
REMARK    7  A    between atoms: C_27  and  C_29
REMARK    8  A    between atoms: C_27  and  C_30
REMARK    9  A    between atoms: O_28  and  C_31
REMARK   10  A    between atoms: C_31  and  C_32
REMARK                            x       y       z     vdW  Elec       q    Type
REMARK                         _______ _______ _______ _____ _____    ______ ____
ROOT
ATOM      1  C   UNL     1     -11.799  53.935  51.086  0.00  0.00    +0.000 A 
ATOM      2  C   UNL     1     -11.828  52.820  50.090  0.00  0.00    +0.000 A 
ATOM      3  C   UNL     1     -11.008  53.852  52.169  0.00  0.00    +0.000 A 
ATOM      4  O   UNL     1     -12.465  52.987  49.046  0.00  0.00    +0.000 OA
ATOM      5  N   UNL     1     -11.122  51.658  50.368  0.00  0.00    +0.000 N 
ATOM      6  C   UNL     1     -10.167  52.667  52.382  0.00  0.00    +0.000 A 
ATOM      7  C   UNL     1     -10.219  51.598  51.473  0.00  0.00    +0.000 A 
ATOM      8  C   UNL     1      -9.284  52.601  53.475  0.00  0.00    +0.000 A 
ATOM      9  C   UNL     1      -9.346  50.519  51.659  0.00  0.00    +0.000 A 
ATOM     10  C   UNL     1      -8.457  51.497  53.673  0.00  0.00    +0.000 A 
ATOM     11  C   UNL     1      -8.482  50.459  52.753  0.00  0.00    +0.000 A 
ENDROOT
BRANCH   1  17
ATOM     12  S   UNL     1     -13.257  57.071  49.232  0.00  0.00    +0.000 S 
ATOM     13  O   UNL     1     -14.329  56.741  48.319  0.00  0.00    +0.000 OA
ATOM     14  O   UNL     1     -12.247  58.043  48.855  0.00  0.00    +0.000 OA
ATOM     15  N   UNL     1     -12.496  55.694  49.619  0.00  0.00    +0.000 N 
ATOM     16  C   UNL     1     -14.023  57.709  50.677  0.00  0.00    +0.000 A 
ATOM     17  C   UNL     1     -12.606  55.183  50.809  0.00  0.00    +0.000 C 
ATOM     18  C   UNL     1     -13.979  56.939  51.825  0.00  0.00    +0.000 A 
ATOM     19  C   UNL     1     -14.639  58.962  50.648  0.00  0.00    +0.000 A 
ATOM     20  N   UNL     1     -13.379  55.684  51.833  0.00  0.00    +0.000 N 
ATOM     21  C   UNL     1     -14.626  57.415  52.969  0.00  0.00    +0.000 A 
ATOM     22  C   UNL     1     -15.256  59.438  51.802  0.00  0.00    +0.000 A 
ATOM     23  C   UNL     1     -15.255  58.662  52.962  0.00  0.00    +0.000 A 
ATOM     24  H   UNL     1     -11.944  55.238  48.944  0.00  0.00    +0.000 HD
ATOM     25  H   UNL     1     -13.517  55.114  52.625  0.00  0.00    +0.000 HD
ENDBRANCH   1  17
BRANCH   3  26
ATOM     26  O   UNL     1     -10.871  54.849  53.119  0.00  0.00    +0.000 OA
ATOM     27  H   UNL     1     -11.498  54.926  53.811  0.00  0.00    +0.000 HD
ENDBRANCH   3  26
BRANCH   5  28
ATOM     28  C   UNL     1     -11.214  50.556  49.403  0.00  0.00    +0.000 C 
BRANCH  28  29
ATOM     29  C   UNL     1     -10.334  50.687  48.149  0.00  0.00    +0.000 C 
BRANCH  29  30
ATOM     30  C   UNL     1     -10.875  50.055  46.857  0.00  0.00    +0.000 C 
ATOM     31  C   UNL     1     -12.121  50.769  46.339  0.00  0.00    +0.000 C 
ATOM     32  C   UNL     1      -9.768  50.100  45.796  0.00  0.00    +0.000 C 
ENDBRANCH  29  30
ENDBRANCH  28  29
ENDBRANCH   5  28
BRANCH  10  33
ATOM     33  O   UNL     1      -7.622  51.572  54.749  0.00  0.00    +0.000 OA
BRANCH  33  34
ATOM     34  C   UNL     1      -6.287  52.001  54.470  0.00  0.00    +0.000 C 
BRANCH  34  35
ATOM     35  C   UNL     1      -6.152  53.436  54.759  0.00  0.00    +0.000 C 
ATOM     36  N   UNL     1      -6.077  54.572  54.973  0.00  0.00    +0.000 NA
ENDBRANCH  34  35
ENDBRANCH  33  34
ENDBRANCH  10  33
TORSDOF 8
ENDMDL
