MODEL 1
REMARK VINA RESULT:      -8.6      0.000      0.000
REMARK  Name = 338168
REMARK  5 active torsions:
REMARK  status: ('A' for Active; 'I' for Inactive)
REMARK    1  A    between atoms: C_6  and  C_10
REMARK    2  A    between atoms: C_14  and  O_18
REMARK    3  A    between atoms: N_17  and  C_21
REMARK    4  A    between atoms: C_21  and  C_24
REMARK    5  A    between atoms: C_24  and  C_27
REMARK                            x       y       z     vdW  Elec       q    Type
REMARK                         _______ _______ _______ _____ _____    ______ ____
ROOT
ATOM      1  C   UNL     1      -9.998  54.559  52.368  0.00  0.00    +0.000 A 
ATOM      2  C   UNL     1      -8.603  55.064  52.257  0.00  0.00    +0.000 A 
ATOM      3  C   UNL     1     -10.251  53.425  53.046  0.00  0.00    +0.000 A 
ATOM      4  O   UNL     1      -8.402  56.005  51.488  0.00  0.00    +0.000 OA
ATOM      5  N   UNL     1      -7.609  54.481  53.043  0.00  0.00    +0.000 N 
ATOM      6  C   UNL     1      -9.171  52.711  53.734  0.00  0.00    +0.000 A 
ATOM      7  C   UNL     1      -7.868  53.251  53.749  0.00  0.00    +0.000 A 
ATOM      8  C   UNL     1      -9.450  51.514  54.417  0.00  0.00    +0.000 A 
ATOM      9  C   UNL     1      -6.875  52.553  54.462  0.00  0.00    +0.000 A 
ATOM     10  C   UNL     1      -8.457  50.867  55.131  0.00  0.00    +0.000 A 
ATOM     11  C   UNL     1      -7.170  51.378  55.161  0.00  0.00    +0.000 A 
ATOM     12  F   UNL     1      -8.742  49.746  55.805  0.00  0.00    +0.000 F 
ENDROOT
BRANCH   1  18
ATOM     13  S   UNL     1     -12.388  55.799  49.435  0.00  0.00    +0.000 S 
ATOM     14  O   UNL     1     -13.065  54.555  49.153  0.00  0.00    +0.000 OA
ATOM     15  O   UNL     1     -11.951  56.691  48.383  0.00  0.00    +0.000 OA
ATOM     16  N   UNL     1     -11.065  55.470  50.362  0.00  0.00    +0.000 N 
ATOM     17  C   UNL     1     -13.375  56.709  50.543  0.00  0.00    +0.000 A 
ATOM     18  C   UNL     1     -11.136  55.290  51.739  0.00  0.00    +0.000 C 
ATOM     19  C   UNL     1     -13.110  56.571  51.904  0.00  0.00    +0.000 A 
ATOM     20  C   UNL     1     -14.369  57.565  50.059  0.00  0.00    +0.000 A 
ATOM     21  N   UNL     1     -12.124  55.739  52.453  0.00  0.00    +0.000 N 
ATOM     22  C   UNL     1     -13.868  57.339  52.792  0.00  0.00    +0.000 A 
ATOM     23  C   UNL     1     -15.120  58.311  50.962  0.00  0.00    +0.000 A 
ATOM     24  C   UNL     1     -14.863  58.203  52.329  0.00  0.00    +0.000 A 
ATOM     25  H   UNL     1     -10.188  55.399  49.922  0.00  0.00    +0.000 HD
ATOM     26  H   UNL     1     -12.182  55.487  53.403  0.00  0.00    +0.000 HD
ENDBRANCH   1  18
BRANCH   3  27
ATOM     27  O   UNL     1     -11.508  52.853  53.183  0.00  0.00    +0.000 OA
ATOM     28  H   UNL     1     -12.247  53.240  52.756  0.00  0.00    +0.000 HD
ENDBRANCH   3  27
BRANCH   5  29
ATOM     29  C   UNL     1      -6.231  55.022  52.974  0.00  0.00    +0.000 C 
BRANCH  29  30
ATOM     30  C   UNL     1      -5.226  54.233  52.112  0.00  0.00    +0.000 C 
BRANCH  30  31
ATOM     31  C   UNL     1      -5.353  54.519  50.642  0.00  0.00    +0.000 C 
ATOM     32  C   UNL     1      -6.139  53.654  49.693  0.00  0.00    +0.000 C 
ATOM     33  C   UNL     1      -4.638  53.611  49.674  0.00  0.00    +0.000 C 
ENDBRANCH  30  31
ENDBRANCH  29  30
ENDBRANCH   5  29
TORSDOF 5
ENDMDL
MODEL 2
REMARK VINA RESULT:      -8.3      3.867      7.422
REMARK  Name = 338168
REMARK  5 active torsions:
REMARK  status: ('A' for Active; 'I' for Inactive)
REMARK    1  A    between atoms: C_6  and  C_10
REMARK    2  A    between atoms: C_14  and  O_18
REMARK    3  A    between atoms: N_17  and  C_21
REMARK    4  A    between atoms: C_21  and  C_24
REMARK    5  A    between atoms: C_24  and  C_27
REMARK                            x       y       z     vdW  Elec       q    Type
REMARK                         _______ _______ _______ _____ _____    ______ ____
ROOT
ATOM      1  C   UNL     1     -10.176  55.098  50.815  0.00  0.00    +0.000 A 
ATOM      2  C   UNL     1      -9.814  55.169  49.373  0.00  0.00    +0.000 A 
ATOM      3  C   UNL     1     -11.374  55.545  51.230  0.00  0.00    +0.000 A 
ATOM      4  O   UNL     1      -8.649  54.908  49.069  0.00  0.00    +0.000 OA
ATOM      5  N   UNL     1     -10.803  55.489  48.444  0.00  0.00    +0.000 N 
ATOM      6  C   UNL     1     -12.358  56.046  50.266  0.00  0.00    +0.000 A 
ATOM      7  C   UNL     1     -12.079  55.994  48.884  0.00  0.00    +0.000 A 
ATOM      8  C   UNL     1     -13.597  56.532  50.722  0.00  0.00    +0.000 A 
ATOM      9  C   UNL     1     -13.074  56.444  47.995  0.00  0.00    +0.000 A 
ATOM     10  C   UNL     1     -14.563  56.941  49.819  0.00  0.00    +0.000 A 
ATOM     11  C   UNL     1     -14.313  56.900  48.458  0.00  0.00    +0.000 A 
ATOM     12  F   UNL     1     -15.751  57.371  50.264  0.00  0.00    +0.000 F 
ENDROOT
BRANCH   1  18
ATOM     13  S   UNL     1      -6.887  54.902  53.051  0.00  0.00    +0.000 S 
ATOM     14  O   UNL     1      -7.166  55.988  53.959  0.00  0.00    +0.000 OA
ATOM     15  O   UNL     1      -5.568  54.682  52.498  0.00  0.00    +0.000 OA
ATOM     16  N   UNL     1      -7.925  55.014  51.775  0.00  0.00    +0.000 N 
ATOM     17  C   UNL     1      -7.415  53.423  53.802  0.00  0.00    +0.000 A 
ATOM     18  C   UNL     1      -9.230  54.533  51.820  0.00  0.00    +0.000 C 
ATOM     19  C   UNL     1      -8.701  52.976  53.511  0.00  0.00    +0.000 A 
ATOM     20  C   UNL     1      -6.548  52.711  54.638  0.00  0.00    +0.000 A 
ATOM     21  N   UNL     1      -9.615  53.636  52.676  0.00  0.00    +0.000 N 
ATOM     22  C   UNL     1      -9.108  51.763  54.074  0.00  0.00    +0.000 A 
ATOM     23  C   UNL     1      -6.978  51.512  55.197  0.00  0.00    +0.000 A 
ATOM     24  C   UNL     1      -8.257  51.034  54.908  0.00  0.00    +0.000 A 
ATOM     25  H   UNL     1      -7.608  55.438  50.945  0.00  0.00    +0.000 HD
ATOM     26  H   UNL     1     -10.572  53.413  52.740  0.00  0.00    +0.000 HD
ENDBRANCH   1  18
BRANCH   3  27
ATOM     27  O   UNL     1     -11.797  55.551  52.551  0.00  0.00    +0.000 OA
ATOM     28  H   UNL     1     -11.616  54.816  53.104  0.00  0.00    +0.000 HD
ENDBRANCH   3  27
BRANCH   5  29
ATOM     29  C   UNL     1     -10.456  55.504  47.003  0.00  0.00    +0.000 C 
BRANCH  29  30
ATOM     30  C   UNL     1     -10.279  54.131  46.325  0.00  0.00    +0.000 C 
BRANCH  30  31
ATOM     31  C   UNL     1     -11.267  53.883  45.219  0.00  0.00    +0.000 C 
ATOM     32  C   UNL     1     -12.070  52.615  45.094  0.00  0.00    +0.000 C 
ATOM     33  C   UNL     1     -10.917  52.865  44.164  0.00  0.00    +0.000 C 
ENDBRANCH  30  31
ENDBRANCH  29  30
ENDBRANCH   5  29
TORSDOF 5
ENDMDL
MODEL 3
REMARK VINA RESULT:      -8.2      3.854      5.427
REMARK  Name = 338168
REMARK  5 active torsions:
REMARK  status: ('A' for Active; 'I' for Inactive)
REMARK    1  A    between atoms: C_6  and  C_10
REMARK    2  A    between atoms: C_14  and  O_18
REMARK    3  A    between atoms: N_17  and  C_21
REMARK    4  A    between atoms: C_21  and  C_24
REMARK    5  A    between atoms: C_24  and  C_27
REMARK                            x       y       z     vdW  Elec       q    Type
REMARK                         _______ _______ _______ _____ _____    ______ ____
ROOT
ATOM      1  C   UNL     1     -11.553  55.691  48.972  0.00  0.00    +0.000 A 
ATOM      2  C   UNL     1     -10.522  54.947  49.744  0.00  0.00    +0.000 A 
ATOM      3  C   UNL     1     -11.696  55.470  47.653  0.00  0.00    +0.000 A 
ATOM      4  O   UNL     1     -10.316  55.306  50.905  0.00  0.00    +0.000 OA
ATOM      5  N   UNL     1      -9.872  53.871  49.140  0.00  0.00    +0.000 N 
ATOM      6  C   UNL     1     -10.887  54.452  46.977  0.00  0.00    +0.000 A 
ATOM      7  C   UNL     1     -10.001  53.646  47.722  0.00  0.00    +0.000 A 
ATOM      8  C   UNL     1     -11.033  54.251  45.592  0.00  0.00    +0.000 A 
ATOM      9  C   UNL     1      -9.279  52.651  47.035  0.00  0.00    +0.000 A 
ATOM     10  C   UNL     1     -10.328  53.246  44.952  0.00  0.00    +0.000 A 
ATOM     11  C   UNL     1      -9.453  52.442  45.662  0.00  0.00    +0.000 A 
ATOM     12  F   UNL     1     -10.500  53.043  43.640  0.00  0.00    +0.000 F 
ENDROOT
BRANCH   1  18
ATOM     13  S   UNL     1     -13.505  59.130  49.435  0.00  0.00    +0.000 S 
ATOM     14  O   UNL     1     -14.498  58.968  48.400  0.00  0.00    +0.000 OA
ATOM     15  O   UNL     1     -12.837  60.393  49.666  0.00  0.00    +0.000 OA
ATOM     16  N   UNL     1     -12.325  58.003  49.201  0.00  0.00    +0.000 N 
ATOM     17  C   UNL     1     -14.203  58.601  50.938  0.00  0.00    +0.000 A 
ATOM     18  C   UNL     1     -12.444  56.687  49.635  0.00  0.00    +0.000 C 
ATOM     19  C   UNL     1     -13.987  57.278  51.318  0.00  0.00    +0.000 A 
ATOM     20  C   UNL     1     -14.921  59.499  51.734  0.00  0.00    +0.000 A 
ATOM     21  N   UNL     1     -13.270  56.332  50.571  0.00  0.00    +0.000 N 
ATOM     22  C   UNL     1     -14.505  56.865  52.548  0.00  0.00    +0.000 A 
ATOM     23  C   UNL     1     -15.438  59.063  52.950  0.00  0.00    +0.000 A 
ATOM     24  C   UNL     1     -15.222  57.747  53.361  0.00  0.00    +0.000 A 
ATOM     25  H   UNL     1     -11.501  58.273  48.736  0.00  0.00    +0.000 HD
ATOM     26  H   UNL     1     -13.396  55.374  50.762  0.00  0.00    +0.000 HD
ENDBRANCH   1  18
BRANCH   3  27
ATOM     27  O   UNL     1     -12.604  56.129  46.838  0.00  0.00    +0.000 OA
ATOM     28  H   UNL     1     -13.519  56.100  47.037  0.00  0.00    +0.000 HD
ENDBRANCH   3  27
BRANCH   5  29
ATOM     29  C   UNL     1      -8.886  53.094  49.929  0.00  0.00    +0.000 C 
BRANCH  29  30
ATOM     30  C   UNL     1      -7.589  53.829  50.320  0.00  0.00    +0.000 C 
BRANCH  30  31
ATOM     31  C   UNL     1      -7.036  54.686  49.215  0.00  0.00    +0.000 C 
ATOM     32  C   UNL     1      -5.987  54.213  48.244  0.00  0.00    +0.000 C 
ATOM     33  C   UNL     1      -5.615  55.176  49.334  0.00  0.00    +0.000 C 
ENDBRANCH  30  31
ENDBRANCH  29  30
ENDBRANCH   5  29
TORSDOF 5
ENDMDL
MODEL 4
REMARK VINA RESULT:      -8.2      3.678      7.279
REMARK  Name = 338168
REMARK  5 active torsions:
REMARK  status: ('A' for Active; 'I' for Inactive)
REMARK    1  A    between atoms: C_6  and  C_10
REMARK    2  A    between atoms: C_14  and  O_18
REMARK    3  A    between atoms: N_17  and  C_21
REMARK    4  A    between atoms: C_21  and  C_24
REMARK    5  A    between atoms: C_24  and  C_27
REMARK                            x       y       z     vdW  Elec       q    Type
REMARK                         _______ _______ _______ _____ _____    ______ ____
ROOT
ATOM      1  C   UNL     1     -10.169  55.445  50.472  0.00  0.00    +0.000 A 
ATOM      2  C   UNL     1     -10.341  55.695  49.015  0.00  0.00    +0.000 A 
ATOM      3  C   UNL     1     -11.205  55.622  51.311  0.00  0.00    +0.000 A 
ATOM      4  O   UNL     1      -9.326  55.685  48.316  0.00  0.00    +0.000 OA
ATOM      5  N   UNL     1     -11.627  55.890  48.510  0.00  0.00    +0.000 N 
ATOM      6  C   UNL     1     -12.525  55.998  50.797  0.00  0.00    +0.000 A 
ATOM      7  C   UNL     1     -12.735  56.107  49.406  0.00  0.00    +0.000 A 
ATOM      8  C   UNL     1     -13.591  56.203  51.692  0.00  0.00    +0.000 A 
ATOM      9  C   UNL     1     -14.031  56.426  48.958  0.00  0.00    +0.000 A 
ATOM     10  C   UNL     1     -14.859  56.488  51.218  0.00  0.00    +0.000 A 
ATOM     11  C   UNL     1     -15.090  56.600  49.857  0.00  0.00    +0.000 A 
ATOM     12  F   UNL     1     -15.872  56.648  52.078  0.00  0.00    +0.000 F 
ENDROOT
BRANCH   1  18
ATOM     13  S   UNL     1      -6.566  53.751  50.459  0.00  0.00    +0.000 S 
ATOM     14  O   UNL     1      -5.863  54.720  49.652  0.00  0.00    +0.000 OA
ATOM     15  O   UNL     1      -6.363  52.328  50.299  0.00  0.00    +0.000 OA
ATOM     16  N   UNL     1      -8.185  54.022  50.301  0.00  0.00    +0.000 N 
ATOM     17  C   UNL     1      -6.305  54.154  52.132  0.00  0.00    +0.000 A 
ATOM     18  C   UNL     1      -8.860  54.997  51.028  0.00  0.00    +0.000 C 
ATOM     19  C   UNL     1      -7.256  54.958  52.756  0.00  0.00    +0.000 A 
ATOM     20  C   UNL     1      -5.193  53.648  52.811  0.00  0.00    +0.000 A 
ATOM     21  N   UNL     1      -8.396  55.489  52.136  0.00  0.00    +0.000 N 
ATOM     22  C   UNL     1      -7.074  55.241  54.113  0.00  0.00    +0.000 A 
ATOM     23  C   UNL     1      -5.026  53.952  54.158  0.00  0.00    +0.000 A 
ATOM     24  C   UNL     1      -5.971  54.742  54.812  0.00  0.00    +0.000 A 
ATOM     25  H   UNL     1      -8.695  53.470  49.665  0.00  0.00    +0.000 HD
ATOM     26  H   UNL     1      -8.856  56.255  52.551  0.00  0.00    +0.000 HD
ENDBRANCH   1  18
BRANCH   3  27
ATOM     27  O   UNL     1     -11.143  55.446  52.685  0.00  0.00    +0.000 OA
ATOM     28  H   UNL     1     -10.354  55.649  53.148  0.00  0.00    +0.000 HD
ENDBRANCH   3  27
BRANCH   5  29
ATOM     29  C   UNL     1     -11.803  56.082  47.051  0.00  0.00    +0.000 C 
BRANCH  29  30
ATOM     30  C   UNL     1     -12.092  54.816  46.222  0.00  0.00    +0.000 C 
BRANCH  30  31
ATOM     31  C   UNL     1     -10.861  54.224  45.592  0.00  0.00    +0.000 C 
ATOM     32  C   UNL     1     -10.903  53.119  44.570  0.00  0.00    +0.000 C 
ATOM     33  C   UNL     1     -10.467  52.820  45.976  0.00  0.00    +0.000 C 
ENDBRANCH  30  31
ENDBRANCH  29  30
ENDBRANCH   5  29
TORSDOF 5
ENDMDL
MODEL 5
REMARK VINA RESULT:      -8.0      3.522      7.961
REMARK  Name = 338168
REMARK  5 active torsions:
REMARK  status: ('A' for Active; 'I' for Inactive)
REMARK    1  A    between atoms: C_6  and  C_10
REMARK    2  A    between atoms: C_14  and  O_18
REMARK    3  A    between atoms: N_17  and  C_21
REMARK    4  A    between atoms: C_21  and  C_24
REMARK    5  A    between atoms: C_24  and  C_27
REMARK                            x       y       z     vdW  Elec       q    Type
REMARK                         _______ _______ _______ _____ _____    ______ ____
ROOT
ATOM      1  C   UNL     1      -9.958  54.436  50.720  0.00  0.00    +0.000 A 
ATOM      2  C   UNL     1     -11.104  55.344  51.002  0.00  0.00    +0.000 A 
ATOM      3  C   UNL     1      -9.739  53.999  49.467  0.00  0.00    +0.000 A 
ATOM      4  O   UNL     1     -11.362  55.577  52.183  0.00  0.00    +0.000 OA
ATOM      5  N   UNL     1     -11.797  55.909  49.931  0.00  0.00    +0.000 N 
ATOM      6  C   UNL     1     -10.580  54.461  48.359  0.00  0.00    +0.000 A 
ATOM      7  C   UNL     1     -11.584  55.425  48.590  0.00  0.00    +0.000 A 
ATOM      8  C   UNL     1     -10.351  53.974  47.059  0.00  0.00    +0.000 A 
ATOM      9  C   UNL     1     -12.335  55.871  47.486  0.00  0.00    +0.000 A 
ATOM     10  C   UNL     1     -11.089  54.454  45.991  0.00  0.00    +0.000 A 
ATOM     11  C   UNL     1     -12.080  55.400  46.193  0.00  0.00    +0.000 A 
ATOM     12  F   UNL     1     -10.840  54.007  44.754  0.00  0.00    +0.000 F 
ENDROOT
BRANCH   1  18
ATOM     13  S   UNL     1      -6.737  54.525  53.057  0.00  0.00    +0.000 S 
ATOM     14  O   UNL     1      -7.053  55.700  53.834  0.00  0.00    +0.000 OA
ATOM     15  O   UNL     1      -5.399  54.263  52.570  0.00  0.00    +0.000 OA
ATOM     16  N   UNL     1      -7.737  54.485  51.747  0.00  0.00    +0.000 N 
ATOM     17  C   UNL     1      -7.272  53.130  53.950  0.00  0.00    +0.000 A 
ATOM     18  C   UNL     1      -9.038  53.996  51.807  0.00  0.00    +0.000 C 
ATOM     19  C   UNL     1      -8.545  52.638  53.672  0.00  0.00    +0.000 A 
ATOM     20  C   UNL     1      -6.424  52.524  54.882  0.00  0.00    +0.000 A 
ATOM     21  N   UNL     1      -9.440  53.192  52.744  0.00  0.00    +0.000 N 
ATOM     22  C   UNL     1      -8.957  51.489  54.352  0.00  0.00    +0.000 A 
ATOM     23  C   UNL     1      -6.860  51.388  55.556  0.00  0.00    +0.000 A 
ATOM     24  C   UNL     1      -8.125  50.865  55.285  0.00  0.00    +0.000 A 
ATOM     25  H   UNL     1      -7.399  54.821  50.886  0.00  0.00    +0.000 HD
ATOM     26  H   UNL     1     -10.396  52.966  52.805  0.00  0.00    +0.000 HD
ENDBRANCH   1  18
BRANCH   3  27
ATOM     27  O   UNL     1      -8.721  53.130  49.103  0.00  0.00    +0.000 OA
ATOM     28  H   UNL     1      -8.192  52.726  49.764  0.00  0.00    +0.000 HD
ENDBRANCH   3  27
BRANCH   5  29
ATOM     29  C   UNL     1     -12.900  56.857  50.212  0.00  0.00    +0.000 C 
BRANCH  29  30
ATOM     30  C   UNL     1     -14.270  56.236  50.547  0.00  0.00    +0.000 C 
BRANCH  30  31
ATOM     31  C   UNL     1     -15.224  57.210  51.183  0.00  0.00    +0.000 C 
ATOM     32  C   UNL     1     -14.796  58.265  52.170  0.00  0.00    +0.000 C 
ATOM     33  C   UNL     1     -15.537  57.049  52.649  0.00  0.00    +0.000 C 
ENDBRANCH  30  31
ENDBRANCH  29  30
ENDBRANCH   5  29
TORSDOF 5
ENDMDL
MODEL 6
REMARK VINA RESULT:      -8.0      3.597      7.540
REMARK  Name = 338168
REMARK  5 active torsions:
REMARK  status: ('A' for Active; 'I' for Inactive)
REMARK    1  A    between atoms: C_6  and  C_10
REMARK    2  A    between atoms: C_14  and  O_18
REMARK    3  A    between atoms: N_17  and  C_21
REMARK    4  A    between atoms: C_21  and  C_24
REMARK    5  A    between atoms: C_24  and  C_27
REMARK                            x       y       z     vdW  Elec       q    Type
REMARK                         _______ _______ _______ _____ _____    ______ ____
ROOT
ATOM      1  C   UNL     1     -10.013  55.463  50.439  0.00  0.00    +0.000 A 
ATOM      2  C   UNL     1     -10.219  55.717  48.987  0.00  0.00    +0.000 A 
ATOM      3  C   UNL     1     -11.035  55.615  51.300  0.00  0.00    +0.000 A 
ATOM      4  O   UNL     1      -9.219  55.730  48.268  0.00  0.00    +0.000 OA
ATOM      5  N   UNL     1     -11.519  55.889  48.510  0.00  0.00    +0.000 N 
ATOM      6  C   UNL     1     -12.372  55.968  50.815  0.00  0.00    +0.000 A 
ATOM      7  C   UNL     1     -12.612  56.080  49.429  0.00  0.00    +0.000 A 
ATOM      8  C   UNL     1     -13.424  56.147  51.733  0.00  0.00    +0.000 A 
ATOM      9  C   UNL     1     -13.923  56.375  49.010  0.00  0.00    +0.000 A 
ATOM     10  C   UNL     1     -14.707  56.409  51.286  0.00  0.00    +0.000 A 
ATOM     11  C   UNL     1     -14.967  56.524  49.930  0.00  0.00    +0.000 A 
ATOM     12  F   UNL     1     -15.705  56.545  52.167  0.00  0.00    +0.000 F 
ENDROOT
BRANCH   1  18
ATOM     13  S   UNL     1      -7.123  54.970  53.132  0.00  0.00    +0.000 S 
ATOM     14  O   UNL     1      -7.745  53.955  53.949  0.00  0.00    +0.000 OA
ATOM     15  O   UNL     1      -6.384  56.072  53.709  0.00  0.00    +0.000 OA
ATOM     16  N   UNL     1      -8.277  55.629  52.157  0.00  0.00    +0.000 N 
ATOM     17  C   UNL     1      -6.097  54.174  51.974  0.00  0.00    +0.000 A 
ATOM     18  C   UNL     1      -8.685  55.037  50.966  0.00  0.00    +0.000 C 
ATOM     19  C   UNL     1      -6.639  53.888  50.723  0.00  0.00    +0.000 A 
ATOM     20  C   UNL     1      -4.770  53.875  52.299  0.00  0.00    +0.000 A 
ATOM     21  N   UNL     1      -7.956  54.169  50.332  0.00  0.00    +0.000 N 
ATOM     22  C   UNL     1      -5.802  53.294  49.775  0.00  0.00    +0.000 A 
ATOM     23  C   UNL     1      -3.958  53.273  51.343  0.00  0.00    +0.000 A 
ATOM     24  C   UNL     1      -4.472  52.990  50.078  0.00  0.00    +0.000 A 
ATOM     25  H   UNL     1      -8.694  56.478  52.428  0.00  0.00    +0.000 HD
ATOM     26  H   UNL     1      -8.338  53.697  49.556  0.00  0.00    +0.000 HD
ENDBRANCH   1  18
BRANCH   3  27
ATOM     27  O   UNL     1     -10.942  55.433  52.672  0.00  0.00    +0.000 OA
ATOM     28  H   UNL     1     -10.493  56.066  53.199  0.00  0.00    +0.000 HD
ENDBRANCH   3  27
BRANCH   5  29
ATOM     29  C   UNL     1     -11.728  56.085  47.056  0.00  0.00    +0.000 C 
BRANCH  29  30
ATOM     30  C   UNL     1     -12.029  54.820  46.229  0.00  0.00    +0.000 C 
BRANCH  30  31
ATOM     31  C   UNL     1     -10.805  54.221  45.593  0.00  0.00    +0.000 C 
ATOM     32  C   UNL     1     -10.858  53.113  44.575  0.00  0.00    +0.000 C 
ATOM     33  C   UNL     1     -10.415  52.817  45.979  0.00  0.00    +0.000 C 
ENDBRANCH  30  31
ENDBRANCH  29  30
ENDBRANCH   5  29
TORSDOF 5
ENDMDL
MODEL 7
REMARK VINA RESULT:      -7.9      4.890      7.775
REMARK  Name = 338168
REMARK  5 active torsions:
REMARK  status: ('A' for Active; 'I' for Inactive)
REMARK    1  A    between atoms: C_6  and  C_10
REMARK    2  A    between atoms: C_14  and  O_18
REMARK    3  A    between atoms: N_17  and  C_21
REMARK    4  A    between atoms: C_21  and  C_24
REMARK    5  A    between atoms: C_24  and  C_27
REMARK                            x       y       z     vdW  Elec       q    Type
REMARK                         _______ _______ _______ _____ _____    ______ ____
ROOT
ATOM      1  C   UNL     1     -11.382  54.261  47.956  0.00  0.00    +0.000 A 
ATOM      2  C   UNL     1     -11.479  53.439  49.193  0.00  0.00    +0.000 A 
ATOM      3  C   UNL     1     -12.043  55.429  47.872  0.00  0.00    +0.000 A 
ATOM      4  O   UNL     1     -10.997  52.306  49.157  0.00  0.00    +0.000 OA
ATOM      5  N   UNL     1     -12.068  53.994  50.328  0.00  0.00    +0.000 N 
ATOM      6  C   UNL     1     -12.811  55.936  49.013  0.00  0.00    +0.000 A 
ATOM      7  C   UNL     1     -12.801  55.233  50.236  0.00  0.00    +0.000 A 
ATOM      8  C   UNL     1     -13.516  57.148  48.898  0.00  0.00    +0.000 A 
ATOM      9  C   UNL     1     -13.516  55.782  51.317  0.00  0.00    +0.000 A 
ATOM     10  C   UNL     1     -14.186  57.674  49.988  0.00  0.00    +0.000 A 
ATOM     11  C   UNL     1     -14.191  57.003  51.199  0.00  0.00    +0.000 A 
ATOM     12  F   UNL     1     -14.826  58.845  49.875  0.00  0.00    +0.000 F 
ENDROOT
BRANCH   1  18
ATOM     13  S   UNL     1      -8.152  53.979  45.645  0.00  0.00    +0.000 S 
ATOM     14  O   UNL     1      -7.322  53.177  46.513  0.00  0.00    +0.000 OA
ATOM     15  O   UNL     1      -7.620  55.093  44.890  0.00  0.00    +0.000 OA
ATOM     16  N   UNL     1      -9.414  54.562  46.530  0.00  0.00    +0.000 N 
ATOM     17  C   UNL     1      -8.964  52.910  44.538  0.00  0.00    +0.000 A 
ATOM     18  C   UNL     1     -10.557  53.815  46.796  0.00  0.00    +0.000 C 
ATOM     19  C   UNL     1     -10.236  52.465  44.889  0.00  0.00    +0.000 A 
ATOM     20  C   UNL     1      -8.355  52.554  43.330  0.00  0.00    +0.000 A 
ATOM     21  N   UNL     1     -10.906  52.791  46.078  0.00  0.00    +0.000 N 
ATOM     22  C   UNL     1     -10.910  51.647  43.978  0.00  0.00    +0.000 A 
ATOM     23  C   UNL     1      -9.040  51.729  42.444  0.00  0.00    +0.000 A 
ATOM     24  C   UNL     1     -10.322  51.282  42.765  0.00  0.00    +0.000 A 
ATOM     25  H   UNL     1      -9.358  55.479  46.885  0.00  0.00    +0.000 HD
ATOM     26  H   UNL     1     -11.658  52.230  46.375  0.00  0.00    +0.000 HD
ENDBRANCH   1  18
BRANCH   3  27
ATOM     27  O   UNL     1     -12.043  56.255  46.757  0.00  0.00    +0.000 OA
ATOM     28  H   UNL     1     -11.302  56.801  46.578  0.00  0.00    +0.000 HD
ENDBRANCH   3  27
BRANCH   5  29
ATOM     29  C   UNL     1     -12.114  53.196  51.576  0.00  0.00    +0.000 C 
BRANCH  29  30
ATOM     30  C   UNL     1     -10.851  53.231  52.460  0.00  0.00    +0.000 C 
BRANCH  30  31
ATOM     31  C   UNL     1     -10.354  54.624  52.729  0.00  0.00    +0.000 C 
ATOM     32  C   UNL     1      -9.134  55.211  52.070  0.00  0.00    +0.000 C 
ATOM     33  C   UNL     1      -9.074  54.787  53.510  0.00  0.00    +0.000 C 
ENDBRANCH  30  31
ENDBRANCH  29  30
ENDBRANCH   5  29
TORSDOF 5
ENDMDL
MODEL 8
REMARK VINA RESULT:      -7.7      4.003      5.747
REMARK  Name = 338168
REMARK  5 active torsions:
REMARK  status: ('A' for Active; 'I' for Inactive)
REMARK    1  A    between atoms: C_6  and  C_10
REMARK    2  A    between atoms: C_14  and  O_18
REMARK    3  A    between atoms: N_17  and  C_21
REMARK    4  A    between atoms: C_21  and  C_24
REMARK    5  A    between atoms: C_24  and  C_27
REMARK                            x       y       z     vdW  Elec       q    Type
REMARK                         _______ _______ _______ _____ _____    ______ ____
ROOT
ATOM      1  C   UNL     1     -10.794  55.729  48.214  0.00  0.00    +0.000 A 
ATOM      2  C   UNL     1      -9.356  55.769  48.595  0.00  0.00    +0.000 A 
ATOM      3  C   UNL     1     -11.175  55.101  47.087  0.00  0.00    +0.000 A 
ATOM      4  O   UNL     1      -9.041  56.497  49.538  0.00  0.00    +0.000 OA
ATOM      5  N   UNL     1      -8.452  54.965  47.901  0.00  0.00    +0.000 N 
ATOM      6  C   UNL     1     -10.192  54.396  46.259  0.00  0.00    +0.000 A 
ATOM      7  C   UNL     1      -8.848  54.312  46.679  0.00  0.00    +0.000 A 
ATOM      8  C   UNL     1     -10.604  53.765  45.071  0.00  0.00    +0.000 A 
ATOM      9  C   UNL     1      -7.951  53.586  45.873  0.00  0.00    +0.000 A 
ATOM     10  C   UNL     1      -9.703  53.036  44.316  0.00  0.00    +0.000 A 
ATOM     11  C   UNL     1      -8.378  52.939  44.708  0.00  0.00    +0.000 A 
ATOM     12  F   UNL     1     -10.114  52.413  43.205  0.00  0.00    +0.000 F 
ENDROOT
BRANCH   1  18
ATOM     13  S   UNL     1     -13.409  56.056  51.199  0.00  0.00    +0.000 S 
ATOM     14  O   UNL     1     -12.482  56.154  52.302  0.00  0.00    +0.000 OA
ATOM     15  O   UNL     1     -14.618  55.265  51.280  0.00  0.00    +0.000 OA
ATOM     16  N   UNL     1     -12.583  55.527  49.874  0.00  0.00    +0.000 N 
ATOM     17  C   UNL     1     -13.846  57.670  50.719  0.00  0.00    +0.000 A 
ATOM     18  C   UNL     1     -11.835  56.376  49.064  0.00  0.00    +0.000 C 
ATOM     19  C   UNL     1     -13.111  58.258  49.692  0.00  0.00    +0.000 A 
ATOM     20  C   UNL     1     -14.922  58.319  51.333  0.00  0.00    +0.000 A 
ATOM     21  N   UNL     1     -12.028  57.660  49.030  0.00  0.00    +0.000 N 
ATOM     22  C   UNL     1     -13.492  59.535  49.272  0.00  0.00    +0.000 A 
ATOM     23  C   UNL     1     -15.277  59.595  50.906  0.00  0.00    +0.000 A 
ATOM     24  C   UNL     1     -14.566  60.200  49.869  0.00  0.00    +0.000 A 
ATOM     25  H   UNL     1     -12.621  54.571  49.645  0.00  0.00    +0.000 HD
ATOM     26  H   UNL     1     -11.400  58.227  48.528  0.00  0.00    +0.000 HD
ENDBRANCH   1  18
BRANCH   3  27
ATOM     27  O   UNL     1     -12.481  55.031  46.628  0.00  0.00    +0.000 OA
ATOM     28  H   UNL     1     -12.846  55.747  46.144  0.00  0.00    +0.000 HD
ENDBRANCH   3  27
BRANCH   5  29
ATOM     29  C   UNL     1      -7.029  54.962  48.318  0.00  0.00    +0.000 C 
BRANCH  29  30
ATOM     30  C   UNL     1      -6.530  53.698  49.044  0.00  0.00    +0.000 C 
BRANCH  30  31
ATOM     31  C   UNL     1      -7.207  53.466  50.367  0.00  0.00    +0.000 C 
ATOM     32  C   UNL     1      -7.063  54.393  51.545  0.00  0.00    +0.000 C 
ATOM     33  C   UNL     1      -6.355  53.068  51.545  0.00  0.00    +0.000 C 
ENDBRANCH  30  31
ENDBRANCH  29  30
ENDBRANCH   5  29
TORSDOF 5
ENDMDL
MODEL 9
REMARK VINA RESULT:      -7.6      3.168      4.857
REMARK  Name = 338168
REMARK  5 active torsions:
REMARK  status: ('A' for Active; 'I' for Inactive)
REMARK    1  A    between atoms: C_6  and  C_10
REMARK    2  A    between atoms: C_14  and  O_18
REMARK    3  A    between atoms: N_17  and  C_21
REMARK    4  A    between atoms: C_21  and  C_24
REMARK    5  A    between atoms: C_24  and  C_27
REMARK                            x       y       z     vdW  Elec       q    Type
REMARK                         _______ _______ _______ _____ _____    ______ ____
ROOT
ATOM      1  C   UNL     1     -10.384  55.691  49.127  0.00  0.00    +0.000 A 
ATOM      2  C   UNL     1      -9.161  55.706  49.974  0.00  0.00    +0.000 A 
ATOM      3  C   UNL     1     -10.371  55.065  47.937  0.00  0.00    +0.000 A 
ATOM      4  O   UNL     1      -9.171  56.433  50.969  0.00  0.00    +0.000 OA
ATOM      5  N   UNL     1      -8.090  54.882  49.627  0.00  0.00    +0.000 N 
ATOM      6  C   UNL     1      -9.179  54.337  47.491  0.00  0.00    +0.000 A 
ATOM      7  C   UNL     1      -8.060  54.230  48.342  0.00  0.00    +0.000 A 
ATOM      8  C   UNL     1      -9.176  53.708  46.232  0.00  0.00    +0.000 A 
ATOM      9  C   UNL     1      -6.956  53.483  47.888  0.00  0.00    +0.000 A 
ATOM     10  C   UNL     1      -8.085  52.958  45.827  0.00  0.00    +0.000 A 
ATOM     11  C   UNL     1      -6.975  52.838  46.645  0.00  0.00    +0.000 A 
ATOM     12  F   UNL     1      -8.107  52.338  44.641  0.00  0.00    +0.000 F 
ENDROOT
BRANCH   1  18
ATOM     13  S   UNL     1     -13.814  57.679  48.753  0.00  0.00    +0.000 S 
ATOM     14  O   UNL     1     -14.613  56.639  48.149  0.00  0.00    +0.000 OA
ATOM     15  O   UNL     1     -13.886  59.055  48.313  0.00  0.00    +0.000 OA
ATOM     16  N   UNL     1     -12.230  57.232  48.663  0.00  0.00    +0.000 N 
ATOM     17  C   UNL     1     -14.092  57.641  50.471  0.00  0.00    +0.000 A 
ATOM     18  C   UNL     1     -11.640  56.362  49.574  0.00  0.00    +0.000 C 
ATOM     19  C   UNL     1     -13.213  56.891  51.249  0.00  0.00    +0.000 A 
ATOM     20  C   UNL     1     -15.145  58.374  51.028  0.00  0.00    +0.000 A 
ATOM     21  N   UNL     1     -12.135  56.144  50.754  0.00  0.00    +0.000 N 
ATOM     22  C   UNL     1     -13.405  56.900  52.633  0.00  0.00    +0.000 A 
ATOM     23  C   UNL     1     -15.324  58.359  52.408  0.00  0.00    +0.000 A 
ATOM     24  C   UNL     1     -14.448  57.628  53.211  0.00  0.00    +0.000 A 
ATOM     25  H   UNL     1     -11.678  57.597  47.935  0.00  0.00    +0.000 HD
ATOM     26  H   UNL     1     -11.743  55.436  51.316  0.00  0.00    +0.000 HD
ENDBRANCH   1  18
BRANCH   3  27
ATOM     27  O   UNL     1     -11.445  55.017  47.060  0.00  0.00    +0.000 OA
ATOM     28  H   UNL     1     -11.428  54.428  46.331  0.00  0.00    +0.000 HD
ENDBRANCH   3  27
BRANCH   5  29
ATOM     29  C   UNL     1      -6.894  54.854  50.503  0.00  0.00    +0.000 C 
BRANCH  29  30
ATOM     30  C   UNL     1      -7.061  54.165  51.871  0.00  0.00    +0.000 C 
BRANCH  30  31
ATOM     31  C   UNL     1      -6.657  55.036  53.028  0.00  0.00    +0.000 C 
ATOM     32  C   UNL     1      -6.550  54.536  54.444  0.00  0.00    +0.000 C 
ATOM     33  C   UNL     1      -7.708  55.406  54.044  0.00  0.00    +0.000 C 
ENDBRANCH  30  31
ENDBRANCH  29  30
ENDBRANCH   5  29
TORSDOF 5
ENDMDL
