MODEL 1
REMARK VINA RESULT:      -8.1      0.000      0.000
REMARK  Name = 338461
REMARK  12 active torsions:
REMARK  status: ('A' for Active; 'I' for Inactive)
REMARK    1  A    between atoms: C_6  and  C_10
REMARK    2  A    between atoms: C_14  and  O_18
REMARK    3  A    between atoms: N_17  and  C_21
REMARK    4  A    between atoms: C_21  and  C_24
REMARK    5  A    between atoms: C_24  and  C_27
REMARK    6  A    between atoms: C_25  and  N_28
REMARK    7  A    between atoms: C_27  and  C_29
REMARK    8  A    between atoms: C_27  and  C_30
REMARK    9  A    between atoms: C_31  and  C_33
REMARK   10  A    between atoms: C_33  and  N_34
REMARK   11  A    between atoms: N_34  and  C_35
REMARK   12  A    between atoms: N_34  and  C_36
REMARK                            x       y       z     vdW  Elec       q    Type
REMARK                         _______ _______ _______ _____ _____    ______ ____
ROOT
ATOM      1  C   UNL     1     -11.220  55.810  49.183  0.00  0.00    +0.000 A 
ATOM      2  C   UNL     1     -10.331  55.158  50.190  0.00  0.00    +0.000 A 
ATOM      3  C   UNL     1     -11.135  55.463  47.888  0.00  0.00    +0.000 A 
ATOM      4  O   UNL     1     -10.512  55.420  51.383  0.00  0.00    +0.000 OA
ATOM      5  N   UNL     1      -9.354  54.271  49.750  0.00  0.00    +0.000 N 
ATOM      6  C   UNL     1     -10.183  54.429  47.459  0.00  0.00    +0.000 A 
ATOM      7  C   UNL     1      -9.324  53.829  48.391  0.00  0.00    +0.000 A 
ATOM      8  C   UNL     1     -10.154  54.013  46.118  0.00  0.00    +0.000 A 
ATOM      9  C   UNL     1      -8.485  52.791  47.955  0.00  0.00    +0.000 A 
ATOM     10  C   UNL     1      -9.313  52.988  45.690  0.00  0.00    +0.000 A 
ATOM     11  C   UNL     1      -8.465  52.388  46.616  0.00  0.00    +0.000 A 
ENDROOT
BRANCH   1  17
ATOM     12  S   UNL     1     -13.421  59.062  49.419  0.00  0.00    +0.000 S 
ATOM     13  O   UNL     1     -14.506  59.084  48.460  0.00  0.00    +0.000 OA
ATOM     14  O   UNL     1     -12.655  60.267  49.686  0.00  0.00    +0.000 OA
ATOM     15  N   UNL     1     -12.380  57.903  48.969  0.00  0.00    +0.000 N 
ATOM     16  C   UNL     1     -14.135  58.600  50.955  0.00  0.00    +0.000 A 
ATOM     17  C   UNL     1     -12.267  56.802  49.651  0.00  0.00    +0.000 C 
ATOM     18  C   UNL     1     -13.836  57.343  51.454  0.00  0.00    +0.000 A 
ATOM     19  C   UNL     1     -14.963  59.491  51.644  0.00  0.00    +0.000 A 
ATOM     20  N   UNL     1     -13.015  56.461  50.756  0.00  0.00    +0.000 N 
ATOM     21  C   UNL     1     -14.445  56.941  52.647  0.00  0.00    +0.000 A 
ATOM     22  C   UNL     1     -15.532  59.092  52.851  0.00  0.00    +0.000 A 
ATOM     23  C   UNL     1     -15.281  57.813  53.348  0.00  0.00    +0.000 A 
ATOM     24  H   UNL     1     -11.824  58.036  48.167  0.00  0.00    +0.000 HD
ATOM     25  H   UNL     1     -12.965  55.531  51.076  0.00  0.00    +0.000 HD
ENDBRANCH   1  17
BRANCH  10  26
ATOM     26  N   UNL     1      -9.294  52.513  44.367  0.00  0.00    +0.000 N 
ATOM     27  C   UNL     1     -10.200  51.630  43.801  0.00  0.00    +0.000 C 
ATOM     28  O   UNL     1     -11.162  51.103  44.351  0.00  0.00    +0.000 OA
ATOM     29  H   UNL     1      -8.568  52.839  43.788  0.00  0.00    +0.000 HD
BRANCH  27  30
ATOM     30  C   UNL     1      -9.878  51.321  42.341  0.00  0.00    +0.000 C 
BRANCH  30  31
ATOM     31  N   UNL     1      -8.899  50.212  42.229  0.00  0.00    +0.000 N 
ATOM     32  C   UNL     1      -7.524  50.738  42.206  0.00  0.00    +0.000 C 
ATOM     33  C   UNL     1      -9.054  49.333  43.395  0.00  0.00    +0.000 C 
ATOM     34  H   UNL     1      -9.069  49.698  41.364  0.00  0.00    +0.000 HD
ENDBRANCH  30  31
ENDBRANCH  27  30
ENDBRANCH  10  26
BRANCH   3  35
ATOM     35  O   UNL     1     -11.943  55.972  46.887  0.00  0.00    +0.000 OA
ATOM     36  H   UNL     1     -12.864  55.797  46.894  0.00  0.00    +0.000 HD
ENDBRANCH   3  35
BRANCH   5  37
ATOM     37  C   UNL     1      -8.441  53.705  50.750  0.00  0.00    +0.000 C 
BRANCH  37  38
ATOM     38  C   UNL     1      -7.185  54.539  51.052  0.00  0.00    +0.000 C 
BRANCH  38  39
ATOM     39  C   UNL     1      -5.897  54.145  50.310  0.00  0.00    +0.000 C 
ATOM     40  C   UNL     1      -5.604  55.057  49.121  0.00  0.00    +0.000 C 
ATOM     41  C   UNL     1      -4.726  54.192  51.299  0.00  0.00    +0.000 C 
ENDBRANCH  38  39
ENDBRANCH  37  38
ENDBRANCH   5  37
TORSDOF 8
ENDMDL
MODEL 2
REMARK VINA RESULT:      -7.6      3.219      8.898
REMARK  Name = 338461
REMARK  12 active torsions:
REMARK  status: ('A' for Active; 'I' for Inactive)
REMARK    1  A    between atoms: C_6  and  C_10
REMARK    2  A    between atoms: C_14  and  O_18
REMARK    3  A    between atoms: N_17  and  C_21
REMARK    4  A    between atoms: C_21  and  C_24
REMARK    5  A    between atoms: C_24  and  C_27
REMARK    6  A    between atoms: C_25  and  N_28
REMARK    7  A    between atoms: C_27  and  C_29
REMARK    8  A    between atoms: C_27  and  C_30
REMARK    9  A    between atoms: C_31  and  C_33
REMARK   10  A    between atoms: C_33  and  N_34
REMARK   11  A    between atoms: N_34  and  C_35
REMARK   12  A    between atoms: N_34  and  C_36
REMARK                            x       y       z     vdW  Elec       q    Type
REMARK                         _______ _______ _______ _____ _____    ______ ____
ROOT
ATOM      1  C   UNL     1      -8.313  53.693  48.807  0.00  0.00    +0.000 A 
ATOM      2  C   UNL     1      -8.414  53.397  47.346  0.00  0.00    +0.000 A 
ATOM      3  C   UNL     1      -9.213  54.499  49.392  0.00  0.00    +0.000 A 
ATOM      4  O   UNL     1      -7.638  52.565  46.866  0.00  0.00    +0.000 OA
ATOM      5  N   UNL     1      -9.386  54.048  46.594  0.00  0.00    +0.000 N 
ATOM      6  C   UNL     1     -10.311  55.078  48.605  0.00  0.00    +0.000 A 
ATOM      7  C   UNL     1     -10.401  54.829  47.228  0.00  0.00    +0.000 A 
ATOM      8  C   UNL     1     -11.295  55.857  49.236  0.00  0.00    +0.000 A 
ATOM      9  C   UNL     1     -11.508  55.337  46.528  0.00  0.00    +0.000 A 
ATOM     10  C   UNL     1     -12.386  56.364  48.535  0.00  0.00    +0.000 A 
ATOM     11  C   UNL     1     -12.479  56.112  47.169  0.00  0.00    +0.000 A 
ENDROOT
BRANCH   1  17
ATOM     12  S   UNL     1      -6.044  50.884  50.367  0.00  0.00    +0.000 S 
ATOM     13  O   UNL     1      -4.981  50.455  49.481  0.00  0.00    +0.000 OA
ATOM     14  O   UNL     1      -6.779  49.908  51.153  0.00  0.00    +0.000 OA
ATOM     15  N   UNL     1      -7.117  51.723  49.489  0.00  0.00    +0.000 N 
ATOM     16  C   UNL     1      -5.303  51.973  51.528  0.00  0.00    +0.000 A 
ATOM     17  C   UNL     1      -7.237  53.011  49.628  0.00  0.00    +0.000 C 
ATOM     18  C   UNL     1      -5.615  53.319  51.440  0.00  0.00    +0.000 A 
ATOM     19  C   UNL     1      -4.443  51.476  52.511  0.00  0.00    +0.000 A 
ATOM     20  N   UNL     1      -6.469  53.804  50.453  0.00  0.00    +0.000 N 
ATOM     21  C   UNL     1      -4.987  54.205  52.321  0.00  0.00    +0.000 A 
ATOM     22  C   UNL     1      -3.853  52.364  53.407  0.00  0.00    +0.000 A 
ATOM     23  C   UNL     1      -4.118  53.730  53.307  0.00  0.00    +0.000 A 
ATOM     24  H   UNL     1      -7.689  51.251  48.841  0.00  0.00    +0.000 HD
ATOM     25  H   UNL     1      -6.530  54.780  50.338  0.00  0.00    +0.000 HD
ENDBRANCH   1  17
BRANCH  10  26
ATOM     26  N   UNL     1     -13.415  57.103  49.145  0.00  0.00    +0.000 N 
ATOM     27  C   UNL     1     -14.297  56.639  50.107  0.00  0.00    +0.000 C 
ATOM     28  O   UNL     1     -14.343  55.510  50.585  0.00  0.00    +0.000 OA
ATOM     29  H   UNL     1     -13.518  58.039  48.861  0.00  0.00    +0.000 HD
BRANCH  27  30
ATOM     30  C   UNL     1     -15.293  57.708  50.548  0.00  0.00    +0.000 C 
BRANCH  30  31
ATOM     31  N   UNL     1     -14.598  58.929  51.021  0.00  0.00    +0.000 N 
ATOM     32  C   UNL     1     -15.114  60.119  50.324  0.00  0.00    +0.000 C 
ATOM     33  C   UNL     1     -14.841  59.078  52.461  0.00  0.00    +0.000 C 
ATOM     34  H   UNL     1     -13.599  58.844  50.829  0.00  0.00    +0.000 HD
ENDBRANCH  30  31
ENDBRANCH  27  30
ENDBRANCH  10  26
BRANCH   3  35
ATOM     35  O   UNL     1      -9.235  54.799  50.742  0.00  0.00    +0.000 OA
ATOM     36  H   UNL     1      -8.959  55.643  51.039  0.00  0.00    +0.000 HD
ENDBRANCH   3  35
BRANCH   5  37
ATOM     37  C   UNL     1      -9.414  53.801  45.148  0.00  0.00    +0.000 C 
BRANCH  37  38
ATOM     38  C   UNL     1     -10.557  52.900  44.648  0.00  0.00    +0.000 C 
BRANCH  38  39
ATOM     39  C   UNL     1     -10.850  51.633  45.469  0.00  0.00    +0.000 C 
ATOM     40  C   UNL     1     -12.213  51.682  46.155  0.00  0.00    +0.000 C 
ATOM     41  C   UNL     1     -10.783  50.418  44.536  0.00  0.00    +0.000 C 
ENDBRANCH  38  39
ENDBRANCH  37  38
ENDBRANCH   5  37
TORSDOF 8
ENDMDL
MODEL 3
REMARK VINA RESULT:      -7.4      2.675      8.739
REMARK  Name = 338461
REMARK  12 active torsions:
REMARK  status: ('A' for Active; 'I' for Inactive)
REMARK    1  A    between atoms: C_6  and  C_10
REMARK    2  A    between atoms: C_14  and  O_18
REMARK    3  A    between atoms: N_17  and  C_21
REMARK    4  A    between atoms: C_21  and  C_24
REMARK    5  A    between atoms: C_24  and  C_27
REMARK    6  A    between atoms: C_25  and  N_28
REMARK    7  A    between atoms: C_27  and  C_29
REMARK    8  A    between atoms: C_27  and  C_30
REMARK    9  A    between atoms: C_31  and  C_33
REMARK   10  A    between atoms: C_33  and  N_34
REMARK   11  A    between atoms: N_34  and  C_35
REMARK   12  A    between atoms: N_34  and  C_36
REMARK                            x       y       z     vdW  Elec       q    Type
REMARK                         _______ _______ _______ _____ _____    ______ ____
ROOT
ATOM      1  C   UNL     1      -8.972  53.259  48.401  0.00  0.00    +0.000 A 
ATOM      2  C   UNL     1      -7.894  53.040  49.412  0.00  0.00    +0.000 A 
ATOM      3  C   UNL     1     -10.135  53.819  48.771  0.00  0.00    +0.000 A 
ATOM      4  O   UNL     1      -6.800  52.626  49.015  0.00  0.00    +0.000 OA
ATOM      5  N   UNL     1      -8.156  53.329  50.747  0.00  0.00    +0.000 N 
ATOM      6  C   UNL     1     -10.346  54.237  50.164  0.00  0.00    +0.000 A 
ATOM      7  C   UNL     1      -9.352  54.012  51.128  0.00  0.00    +0.000 A 
ATOM      8  C   UNL     1     -11.532  54.894  50.530  0.00  0.00    +0.000 A 
ATOM      9  C   UNL     1      -9.561  54.496  52.429  0.00  0.00    +0.000 A 
ATOM     10  C   UNL     1     -11.737  55.365  51.825  0.00  0.00    +0.000 A 
ATOM     11  C   UNL     1     -10.748  55.147  52.779  0.00  0.00    +0.000 A 
ENDROOT
BRANCH   1  17
ATOM     12  S   UNL     1      -8.970  53.458  44.473  0.00  0.00    +0.000 S 
ATOM     13  O   UNL     1      -7.976  54.374  43.951  0.00  0.00    +0.000 OA
ATOM     14  O   UNL     1     -10.297  53.406  43.885  0.00  0.00    +0.000 OA
ATOM     15  N   UNL     1      -9.142  53.756  46.057  0.00  0.00    +0.000 N 
ATOM     16  C   UNL     1      -8.299  51.847  44.281  0.00  0.00    +0.000 A 
ATOM     17  C   UNL     1      -8.706  52.917  46.949  0.00  0.00    +0.000 C 
ATOM     18  C   UNL     1      -7.911  51.169  45.424  0.00  0.00    +0.000 A 
ATOM     19  C   UNL     1      -8.184  51.278  43.009  0.00  0.00    +0.000 A 
ATOM     20  N   UNL     1      -8.025  51.748  46.686  0.00  0.00    +0.000 N 
ATOM     21  C   UNL     1      -7.321  49.909  45.281  0.00  0.00    +0.000 A 
ATOM     22  C   UNL     1      -7.630  50.006  42.884  0.00  0.00    +0.000 A 
ATOM     23  C   UNL     1      -7.190  49.325  44.019  0.00  0.00    +0.000 A 
ATOM     24  H   UNL     1      -9.583  54.587  46.349  0.00  0.00    +0.000 HD
ATOM     25  H   UNL     1      -7.590  51.290  47.442  0.00  0.00    +0.000 HD
ENDBRANCH   1  17
BRANCH  10  26
ATOM     26  N   UNL     1     -12.889  56.071  52.211  0.00  0.00    +0.000 N 
ATOM     27  C   UNL     1     -14.062  56.187  51.483  0.00  0.00    +0.000 C 
ATOM     28  O   UNL     1     -14.297  55.708  50.378  0.00  0.00    +0.000 OA
ATOM     29  H   UNL     1     -12.859  56.527  53.083  0.00  0.00    +0.000 HD
BRANCH  27  30
ATOM     30  C   UNL     1     -15.111  57.034  52.198  0.00  0.00    +0.000 C 
BRANCH  30  31
ATOM     31  N   UNL     1     -14.707  58.460  52.252  0.00  0.00    +0.000 N 
ATOM     32  C   UNL     1     -14.963  59.117  50.959  0.00  0.00    +0.000 C 
ATOM     33  C   UNL     1     -15.497  59.130  53.292  0.00  0.00    +0.000 C 
ATOM     34  H   UNL     1     -13.710  58.520  52.460  0.00  0.00    +0.000 HD
ENDBRANCH  30  31
ENDBRANCH  27  30
ENDBRANCH  10  26
BRANCH   3  35
ATOM     35  O   UNL     1     -11.175  54.107  47.906  0.00  0.00    +0.000 OA
ATOM     36  H   UNL     1     -11.633  54.921  47.978  0.00  0.00    +0.000 HD
ENDBRANCH   3  35
BRANCH   5  37
ATOM     37  C   UNL     1      -7.109  53.031  51.731  0.00  0.00    +0.000 C 
BRANCH  37  38
ATOM     38  C   UNL     1      -6.100  54.163  51.993  0.00  0.00    +0.000 C 
BRANCH  38  39
ATOM     39  C   UNL     1      -5.924  54.607  53.455  0.00  0.00    +0.000 C 
ATOM     40  C   UNL     1      -6.630  55.928  53.754  0.00  0.00    +0.000 C 
ATOM     41  C   UNL     1      -6.472  53.508  54.372  0.00  0.00    +0.000 C 
ENDBRANCH  38  39
ENDBRANCH  37  38
ENDBRANCH   5  37
TORSDOF 8
ENDMDL
MODEL 4
REMARK VINA RESULT:      -7.3      2.795      8.760
REMARK  Name = 338461
REMARK  12 active torsions:
REMARK  status: ('A' for Active; 'I' for Inactive)
REMARK    1  A    between atoms: C_6  and  C_10
REMARK    2  A    between atoms: C_14  and  O_18
REMARK    3  A    between atoms: N_17  and  C_21
REMARK    4  A    between atoms: C_21  and  C_24
REMARK    5  A    between atoms: C_24  and  C_27
REMARK    6  A    between atoms: C_25  and  N_28
REMARK    7  A    between atoms: C_27  and  C_29
REMARK    8  A    between atoms: C_27  and  C_30
REMARK    9  A    between atoms: C_31  and  C_33
REMARK   10  A    between atoms: C_33  and  N_34
REMARK   11  A    between atoms: N_34  and  C_35
REMARK   12  A    between atoms: N_34  and  C_36
REMARK                            x       y       z     vdW  Elec       q    Type
REMARK                         _______ _______ _______ _____ _____    ______ ____
ROOT
ATOM      1  C   UNL     1      -9.480  52.649  48.508  0.00  0.00    +0.000 A 
ATOM      2  C   UNL     1      -8.362  52.558  49.493  0.00  0.00    +0.000 A 
ATOM      3  C   UNL     1     -10.605  53.308  48.828  0.00  0.00    +0.000 A 
ATOM      4  O   UNL     1      -7.302  52.042  49.125  0.00  0.00    +0.000 OA
ATOM      5  N   UNL     1      -8.548  53.074  50.772  0.00  0.00    +0.000 N 
ATOM      6  C   UNL     1     -10.735  53.957  50.140  0.00  0.00    +0.000 A 
ATOM      7  C   UNL     1      -9.703  53.856  51.084  0.00  0.00    +0.000 A 
ATOM      8  C   UNL     1     -11.881  54.712  50.442  0.00  0.00    +0.000 A 
ATOM      9  C   UNL     1      -9.833  54.555  52.294  0.00  0.00    +0.000 A 
ATOM     10  C   UNL     1     -12.007  55.397  51.648  0.00  0.00    +0.000 A 
ATOM     11  C   UNL     1     -10.980  55.301  52.582  0.00  0.00    +0.000 A 
ENDROOT
BRANCH   1  17
ATOM     12  S   UNL     1      -8.905  50.042  45.619  0.00  0.00    +0.000 S 
ATOM     13  O   UNL     1     -10.111  49.329  45.249  0.00  0.00    +0.000 OA
ATOM     14  O   UNL     1      -7.638  49.339  45.710  0.00  0.00    +0.000 OA
ATOM     15  N   UNL     1      -9.172  50.770  47.042  0.00  0.00    +0.000 N 
ATOM     16  C   UNL     1      -8.676  51.282  44.396  0.00  0.00    +0.000 A 
ATOM     17  C   UNL     1      -9.296  52.062  47.122  0.00  0.00    +0.000 C 
ATOM     18  C   UNL     1      -8.880  52.600  44.767  0.00  0.00    +0.000 A 
ATOM     19  C   UNL     1      -8.284  50.930  43.101  0.00  0.00    +0.000 A 
ATOM     20  N   UNL     1      -9.276  52.938  46.059  0.00  0.00    +0.000 N 
ATOM     21  C   UNL     1      -8.758  53.591  43.789  0.00  0.00    +0.000 A 
ATOM     22  C   UNL     1      -8.128  51.931  42.145  0.00  0.00    +0.000 A 
ATOM     23  C   UNL     1      -8.375  53.262  42.486  0.00  0.00    +0.000 A 
ATOM     24  H   UNL     1      -9.241  50.225  47.860  0.00  0.00    +0.000 HD
ATOM     25  H   UNL     1      -9.560  53.866  46.223  0.00  0.00    +0.000 HD
ENDBRANCH   1  17
BRANCH  10  26
ATOM     26  N   UNL     1     -13.117  56.201  51.961  0.00  0.00    +0.000 N 
ATOM     27  C   UNL     1     -14.310  56.262  51.258  0.00  0.00    +0.000 C 
ATOM     28  O   UNL     1     -14.602  55.638  50.243  0.00  0.00    +0.000 OA
ATOM     29  H   UNL     1     -13.038  56.777  52.755  0.00  0.00    +0.000 HD
BRANCH  27  30
ATOM     30  C   UNL     1     -15.299  57.248  51.873  0.00  0.00    +0.000 C 
BRANCH  30  31
ATOM     31  N   UNL     1     -14.680  58.583  52.062  0.00  0.00    +0.000 N 
ATOM     32  C   UNL     1     -14.728  59.356  50.810  0.00  0.00    +0.000 C 
ATOM     33  C   UNL     1     -15.433  59.303  53.097  0.00  0.00    +0.000 C 
ATOM     34  H   UNL     1     -13.705  58.466  52.339  0.00  0.00    +0.000 HD
ENDBRANCH  30  31
ENDBRANCH  27  30
ENDBRANCH  10  26
BRANCH   3  35
ATOM     35  O   UNL     1     -11.677  53.489  47.973  0.00  0.00    +0.000 OA
ATOM     36  H   UNL     1     -12.298  52.799  47.848  0.00  0.00    +0.000 HD
ENDBRANCH   3  35
BRANCH   5  37
ATOM     37  C   UNL     1      -7.465  52.901  51.745  0.00  0.00    +0.000 C 
BRANCH  37  38
ATOM     38  C   UNL     1      -6.396  54.007  51.755  0.00  0.00    +0.000 C 
BRANCH  38  39
ATOM     39  C   UNL     1      -5.114  53.739  50.949  0.00  0.00    +0.000 C 
ATOM     40  C   UNL     1      -4.982  54.658  49.737  0.00  0.00    +0.000 C 
ATOM     41  C   UNL     1      -3.905  53.924  51.874  0.00  0.00    +0.000 C 
ENDBRANCH  38  39
ENDBRANCH  37  38
ENDBRANCH   5  37
TORSDOF 8
ENDMDL
MODEL 5
REMARK VINA RESULT:      -7.3      3.067      9.085
REMARK  Name = 338461
REMARK  12 active torsions:
REMARK  status: ('A' for Active; 'I' for Inactive)
REMARK    1  A    between atoms: C_6  and  C_10
REMARK    2  A    between atoms: C_14  and  O_18
REMARK    3  A    between atoms: N_17  and  C_21
REMARK    4  A    between atoms: C_21  and  C_24
REMARK    5  A    between atoms: C_24  and  C_27
REMARK    6  A    between atoms: C_25  and  N_28
REMARK    7  A    between atoms: C_27  and  C_29
REMARK    8  A    between atoms: C_27  and  C_30
REMARK    9  A    between atoms: C_31  and  C_33
REMARK   10  A    between atoms: C_33  and  N_34
REMARK   11  A    between atoms: N_34  and  C_35
REMARK   12  A    between atoms: N_34  and  C_36
REMARK                            x       y       z     vdW  Elec       q    Type
REMARK                         _______ _______ _______ _____ _____    ______ ____
ROOT
ATOM      1  C   UNL     1     -10.522  53.303  48.191  0.00  0.00    +0.000 A 
ATOM      2  C   UNL     1     -11.871  53.708  48.686  0.00  0.00    +0.000 A 
ATOM      3  C   UNL     1      -9.440  53.484  48.966  0.00  0.00    +0.000 A 
ATOM      4  O   UNL     1     -12.854  53.426  47.993  0.00  0.00    +0.000 OA
ATOM      5  N   UNL     1     -11.970  54.363  49.909  0.00  0.00    +0.000 N 
ATOM      6  C   UNL     1      -9.581  54.061  50.310  0.00  0.00    +0.000 A 
ATOM      7  C   UNL     1     -10.839  54.469  50.776  0.00  0.00    +0.000 A 
ATOM      8  C   UNL     1      -8.459  54.174  51.149  0.00  0.00    +0.000 A 
ATOM      9  C   UNL     1     -10.942  54.943  52.094  0.00  0.00    +0.000 A 
ATOM     10  C   UNL     1      -8.567  54.652  52.452  0.00  0.00    +0.000 A 
ATOM     11  C   UNL     1      -9.817  55.052  52.916  0.00  0.00    +0.000 A 
ENDROOT
BRANCH   1  17
ATOM     12  S   UNL     1     -10.743  50.560  45.380  0.00  0.00    +0.000 S 
ATOM     13  O   UNL     1     -12.062  50.459  44.788  0.00  0.00    +0.000 OA
ATOM     14  O   UNL     1      -9.979  49.360  45.674  0.00  0.00    +0.000 OA
ATOM     15  N   UNL     1     -10.877  51.411  46.753  0.00  0.00    +0.000 N 
ATOM     16  C   UNL     1      -9.768  51.482  44.249  0.00  0.00    +0.000 A 
ATOM     17  C   UNL     1     -10.402  52.618  46.844  0.00  0.00    +0.000 C 
ATOM     18  C   UNL     1      -9.399  52.767  44.612  0.00  0.00    +0.000 A 
ATOM     19  C   UNL     1      -9.373  50.916  43.033  0.00  0.00    +0.000 A 
ATOM     20  N   UNL     1      -9.803  53.323  45.823  0.00  0.00    +0.000 N 
ATOM     21  C   UNL     1      -8.672  53.533  43.696  0.00  0.00    +0.000 A 
ATOM     22  C   UNL     1      -8.616  51.677  42.146  0.00  0.00    +0.000 A 
ATOM     23  C   UNL     1      -8.273  52.989  42.472  0.00  0.00    +0.000 A 
ATOM     24  H   UNL     1     -11.325  51.007  47.533  0.00  0.00    +0.000 HD
ATOM     25  H   UNL     1      -9.649  54.286  45.960  0.00  0.00    +0.000 HD
ENDBRANCH   1  17
BRANCH  10  26
ATOM     26  N   UNL     1      -7.475  54.731  53.334  0.00  0.00    +0.000 N 
ATOM     27  C   UNL     1      -6.909  53.677  54.033  0.00  0.00    +0.000 C 
ATOM     28  O   UNL     1      -7.263  52.502  54.014  0.00  0.00    +0.000 OA
ATOM     29  H   UNL     1      -7.075  55.620  53.467  0.00  0.00    +0.000 HD
BRANCH  27  30
ATOM     30  C   UNL     1      -5.738  54.119  54.907  0.00  0.00    +0.000 C 
BRANCH  30  31
ATOM     31  N   UNL     1      -4.461  54.082  54.154  0.00  0.00    +0.000 N 
ATOM     32  C   UNL     1      -4.702  53.724  52.746  0.00  0.00    +0.000 C 
ATOM     33  C   UNL     1      -3.848  55.415  54.208  0.00  0.00    +0.000 C 
ATOM     34  H   UNL     1      -3.844  53.383  54.570  0.00  0.00    +0.000 HD
ENDBRANCH  30  31
ENDBRANCH  27  30
ENDBRANCH  10  26
BRANCH   3  35
ATOM     35  O   UNL     1      -8.157  53.102  48.621  0.00  0.00    +0.000 OA
ATOM     36  H   UNL     1      -7.988  52.222  48.344  0.00  0.00    +0.000 HD
ENDBRANCH   3  35
BRANCH   5  37
ATOM     37  C   UNL     1     -13.297  54.821  50.336  0.00  0.00    +0.000 C 
BRANCH  37  38
ATOM     38  C   UNL     1     -13.733  56.194  49.797  0.00  0.00    +0.000 C 
BRANCH  38  39
ATOM     39  C   UNL     1     -14.666  57.025  50.693  0.00  0.00    +0.000 C 
ATOM     40  C   UNL     1     -16.081  56.453  50.754  0.00  0.00    +0.000 C 
ATOM     41  C   UNL     1     -14.070  57.081  52.105  0.00  0.00    +0.000 C 
ENDBRANCH  38  39
ENDBRANCH  37  38
ENDBRANCH   5  37
TORSDOF 8
ENDMDL
MODEL 6
REMARK VINA RESULT:      -7.1      3.061      8.948
REMARK  Name = 338461
REMARK  12 active torsions:
REMARK  status: ('A' for Active; 'I' for Inactive)
REMARK    1  A    between atoms: C_6  and  C_10
REMARK    2  A    between atoms: C_14  and  O_18
REMARK    3  A    between atoms: N_17  and  C_21
REMARK    4  A    between atoms: C_21  and  C_24
REMARK    5  A    between atoms: C_24  and  C_27
REMARK    6  A    between atoms: C_25  and  N_28
REMARK    7  A    between atoms: C_27  and  C_29
REMARK    8  A    between atoms: C_27  and  C_30
REMARK    9  A    between atoms: C_31  and  C_33
REMARK   10  A    between atoms: C_33  and  N_34
REMARK   11  A    between atoms: N_34  and  C_35
REMARK   12  A    between atoms: N_34  and  C_36
REMARK                            x       y       z     vdW  Elec       q    Type
REMARK                         _______ _______ _______ _____ _____    ______ ____
ROOT
ATOM      1  C   UNL     1      -8.514  54.172  49.418  0.00  0.00    +0.000 A 
ATOM      2  C   UNL     1      -8.511  53.911  47.948  0.00  0.00    +0.000 A 
ATOM      3  C   UNL     1      -9.494  54.909  49.966  0.00  0.00    +0.000 A 
ATOM      4  O   UNL     1      -7.659  53.139  47.496  0.00  0.00    +0.000 OA
ATOM      5  N   UNL     1      -9.473  54.525  47.153  0.00  0.00    +0.000 N 
ATOM      6  C   UNL     1     -10.575  55.444  49.128  0.00  0.00    +0.000 A 
ATOM      7  C   UNL     1     -10.569  55.228  47.742  0.00  0.00    +0.000 A 
ATOM      8  C   UNL     1     -11.640  56.147  49.717  0.00  0.00    +0.000 A 
ATOM      9  C   UNL     1     -11.660  55.689  46.989  0.00  0.00    +0.000 A 
ATOM     10  C   UNL     1     -12.716  56.608  48.962  0.00  0.00    +0.000 A 
ATOM     11  C   UNL     1     -12.713  56.389  47.588  0.00  0.00    +0.000 A 
ENDROOT
BRANCH   1  17
ATOM     12  S   UNL     1      -5.508  53.760  51.922  0.00  0.00    +0.000 S 
ATOM     13  O   UNL     1      -5.905  53.877  53.310  0.00  0.00    +0.000 OA
ATOM     14  O   UNL     1      -4.275  54.373  51.460  0.00  0.00    +0.000 OA
ATOM     15  N   UNL     1      -6.718  54.331  51.007  0.00  0.00    +0.000 N 
ATOM     16  C   UNL     1      -5.335  52.042  51.604  0.00  0.00    +0.000 A 
ATOM     17  C   UNL     1      -7.449  53.532  50.287  0.00  0.00    +0.000 C 
ATOM     18  C   UNL     1      -6.276  51.439  50.787  0.00  0.00    +0.000 A 
ATOM     19  C   UNL     1      -4.267  51.328  52.155  0.00  0.00    +0.000 A 
ATOM     20  N   UNL     1      -7.339  52.159  50.249  0.00  0.00    +0.000 N 
ATOM     21  C   UNL     1      -6.184  50.060  50.574  0.00  0.00    +0.000 A 
ATOM     22  C   UNL     1      -4.165  49.961  51.903  0.00  0.00    +0.000 A 
ATOM     23  C   UNL     1      -5.129  49.325  51.121  0.00  0.00    +0.000 A 
ATOM     24  H   UNL     1      -6.903  55.299  50.995  0.00  0.00    +0.000 HD
ATOM     25  H   UNL     1      -8.061  51.653  49.810  0.00  0.00    +0.000 HD
ENDBRANCH   1  17
BRANCH  10  26
ATOM     26  N   UNL     1     -13.821  57.269  49.526  0.00  0.00    +0.000 N 
ATOM     27  C   UNL     1     -13.903  58.620  49.825  0.00  0.00    +0.000 C 
ATOM     28  O   UNL     1     -13.031  59.467  49.662  0.00  0.00    +0.000 OA
ATOM     29  H   UNL     1     -14.612  56.720  49.727  0.00  0.00    +0.000 HD
BRANCH  27  30
ATOM     30  C   UNL     1     -15.249  59.001  50.435  0.00  0.00    +0.000 C 
BRANCH  30  31
ATOM     31  N   UNL     1     -15.335  58.581  51.855  0.00  0.00    +0.000 N 
ATOM     32  C   UNL     1     -15.491  57.119  51.951  0.00  0.00    +0.000 C 
ATOM     33  C   UNL     1     -14.094  58.973  52.534  0.00  0.00    +0.000 C 
ATOM     34  H   UNL     1     -16.143  59.027  52.291  0.00  0.00    +0.000 HD
ENDBRANCH  30  31
ENDBRANCH  27  30
ENDBRANCH  10  26
BRANCH   3  35
ATOM     35  O   UNL     1      -9.613  55.170  51.319  0.00  0.00    +0.000 OA
ATOM     36  H   UNL     1      -9.111  55.857  51.710  0.00  0.00    +0.000 HD
ENDBRANCH   3  35
BRANCH   5  37
ATOM     37  C   UNL     1      -9.400  54.315  45.703  0.00  0.00    +0.000 C 
BRANCH  37  38
ATOM     38  C   UNL     1     -10.145  53.079  45.170  0.00  0.00    +0.000 C 
BRANCH  38  39
ATOM     39  C   UNL     1      -9.347  52.129  44.262  0.00  0.00    +0.000 C 
ATOM     40  C   UNL     1     -10.217  51.029  43.657  0.00  0.00    +0.000 C 
ATOM     41  C   UNL     1      -8.698  52.950  43.142  0.00  0.00    +0.000 C 
ENDBRANCH  38  39
ENDBRANCH  37  38
ENDBRANCH   5  37
TORSDOF 8
ENDMDL
MODEL 7
REMARK VINA RESULT:      -6.7      3.329      8.998
REMARK  Name = 338461
REMARK  12 active torsions:
REMARK  status: ('A' for Active; 'I' for Inactive)
REMARK    1  A    between atoms: C_6  and  C_10
REMARK    2  A    between atoms: C_14  and  O_18
REMARK    3  A    between atoms: N_17  and  C_21
REMARK    4  A    between atoms: C_21  and  C_24
REMARK    5  A    between atoms: C_24  and  C_27
REMARK    6  A    between atoms: C_25  and  N_28
REMARK    7  A    between atoms: C_27  and  C_29
REMARK    8  A    between atoms: C_27  and  C_30
REMARK    9  A    between atoms: C_31  and  C_33
REMARK   10  A    between atoms: C_33  and  N_34
REMARK   11  A    between atoms: N_34  and  C_35
REMARK   12  A    between atoms: N_34  and  C_36
REMARK                            x       y       z     vdW  Elec       q    Type
REMARK                         _______ _______ _______ _____ _____    ______ ____
ROOT
ATOM      1  C   UNL     1      -8.367  54.017  49.778  0.00  0.00    +0.000 A 
ATOM      2  C   UNL     1      -8.561  53.517  48.384  0.00  0.00    +0.000 A 
ATOM      3  C   UNL     1      -9.290  54.813  50.340  0.00  0.00    +0.000 A 
ATOM      4  O   UNL     1      -7.748  52.699  47.940  0.00  0.00    +0.000 OA
ATOM      5  N   UNL     1      -9.654  53.971  47.653  0.00  0.00    +0.000 N 
ATOM      6  C   UNL     1     -10.503  55.180  49.596  0.00  0.00    +0.000 A 
ATOM      7  C   UNL     1     -10.684  54.739  48.277  0.00  0.00    +0.000 A 
ATOM      8  C   UNL     1     -11.504  55.948  50.215  0.00  0.00    +0.000 A 
ATOM      9  C   UNL     1     -11.891  55.046  47.629  0.00  0.00    +0.000 A 
ATOM     10  C   UNL     1     -12.696  56.256  49.564  0.00  0.00    +0.000 A 
ATOM     11  C   UNL     1     -12.878  55.813  48.257  0.00  0.00    +0.000 A 
ENDROOT
BRANCH   1  17
ATOM     12  S   UNL     1      -4.662  53.071  50.704  0.00  0.00    +0.000 S 
ATOM     13  O   UNL     1      -3.849  54.222  51.038  0.00  0.00    +0.000 OA
ATOM     14  O   UNL     1      -4.114  51.997  49.894  0.00  0.00    +0.000 OA
ATOM     15  N   UNL     1      -6.007  53.605  49.974  0.00  0.00    +0.000 N 
ATOM     16  C   UNL     1      -5.116  52.333  52.231  0.00  0.00    +0.000 A 
ATOM     17  C   UNL     1      -7.161  53.551  50.571  0.00  0.00    +0.000 C 
ATOM     18  C   UNL     1      -6.439  52.431  52.628  0.00  0.00    +0.000 A 
ATOM     19  C   UNL     1      -4.162  51.659  52.999  0.00  0.00    +0.000 A 
ATOM     20  N   UNL     1      -7.380  53.110  51.857  0.00  0.00    +0.000 N 
ATOM     21  C   UNL     1      -6.801  51.899  53.869  0.00  0.00    +0.000 A 
ATOM     22  C   UNL     1      -4.544  51.100  54.216  0.00  0.00    +0.000 A 
ATOM     23  C   UNL     1      -5.862  51.228  54.656  0.00  0.00    +0.000 A 
ATOM     24  H   UNL     1      -5.950  53.976  49.063  0.00  0.00    +0.000 HD
ATOM     25  H   UNL     1      -8.262  53.285  52.259  0.00  0.00    +0.000 HD
ENDBRANCH   1  17
BRANCH  10  26
ATOM     26  N   UNL     1     -13.737  56.978  50.172  0.00  0.00    +0.000 N 
ATOM     27  C   UNL     1     -13.927  58.349  50.114  0.00  0.00    +0.000 C 
ATOM     28  O   UNL     1     -13.220  59.170  49.537  0.00  0.00    +0.000 OA
ATOM     29  H   UNL     1     -14.396  56.459  50.688  0.00  0.00    +0.000 HD
BRANCH  27  30
ATOM     30  C   UNL     1     -15.158  58.801  50.895  0.00  0.00    +0.000 C 
BRANCH  30  31
ATOM     31  N   UNL     1     -14.999  58.544  52.347  0.00  0.00    +0.000 N 
ATOM     32  C   UNL     1     -15.661  59.598  53.133  0.00  0.00    +0.000 C 
ATOM     33  C   UNL     1     -15.621  57.252  52.663  0.00  0.00    +0.000 C 
ATOM     34  H   UNL     1     -14.006  58.534  52.581  0.00  0.00    +0.000 HD
ENDBRANCH  30  31
ENDBRANCH  27  30
ENDBRANCH  10  26
BRANCH   3  35
ATOM     35  O   UNL     1      -9.228  55.291  51.636  0.00  0.00    +0.000 OA
ATOM     36  H   UNL     1      -9.215  56.214  51.795  0.00  0.00    +0.000 HD
ENDBRANCH   3  35
BRANCH   5  37
ATOM     37  C   UNL     1      -9.778  53.527  46.260  0.00  0.00    +0.000 C 
BRANCH  37  38
ATOM     38  C   UNL     1     -10.085  52.032  46.062  0.00  0.00    +0.000 C 
BRANCH  38  39
ATOM     39  C   UNL     1     -11.523  51.669  45.658  0.00  0.00    +0.000 C 
ATOM     40  C   UNL     1     -12.437  51.466  46.865  0.00  0.00    +0.000 C 
ATOM     41  C   UNL     1     -12.081  52.786  44.769  0.00  0.00    +0.000 C 
ENDBRANCH  38  39
ENDBRANCH  37  38
ENDBRANCH   5  37
TORSDOF 8
ENDMDL
MODEL 8
REMARK VINA RESULT:      -6.7      2.948      8.770
REMARK  Name = 338461
REMARK  12 active torsions:
REMARK  status: ('A' for Active; 'I' for Inactive)
REMARK    1  A    between atoms: C_6  and  C_10
REMARK    2  A    between atoms: C_14  and  O_18
REMARK    3  A    between atoms: N_17  and  C_21
REMARK    4  A    between atoms: C_21  and  C_24
REMARK    5  A    between atoms: C_24  and  C_27
REMARK    6  A    between atoms: C_25  and  N_28
REMARK    7  A    between atoms: C_27  and  C_29
REMARK    8  A    between atoms: C_27  and  C_30
REMARK    9  A    between atoms: C_31  and  C_33
REMARK   10  A    between atoms: C_33  and  N_34
REMARK   11  A    between atoms: N_34  and  C_35
REMARK   12  A    between atoms: N_34  and  C_36
REMARK                            x       y       z     vdW  Elec       q    Type
REMARK                         _______ _______ _______ _____ _____    ______ ____
ROOT
ATOM      1  C   UNL     1      -9.102  53.622  49.947  0.00  0.00    +0.000 A 
ATOM      2  C   UNL     1      -9.322  53.096  48.567  0.00  0.00    +0.000 A 
ATOM      3  C   UNL     1      -9.917  54.567  50.443  0.00  0.00    +0.000 A 
ATOM      4  O   UNL     1      -8.624  52.150  48.187  0.00  0.00    +0.000 OA
ATOM      5  N   UNL     1     -10.311  53.673  47.777  0.00  0.00    +0.000 N 
ATOM      6  C   UNL     1     -11.037  55.075  49.638  0.00  0.00    +0.000 A 
ATOM      7  C   UNL     1     -11.237  54.609  48.331  0.00  0.00    +0.000 A 
ATOM      8  C   UNL     1     -11.934  56.006  50.189  0.00  0.00    +0.000 A 
ATOM      9  C   UNL     1     -12.364  55.061  47.626  0.00  0.00    +0.000 A 
ATOM     10  C   UNL     1     -13.045  56.457  49.481  0.00  0.00    +0.000 A 
ATOM     11  C   UNL     1     -13.247  55.989  48.186  0.00  0.00    +0.000 A 
ENDROOT
BRANCH   1  17
ATOM     12  S   UNL     1      -7.142  51.115  52.259  0.00  0.00    +0.000 S 
ATOM     13  O   UNL     1      -6.512  50.037  51.524  0.00  0.00    +0.000 OA
ATOM     14  O   UNL     1      -7.803  50.848  53.525  0.00  0.00    +0.000 OA
ATOM     15  N   UNL     1      -8.217  51.827  51.279  0.00  0.00    +0.000 N 
ATOM     16  C   UNL     1      -5.869  52.270  52.620  0.00  0.00    +0.000 A 
ATOM     17  C   UNL     1      -8.006  53.019  50.804  0.00  0.00    +0.000 C 
ATOM     18  C   UNL     1      -5.891  53.484  51.954  0.00  0.00    +0.000 A 
ATOM     19  C   UNL     1      -4.885  51.962  53.564  0.00  0.00    +0.000 A 
ATOM     20  N   UNL     1      -6.874  53.777  51.012  0.00  0.00    +0.000 N 
ATOM     21  C   UNL     1      -4.852  54.389  52.189  0.00  0.00    +0.000 A 
ATOM     22  C   UNL     1      -3.876  52.889  53.817  0.00  0.00    +0.000 A 
ATOM     23  C   UNL     1      -3.854  54.098  53.122  0.00  0.00    +0.000 A 
ATOM     24  H   UNL     1      -9.045  51.350  51.038  0.00  0.00    +0.000 HD
ATOM     25  H   UNL     1      -6.752  54.581  50.457  0.00  0.00    +0.000 HD
ENDBRANCH   1  17
BRANCH  10  26
ATOM     26  N   UNL     1     -13.989  57.348  50.020  0.00  0.00    +0.000 N 
ATOM     27  C   UNL     1     -13.903  58.731  50.021  0.00  0.00    +0.000 C 
ATOM     28  O   UNL     1     -12.992  59.415  49.565  0.00  0.00    +0.000 OA
ATOM     29  H   UNL     1     -14.787  56.951  50.437  0.00  0.00    +0.000 HD
BRANCH  27  30
ATOM     30  C   UNL     1     -15.102  59.389  50.697  0.00  0.00    +0.000 C 
BRANCH  30  31
ATOM     31  N   UNL     1     -15.218  58.969  52.115  0.00  0.00    +0.000 N 
ATOM     32  C   UNL     1     -15.576  57.543  52.202  0.00  0.00    +0.000 C 
ATOM     33  C   UNL     1     -13.921  59.176  52.771  0.00  0.00    +0.000 C 
ATOM     34  H   UNL     1     -15.946  59.519  52.571  0.00  0.00    +0.000 HD
ENDBRANCH  30  31
ENDBRANCH  27  30
ENDBRANCH  10  26
BRANCH   3  35
ATOM     35  O   UNL     1      -9.827  55.086  51.722  0.00  0.00    +0.000 OA
ATOM     36  H   UNL     1      -9.684  56.003  51.846  0.00  0.00    +0.000 HD
ENDBRANCH   3  35
BRANCH   5  37
ATOM     37  C   UNL     1     -10.453  53.193  46.398  0.00  0.00    +0.000 C 
BRANCH  37  38
ATOM     38  C   UNL     1      -9.909  54.130  45.306  0.00  0.00    +0.000 C 
BRANCH  38  39
ATOM     39  C   UNL     1      -8.476  53.865  44.818  0.00  0.00    +0.000 C 
ATOM     40  C   UNL     1      -7.422  54.510  45.716  0.00  0.00    +0.000 C 
ATOM     41  C   UNL     1      -8.249  52.349  44.761  0.00  0.00    +0.000 C 
ENDBRANCH  38  39
ENDBRANCH  37  38
ENDBRANCH   5  37
TORSDOF 8
ENDMDL
MODEL 9
REMARK VINA RESULT:      -6.6      3.113      9.237
REMARK  Name = 338461
REMARK  12 active torsions:
REMARK  status: ('A' for Active; 'I' for Inactive)
REMARK    1  A    between atoms: C_6  and  C_10
REMARK    2  A    between atoms: C_14  and  O_18
REMARK    3  A    between atoms: N_17  and  C_21
REMARK    4  A    between atoms: C_21  and  C_24
REMARK    5  A    between atoms: C_24  and  C_27
REMARK    6  A    between atoms: C_25  and  N_28
REMARK    7  A    between atoms: C_27  and  C_29
REMARK    8  A    between atoms: C_27  and  C_30
REMARK    9  A    between atoms: C_31  and  C_33
REMARK   10  A    between atoms: C_33  and  N_34
REMARK   11  A    between atoms: N_34  and  C_35
REMARK   12  A    between atoms: N_34  and  C_36
REMARK                            x       y       z     vdW  Elec       q    Type
REMARK                         _______ _______ _______ _____ _____    ______ ____
ROOT
ATOM      1  C   UNL     1      -9.498  53.606  47.632  0.00  0.00    +0.000 A 
ATOM      2  C   UNL     1     -10.953  53.819  47.894  0.00  0.00    +0.000 A 
ATOM      3  C   UNL     1      -8.602  53.819  48.609  0.00  0.00    +0.000 A 
ATOM      4  O   UNL     1     -11.756  53.508  47.008  0.00  0.00    +0.000 OA
ATOM      5  N   UNL     1     -11.346  54.337  49.124  0.00  0.00    +0.000 N 
ATOM      6  C   UNL     1      -9.048  54.243  49.943  0.00  0.00    +0.000 A 
ATOM      7  C   UNL     1     -10.408  54.472  50.194  0.00  0.00    +0.000 A 
ATOM      8  C   UNL     1      -8.115  54.387  50.984  0.00  0.00    +0.000 A 
ATOM      9  C   UNL     1     -10.800  54.800  51.502  0.00  0.00    +0.000 A 
ATOM     10  C   UNL     1      -8.510  54.721  52.277  0.00  0.00    +0.000 A 
ATOM     11  C   UNL     1      -9.861  54.943  52.528  0.00  0.00    +0.000 A 
ENDROOT
BRANCH   1  17
ATOM     12  S   UNL     1      -9.186  53.141  43.738  0.00  0.00    +0.000 S 
ATOM     13  O   UNL     1      -8.299  54.105  43.120  0.00  0.00    +0.000 OA
ATOM     14  O   UNL     1     -10.435  52.775  43.092  0.00  0.00    +0.000 OA
ATOM     15  N   UNL     1      -9.537  53.669  45.230  0.00  0.00    +0.000 N 
ATOM     16  C   UNL     1      -8.268  51.651  43.879  0.00  0.00    +0.000 A 
ATOM     17  C   UNL     1      -9.059  53.073  46.282  0.00  0.00    +0.000 C 
ATOM     18  C   UNL     1      -7.883  51.247  45.146  0.00  0.00    +0.000 A 
ATOM     19  C   UNL     1      -7.959  50.903  42.739  0.00  0.00    +0.000 A 
ATOM     20  N   UNL     1      -8.191  52.003  46.274  0.00  0.00    +0.000 N 
ATOM     21  C   UNL     1      -7.101  50.094  45.266  0.00  0.00    +0.000 A 
ATOM     22  C   UNL     1      -7.212  49.735  42.877  0.00  0.00    +0.000 A 
ATOM     23  C   UNL     1      -6.775  49.335  44.140  0.00  0.00    +0.000 A 
ATOM     24  H   UNL     1     -10.122  54.454  45.342  0.00  0.00    +0.000 HD
ATOM     25  H   UNL     1      -7.759  51.756  47.124  0.00  0.00    +0.000 HD
ENDBRANCH   1  17
BRANCH  10  26
ATOM     26  N   UNL     1      -7.610  54.824  53.352  0.00  0.00    +0.000 N 
ATOM     27  C   UNL     1      -7.192  53.788  54.173  0.00  0.00    +0.000 C 
ATOM     28  O   UNL     1      -7.538  52.612  54.114  0.00  0.00    +0.000 OA
ATOM     29  H   UNL     1      -7.242  55.717  53.539  0.00  0.00    +0.000 HD
BRANCH  27  30
ATOM     30  C   UNL     1      -6.213  54.254  55.247  0.00  0.00    +0.000 C 
BRANCH  30  31
ATOM     31  N   UNL     1      -4.870  54.514  54.674  0.00  0.00    +0.000 N 
ATOM     32  C   UNL     1      -4.507  53.460  53.711  0.00  0.00    +0.000 C 
ATOM     33  C   UNL     1      -4.901  55.805  53.976  0.00  0.00    +0.000 C 
ATOM     34  H   UNL     1      -4.179  54.525  55.425  0.00  0.00    +0.000 HD
ENDBRANCH  30  31
ENDBRANCH  27  30
ENDBRANCH  10  26
BRANCH   3  35
ATOM     35  O   UNL     1      -7.241  53.606  48.482  0.00  0.00    +0.000 OA
ATOM     36  H   UNL     1      -6.655  53.921  49.142  0.00  0.00    +0.000 HD
ENDBRANCH   3  35
BRANCH   5  37
ATOM     37  C   UNL     1     -12.772  54.611  49.328  0.00  0.00    +0.000 C 
BRANCH  37  38
ATOM     38  C   UNL     1     -13.262  55.987  48.841  0.00  0.00    +0.000 C 
BRANCH  38  39
ATOM     39  C   UNL     1     -13.324  57.110  49.889  0.00  0.00    +0.000 C 
ATOM     40  C   UNL     1     -12.991  58.479  49.300  0.00  0.00    +0.000 C 
ATOM     41  C   UNL     1     -14.732  57.137  50.496  0.00  0.00    +0.000 C 
ENDBRANCH  38  39
ENDBRANCH  37  38
ENDBRANCH   5  37
TORSDOF 8
ENDMDL
