MODEL 1
REMARK VINA RESULT:      -8.4      0.000      0.000
REMARK  Name = 338181
REMARK  3 active torsions:
REMARK  status: ('A' for Active; 'I' for Inactive)
REMARK    1  A    between atoms: C_6  and  C_10
REMARK    2  A    between atoms: C_14  and  O_18
REMARK    3  A    between atoms: N_17  and  C_21
REMARK                            x       y       z     vdW  Elec       q    Type
REMARK                         _______ _______ _______ _____ _____    ______ ____
ROOT
ATOM      1  S   UNL     1     -12.197  55.695  49.436  0.00  0.00    +0.000 S 
ATOM      2  O   UNL     1     -12.967  54.578  48.925  0.00  0.00    +0.000 OA
ATOM      3  O   UNL     1     -11.614  56.663  48.524  0.00  0.00    +0.000 OA
ATOM      4  N   UNL     1     -10.995  55.112  50.351  0.00  0.00    +0.000 N 
ATOM      5  C   UNL     1     -13.281  56.598  50.477  0.00  0.00    +0.000 A 
ATOM      6  C   UNL     1     -11.076  55.125  51.649  0.00  0.00    +0.000 C 
ATOM      7  C   UNL     1     -13.118  56.469  51.848  0.00  0.00    +0.000 A 
ATOM      8  C   UNL     1     -14.271  57.409  49.916  0.00  0.00    +0.000 A 
ATOM      9  N   UNL     1     -12.083  55.711  52.382  0.00  0.00    +0.000 N 
ATOM     10  C   UNL     1     -13.960  57.211  52.682  0.00  0.00    +0.000 A 
ATOM     11  C   UNL     1     -15.113  58.130  50.759  0.00  0.00    +0.000 A 
ATOM     12  C   UNL     1     -14.953  58.035  52.142  0.00  0.00    +0.000 A 
ATOM     13  H   UNL     1     -10.191  54.743  49.919  0.00  0.00    +0.000 HD
ATOM     14  H   UNL     1     -12.068  55.585  53.357  0.00  0.00    +0.000 HD
ENDROOT
BRANCH   6  15
ATOM     15  C   UNL     1      -9.953  54.434  52.393  0.00  0.00    +0.000 A 
ATOM     16  C   UNL     1      -8.565  54.974  52.280  0.00  0.00    +0.000 A 
ATOM     17  C   UNL     1     -10.187  53.319  53.106  0.00  0.00    +0.000 A 
ATOM     18  O   UNL     1      -8.362  55.928  51.523  0.00  0.00    +0.000 OA
ATOM     19  N   UNL     1      -7.561  54.371  53.022  0.00  0.00    +0.000 N 
ATOM     20  C   UNL     1      -9.093  52.644  53.819  0.00  0.00    +0.000 A 
ATOM     21  C   UNL     1      -7.800  53.192  53.789  0.00  0.00    +0.000 A 
ATOM     22  C   UNL     1      -6.225  54.946  52.970  0.00  0.00    +0.000 C 
ATOM     23  C   UNL     1      -9.329  51.467  54.551  0.00  0.00    +0.000 A 
ATOM     24  C   UNL     1      -6.773  52.554  54.503  0.00  0.00    +0.000 A 
ATOM     25  C   UNL     1      -8.299  50.842  55.252  0.00  0.00    +0.000 A 
ATOM     26  C   UNL     1      -7.023  51.388  55.229  0.00  0.00    +0.000 A 
BRANCH  17  27
ATOM     27  O   UNL     1     -11.428  52.717  53.235  0.00  0.00    +0.000 OA
ATOM     28  H   UNL     1     -11.503  51.890  53.671  0.00  0.00    +0.000 HD
ENDBRANCH  17  27
ENDBRANCH   6  15
TORSDOF 2
ENDMDL
MODEL 2
REMARK VINA RESULT:      -8.0      1.652      2.385
REMARK  Name = 338181
REMARK  3 active torsions:
REMARK  status: ('A' for Active; 'I' for Inactive)
REMARK    1  A    between atoms: C_6  and  C_10
REMARK    2  A    between atoms: C_14  and  O_18
REMARK    3  A    between atoms: N_17  and  C_21
REMARK                            x       y       z     vdW  Elec       q    Type
REMARK                         _______ _______ _______ _____ _____    ______ ____
ROOT
ATOM      1  S   UNL     1     -13.503  56.600  51.592  0.00  0.00    +0.000 S 
ATOM      2  O   UNL     1     -13.334  57.969  52.039  0.00  0.00    +0.000 OA
ATOM      3  O   UNL     1     -14.749  55.896  51.838  0.00  0.00    +0.000 OA
ATOM      4  N   UNL     1     -12.312  55.703  52.223  0.00  0.00    +0.000 N 
ATOM      5  C   UNL     1     -13.295  56.627  49.851  0.00  0.00    +0.000 A 
ATOM      6  C   UNL     1     -11.282  55.360  51.509  0.00  0.00    +0.000 C 
ATOM      7  C   UNL     1     -12.100  56.150  49.335  0.00  0.00    +0.000 A 
ATOM      8  C   UNL     1     -14.314  57.124  49.035  0.00  0.00    +0.000 A 
ATOM      9  N   UNL     1     -11.129  55.596  50.161  0.00  0.00    +0.000 N 
ATOM     10  C   UNL     1     -11.942  56.140  47.946  0.00  0.00    +0.000 A 
ATOM     11  C   UNL     1     -14.136  57.124  47.654  0.00  0.00    +0.000 A 
ATOM     12  C   UNL     1     -12.952  56.627  47.110  0.00  0.00    +0.000 A 
ATOM     13  H   UNL     1     -12.369  55.414  53.164  0.00  0.00    +0.000 HD
ATOM     14  H   UNL     1     -10.268  55.353  49.751  0.00  0.00    +0.000 HD
ENDROOT
BRANCH   6  15
ATOM     15  C   UNL     1     -10.173  54.637  52.242  0.00  0.00    +0.000 A 
ATOM     16  C   UNL     1      -8.777  55.159  52.151  0.00  0.00    +0.000 A 
ATOM     17  C   UNL     1     -10.427  53.507  52.926  0.00  0.00    +0.000 A 
ATOM     18  O   UNL     1      -8.557  56.129  51.419  0.00  0.00    +0.000 OA
ATOM     19  N   UNL     1      -7.786  54.526  52.884  0.00  0.00    +0.000 N 
ATOM     20  C   UNL     1      -9.346  52.800  53.629  0.00  0.00    +0.000 A 
ATOM     21  C   UNL     1      -8.046  53.332  53.620  0.00  0.00    +0.000 A 
ATOM     22  C   UNL     1      -6.442  55.083  52.854  0.00  0.00    +0.000 C 
ATOM     23  C   UNL     1      -9.602  51.610  54.331  0.00  0.00    +0.000 A 
ATOM     24  C   UNL     1      -7.032  52.663  54.325  0.00  0.00    +0.000 A 
ATOM     25  C   UNL     1      -8.586  50.954  55.023  0.00  0.00    +0.000 A 
ATOM     26  C   UNL     1      -7.302  51.483  55.021  0.00  0.00    +0.000 A 
BRANCH  17  27
ATOM     27  O   UNL     1     -11.676  52.919  53.034  0.00  0.00    +0.000 OA
ATOM     28  H   UNL     1     -12.300  53.254  53.647  0.00  0.00    +0.000 HD
ENDBRANCH  17  27
ENDBRANCH   6  15
TORSDOF 2
ENDMDL
MODEL 3
REMARK VINA RESULT:      -8.0      0.714      2.464
REMARK  Name = 338181
REMARK  3 active torsions:
REMARK  status: ('A' for Active; 'I' for Inactive)
REMARK    1  A    between atoms: C_6  and  C_10
REMARK    2  A    between atoms: C_14  and  O_18
REMARK    3  A    between atoms: N_17  and  C_21
REMARK                            x       y       z     vdW  Elec       q    Type
REMARK                         _______ _______ _______ _____ _____    ______ ____
ROOT
ATOM      1  S   UNL     1     -12.181  55.568  49.438  0.00  0.00    +0.000 S 
ATOM      2  O   UNL     1     -12.939  54.417  48.990  0.00  0.00    +0.000 OA
ATOM      3  O   UNL     1     -11.666  56.528  48.478  0.00  0.00    +0.000 OA
ATOM      4  N   UNL     1     -10.924  55.044  50.315  0.00  0.00    +0.000 N 
ATOM      5  C   UNL     1     -13.245  56.467  50.503  0.00  0.00    +0.000 A 
ATOM      6  C   UNL     1     -10.949  55.089  51.614  0.00  0.00    +0.000 C 
ATOM      7  C   UNL     1     -13.020  56.379  51.868  0.00  0.00    +0.000 A 
ATOM      8  C   UNL     1     -14.281  57.236  49.966  0.00  0.00    +0.000 A 
ATOM      9  N   UNL     1     -11.941  55.666  52.375  0.00  0.00    +0.000 N 
ATOM     10  C   UNL     1     -13.846  57.120  52.719  0.00  0.00    +0.000 A 
ATOM     11  C   UNL     1     -15.107  57.955  50.827  0.00  0.00    +0.000 A 
ATOM     12  C   UNL     1     -14.886  57.900  52.203  0.00  0.00    +0.000 A 
ATOM     13  H   UNL     1     -10.129  54.686  49.857  0.00  0.00    +0.000 HD
ATOM     14  H   UNL     1     -11.880  55.566  53.352  0.00  0.00    +0.000 HD
ENDROOT
BRANCH   6  15
ATOM     15  C   UNL     1      -9.776  54.450  52.325  0.00  0.00    +0.000 A 
ATOM     16  C   UNL     1     -10.006  53.238  53.167  0.00  0.00    +0.000 A 
ATOM     17  C   UNL     1      -8.548  54.993  52.246  0.00  0.00    +0.000 A 
ATOM     18  O   UNL     1     -11.163  52.834  53.316  0.00  0.00    +0.000 OA
ATOM     19  N   UNL     1      -8.910  52.626  53.755  0.00  0.00    +0.000 N 
ATOM     20  C   UNL     1      -7.412  54.377  52.947  0.00  0.00    +0.000 A 
ATOM     21  C   UNL     1      -7.602  53.189  53.671  0.00  0.00    +0.000 A 
ATOM     22  C   UNL     1      -9.127  51.402  54.512  0.00  0.00    +0.000 C 
ATOM     23  C   UNL     1      -6.131  54.951  52.883  0.00  0.00    +0.000 A 
ATOM     24  C   UNL     1      -6.500  52.595  54.307  0.00  0.00    +0.000 A 
ATOM     25  C   UNL     1      -5.045  54.352  53.521  0.00  0.00    +0.000 A 
ATOM     26  C   UNL     1      -5.231  53.173  54.231  0.00  0.00    +0.000 A 
BRANCH  17  27
ATOM     27  O   UNL     1      -8.242  56.138  51.530  0.00  0.00    +0.000 OA
ATOM     28  H   UNL     1      -7.393  56.528  51.612  0.00  0.00    +0.000 HD
ENDBRANCH  17  27
ENDBRANCH   6  15
TORSDOF 2
ENDMDL
MODEL 4
REMARK VINA RESULT:      -8.0      4.380      7.266
REMARK  Name = 338181
REMARK  3 active torsions:
REMARK  status: ('A' for Active; 'I' for Inactive)
REMARK    1  A    between atoms: C_6  and  C_10
REMARK    2  A    between atoms: C_14  and  O_18
REMARK    3  A    between atoms: N_17  and  C_21
REMARK                            x       y       z     vdW  Elec       q    Type
REMARK                         _______ _______ _______ _____ _____    ______ ____
ROOT
ATOM      1  S   UNL     1      -9.785  52.664  49.340  0.00  0.00    +0.000 S 
ATOM      2  O   UNL     1      -9.853  51.831  50.525  0.00  0.00    +0.000 OA
ATOM      3  O   UNL     1      -8.500  53.076  48.806  0.00  0.00    +0.000 OA
ATOM      4  N   UNL     1     -10.648  54.007  49.607  0.00  0.00    +0.000 N 
ATOM      5  C   UNL     1     -10.575  51.757  48.064  0.00  0.00    +0.000 A 
ATOM      6  C   UNL     1     -11.844  54.143  49.115  0.00  0.00    +0.000 C 
ATOM      7  C   UNL     1     -11.852  52.147  47.689  0.00  0.00    +0.000 A 
ATOM      8  C   UNL     1      -9.918  50.680  47.464  0.00  0.00    +0.000 A 
ATOM      9  N   UNL     1     -12.457  53.265  48.249  0.00  0.00    +0.000 N 
ATOM     10  C   UNL     1     -12.474  51.448  46.649  0.00  0.00    +0.000 A 
ATOM     11  C   UNL     1     -10.556  49.982  46.442  0.00  0.00    +0.000 A 
ATOM     12  C   UNL     1     -11.831  50.370  46.031  0.00  0.00    +0.000 A 
ATOM     13  H   UNL     1     -10.262  54.732  50.151  0.00  0.00    +0.000 HD
ATOM     14  H   UNL     1     -13.395  53.444  48.009  0.00  0.00    +0.000 HD
ENDROOT
BRANCH   6  15
ATOM     15  C   UNL     1     -12.603  55.381  49.541  0.00  0.00    +0.000 A 
ATOM     16  C   UNL     1     -12.992  56.389  48.509  0.00  0.00    +0.000 A 
ATOM     17  C   UNL     1     -12.881  55.603  50.838  0.00  0.00    +0.000 A 
ATOM     18  O   UNL     1     -12.618  56.215  47.345  0.00  0.00    +0.000 OA
ATOM     19  N   UNL     1     -13.746  57.482  48.906  0.00  0.00    +0.000 N 
ATOM     20  C   UNL     1     -13.609  56.812  51.250  0.00  0.00    +0.000 A 
ATOM     21  C   UNL     1     -14.053  57.722  50.278  0.00  0.00    +0.000 A 
ATOM     22  C   UNL     1     -14.188  58.421  47.886  0.00  0.00    +0.000 C 
ATOM     23  C   UNL     1     -13.886  57.058  52.606  0.00  0.00    +0.000 A 
ATOM     24  C   UNL     1     -14.777  58.855  50.685  0.00  0.00    +0.000 A 
ATOM     25  C   UNL     1     -14.602  58.188  52.997  0.00  0.00    +0.000 A 
ATOM     26  C   UNL     1     -15.049  59.084  52.035  0.00  0.00    +0.000 A 
BRANCH  17  27
ATOM     27  O   UNL     1     -12.525  54.754  51.872  0.00  0.00    +0.000 OA
ATOM     28  H   UNL     1     -11.653  54.773  52.215  0.00  0.00    +0.000 HD
ENDBRANCH  17  27
ENDBRANCH   6  15
TORSDOF 2
ENDMDL
MODEL 5
REMARK VINA RESULT:      -8.0      4.678      7.371
REMARK  Name = 338181
REMARK  3 active torsions:
REMARK  status: ('A' for Active; 'I' for Inactive)
REMARK    1  A    between atoms: C_6  and  C_10
REMARK    2  A    between atoms: C_14  and  O_18
REMARK    3  A    between atoms: N_17  and  C_21
REMARK                            x       y       z     vdW  Elec       q    Type
REMARK                         _______ _______ _______ _____ _____    ______ ____
ROOT
ATOM      1  S   UNL     1     -11.890  51.683  48.381  0.00  0.00    +0.000 S 
ATOM      2  O   UNL     1     -12.795  51.227  47.345  0.00  0.00    +0.000 OA
ATOM      3  O   UNL     1     -11.541  50.811  49.488  0.00  0.00    +0.000 OA
ATOM      4  N   UNL     1     -12.481  53.050  49.014  0.00  0.00    +0.000 N 
ATOM      5  C   UNL     1     -10.382  52.069  47.573  0.00  0.00    +0.000 A 
ATOM      6  C   UNL     1     -11.998  54.209  48.675  0.00  0.00    +0.000 C 
ATOM      7  C   UNL     1     -10.078  53.408  47.376  0.00  0.00    +0.000 A 
ATOM      8  C   UNL     1      -9.536  51.042  47.148  0.00  0.00    +0.000 A 
ATOM      9  N   UNL     1     -10.900  54.413  47.870  0.00  0.00    +0.000 N 
ATOM     10  C   UNL     1      -8.862  53.721  46.761  0.00  0.00    +0.000 A 
ATOM     11  C   UNL     1      -8.336  51.369  46.521  0.00  0.00    +0.000 A 
ATOM     12  C   UNL     1      -7.997  52.708  46.333  0.00  0.00    +0.000 A 
ATOM     13  H   UNL     1     -13.219  53.005  49.666  0.00  0.00    +0.000 HD
ATOM     14  H   UNL     1     -10.681  55.341  47.627  0.00  0.00    +0.000 HD
ENDROOT
BRANCH   6  15
ATOM     15  C   UNL     1     -12.718  55.420  49.230  0.00  0.00    +0.000 A 
ATOM     16  C   UNL     1     -13.108  56.523  48.303  0.00  0.00    +0.000 A 
ATOM     17  C   UNL     1     -12.959  55.529  50.548  0.00  0.00    +0.000 A 
ATOM     18  O   UNL     1     -12.767  56.447  47.118  0.00  0.00    +0.000 OA
ATOM     19  N   UNL     1     -13.827  57.592  48.815  0.00  0.00    +0.000 N 
ATOM     20  C   UNL     1     -13.649  56.711  51.086  0.00  0.00    +0.000 A 
ATOM     21  C   UNL     1     -14.096  57.714  50.210  0.00  0.00    +0.000 A 
ATOM     22  C   UNL     1     -14.273  58.628  47.895  0.00  0.00    +0.000 C 
ATOM     23  C   UNL     1     -13.887  56.839  52.465  0.00  0.00    +0.000 A 
ATOM     24  C   UNL     1     -14.783  58.821  50.736  0.00  0.00    +0.000 A 
ATOM     25  C   UNL     1     -14.568  57.944  52.974  0.00  0.00    +0.000 A 
ATOM     26  C   UNL     1     -15.017  58.932  52.108  0.00  0.00    +0.000 A 
BRANCH  17  27
ATOM     27  O   UNL     1     -12.598  54.583  51.493  0.00  0.00    +0.000 OA
ATOM     28  H   UNL     1     -12.305  53.736  51.219  0.00  0.00    +0.000 HD
ENDBRANCH  17  27
ENDBRANCH   6  15
TORSDOF 2
ENDMDL
MODEL 6
REMARK VINA RESULT:      -7.9      3.708      4.522
REMARK  Name = 338181
REMARK  3 active torsions:
REMARK  status: ('A' for Active; 'I' for Inactive)
REMARK    1  A    between atoms: C_6  and  C_10
REMARK    2  A    between atoms: C_14  and  O_18
REMARK    3  A    between atoms: N_17  and  C_21
REMARK                            x       y       z     vdW  Elec       q    Type
REMARK                         _______ _______ _______ _____ _____    ______ ____
ROOT
ATOM      1  S   UNL     1     -15.332  56.459  51.221  0.00  0.00    +0.000 S 
ATOM      2  O   UNL     1     -15.162  56.532  52.658  0.00  0.00    +0.000 OA
ATOM      3  O   UNL     1     -16.654  56.292  50.645  0.00  0.00    +0.000 OA
ATOM      4  N   UNL     1     -14.406  55.258  50.655  0.00  0.00    +0.000 N 
ATOM      5  C   UNL     1     -14.710  57.969  50.580  0.00  0.00    +0.000 A 
ATOM      6  C   UNL     1     -13.266  55.506  50.080  0.00  0.00    +0.000 C 
ATOM      7  C   UNL     1     -13.470  57.947  49.961  0.00  0.00    +0.000 A 
ATOM      8  C   UNL     1     -15.459  59.142  50.709  0.00  0.00    +0.000 A 
ATOM      9  N   UNL     1     -12.775  56.757  49.782  0.00  0.00    +0.000 N 
ATOM     10  C   UNL     1     -12.985  59.142  49.421  0.00  0.00    +0.000 A 
ATOM     11  C   UNL     1     -14.956  60.328  50.181  0.00  0.00    +0.000 A 
ATOM     12  C   UNL     1     -13.721  60.326  49.533  0.00  0.00    +0.000 A 
ATOM     13  H   UNL     1     -14.710  54.325  50.747  0.00  0.00    +0.000 HD
ATOM     14  H   UNL     1     -11.865  56.813  49.414  0.00  0.00    +0.000 HD
ENDROOT
BRANCH   6  15
ATOM     15  C   UNL     1     -12.429  54.299  49.712  0.00  0.00    +0.000 A 
ATOM     16  C   UNL     1     -11.907  54.172  48.318  0.00  0.00    +0.000 A 
ATOM     17  C   UNL     1     -12.200  53.324  50.609  0.00  0.00    +0.000 A 
ATOM     18  O   UNL     1     -12.235  55.023  47.485  0.00  0.00    +0.000 OA
ATOM     19  N   UNL     1     -11.086  53.097  48.017  0.00  0.00    +0.000 N 
ATOM     20  C   UNL     1     -11.396  52.148  50.246  0.00  0.00    +0.000 A 
ATOM     21  C   UNL     1     -10.829  52.062  48.964  0.00  0.00    +0.000 A 
ATOM     22  C   UNL     1     -10.517  53.017  46.680  0.00  0.00    +0.000 C 
ATOM     23  C   UNL     1     -11.168  51.118  51.174  0.00  0.00    +0.000 A 
ATOM     24  C   UNL     1     -10.036  50.948  48.643  0.00  0.00    +0.000 A 
ATOM     25  C   UNL     1     -10.381  50.016  50.843  0.00  0.00    +0.000 A 
ATOM     26  C   UNL     1      -9.814  49.934  49.578  0.00  0.00    +0.000 A 
BRANCH  17  27
ATOM     27  O   UNL     1     -12.676  53.328  51.909  0.00  0.00    +0.000 OA
ATOM     28  H   UNL     1     -12.836  52.516  52.351  0.00  0.00    +0.000 HD
ENDBRANCH  17  27
ENDBRANCH   6  15
TORSDOF 2
ENDMDL
MODEL 7
REMARK VINA RESULT:      -7.8      2.424      3.219
REMARK  Name = 338181
REMARK  3 active torsions:
REMARK  status: ('A' for Active; 'I' for Inactive)
REMARK    1  A    between atoms: C_6  and  C_10
REMARK    2  A    between atoms: C_14  and  O_18
REMARK    3  A    between atoms: N_17  and  C_21
REMARK                            x       y       z     vdW  Elec       q    Type
REMARK                         _______ _______ _______ _____ _____    ______ ____
ROOT
ATOM      1  S   UNL     1     -13.354  57.057  49.267  0.00  0.00    +0.000 S 
ATOM      2  O   UNL     1     -14.451  56.610  48.431  0.00  0.00    +0.000 OA
ATOM      3  O   UNL     1     -12.437  58.077  48.792  0.00  0.00    +0.000 OA
ATOM      4  N   UNL     1     -12.467  55.768  49.681  0.00  0.00    +0.000 N 
ATOM      5  C   UNL     1     -14.086  57.702  50.725  0.00  0.00    +0.000 A 
ATOM      6  C   UNL     1     -12.582  55.226  50.858  0.00  0.00    +0.000 C 
ATOM      7  C   UNL     1     -14.025  56.929  51.875  0.00  0.00    +0.000 A 
ATOM      8  C   UNL     1     -14.707  58.953  50.699  0.00  0.00    +0.000 A 
ATOM      9  N   UNL     1     -13.342  55.719  51.894  0.00  0.00    +0.000 N 
ATOM     10  C   UNL     1     -14.579  57.452  53.047  0.00  0.00    +0.000 A 
ATOM     11  C   UNL     1     -15.269  59.454  51.870  0.00  0.00    +0.000 A 
ATOM     12  C   UNL     1     -15.200  58.706  53.045  0.00  0.00    +0.000 A 
ATOM     13  H   UNL     1     -11.830  55.388  49.032  0.00  0.00    +0.000 HD
ATOM     14  H   UNL     1     -13.405  55.174  52.711  0.00  0.00    +0.000 HD
ENDROOT
BRANCH   6  15
ATOM     15  C   UNL     1     -11.800  53.950  51.083  0.00  0.00    +0.000 A 
ATOM     16  C   UNL     1     -10.911  53.841  52.278  0.00  0.00    +0.000 A 
ATOM     17  C   UNL     1     -11.861  52.943  50.194  0.00  0.00    +0.000 A 
ATOM     18  O   UNL     1     -10.784  54.827  53.011  0.00  0.00    +0.000 OA
ATOM     19  N   UNL     1     -10.256  52.642  52.505  0.00  0.00    +0.000 N 
ATOM     20  C   UNL     1     -11.092  51.708  50.409  0.00  0.00    +0.000 A 
ATOM     21  C   UNL     1     -10.320  51.564  51.573  0.00  0.00    +0.000 A 
ATOM     22  C   UNL     1      -9.451  52.513  53.711  0.00  0.00    +0.000 C 
ATOM     23  C   UNL     1     -11.137  50.660  49.474  0.00  0.00    +0.000 A 
ATOM     24  C   UNL     1      -9.618  50.365  51.781  0.00  0.00    +0.000 A 
ATOM     25  C   UNL     1     -10.434  49.477  49.690  0.00  0.00    +0.000 A 
ATOM     26  C   UNL     1      -9.677  49.330  50.845  0.00  0.00    +0.000 A 
BRANCH  17  27
ATOM     27  O   UNL     1     -12.619  52.965  49.035  0.00  0.00    +0.000 OA
ATOM     28  H   UNL     1     -13.393  53.491  48.992  0.00  0.00    +0.000 HD
ENDBRANCH  17  27
ENDBRANCH   6  15
TORSDOF 2
ENDMDL
MODEL 8
REMARK VINA RESULT:      -7.7      4.021      5.771
REMARK  Name = 338181
REMARK  3 active torsions:
REMARK  status: ('A' for Active; 'I' for Inactive)
REMARK    1  A    between atoms: C_6  and  C_10
REMARK    2  A    between atoms: C_14  and  O_18
REMARK    3  A    between atoms: N_17  and  C_21
REMARK                            x       y       z     vdW  Elec       q    Type
REMARK                         _______ _______ _______ _____ _____    ______ ____
ROOT
ATOM      1  S   UNL     1     -14.974  56.207  50.847  0.00  0.00    +0.000 S 
ATOM      2  O   UNL     1     -14.624  56.069  52.247  0.00  0.00    +0.000 OA
ATOM      3  O   UNL     1     -16.344  56.008  50.409  0.00  0.00    +0.000 OA
ATOM      4  N   UNL     1     -14.043  55.201  49.985  0.00  0.00    +0.000 N 
ATOM      5  C   UNL     1     -14.554  57.850  50.400  0.00  0.00    +0.000 A 
ATOM      6  C   UNL     1     -13.009  55.642  49.331  0.00  0.00    +0.000 C 
ATOM      7  C   UNL     1     -13.406  58.042  49.646  0.00  0.00    +0.000 A 
ATOM      8  C   UNL     1     -15.364  58.912  50.809  0.00  0.00    +0.000 A 
ATOM      9  N   UNL     1     -12.655  56.965  49.192  0.00  0.00    +0.000 N 
ATOM     10  C   UNL     1     -13.085  59.347  49.260  0.00  0.00    +0.000 A 
ATOM     11  C   UNL     1     -15.022  60.208  50.432  0.00  0.00    +0.000 A 
ATOM     12  C   UNL     1     -13.885  60.424  49.653  0.00  0.00    +0.000 A 
ATOM     13  H   UNL     1     -14.263  54.241  49.956  0.00  0.00    +0.000 HD
ATOM     14  H   UNL     1     -11.806  57.162  48.735  0.00  0.00    +0.000 HD
ENDROOT
BRANCH   6  15
ATOM     15  C   UNL     1     -12.141  54.591  48.672  0.00  0.00    +0.000 A 
ATOM     16  C   UNL     1     -11.630  53.450  49.490  0.00  0.00    +0.000 A 
ATOM     17  C   UNL     1     -11.787  54.706  47.380  0.00  0.00    +0.000 A 
ATOM     18  O   UNL     1     -11.874  53.436  50.701  0.00  0.00    +0.000 OA
ATOM     19  N   UNL     1     -10.895  52.462  48.856  0.00  0.00    +0.000 N 
ATOM     20  C   UNL     1     -10.934  53.690  46.745  0.00  0.00    +0.000 A 
ATOM     21  C   UNL     1     -10.520  52.570  47.483  0.00  0.00    +0.000 A 
ATOM     22  C   UNL     1     -10.464  51.313  49.638  0.00  0.00    +0.000 C 
ATOM     23  C   UNL     1     -10.546  53.815  45.400  0.00  0.00    +0.000 A 
ATOM     24  C   UNL     1      -9.734  51.591  46.853  0.00  0.00    +0.000 A 
ATOM     25  C   UNL     1      -9.763  52.839  44.787  0.00  0.00    +0.000 A 
ATOM     26  C   UNL     1      -9.361  51.726  45.514  0.00  0.00    +0.000 A 
BRANCH  17  27
ATOM     27  O   UNL     1     -12.170  55.748  46.552  0.00  0.00    +0.000 OA
ATOM     28  H   UNL     1     -12.065  55.670  45.623  0.00  0.00    +0.000 HD
ENDBRANCH  17  27
ENDBRANCH   6  15
TORSDOF 2
ENDMDL
MODEL 9
REMARK VINA RESULT:      -7.6      2.411      7.157
REMARK  Name = 338181
REMARK  3 active torsions:
REMARK  status: ('A' for Active; 'I' for Inactive)
REMARK    1  A    between atoms: C_6  and  C_10
REMARK    2  A    between atoms: C_14  and  O_18
REMARK    3  A    between atoms: N_17  and  C_21
REMARK                            x       y       z     vdW  Elec       q    Type
REMARK                         _______ _______ _______ _____ _____    ______ ____
ROOT
ATOM      1  S   UNL     1      -7.030  54.728  52.923  0.00  0.00    +0.000 S 
ATOM      2  O   UNL     1      -7.078  55.773  53.927  0.00  0.00    +0.000 OA
ATOM      3  O   UNL     1      -5.772  54.378  52.287  0.00  0.00    +0.000 OA
ATOM      4  N   UNL     1      -8.077  55.099  51.746  0.00  0.00    +0.000 N 
ATOM      5  C   UNL     1      -7.598  53.269  53.712  0.00  0.00    +0.000 A 
ATOM      6  C   UNL     1      -9.240  54.522  51.678  0.00  0.00    +0.000 C 
ATOM      7  C   UNL     1      -8.883  52.835  53.422  0.00  0.00    +0.000 A 
ATOM      8  C   UNL     1      -6.764  52.588  54.603  0.00  0.00    +0.000 A 
ATOM      9  N   UNL     1      -9.668  53.489  52.480  0.00  0.00    +0.000 N 
ATOM     10  C   UNL     1      -9.329  51.655  54.024  0.00  0.00    +0.000 A 
ATOM     11  C   UNL     1      -7.228  51.423  55.208  0.00  0.00    +0.000 A 
ATOM     12  C   UNL     1      -8.509  50.954  54.915  0.00  0.00    +0.000 A 
ATOM     13  H   UNL     1      -7.829  55.773  51.070  0.00  0.00    +0.000 HD
ATOM     14  H   UNL     1     -10.600  53.190  52.378  0.00  0.00    +0.000 HD
ENDROOT
BRANCH   6  15
ATOM     15  C   UNL     1     -10.182  55.045  50.615  0.00  0.00    +0.000 A 
ATOM     16  C   UNL     1      -9.766  54.993  49.182  0.00  0.00    +0.000 A 
ATOM     17  C   UNL     1     -11.359  55.600  50.955  0.00  0.00    +0.000 A 
ATOM     18  O   UNL     1      -8.630  54.588  48.912  0.00  0.00    +0.000 OA
ATOM     19  N   UNL     1     -10.668  55.412  48.217  0.00  0.00    +0.000 N 
ATOM     20  C   UNL     1     -12.268  56.117  49.922  0.00  0.00    +0.000 A 
ATOM     21  C   UNL     1     -11.923  55.994  48.566  0.00  0.00    +0.000 A 
ATOM     22  C   UNL     1     -10.289  55.289  46.818  0.00  0.00    +0.000 C 
ATOM     23  C   UNL     1     -13.491  56.714  50.273  0.00  0.00    +0.000 A 
ATOM     24  C   UNL     1     -12.817  56.463  47.590  0.00  0.00    +0.000 A 
ATOM     25  C   UNL     1     -14.369  57.178  49.294  0.00  0.00    +0.000 A 
ATOM     26  C   UNL     1     -14.031  57.049  47.953  0.00  0.00    +0.000 A 
BRANCH  17  27
ATOM     27  O   UNL     1     -11.816  55.735  52.256  0.00  0.00    +0.000 OA
ATOM     28  H   UNL     1     -12.457  56.388  52.461  0.00  0.00    +0.000 HD
ENDBRANCH  17  27
ENDBRANCH   6  15
TORSDOF 2
ENDMDL
