MODEL 1
REMARK VINA RESULT:      -8.7      0.000      0.000
REMARK  Name = 338084
REMARK  4 active torsions:
REMARK  status: ('A' for Active; 'I' for Inactive)
REMARK    1  A    between atoms: C_6  and  C_10
REMARK    2  A    between atoms: C_14  and  O_18
REMARK    3  A    between atoms: N_17  and  C_21
REMARK    4  A    between atoms: C_21  and  C_24
REMARK                            x       y       z     vdW  Elec       q    Type
REMARK                         _______ _______ _______ _____ _____    ______ ____
ROOT
ATOM      1  C   UNL     1     -10.076  54.366  52.298  0.00  0.00    +0.000 A 
ATOM      2  C   UNL     1      -8.680  54.897  52.216  0.00  0.00    +0.000 A 
ATOM      3  C   UNL     1     -10.330  53.265  53.028  0.00  0.00    +0.000 A 
ATOM      4  O   UNL     1      -8.487  55.927  51.562  0.00  0.00    +0.000 OA
ATOM      5  N   UNL     1      -7.672  54.251  52.919  0.00  0.00    +0.000 N 
ATOM      6  C   UNL     1      -9.253  52.582  53.758  0.00  0.00    +0.000 A 
ATOM      7  C   UNL     1      -7.941  53.087  53.706  0.00  0.00    +0.000 A 
ATOM      8  C   UNL     1      -9.535  51.450  54.544  0.00  0.00    +0.000 A 
ATOM      9  C   UNL     1      -6.945  52.439  54.457  0.00  0.00    +0.000 A 
ATOM     10  C   UNL     1      -8.539  50.829  55.290  0.00  0.00    +0.000 A 
ATOM     11  C   UNL     1      -7.245  51.327  55.250  0.00  0.00    +0.000 A 
ENDROOT
BRANCH   1  17
ATOM     12  S   UNL     1     -12.381  55.922  49.514  0.00  0.00    +0.000 S 
ATOM     13  O   UNL     1     -13.273  54.939  48.936  0.00  0.00    +0.000 OA
ATOM     14  O   UNL     1     -11.719  56.899  48.669  0.00  0.00    +0.000 OA
ATOM     15  N   UNL     1     -11.238  55.125  50.340  0.00  0.00    +0.000 N 
ATOM     16  C   UNL     1     -13.345  56.843  50.654  0.00  0.00    +0.000 A 
ATOM     17  C   UNL     1     -11.210  55.138  51.641  0.00  0.00    +0.000 C 
ATOM     18  C   UNL     1     -13.095  56.667  52.006  0.00  0.00    +0.000 A 
ATOM     19  C   UNL     1     -14.321  57.728  50.187  0.00  0.00    +0.000 A 
ATOM     20  N   UNL     1     -12.119  55.779  52.455  0.00  0.00    +0.000 N 
ATOM     21  C   UNL     1     -13.908  57.348  52.918  0.00  0.00    +0.000 A 
ATOM     22  C   UNL     1     -15.095  58.430  51.105  0.00  0.00    +0.000 A 
ATOM     23  C   UNL     1     -14.896  58.233  52.471  0.00  0.00    +0.000 A 
ATOM     24  H   UNL     1     -10.551  54.620  49.848  0.00  0.00    +0.000 HD
ATOM     25  H   UNL     1     -12.076  55.598  53.422  0.00  0.00    +0.000 HD
ENDBRANCH   1  17
BRANCH   3  26
ATOM     26  O   UNL     1     -11.591  52.720  53.210  0.00  0.00    +0.000 OA
ATOM     27  H   UNL     1     -11.761  52.169  53.948  0.00  0.00    +0.000 HD
ENDBRANCH   3  26
BRANCH   5  28
ATOM     28  C   UNL     1      -6.351  54.883  52.923  0.00  0.00    +0.000 C 
BRANCH  28  29
ATOM     29  C   UNL     1      -5.425  54.296  51.908  0.00  0.00    +0.000 A 
ATOM     30  C   UNL     1      -5.431  54.527  50.545  0.00  0.00    +0.000 A 
ATOM     31  C   UNL     1      -4.422  53.301  52.107  0.00  0.00    +0.000 A 
ATOM     32  O   UNL     1      -4.523  53.743  49.911  0.00  0.00    +0.000 OA
ATOM     33  C   UNL     1      -3.916  52.994  50.865  0.00  0.00    +0.000 A 
ENDBRANCH  28  29
ENDBRANCH   5  28
TORSDOF 4
ENDMDL
MODEL 2
REMARK VINA RESULT:      -8.4      3.137      7.403
REMARK  Name = 338084
REMARK  4 active torsions:
REMARK  status: ('A' for Active; 'I' for Inactive)
REMARK    1  A    between atoms: C_6  and  C_10
REMARK    2  A    between atoms: C_14  and  O_18
REMARK    3  A    between atoms: N_17  and  C_21
REMARK    4  A    between atoms: C_21  and  C_24
REMARK                            x       y       z     vdW  Elec       q    Type
REMARK                         _______ _______ _______ _____ _____    ______ ____
ROOT
ATOM      1  C   UNL     1     -10.265  55.223  50.835  0.00  0.00    +0.000 A 
ATOM      2  C   UNL     1      -9.899  55.153  49.386  0.00  0.00    +0.000 A 
ATOM      3  C   UNL     1     -11.466  55.710  51.198  0.00  0.00    +0.000 A 
ATOM      4  O   UNL     1      -8.801  54.673  49.087  0.00  0.00    +0.000 OA
ATOM      5  N   UNL     1     -10.821  55.575  48.437  0.00  0.00    +0.000 N 
ATOM      6  C   UNL     1     -12.429  56.164  50.186  0.00  0.00    +0.000 A 
ATOM      7  C   UNL     1     -12.103  56.081  48.820  0.00  0.00    +0.000 A 
ATOM      8  C   UNL     1     -13.694  56.642  50.574  0.00  0.00    +0.000 A 
ATOM      9  C   UNL     1     -13.067  56.478  47.876  0.00  0.00    +0.000 A 
ATOM     10  C   UNL     1     -14.640  57.018  49.626  0.00  0.00    +0.000 A 
ATOM     11  C   UNL     1     -14.328  56.931  48.277  0.00  0.00    +0.000 A 
ENDROOT
BRANCH   1  17
ATOM     12  S   UNL     1      -7.052  54.700  53.045  0.00  0.00    +0.000 S 
ATOM     13  O   UNL     1      -6.966  55.671  54.115  0.00  0.00    +0.000 OA
ATOM     14  O   UNL     1      -5.866  54.327  52.295  0.00  0.00    +0.000 OA
ATOM     15  N   UNL     1      -8.161  55.227  51.989  0.00  0.00    +0.000 N 
ATOM     16  C   UNL     1      -7.647  53.221  53.777  0.00  0.00    +0.000 A 
ATOM     17  C   UNL     1      -9.319  54.643  51.875  0.00  0.00    +0.000 C 
ATOM     18  C   UNL     1      -8.936  52.818  53.470  0.00  0.00    +0.000 A 
ATOM     19  C   UNL     1      -6.820  52.484  54.631  0.00  0.00    +0.000 A 
ATOM     20  N   UNL     1      -9.748  53.564  52.617  0.00  0.00    +0.000 N 
ATOM     21  C   UNL     1      -9.436  51.676  54.105  0.00  0.00    +0.000 A 
ATOM     22  C   UNL     1      -7.317  51.328  55.225  0.00  0.00    +0.000 A 
ATOM     23  C   UNL     1      -8.628  50.929  54.970  0.00  0.00    +0.000 A 
ATOM     24  H   UNL     1      -7.956  56.006  51.423  0.00  0.00    +0.000 HD
ATOM     25  H   UNL     1     -10.693  53.302  52.540  0.00  0.00    +0.000 HD
ENDBRANCH   1  17
BRANCH   3  26
ATOM     26  O   UNL     1     -11.923  55.772  52.504  0.00  0.00    +0.000 OA
ATOM     27  H   UNL     1     -12.783  56.098  52.684  0.00  0.00    +0.000 HD
ENDBRANCH   3  26
BRANCH   5  28
ATOM     28  C   UNL     1     -10.475  55.361  47.030  0.00  0.00    +0.000 C 
BRANCH  28  29
ATOM     29  C   UNL     1     -11.100  54.128  46.463  0.00  0.00    +0.000 A 
ATOM     30  C   UNL     1     -11.549  53.944  45.168  0.00  0.00    +0.000 A 
ATOM     31  C   UNL     1     -11.463  52.932  47.150  0.00  0.00    +0.000 A 
ATOM     32  O   UNL     1     -12.161  52.741  45.029  0.00  0.00    +0.000 OA
ATOM     33  C   UNL     1     -12.112  52.132  46.238  0.00  0.00    +0.000 A 
ENDBRANCH  28  29
ENDBRANCH   5  28
TORSDOF 4
ENDMDL
MODEL 3
REMARK VINA RESULT:      -8.4      3.364      5.036
REMARK  Name = 338084
REMARK  4 active torsions:
REMARK  status: ('A' for Active; 'I' for Inactive)
REMARK    1  A    between atoms: C_6  and  C_10
REMARK    2  A    between atoms: C_14  and  O_18
REMARK    3  A    between atoms: N_17  and  C_21
REMARK    4  A    between atoms: C_21  and  C_24
REMARK                            x       y       z     vdW  Elec       q    Type
REMARK                         _______ _______ _______ _____ _____    ______ ____
ROOT
ATOM      1  C   UNL     1     -11.568  55.883  48.747  0.00  0.00    +0.000 A 
ATOM      2  C   UNL     1     -10.521  55.194  49.563  0.00  0.00    +0.000 A 
ATOM      3  C   UNL     1     -11.738  55.544  47.456  0.00  0.00    +0.000 A 
ATOM      4  O   UNL     1     -10.412  55.509  50.754  0.00  0.00    +0.000 OA
ATOM      5  N   UNL     1      -9.756  54.196  48.975  0.00  0.00    +0.000 N 
ATOM      6  C   UNL     1     -10.915  54.494  46.841  0.00  0.00    +0.000 A 
ATOM      7  C   UNL     1      -9.943  53.825  47.606  0.00  0.00    +0.000 A 
ATOM      8  C   UNL     1     -11.122  54.125  45.499  0.00  0.00    +0.000 A 
ATOM      9  C   UNL     1      -9.208  52.791  47.000  0.00  0.00    +0.000 A 
ATOM     10  C   UNL     1     -10.394  53.091  44.919  0.00  0.00    +0.000 A 
ATOM     11  C   UNL     1      -9.441  52.421  45.671  0.00  0.00    +0.000 A 
ENDROOT
BRANCH   1  17
ATOM     12  S   UNL     1     -13.541  59.212  49.457  0.00  0.00    +0.000 S 
ATOM     13  O   UNL     1     -14.684  59.363  48.582  0.00  0.00    +0.000 OA
ATOM     14  O   UNL     1     -12.696  60.353  49.765  0.00  0.00    +0.000 OA
ATOM     15  N   UNL     1     -12.598  58.048  48.841  0.00  0.00    +0.000 N 
ATOM     16  C   UNL     1     -14.176  58.652  50.994  0.00  0.00    +0.000 A 
ATOM     17  C   UNL     1     -12.500  56.884  49.414  0.00  0.00    +0.000 C 
ATOM     18  C   UNL     1     -13.909  57.346  51.369  0.00  0.00    +0.000 A 
ATOM     19  C   UNL     1     -14.916  59.522  51.800  0.00  0.00    +0.000 A 
ATOM     20  N   UNL     1     -13.170  56.492  50.552  0.00  0.00    +0.000 N 
ATOM     21  C   UNL     1     -14.471  56.876  52.561  0.00  0.00    +0.000 A 
ATOM     22  C   UNL     1     -15.435  59.054  53.004  0.00  0.00    +0.000 A 
ATOM     23  C   UNL     1     -15.221  57.729  53.379  0.00  0.00    +0.000 A 
ATOM     24  H   UNL     1     -12.090  58.225  48.017  0.00  0.00    +0.000 HD
ATOM     25  H   UNL     1     -13.124  55.542  50.807  0.00  0.00    +0.000 HD
ENDBRANCH   1  17
BRANCH   3  26
ATOM     26  O   UNL     1     -12.708  56.082  46.627  0.00  0.00    +0.000 OA
ATOM     27  H   UNL     1     -13.516  55.627  46.494  0.00  0.00    +0.000 HD
ENDBRANCH   3  26
BRANCH   5  28
ATOM     28  C   UNL     1      -8.841  53.455  49.847  0.00  0.00    +0.000 C 
BRANCH  28  29
ATOM     29  C   UNL     1      -7.470  54.046  49.882  0.00  0.00    +0.000 A 
ATOM     30  C   UNL     1      -6.516  53.874  50.868  0.00  0.00    +0.000 A 
ATOM     31  C   UNL     1      -6.897  54.989  48.977  0.00  0.00    +0.000 A 
ATOM     32  O   UNL     1      -5.425  54.646  50.633  0.00  0.00    +0.000 OA
ATOM     33  C   UNL     1      -5.664  55.327  49.485  0.00  0.00    +0.000 A 
ENDBRANCH  28  29
ENDBRANCH   5  28
TORSDOF 4
ENDMDL
MODEL 4
REMARK VINA RESULT:      -8.3      2.122      2.914
REMARK  Name = 338084
REMARK  4 active torsions:
REMARK  status: ('A' for Active; 'I' for Inactive)
REMARK    1  A    between atoms: C_6  and  C_10
REMARK    2  A    between atoms: C_14  and  O_18
REMARK    3  A    between atoms: N_17  and  C_21
REMARK    4  A    between atoms: C_21  and  C_24
REMARK                            x       y       z     vdW  Elec       q    Type
REMARK                         _______ _______ _______ _____ _____    ______ ____
ROOT
ATOM      1  C   UNL     1     -11.564  54.168  51.113  0.00  0.00    +0.000 A 
ATOM      2  C   UNL     1     -10.594  54.186  52.251  0.00  0.00    +0.000 A 
ATOM      3  C   UNL     1     -11.685  53.063  50.355  0.00  0.00    +0.000 A 
ATOM      4  O   UNL     1     -10.531  55.206  52.946  0.00  0.00    +0.000 OA
ATOM      5  N   UNL     1      -9.849  53.045  52.519  0.00  0.00    +0.000 N 
ATOM      6  C   UNL     1     -10.883  51.866  50.640  0.00  0.00    +0.000 A 
ATOM      7  C   UNL     1      -9.984  51.864  51.723  0.00  0.00    +0.000 A 
ATOM      8  C   UNL     1     -11.039  50.705  49.861  0.00  0.00    +0.000 A 
ATOM      9  C   UNL     1      -9.269  50.685  51.997  0.00  0.00    +0.000 A 
ATOM     10  C   UNL     1     -10.332  49.543  50.155  0.00  0.00    +0.000 A 
ATOM     11  C   UNL     1      -9.451  49.533  51.227  0.00  0.00    +0.000 A 
ENDROOT
BRANCH   1  17
ATOM     12  S   UNL     1     -13.474  57.094  49.302  0.00  0.00    +0.000 S 
ATOM     13  O   UNL     1     -14.606  56.613  48.541  0.00  0.00    +0.000 OA
ATOM     14  O   UNL     1     -12.608  58.125  48.758  0.00  0.00    +0.000 OA
ATOM     15  N   UNL     1     -12.551  55.816  49.674  0.00  0.00    +0.000 N 
ATOM     16  C   UNL     1     -14.131  57.750  50.791  0.00  0.00    +0.000 A 
ATOM     17  C   UNL     1     -12.480  55.363  50.892  0.00  0.00    +0.000 C 
ATOM     18  C   UNL     1     -13.894  57.057  51.966  0.00  0.00    +0.000 A 
ATOM     19  C   UNL     1     -14.858  58.944  50.764  0.00  0.00    +0.000 A 
ATOM     20  N   UNL     1     -13.167  55.867  51.974  0.00  0.00    +0.000 N 
ATOM     21  C   UNL     1     -14.474  57.541  53.143  0.00  0.00    +0.000 A 
ATOM     22  C   UNL     1     -15.396  59.436  51.950  0.00  0.00    +0.000 A 
ATOM     23  C   UNL     1     -15.213  58.730  53.137  0.00  0.00    +0.000 A 
ATOM     24  H   UNL     1     -12.033  55.372  48.963  0.00  0.00    +0.000 HD
ATOM     25  H   UNL     1     -13.142  55.353  52.813  0.00  0.00    +0.000 HD
ENDBRANCH   1  17
BRANCH   3  26
ATOM     26  O   UNL     1     -12.585  52.924  49.312  0.00  0.00    +0.000 OA
ATOM     27  H   UNL     1     -12.575  52.150  48.784  0.00  0.00    +0.000 HD
ENDBRANCH   3  26
BRANCH   5  28
ATOM     28  C   UNL     1      -9.016  53.060  53.724  0.00  0.00    +0.000 C 
BRANCH  28  29
ATOM     29  C   UNL     1      -7.704  53.741  53.511  0.00  0.00    +0.000 A 
ATOM     30  C   UNL     1      -7.236  54.867  54.164  0.00  0.00    +0.000 A 
ATOM     31  C   UNL     1      -6.712  53.449  52.528  0.00  0.00    +0.000 A 
ATOM     32  O   UNL     1      -6.053  55.278  53.644  0.00  0.00    +0.000 OA
ATOM     33  C   UNL     1      -5.741  54.416  52.645  0.00  0.00    +0.000 A 
ENDBRANCH  28  29
ENDBRANCH   5  28
TORSDOF 4
ENDMDL
MODEL 5
REMARK VINA RESULT:      -8.2      3.501      4.499
REMARK  Name = 338084
REMARK  4 active torsions:
REMARK  status: ('A' for Active; 'I' for Inactive)
REMARK    1  A    between atoms: C_6  and  C_10
REMARK    2  A    between atoms: C_14  and  O_18
REMARK    3  A    between atoms: N_17  and  C_21
REMARK    4  A    between atoms: C_21  and  C_24
REMARK                            x       y       z     vdW  Elec       q    Type
REMARK                         _______ _______ _______ _____ _____    ______ ____
ROOT
ATOM      1  C   UNL     1     -12.259  54.205  50.137  0.00  0.00    +0.000 A 
ATOM      2  C   UNL     1     -11.930  53.831  48.727  0.00  0.00    +0.000 A 
ATOM      3  C   UNL     1     -11.726  53.505  51.156  0.00  0.00    +0.000 A 
ATOM      4  O   UNL     1     -12.412  54.513  47.817  0.00  0.00    +0.000 OA
ATOM      5  N   UNL     1     -11.059  52.775  48.496  0.00  0.00    +0.000 N 
ATOM      6  C   UNL     1     -10.815  52.382  50.899  0.00  0.00    +0.000 A 
ATOM      7  C   UNL     1     -10.481  52.036  49.577  0.00  0.00    +0.000 A 
ATOM      8  C   UNL     1     -10.239  51.676  51.971  0.00  0.00    +0.000 A 
ATOM      9  C   UNL     1      -9.567  50.989  49.369  0.00  0.00    +0.000 A 
ATOM     10  C   UNL     1      -9.326  50.651  51.747  0.00  0.00    +0.000 A 
ATOM     11  C   UNL     1      -8.986  50.311  50.446  0.00  0.00    +0.000 A 
ENDROOT
BRANCH   1  17
ATOM     12  S   UNL     1     -15.245  56.464  51.346  0.00  0.00    +0.000 S 
ATOM     13  O   UNL     1     -15.213  56.687  52.776  0.00  0.00    +0.000 OA
ATOM     14  O   UNL     1     -16.504  56.200  50.672  0.00  0.00    +0.000 OA
ATOM     15  N   UNL     1     -14.238  55.239  51.015  0.00  0.00    +0.000 N 
ATOM     16  C   UNL     1     -14.600  57.921  50.612  0.00  0.00    +0.000 A 
ATOM     17  C   UNL     1     -13.106  55.440  50.406  0.00  0.00    +0.000 C 
ATOM     18  C   UNL     1     -13.353  57.850  50.014  0.00  0.00    +0.000 A 
ATOM     19  C   UNL     1     -15.349  59.102  50.634  0.00  0.00    +0.000 A 
ATOM     20  N   UNL     1     -12.620  56.664  50.002  0.00  0.00    +0.000 N 
ATOM     21  C   UNL     1     -12.807  59.026  49.489  0.00  0.00    +0.000 A 
ATOM     22  C   UNL     1     -14.811  60.256  50.072  0.00  0.00    +0.000 A 
ATOM     23  C   UNL     1     -13.536  60.220  49.508  0.00  0.00    +0.000 A 
ATOM     24  H   UNL     1     -14.488  54.325  51.280  0.00  0.00    +0.000 HD
ATOM     25  H   UNL     1     -11.690  56.705  49.682  0.00  0.00    +0.000 HD
ENDBRANCH   1  17
BRANCH   3  26
ATOM     26  O   UNL     1     -11.925  53.798  52.495  0.00  0.00    +0.000 OA
ATOM     27  H   UNL     1     -12.269  54.632  52.746  0.00  0.00    +0.000 HD
ENDBRANCH   3  26
BRANCH   5  28
ATOM     28  C   UNL     1     -10.658  52.532  47.108  0.00  0.00    +0.000 C 
BRANCH  28  29
ATOM     29  C   UNL     1      -9.565  53.443  46.654  0.00  0.00    +0.000 A 
ATOM     30  C   UNL     1      -9.354  53.914  45.371  0.00  0.00    +0.000 A 
ATOM     31  C   UNL     1      -8.456  53.928  47.410  0.00  0.00    +0.000 A 
ATOM     32  O   UNL     1      -8.205  54.631  45.295  0.00  0.00    +0.000 OA
ATOM     33  C   UNL     1      -7.659  54.631  46.536  0.00  0.00    +0.000 A 
ENDBRANCH  28  29
ENDBRANCH   5  28
TORSDOF 4
ENDMDL
MODEL 6
REMARK VINA RESULT:      -8.0      3.392      5.385
REMARK  Name = 338084
REMARK  4 active torsions:
REMARK  status: ('A' for Active; 'I' for Inactive)
REMARK    1  A    between atoms: C_6  and  C_10
REMARK    2  A    between atoms: C_14  and  O_18
REMARK    3  A    between atoms: N_17  and  C_21
REMARK    4  A    between atoms: C_21  and  C_24
REMARK                            x       y       z     vdW  Elec       q    Type
REMARK                         _______ _______ _______ _____ _____    ______ ____
ROOT
ATOM      1  C   UNL     1     -11.473  56.037  48.761  0.00  0.00    +0.000 A 
ATOM      2  C   UNL     1     -10.370  55.429  49.567  0.00  0.00    +0.000 A 
ATOM      3  C   UNL     1     -11.656  55.655  47.484  0.00  0.00    +0.000 A 
ATOM      4  O   UNL     1     -10.250  55.781  50.746  0.00  0.00    +0.000 OA
ATOM      5  N   UNL     1      -9.566  54.459  48.985  0.00  0.00    +0.000 N 
ATOM      6  C   UNL     1     -10.791  54.636  46.874  0.00  0.00    +0.000 A 
ATOM      7  C   UNL     1      -9.766  54.041  47.631  0.00  0.00    +0.000 A 
ATOM      8  C   UNL     1     -11.011  54.221  45.548  0.00  0.00    +0.000 A 
ATOM      9  C   UNL     1      -8.989  53.034  47.031  0.00  0.00    +0.000 A 
ATOM     10  C   UNL     1     -10.241  53.213  44.975  0.00  0.00    +0.000 A 
ATOM     11  C   UNL     1      -9.234  52.617  45.719  0.00  0.00    +0.000 A 
ENDROOT
BRANCH   1  17
ATOM     12  S   UNL     1     -13.561  59.296  49.474  0.00  0.00    +0.000 S 
ATOM     13  O   UNL     1     -14.702  59.413  48.591  0.00  0.00    +0.000 OA
ATOM     14  O   UNL     1     -12.757  60.462  49.795  0.00  0.00    +0.000 OA
ATOM     15  N   UNL     1     -12.576  58.167  48.859  0.00  0.00    +0.000 N 
ATOM     16  C   UNL     1     -14.188  58.706  51.003  0.00  0.00    +0.000 A 
ATOM     17  C   UNL     1     -12.442  57.003  49.426  0.00  0.00    +0.000 C 
ATOM     18  C   UNL     1     -13.880  57.407  51.373  0.00  0.00    +0.000 A 
ATOM     19  C   UNL     1     -14.962  59.546  51.809  0.00  0.00    +0.000 A 
ATOM     20  N   UNL     1     -13.108  56.582  50.557  0.00  0.00    +0.000 N 
ATOM     21  C   UNL     1     -14.435  56.913  52.559  0.00  0.00    +0.000 A 
ATOM     22  C   UNL     1     -15.474  59.054  53.006  0.00  0.00    +0.000 A 
ATOM     23  C   UNL     1     -15.219  57.735  53.376  0.00  0.00    +0.000 A 
ATOM     24  H   UNL     1     -12.068  58.365  48.040  0.00  0.00    +0.000 HD
ATOM     25  H   UNL     1     -13.032  55.633  50.807  0.00  0.00    +0.000 HD
ENDBRANCH   1  17
BRANCH   3  26
ATOM     26  O   UNL     1     -12.675  56.117  46.667  0.00  0.00    +0.000 OA
ATOM     27  H   UNL     1     -12.939  57.015  46.709  0.00  0.00    +0.000 HD
ENDBRANCH   3  26
BRANCH   5  28
ATOM     28  C   UNL     1      -8.590  53.793  49.851  0.00  0.00    +0.000 C 
BRANCH  28  29
ATOM     29  C   UNL     1      -9.210  52.759  50.732  0.00  0.00    +0.000 A 
ATOM     30  C   UNL     1     -10.090  51.762  50.353  0.00  0.00    +0.000 A 
ATOM     31  C   UNL     1      -9.118  52.646  52.151  0.00  0.00    +0.000 A 
ATOM     32  O   UNL     1     -10.540  51.070  51.430  0.00  0.00    +0.000 OA
ATOM     33  C   UNL     1      -9.951  51.616  52.522  0.00  0.00    +0.000 A 
ENDBRANCH  28  29
ENDBRANCH   5  28
TORSDOF 4
ENDMDL
MODEL 7
REMARK VINA RESULT:      -8.0      3.951      5.785
REMARK  Name = 338084
REMARK  4 active torsions:
REMARK  status: ('A' for Active; 'I' for Inactive)
REMARK    1  A    between atoms: C_6  and  C_10
REMARK    2  A    between atoms: C_14  and  O_18
REMARK    3  A    between atoms: N_17  and  C_21
REMARK    4  A    between atoms: C_21  and  C_24
REMARK                            x       y       z     vdW  Elec       q    Type
REMARK                         _______ _______ _______ _____ _____    ______ ____
ROOT
ATOM      1  C   UNL     1     -11.413  55.742  49.005  0.00  0.00    +0.000 A 
ATOM      2  C   UNL     1     -11.581  55.268  47.597  0.00  0.00    +0.000 A 
ATOM      3  C   UNL     1     -10.353  55.334  49.726  0.00  0.00    +0.000 A 
ATOM      4  O   UNL     1     -12.550  55.686  46.954  0.00  0.00    +0.000 OA
ATOM      5  N   UNL     1     -10.621  54.428  47.050  0.00  0.00    +0.000 N 
ATOM      6  C   UNL     1      -9.349  54.435  49.140  0.00  0.00    +0.000 A 
ATOM      7  C   UNL     1      -9.485  54.002  47.809  0.00  0.00    +0.000 A 
ATOM      8  C   UNL     1      -8.227  54.039  49.892  0.00  0.00    +0.000 A 
ATOM      9  C   UNL     1      -8.480  53.184  47.265  0.00  0.00    +0.000 A 
ATOM     10  C   UNL     1      -7.235  53.240  49.332  0.00  0.00    +0.000 A 
ATOM     11  C   UNL     1      -7.360  52.816  48.017  0.00  0.00    +0.000 A 
ENDROOT
BRANCH   1  17
ATOM     12  S   UNL     1     -13.476  59.067  49.422  0.00  0.00    +0.000 S 
ATOM     13  O   UNL     1     -14.591  59.132  48.503  0.00  0.00    +0.000 OA
ATOM     14  O   UNL     1     -12.665  60.245  49.677  0.00  0.00    +0.000 OA
ATOM     15  N   UNL     1     -12.490  57.885  48.918  0.00  0.00    +0.000 N 
ATOM     16  C   UNL     1     -14.149  58.599  50.973  0.00  0.00    +0.000 A 
ATOM     17  C   UNL     1     -12.386  56.765  49.572  0.00  0.00    +0.000 C 
ATOM     18  C   UNL     1     -13.869  57.328  51.445  0.00  0.00    +0.000 A 
ATOM     19  C   UNL     1     -14.933  59.505  51.694  0.00  0.00    +0.000 A 
ATOM     20  N   UNL     1     -13.086  56.436  50.713  0.00  0.00    +0.000 N 
ATOM     21  C   UNL     1     -14.460  56.928  52.648  0.00  0.00    +0.000 A 
ATOM     22  C   UNL     1     -15.482  59.109  52.910  0.00  0.00    +0.000 A 
ATOM     23  C   UNL     1     -15.254  57.817  53.382  0.00  0.00    +0.000 A 
ATOM     24  H   UNL     1     -11.958  58.017  48.100  0.00  0.00    +0.000 HD
ATOM     25  H   UNL     1     -13.029  55.508  51.034  0.00  0.00    +0.000 HD
ENDBRANCH   1  17
BRANCH   3  26
ATOM     26  O   UNL     1     -10.077  55.750  51.017  0.00  0.00    +0.000 OA
ATOM     27  H   UNL     1     -10.408  55.265  51.747  0.00  0.00    +0.000 HD
ENDBRANCH   3  26
BRANCH   5  28
ATOM     28  C   UNL     1     -10.752  54.101  45.628  0.00  0.00    +0.000 C 
BRANCH  28  29
ATOM     29  C   UNL     1     -11.291  52.727  45.398  0.00  0.00    +0.000 A 
ATOM     30  C   UNL     1     -12.245  52.071  46.154  0.00  0.00    +0.000 A 
ATOM     31  C   UNL     1     -10.866  51.768  44.431  0.00  0.00    +0.000 A 
ATOM     32  O   UNL     1     -12.416  50.795  45.726  0.00  0.00    +0.000 OA
ATOM     33  C   UNL     1     -11.571  50.613  44.681  0.00  0.00    +0.000 A 
ENDBRANCH  28  29
ENDBRANCH   5  28
TORSDOF 4
ENDMDL
MODEL 8
REMARK VINA RESULT:      -8.0      3.412      7.561
REMARK  Name = 338084
REMARK  4 active torsions:
REMARK  status: ('A' for Active; 'I' for Inactive)
REMARK    1  A    between atoms: C_6  and  C_10
REMARK    2  A    between atoms: C_14  and  O_18
REMARK    3  A    between atoms: N_17  and  C_21
REMARK    4  A    between atoms: C_21  and  C_24
REMARK                            x       y       z     vdW  Elec       q    Type
REMARK                         _______ _______ _______ _____ _____    ______ ____
ROOT
ATOM      1  C   UNL     1     -10.429  54.807  50.371  0.00  0.00    +0.000 A 
ATOM      2  C   UNL     1     -10.052  54.663  48.931  0.00  0.00    +0.000 A 
ATOM      3  C   UNL     1     -11.521  55.517  50.708  0.00  0.00    +0.000 A 
ATOM      4  O   UNL     1      -9.060  53.979  48.656  0.00  0.00    +0.000 OA
ATOM      5  N   UNL     1     -10.856  55.248  47.962  0.00  0.00    +0.000 N 
ATOM      6  C   UNL     1     -12.358  56.142  49.675  0.00  0.00    +0.000 A 
ATOM      7  C   UNL     1     -12.025  55.992  48.316  0.00  0.00    +0.000 A 
ATOM      8  C   UNL     1     -13.516  56.855  50.036  0.00  0.00    +0.000 A 
ATOM      9  C   UNL     1     -12.876  56.562  47.352  0.00  0.00    +0.000 A 
ATOM     10  C   UNL     1     -14.353  57.401  49.067  0.00  0.00    +0.000 A 
ATOM     11  C   UNL     1     -14.035  57.249  47.726  0.00  0.00    +0.000 A 
ENDROOT
BRANCH   1  17
ATOM     12  S   UNL     1      -9.500  52.179  53.148  0.00  0.00    +0.000 S 
ATOM     13  O   UNL     1      -9.161  50.890  52.584  0.00  0.00    +0.000 OA
ATOM     14  O   UNL     1     -10.315  52.264  54.348  0.00  0.00    +0.000 OA
ATOM     15  N   UNL     1     -10.227  53.048  51.991  0.00  0.00    +0.000 N 
ATOM     16  C   UNL     1      -7.976  52.953  53.544  0.00  0.00    +0.000 A 
ATOM     17  C   UNL     1      -9.633  54.062  51.432  0.00  0.00    +0.000 C 
ATOM     18  C   UNL     1      -7.580  54.037  52.777  0.00  0.00    +0.000 A 
ATOM     19  C   UNL     1      -7.209  52.477  54.612  0.00  0.00    +0.000 A 
ATOM     20  N   UNL     1      -8.356  54.498  51.715  0.00  0.00    +0.000 N 
ATOM     21  C   UNL     1      -6.334  54.612  53.046  0.00  0.00    +0.000 A 
ATOM     22  C   UNL     1      -5.989  53.085  54.895  0.00  0.00    +0.000 A 
ATOM     23  C   UNL     1      -5.548  54.146  54.106  0.00  0.00    +0.000 A 
ATOM     24  H   UNL     1     -11.136  52.804  51.705  0.00  0.00    +0.000 HD
ATOM     25  H   UNL     1      -7.965  55.184  51.127  0.00  0.00    +0.000 HD
ENDBRANCH   1  17
BRANCH   3  26
ATOM     26  O   UNL     1     -11.986  55.671  52.004  0.00  0.00    +0.000 OA
ATOM     27  H   UNL     1     -11.524  55.277  52.717  0.00  0.00    +0.000 HD
ENDBRANCH   3  26
BRANCH   5  28
ATOM     28  C   UNL     1     -10.528  54.965  46.563  0.00  0.00    +0.000 C 
BRANCH  28  29
ATOM     29  C   UNL     1     -11.159  53.707  46.064  0.00  0.00    +0.000 A 
ATOM     30  C   UNL     1     -11.277  53.301  44.748  0.00  0.00    +0.000 A 
ATOM     31  C   UNL     1     -11.863  52.720  46.817  0.00  0.00    +0.000 A 
ATOM     32  O   UNL     1     -12.004  52.159  44.651  0.00  0.00    +0.000 OA
ATOM     33  C   UNL     1     -12.363  51.813  45.911  0.00  0.00    +0.000 A 
ENDBRANCH  28  29
ENDBRANCH   5  28
TORSDOF 4
ENDMDL
MODEL 9
REMARK VINA RESULT:      -7.9      4.712      7.688
REMARK  Name = 338084
REMARK  4 active torsions:
REMARK  status: ('A' for Active; 'I' for Inactive)
REMARK    1  A    between atoms: C_6  and  C_10
REMARK    2  A    between atoms: C_14  and  O_18
REMARK    3  A    between atoms: N_17  and  C_21
REMARK    4  A    between atoms: C_21  and  C_24
REMARK                            x       y       z     vdW  Elec       q    Type
REMARK                         _______ _______ _______ _____ _____    ______ ____
ROOT
ATOM      1  C   UNL     1     -11.409  54.260  47.911  0.00  0.00    +0.000 A 
ATOM      2  C   UNL     1     -11.469  53.494  49.195  0.00  0.00    +0.000 A 
ATOM      3  C   UNL     1     -12.112  55.399  47.780  0.00  0.00    +0.000 A 
ATOM      4  O   UNL     1     -10.787  52.468  49.292  0.00  0.00    +0.000 OA
ATOM      5  N   UNL     1     -12.237  53.990  50.240  0.00  0.00    +0.000 N 
ATOM      6  C   UNL     1     -12.931  55.908  48.888  0.00  0.00    +0.000 A 
ATOM      7  C   UNL     1     -12.976  55.208  50.107  0.00  0.00    +0.000 A 
ATOM      8  C   UNL     1     -13.637  57.117  48.751  0.00  0.00    +0.000 A 
ATOM      9  C   UNL     1     -13.729  55.750  51.163  0.00  0.00    +0.000 A 
ATOM     10  C   UNL     1     -14.367  57.646  49.812  0.00  0.00    +0.000 A 
ATOM     11  C   UNL     1     -14.409  56.964  51.019  0.00  0.00    +0.000 A 
ENDROOT
BRANCH   1  17
ATOM     12  S   UNL     1      -8.182  53.925  45.684  0.00  0.00    +0.000 S 
ATOM     13  O   UNL     1      -7.169  53.107  46.316  0.00  0.00    +0.000 OA
ATOM     14  O   UNL     1      -7.812  55.142  44.983  0.00  0.00    +0.000 OA
ATOM     15  N   UNL     1      -9.275  54.316  46.813  0.00  0.00    +0.000 N 
ATOM     16  C   UNL     1      -8.962  52.900  44.493  0.00  0.00    +0.000 A 
ATOM     17  C   UNL     1     -10.469  53.798  46.807  0.00  0.00    +0.000 C 
ATOM     18  C   UNL     1     -10.263  52.494  44.739  0.00  0.00    +0.000 A 
ATOM     19  C   UNL     1      -8.272  52.529  43.335  0.00  0.00    +0.000 A 
ATOM     20  N   UNL     1     -10.936  52.872  45.899  0.00  0.00    +0.000 N 
ATOM     21  C   UNL     1     -10.863  51.621  43.825  0.00  0.00    +0.000 A 
ATOM     22  C   UNL     1      -8.896  51.693  42.413  0.00  0.00    +0.000 A 
ATOM     23  C   UNL     1     -10.187  51.231  42.663  0.00  0.00    +0.000 A 
ATOM     24  H   UNL     1      -9.032  54.958  47.519  0.00  0.00    +0.000 HD
ATOM     25  H   UNL     1     -11.806  52.449  46.083  0.00  0.00    +0.000 HD
ENDBRANCH   1  17
BRANCH   3  26
ATOM     26  O   UNL     1     -12.088  56.209  46.656  0.00  0.00    +0.000 OA
ATOM     27  H   UNL     1     -11.326  56.231  46.111  0.00  0.00    +0.000 HD
ENDBRANCH   3  26
BRANCH   5  28
ATOM     28  C   UNL     1     -12.157  53.283  51.520  0.00  0.00    +0.000 C 
BRANCH  28  29
ATOM     29  C   UNL     1     -10.942  53.650  52.308  0.00  0.00    +0.000 A 
ATOM     30  C   UNL     1     -10.053  52.782  52.916  0.00  0.00    +0.000 A 
ATOM     31  C   UNL     1     -10.504  54.952  52.691  0.00  0.00    +0.000 A 
ATOM     32  O   UNL     1      -9.127  53.459  53.640  0.00  0.00    +0.000 OA
ATOM     33  C   UNL     1      -9.409  54.779  53.506  0.00  0.00    +0.000 A 
ENDBRANCH  28  29
ENDBRANCH   5  28
TORSDOF 4
ENDMDL
