MODEL 1
REMARK VINA RESULT:      -8.6      0.000      0.000
REMARK  Name = 338168
REMARK  5 active torsions:
REMARK  status: ('A' for Active; 'I' for Inactive)
REMARK    1  A    between atoms: C_6  and  C_10
REMARK    2  A    between atoms: C_14  and  O_18
REMARK    3  A    between atoms: N_17  and  C_21
REMARK    4  A    between atoms: C_21  and  C_24
REMARK    5  A    between atoms: C_24  and  C_27
REMARK                            x       y       z     vdW  Elec       q    Type
REMARK                         _______ _______ _______ _____ _____    ______ ____
ROOT
ATOM      1  C   UNL     1      -9.964  54.515  52.345  0.00  0.00    +0.000 A 
ATOM      2  C   UNL     1      -8.576  55.030  52.241  0.00  0.00    +0.000 A 
ATOM      3  C   UNL     1     -10.225  53.382  53.016  0.00  0.00    +0.000 A 
ATOM      4  O   UNL     1      -8.390  56.000  51.505  0.00  0.00    +0.000 OA
ATOM      5  N   UNL     1      -7.578  54.430  53.007  0.00  0.00    +0.000 N 
ATOM      6  C   UNL     1      -9.150  52.673  53.715  0.00  0.00    +0.000 A 
ATOM      7  C   UNL     1      -7.847  53.210  53.726  0.00  0.00    +0.000 A 
ATOM      8  C   UNL     1      -9.439  51.495  54.427  0.00  0.00    +0.000 A 
ATOM      9  C   UNL     1      -6.860  52.534  54.465  0.00  0.00    +0.000 A 
ATOM     10  C   UNL     1      -8.456  50.876  55.176  0.00  0.00    +0.000 A 
ATOM     11  C   UNL     1      -7.170  51.389  55.204  0.00  0.00    +0.000 A 
ATOM     12  F   UNL     1      -8.752  49.787  55.893  0.00  0.00    +0.000 F 
ENDROOT
BRANCH   1  18
ATOM     13  S   UNL     1     -12.347  55.748  49.423  0.00  0.00    +0.000 S 
ATOM     14  O   UNL     1     -13.002  54.493  49.151  0.00  0.00    +0.000 OA
ATOM     15  O   UNL     1     -11.931  56.647  48.366  0.00  0.00    +0.000 OA
ATOM     16  N   UNL     1     -11.015  55.453  50.350  0.00  0.00    +0.000 N 
ATOM     17  C   UNL     1     -13.344  56.645  50.535  0.00  0.00    +0.000 A 
ATOM     18  C   UNL     1     -11.095  55.255  51.725  0.00  0.00    +0.000 C 
ATOM     19  C   UNL     1     -13.069  56.518  51.893  0.00  0.00    +0.000 A 
ATOM     20  C   UNL     1     -14.353  57.479  50.055  0.00  0.00    +0.000 A 
ATOM     21  N   UNL     1     -12.083  55.688  52.442  0.00  0.00    +0.000 N 
ATOM     22  C   UNL     1     -13.823  57.283  52.787  0.00  0.00    +0.000 A 
ATOM     23  C   UNL     1     -15.110  58.212  50.963  0.00  0.00    +0.000 A 
ATOM     24  C   UNL     1     -14.839  58.123  52.328  0.00  0.00    +0.000 A 
ATOM     25  H   UNL     1     -10.133  55.416  49.916  0.00  0.00    +0.000 HD
ATOM     26  H   UNL     1     -12.143  55.430  53.390  0.00  0.00    +0.000 HD
ENDBRANCH   1  18
BRANCH   3  27
ATOM     27  O   UNL     1     -11.485  52.817  53.151  0.00  0.00    +0.000 OA
ATOM     28  H   UNL     1     -11.946  52.890  53.963  0.00  0.00    +0.000 HD
ENDBRANCH   3  27
BRANCH   5  29
ATOM     29  C   UNL     1      -6.198  54.967  52.949  0.00  0.00    +0.000 C 
BRANCH  29  30
ATOM     30  C   UNL     1      -5.203  54.210  52.052  0.00  0.00    +0.000 C 
BRANCH  30  31
ATOM     31  C   UNL     1      -5.341  54.529  50.593  0.00  0.00    +0.000 C 
ATOM     32  C   UNL     1      -6.160  53.713  49.630  0.00  0.00    +0.000 C 
ATOM     33  C   UNL     1      -4.661  53.618  49.604  0.00  0.00    +0.000 C 
ENDBRANCH  30  31
ENDBRANCH  29  30
ENDBRANCH   5  29
TORSDOF 5
ENDMDL
MODEL 2
REMARK VINA RESULT:      -8.3      3.846      5.448
REMARK  Name = 338168
REMARK  5 active torsions:
REMARK  status: ('A' for Active; 'I' for Inactive)
REMARK    1  A    between atoms: C_6  and  C_10
REMARK    2  A    between atoms: C_14  and  O_18
REMARK    3  A    between atoms: N_17  and  C_21
REMARK    4  A    between atoms: C_21  and  C_24
REMARK    5  A    between atoms: C_24  and  C_27
REMARK                            x       y       z     vdW  Elec       q    Type
REMARK                         _______ _______ _______ _____ _____    ______ ____
ROOT
ATOM      1  C   UNL     1     -11.508  55.819  48.968  0.00  0.00    +0.000 A 
ATOM      2  C   UNL     1     -10.445  55.110  49.723  0.00  0.00    +0.000 A 
ATOM      3  C   UNL     1     -11.690  55.583  47.659  0.00  0.00    +0.000 A 
ATOM      4  O   UNL     1     -10.249  55.466  50.886  0.00  0.00    +0.000 OA
ATOM      5  N   UNL     1      -9.767  54.061  49.105  0.00  0.00    +0.000 N 
ATOM      6  C   UNL     1     -10.884  54.571  46.971  0.00  0.00    +0.000 A 
ATOM      7  C   UNL     1      -9.951  53.805  47.698  0.00  0.00    +0.000 A 
ATOM      8  C   UNL     1     -11.094  54.323  45.603  0.00  0.00    +0.000 A 
ATOM      9  C   UNL     1      -9.246  52.798  47.014  0.00  0.00    +0.000 A 
ATOM     10  C   UNL     1     -10.415  53.300  44.968  0.00  0.00    +0.000 A 
ATOM     11  C   UNL     1      -9.496  52.532  45.665  0.00  0.00    +0.000 A 
ATOM     12  F   UNL     1     -10.660  53.036  43.681  0.00  0.00    +0.000 F 
ENDROOT
BRANCH   1  18
ATOM     13  S   UNL     1     -13.526  59.199  49.455  0.00  0.00    +0.000 S 
ATOM     14  O   UNL     1     -14.506  59.003  48.418  0.00  0.00    +0.000 OA
ATOM     15  O   UNL     1     -12.902  60.484  49.695  0.00  0.00    +0.000 OA
ATOM     16  N   UNL     1     -12.306  58.111  49.235  0.00  0.00    +0.000 N 
ATOM     17  C   UNL     1     -14.212  58.642  50.957  0.00  0.00    +0.000 A 
ATOM     18  C   UNL     1     -12.405  56.787  49.651  0.00  0.00    +0.000 C 
ATOM     19  C   UNL     1     -13.951  57.328  51.335  0.00  0.00    +0.000 A 
ATOM     20  C   UNL     1     -14.963  59.510  51.749  0.00  0.00    +0.000 A 
ATOM     21  N   UNL     1     -13.220  56.401  50.582  0.00  0.00    +0.000 N 
ATOM     22  C   UNL     1     -14.445  56.894  52.568  0.00  0.00    +0.000 A 
ATOM     23  C   UNL     1     -15.468  59.050  52.960  0.00  0.00    +0.000 A 
ATOM     24  C   UNL     1     -15.201  57.745  53.376  0.00  0.00    +0.000 A 
ATOM     25  H   UNL     1     -11.478  58.409  48.795  0.00  0.00    +0.000 HD
ATOM     26  H   UNL     1     -13.327  55.440  50.764  0.00  0.00    +0.000 HD
ENDBRANCH   1  18
BRANCH   3  27
ATOM     27  O   UNL     1     -12.644  56.209  46.869  0.00  0.00    +0.000 OA
ATOM     28  H   UNL     1     -13.018  57.022  47.144  0.00  0.00    +0.000 HD
ENDBRANCH   3  27
BRANCH   5  29
ATOM     29  C   UNL     1      -8.737  53.314  49.865  0.00  0.00    +0.000 C 
BRANCH  29  30
ATOM     30  C   UNL     1      -7.497  54.110  50.308  0.00  0.00    +0.000 C 
BRANCH  30  31
ATOM     31  C   UNL     1      -6.826  54.853  49.191  0.00  0.00    +0.000 C 
ATOM     32  C   UNL     1      -5.915  54.207  48.184  0.00  0.00    +0.000 C 
ATOM     33  C   UNL     1      -5.335  55.058  49.277  0.00  0.00    +0.000 C 
ENDBRANCH  30  31
ENDBRANCH  29  30
ENDBRANCH   5  29
TORSDOF 5
ENDMDL
MODEL 3
REMARK VINA RESULT:      -8.2      3.826      7.386
REMARK  Name = 338168
REMARK  5 active torsions:
REMARK  status: ('A' for Active; 'I' for Inactive)
REMARK    1  A    between atoms: C_6  and  C_10
REMARK    2  A    between atoms: C_14  and  O_18
REMARK    3  A    between atoms: N_17  and  C_21
REMARK    4  A    between atoms: C_21  and  C_24
REMARK    5  A    between atoms: C_24  and  C_27
REMARK                            x       y       z     vdW  Elec       q    Type
REMARK                         _______ _______ _______ _____ _____    ______ ____
ROOT
ATOM      1  C   UNL     1     -10.142  55.113  50.826  0.00  0.00    +0.000 A 
ATOM      2  C   UNL     1      -9.755  55.194  49.395  0.00  0.00    +0.000 A 
ATOM      3  C   UNL     1     -11.339  55.557  51.237  0.00  0.00    +0.000 A 
ATOM      4  O   UNL     1      -8.596  54.888  49.108  0.00  0.00    +0.000 OA
ATOM      5  N   UNL     1     -10.720  55.558  48.458  0.00  0.00    +0.000 N 
ATOM      6  C   UNL     1     -12.311  56.068  50.266  0.00  0.00    +0.000 A 
ATOM      7  C   UNL     1     -12.007  56.043  48.890  0.00  0.00    +0.000 A 
ATOM      8  C   UNL     1     -13.569  56.516  50.707  0.00  0.00    +0.000 A 
ATOM      9  C   UNL     1     -12.993  56.479  47.987  0.00  0.00    +0.000 A 
ATOM     10  C   UNL     1     -14.531  56.901  49.793  0.00  0.00    +0.000 A 
ATOM     11  C   UNL     1     -14.255  56.881  48.436  0.00  0.00    +0.000 A 
ATOM     12  F   UNL     1     -15.742  57.276  50.218  0.00  0.00    +0.000 F 
ENDROOT
BRANCH   1  18
ATOM     13  S   UNL     1      -6.920  54.888  53.130  0.00  0.00    +0.000 S 
ATOM     14  O   UNL     1      -7.249  55.951  54.045  0.00  0.00    +0.000 OA
ATOM     15  O   UNL     1      -5.578  54.692  52.624  0.00  0.00    +0.000 OA
ATOM     16  N   UNL     1      -7.912  55.000  51.818  0.00  0.00    +0.000 N 
ATOM     17  C   UNL     1      -7.457  53.386  53.834  0.00  0.00    +0.000 A 
ATOM     18  C   UNL     1      -9.218  54.519  51.828  0.00  0.00    +0.000 C 
ATOM     19  C   UNL     1      -8.723  52.928  53.485  0.00  0.00    +0.000 A 
ATOM     20  C   UNL     1      -6.615  52.673  54.687  0.00  0.00    +0.000 A 
ATOM     21  N   UNL     1      -9.623  53.601  52.649  0.00  0.00    +0.000 N 
ATOM     22  C   UNL     1      -9.135  51.694  53.995  0.00  0.00    +0.000 A 
ATOM     23  C   UNL     1      -7.054  51.459  55.206  0.00  0.00    +0.000 A 
ATOM     24  C   UNL     1      -8.309  50.964  54.853  0.00  0.00    +0.000 A 
ATOM     25  H   UNL     1      -7.570  55.423  50.998  0.00  0.00    +0.000 HD
ATOM     26  H   UNL     1     -10.579  53.372  52.685  0.00  0.00    +0.000 HD
ENDBRANCH   1  18
BRANCH   3  27
ATOM     27  O   UNL     1     -11.780  55.538  52.552  0.00  0.00    +0.000 OA
ATOM     28  H   UNL     1     -12.418  54.908  52.823  0.00  0.00    +0.000 HD
ENDBRANCH   3  27
BRANCH   5  29
ATOM     29  C   UNL     1     -10.358  55.595  47.021  0.00  0.00    +0.000 C 
BRANCH  29  30
ATOM     30  C   UNL     1     -10.223  54.237  46.312  0.00  0.00    +0.000 C 
BRANCH  30  31
ATOM     31  C   UNL     1     -11.391  53.895  45.435  0.00  0.00    +0.000 C 
ATOM     32  C   UNL     1     -12.065  52.550  45.424  0.00  0.00    +0.000 C 
ATOM     33  C   UNL     1     -11.159  52.941  44.292  0.00  0.00    +0.000 C 
ENDBRANCH  30  31
ENDBRANCH  29  30
ENDBRANCH   5  29
TORSDOF 5
ENDMDL
MODEL 4
REMARK VINA RESULT:      -8.1      3.678      7.258
REMARK  Name = 338168
REMARK  5 active torsions:
REMARK  status: ('A' for Active; 'I' for Inactive)
REMARK    1  A    between atoms: C_6  and  C_10
REMARK    2  A    between atoms: C_14  and  O_18
REMARK    3  A    between atoms: N_17  and  C_21
REMARK    4  A    between atoms: C_21  and  C_24
REMARK    5  A    between atoms: C_24  and  C_27
REMARK                            x       y       z     vdW  Elec       q    Type
REMARK                         _______ _______ _______ _____ _____    ______ ____
ROOT
ATOM      1  C   UNL     1     -10.247  55.354  50.545  0.00  0.00    +0.000 A 
ATOM      2  C   UNL     1     -10.380  55.583  49.085  0.00  0.00    +0.000 A 
ATOM      3  C   UNL     1     -11.278  55.588  51.372  0.00  0.00    +0.000 A 
ATOM      4  O   UNL     1      -9.359  55.473  48.403  0.00  0.00    +0.000 OA
ATOM      5  N   UNL     1     -11.641  55.860  48.561  0.00  0.00    +0.000 N 
ATOM      6  C   UNL     1     -12.575  56.009  50.833  0.00  0.00    +0.000 A 
ATOM      7  C   UNL     1     -12.754  56.118  49.440  0.00  0.00    +0.000 A 
ATOM      8  C   UNL     1     -13.653  56.236  51.708  0.00  0.00    +0.000 A 
ATOM      9  C   UNL     1     -14.032  56.459  48.962  0.00  0.00    +0.000 A 
ATOM     10  C   UNL     1     -14.906  56.531  51.206  0.00  0.00    +0.000 A 
ATOM     11  C   UNL     1     -15.106  56.639  49.839  0.00  0.00    +0.000 A 
ATOM     12  F   UNL     1     -15.937  56.693  52.042  0.00  0.00    +0.000 F 
ENDROOT
BRANCH   1  18
ATOM     13  S   UNL     1      -6.820  53.356  50.606  0.00  0.00    +0.000 S 
ATOM     14  O   UNL     1      -6.086  54.182  49.682  0.00  0.00    +0.000 OA
ATOM     15  O   UNL     1      -6.728  51.911  50.591  0.00  0.00    +0.000 OA
ATOM     16  N   UNL     1      -8.422  53.732  50.487  0.00  0.00    +0.000 N 
ATOM     17  C   UNL     1      -6.461  53.904  52.221  0.00  0.00    +0.000 A 
ATOM     18  C   UNL     1      -8.974  54.842  51.119  0.00  0.00    +0.000 C 
ATOM     19  C   UNL     1      -7.324  54.836  52.791  0.00  0.00    +0.000 A 
ATOM     20  C   UNL     1      -5.363  53.387  52.908  0.00  0.00    +0.000 A 
ATOM     21  N   UNL     1      -8.432  55.406  52.153  0.00  0.00    +0.000 N 
ATOM     22  C   UNL     1      -7.078  55.232  54.108  0.00  0.00    +0.000 A 
ATOM     23  C   UNL     1      -5.121  53.815  54.209  0.00  0.00    +0.000 A 
ATOM     24  C   UNL     1      -5.984  54.729  54.814  0.00  0.00    +0.000 A 
ATOM     25  H   UNL     1      -9.007  53.152  49.950  0.00  0.00    +0.000 HD
ATOM     26  H   UNL     1      -8.807  56.249  52.496  0.00  0.00    +0.000 HD
ENDBRANCH   1  18
BRANCH   3  27
ATOM     27  O   UNL     1     -11.242  55.419  52.748  0.00  0.00    +0.000 OA
ATOM     28  H   UNL     1     -12.031  55.485  53.248  0.00  0.00    +0.000 HD
ENDBRANCH   3  27
BRANCH   5  29
ATOM     29  C   UNL     1     -11.795  56.042  47.098  0.00  0.00    +0.000 C 
BRANCH  29  30
ATOM     30  C   UNL     1     -12.099  54.777  46.276  0.00  0.00    +0.000 C 
BRANCH  30  31
ATOM     31  C   UNL     1     -10.898  54.203  45.584  0.00  0.00    +0.000 C 
ATOM     32  C   UNL     1     -10.971  53.149  44.514  0.00  0.00    +0.000 C 
ATOM     33  C   UNL     1     -10.518  52.779  45.897  0.00  0.00    +0.000 C 
ENDBRANCH  30  31
ENDBRANCH  29  30
ENDBRANCH   5  29
TORSDOF 5
ENDMDL
MODEL 5
REMARK VINA RESULT:      -8.0      3.186      4.360
REMARK  Name = 338168
REMARK  5 active torsions:
REMARK  status: ('A' for Active; 'I' for Inactive)
REMARK    1  A    between atoms: C_6  and  C_10
REMARK    2  A    between atoms: C_14  and  O_18
REMARK    3  A    between atoms: N_17  and  C_21
REMARK    4  A    between atoms: C_21  and  C_24
REMARK    5  A    between atoms: C_24  and  C_27
REMARK                            x       y       z     vdW  Elec       q    Type
REMARK                         _______ _______ _______ _____ _____    ______ ____
ROOT
ATOM      1  C   UNL     1     -12.169  54.422  50.235  0.00  0.00    +0.000 A 
ATOM      2  C   UNL     1     -12.029  53.916  48.847  0.00  0.00    +0.000 A 
ATOM      3  C   UNL     1     -11.596  53.774  51.261  0.00  0.00    +0.000 A 
ATOM      4  O   UNL     1     -12.684  54.485  47.972  0.00  0.00    +0.000 OA
ATOM      5  N   UNL     1     -11.140  52.872  48.599  0.00  0.00    +0.000 N 
ATOM      6  C   UNL     1     -10.766  52.591  51.016  0.00  0.00    +0.000 A 
ATOM      7  C   UNL     1     -10.524  52.165  49.694  0.00  0.00    +0.000 A 
ATOM      8  C   UNL     1     -10.158  51.929  52.098  0.00  0.00    +0.000 A 
ATOM      9  C   UNL     1      -9.668  51.067  49.500  0.00  0.00    +0.000 A 
ATOM     10  C   UNL     1      -9.290  50.878  51.872  0.00  0.00    +0.000 A 
ATOM     11  C   UNL     1      -9.036  50.445  50.581  0.00  0.00    +0.000 A 
ATOM     12  F   UNL     1      -8.676  50.288  52.903  0.00  0.00    +0.000 F 
ENDROOT
BRANCH   1  18
ATOM     13  S   UNL     1     -14.424  56.926  52.330  0.00  0.00    +0.000 S 
ATOM     14  O   UNL     1     -13.457  57.274  53.340  0.00  0.00    +0.000 OA
ATOM     15  O   UNL     1     -15.817  56.687  52.644  0.00  0.00    +0.000 OA
ATOM     16  N   UNL     1     -13.882  55.592  51.524  0.00  0.00    +0.000 N 
ATOM     17  C   UNL     1     -14.351  58.133  51.075  0.00  0.00    +0.000 A 
ATOM     18  C   UNL     1     -12.929  55.669  50.513  0.00  0.00    +0.000 C 
ATOM     19  C   UNL     1     -13.524  57.880  49.985  0.00  0.00    +0.000 A 
ATOM     20  C   UNL     1     -15.129  59.287  51.169  0.00  0.00    +0.000 A 
ATOM     21  N   UNL     1     -12.707  56.752  49.836  0.00  0.00    +0.000 N 
ATOM     22  C   UNL     1     -13.510  58.814  48.946  0.00  0.00    +0.000 A 
ATOM     23  C   UNL     1     -15.079  60.218  50.136  0.00  0.00    +0.000 A 
ATOM     24  C   UNL     1     -14.279  59.977  49.019  0.00  0.00    +0.000 A 
ATOM     25  H   UNL     1     -14.245  54.711  51.767  0.00  0.00    +0.000 HD
ATOM     26  H   UNL     1     -11.952  56.783  49.206  0.00  0.00    +0.000 HD
ENDBRANCH   1  18
BRANCH   3  27
ATOM     27  O   UNL     1     -11.687  54.161  52.589  0.00  0.00    +0.000 OA
ATOM     28  H   UNL     1     -12.031  53.569  53.227  0.00  0.00    +0.000 HD
ENDBRANCH   3  27
BRANCH   5  29
ATOM     29  C   UNL     1     -10.955  52.391  47.210  0.00  0.00    +0.000 C 
BRANCH  29  30
ATOM     30  C   UNL     1     -10.227  53.342  46.244  0.00  0.00    +0.000 C 
BRANCH  30  31
ATOM     31  C   UNL     1      -8.957  53.912  46.802  0.00  0.00    +0.000 C 
ATOM     32  C   UNL     1      -8.819  55.327  47.295  0.00  0.00    +0.000 C 
ATOM     33  C   UNL     1      -8.220  54.935  45.975  0.00  0.00    +0.000 C 
ENDBRANCH  30  31
ENDBRANCH  29  30
ENDBRANCH   5  29
TORSDOF 5
ENDMDL
MODEL 6
REMARK VINA RESULT:      -7.9      4.045      5.567
REMARK  Name = 338168
REMARK  5 active torsions:
REMARK  status: ('A' for Active; 'I' for Inactive)
REMARK    1  A    between atoms: C_6  and  C_10
REMARK    2  A    between atoms: C_14  and  O_18
REMARK    3  A    between atoms: N_17  and  C_21
REMARK    4  A    between atoms: C_21  and  C_24
REMARK    5  A    between atoms: C_24  and  C_27
REMARK                            x       y       z     vdW  Elec       q    Type
REMARK                         _______ _______ _______ _____ _____    ______ ____
ROOT
ATOM      1  C   UNL     1     -10.678  55.344  48.866  0.00  0.00    +0.000 A 
ATOM      2  C   UNL     1     -10.904  54.316  47.819  0.00  0.00    +0.000 A 
ATOM      3  C   UNL     1      -9.442  55.590  49.328  0.00  0.00    +0.000 A 
ATOM      4  O   UNL     1     -12.073  54.051  47.535  0.00  0.00    +0.000 OA
ATOM      5  N   UNL     1      -9.800  53.747  47.187  0.00  0.00    +0.000 N 
ATOM      6  C   UNL     1      -8.287  54.893  48.755  0.00  0.00    +0.000 A 
ATOM      7  C   UNL     1      -8.468  54.000  47.680  0.00  0.00    +0.000 A 
ATOM      8  C   UNL     1      -6.995  55.170  49.237  0.00  0.00    +0.000 A 
ATOM      9  C   UNL     1      -7.327  53.404  47.115  0.00  0.00    +0.000 A 
ATOM     10  C   UNL     1      -5.890  54.599  48.635  0.00  0.00    +0.000 A 
ATOM     11  C   UNL     1      -6.045  53.722  47.574  0.00  0.00    +0.000 A 
ATOM     12  F   UNL     1      -4.662  54.909  49.065  0.00  0.00    +0.000 F 
ENDROOT
BRANCH   1  18
ATOM     13  S   UNL     1     -13.921  57.624  48.737  0.00  0.00    +0.000 S 
ATOM     14  O   UNL     1     -14.838  56.646  48.210  0.00  0.00    +0.000 OA
ATOM     15  O   UNL     1     -13.921  59.002  48.291  0.00  0.00    +0.000 OA
ATOM     16  N   UNL     1     -12.383  57.061  48.541  0.00  0.00    +0.000 N 
ATOM     17  C   UNL     1     -14.066  57.618  50.474  0.00  0.00    +0.000 A 
ATOM     18  C   UNL     1     -11.814  56.135  49.409  0.00  0.00    +0.000 C 
ATOM     19  C   UNL     1     -13.189  56.809  51.190  0.00  0.00    +0.000 A 
ATOM     20  C   UNL     1     -15.013  58.428  51.101  0.00  0.00    +0.000 A 
ATOM     21  N   UNL     1     -12.228  55.962  50.625  0.00  0.00    +0.000 N 
ATOM     22  C   UNL     1     -13.258  56.847  52.585  0.00  0.00    +0.000 A 
ATOM     23  C   UNL     1     -15.083  58.431  52.490  0.00  0.00    +0.000 A 
ATOM     24  C   UNL     1     -14.199  57.649  53.233  0.00  0.00    +0.000 A 
ATOM     25  H   UNL     1     -11.850  57.392  47.783  0.00  0.00    +0.000 HD
ATOM     26  H   UNL     1     -11.861  55.222  51.160  0.00  0.00    +0.000 HD
ENDBRANCH   1  18
BRANCH   3  27
ATOM     27  O   UNL     1      -9.137  56.517  50.314  0.00  0.00    +0.000 OA
ATOM     28  H   UNL     1      -9.487  57.384  50.265  0.00  0.00    +0.000 HD
ENDBRANCH   3  27
BRANCH   5  29
ATOM     29  C   UNL     1     -10.014  52.756  46.107  0.00  0.00    +0.000 C 
BRANCH  29  30
ATOM     30  C   UNL     1     -10.160  53.314  44.681  0.00  0.00    +0.000 C 
BRANCH  30  31
ATOM     31  C   UNL     1      -9.764  52.343  43.608  0.00  0.00    +0.000 C 
ATOM     32  C   UNL     1      -8.389  51.746  43.485  0.00  0.00    +0.000 C 
ATOM     33  C   UNL     1      -8.822  52.825  42.534  0.00  0.00    +0.000 C 
ENDBRANCH  30  31
ENDBRANCH  29  30
ENDBRANCH   5  29
TORSDOF 5
ENDMDL
MODEL 7
REMARK VINA RESULT:      -7.9      3.490      7.945
REMARK  Name = 338168
REMARK  5 active torsions:
REMARK  status: ('A' for Active; 'I' for Inactive)
REMARK    1  A    between atoms: C_6  and  C_10
REMARK    2  A    between atoms: C_14  and  O_18
REMARK    3  A    between atoms: N_17  and  C_21
REMARK    4  A    between atoms: C_21  and  C_24
REMARK    5  A    between atoms: C_24  and  C_27
REMARK                            x       y       z     vdW  Elec       q    Type
REMARK                         _______ _______ _______ _____ _____    ______ ____
ROOT
ATOM      1  C   UNL     1     -10.008  54.379  50.756  0.00  0.00    +0.000 A 
ATOM      2  C   UNL     1     -11.123  55.308  51.069  0.00  0.00    +0.000 A 
ATOM      3  C   UNL     1      -9.816  53.939  49.502  0.00  0.00    +0.000 A 
ATOM      4  O   UNL     1     -11.319  55.569  52.257  0.00  0.00    +0.000 OA
ATOM      5  N   UNL     1     -11.848  55.865  50.018  0.00  0.00    +0.000 N 
ATOM      6  C   UNL     1     -10.666  54.424  48.411  0.00  0.00    +0.000 A 
ATOM      7  C   UNL     1     -11.654  55.395  48.669  0.00  0.00    +0.000 A 
ATOM      8  C   UNL     1     -10.446  53.967  47.099  0.00  0.00    +0.000 A 
ATOM      9  C   UNL     1     -12.402  55.883  47.583  0.00  0.00    +0.000 A 
ATOM     10  C   UNL     1     -11.170  54.494  46.047  0.00  0.00    +0.000 A 
ATOM     11  C   UNL     1     -12.143  55.452  46.278  0.00  0.00    +0.000 A 
ATOM     12  F   UNL     1     -10.918  54.093  44.797  0.00  0.00    +0.000 F 
ENDROOT
BRANCH   1  18
ATOM     13  S   UNL     1      -6.757  54.490  53.027  0.00  0.00    +0.000 S 
ATOM     14  O   UNL     1      -7.078  55.672  53.785  0.00  0.00    +0.000 OA
ATOM     15  O   UNL     1      -5.420  54.226  52.536  0.00  0.00    +0.000 OA
ATOM     16  N   UNL     1      -7.766  54.413  51.724  0.00  0.00    +0.000 N 
ATOM     17  C   UNL     1      -7.280  53.103  53.945  0.00  0.00    +0.000 A 
ATOM     18  C   UNL     1      -9.070  53.935  51.820  0.00  0.00    +0.000 C 
ATOM     19  C   UNL     1      -8.549  52.598  53.680  0.00  0.00    +0.000 A 
ATOM     20  C   UNL     1      -6.426  52.520  54.879  0.00  0.00    +0.000 A 
ATOM     21  N   UNL     1      -9.462  53.144  52.769  0.00  0.00    +0.000 N 
ATOM     22  C   UNL     1      -8.950  51.449  54.367  0.00  0.00    +0.000 A 
ATOM     23  C   UNL     1      -6.854  51.392  55.572  0.00  0.00    +0.000 A 
ATOM     24  C   UNL     1      -8.112  50.850  55.309  0.00  0.00    +0.000 A 
ATOM     25  H   UNL     1      -7.435  54.714  50.848  0.00  0.00    +0.000 HD
ATOM     26  H   UNL     1     -10.417  52.921  52.850  0.00  0.00    +0.000 HD
ENDBRANCH   1  18
BRANCH   3  27
ATOM     27  O   UNL     1      -8.815  53.059  49.119  0.00  0.00    +0.000 OA
ATOM     28  H   UNL     1      -9.032  52.185  48.865  0.00  0.00    +0.000 HD
ENDBRANCH   3  27
BRANCH   5  29
ATOM     29  C   UNL     1     -12.932  56.832  50.317  0.00  0.00    +0.000 C 
BRANCH  29  30
ATOM     30  C   UNL     1     -14.264  56.240  50.809  0.00  0.00    +0.000 C 
BRANCH  30  31
ATOM     31  C   UNL     1     -15.205  57.261  51.378  0.00  0.00    +0.000 C 
ATOM     32  C   UNL     1     -14.776  58.382  52.284  0.00  0.00    +0.000 C 
ATOM     33  C   UNL     1     -15.505  57.198  52.853  0.00  0.00    +0.000 C 
ENDBRANCH  30  31
ENDBRANCH  29  30
ENDBRANCH   5  29
TORSDOF 5
ENDMDL
MODEL 8
REMARK VINA RESULT:      -7.9      4.874      7.797
REMARK  Name = 338168
REMARK  5 active torsions:
REMARK  status: ('A' for Active; 'I' for Inactive)
REMARK    1  A    between atoms: C_6  and  C_10
REMARK    2  A    between atoms: C_14  and  O_18
REMARK    3  A    between atoms: N_17  and  C_21
REMARK    4  A    between atoms: C_21  and  C_24
REMARK    5  A    between atoms: C_24  and  C_27
REMARK                            x       y       z     vdW  Elec       q    Type
REMARK                         _______ _______ _______ _____ _____    ______ ____
ROOT
ATOM      1  C   UNL     1     -11.467  54.246  47.906  0.00  0.00    +0.000 A 
ATOM      2  C   UNL     1     -11.540  53.439  49.149  0.00  0.00    +0.000 A 
ATOM      3  C   UNL     1     -12.136  55.404  47.802  0.00  0.00    +0.000 A 
ATOM      4  O   UNL     1     -11.007  52.327  49.130  0.00  0.00    +0.000 OA
ATOM      5  N   UNL     1     -12.155  53.988  50.272  0.00  0.00    +0.000 N 
ATOM      6  C   UNL     1     -12.897  55.923  48.943  0.00  0.00    +0.000 A 
ATOM      7  C   UNL     1     -12.882  55.229  50.169  0.00  0.00    +0.000 A 
ATOM      8  C   UNL     1     -13.583  57.145  48.826  0.00  0.00    +0.000 A 
ATOM      9  C   UNL     1     -13.570  55.796  51.257  0.00  0.00    +0.000 A 
ATOM     10  C   UNL     1     -14.216  57.696  49.924  0.00  0.00    +0.000 A 
ATOM     11  C   UNL     1     -14.211  57.033  51.140  0.00  0.00    +0.000 A 
ATOM     12  F   UNL     1     -14.820  58.884  49.819  0.00  0.00    +0.000 F 
ENDROOT
BRANCH   1  18
ATOM     13  S   UNL     1      -8.207  53.955  45.664  0.00  0.00    +0.000 S 
ATOM     14  O   UNL     1      -7.406  53.171  46.569  0.00  0.00    +0.000 OA
ATOM     15  O   UNL     1      -7.655  55.051  44.895  0.00  0.00    +0.000 OA
ATOM     16  N   UNL     1      -9.498  54.558  46.494  0.00  0.00    +0.000 N 
ATOM     17  C   UNL     1      -8.994  52.861  44.558  0.00  0.00    +0.000 A 
ATOM     18  C   UNL     1     -10.633  53.797  46.760  0.00  0.00    +0.000 C 
ATOM     19  C   UNL     1     -10.275  52.427  44.885  0.00  0.00    +0.000 A 
ATOM     20  C   UNL     1      -8.355  52.478  43.379  0.00  0.00    +0.000 A 
ATOM     21  N   UNL     1     -10.966  52.761  46.057  0.00  0.00    +0.000 N 
ATOM     22  C   UNL     1     -10.937  51.601  43.973  0.00  0.00    +0.000 A 
ATOM     23  C   UNL     1      -9.021  51.633  42.497  0.00  0.00    +0.000 A 
ATOM     24  C   UNL     1     -10.316  51.203  42.788  0.00  0.00    +0.000 A 
ATOM     25  H   UNL     1      -9.466  55.488  46.813  0.00  0.00    +0.000 HD
ATOM     26  H   UNL     1     -11.718  52.198  46.351  0.00  0.00    +0.000 HD
ENDBRANCH   1  18
BRANCH   3  27
ATOM     27  O   UNL     1     -12.141  56.215  46.677  0.00  0.00    +0.000 OA
ATOM     28  H   UNL     1     -12.863  56.186  46.082  0.00  0.00    +0.000 HD
ENDBRANCH   3  27
BRANCH   5  29
ATOM     29  C   UNL     1     -12.192  53.211  51.533  0.00  0.00    +0.000 C 
BRANCH  29  30
ATOM     30  C   UNL     1     -10.933  53.274  52.416  0.00  0.00    +0.000 C 
BRANCH  30  31
ATOM     31  C   UNL     1     -10.440  54.668  52.667  0.00  0.00    +0.000 C 
ATOM     32  C   UNL     1      -9.217  55.255  52.017  0.00  0.00    +0.000 C 
ATOM     33  C   UNL     1      -9.169  54.835  53.458  0.00  0.00    +0.000 C 
ENDBRANCH  30  31
ENDBRANCH  29  30
ENDBRANCH   5  29
TORSDOF 5
ENDMDL
MODEL 9
REMARK VINA RESULT:      -7.8      3.171      4.300
REMARK  Name = 338168
REMARK  5 active torsions:
REMARK  status: ('A' for Active; 'I' for Inactive)
REMARK    1  A    between atoms: C_6  and  C_10
REMARK    2  A    between atoms: C_14  and  O_18
REMARK    3  A    between atoms: N_17  and  C_21
REMARK    4  A    between atoms: C_21  and  C_24
REMARK    5  A    between atoms: C_24  and  C_27
REMARK                            x       y       z     vdW  Elec       q    Type
REMARK                         _______ _______ _______ _____ _____    ______ ____
ROOT
ATOM      1  C   UNL     1     -11.104  54.843  50.115  0.00  0.00    +0.000 A 
ATOM      2  C   UNL     1     -11.103  54.023  48.878  0.00  0.00    +0.000 A 
ATOM      3  C   UNL     1     -10.151  54.678  51.046  0.00  0.00    +0.000 A 
ATOM      4  O   UNL     1     -12.075  54.135  48.129  0.00  0.00    +0.000 OA
ATOM      5  N   UNL     1     -10.000  53.217  48.607  0.00  0.00    +0.000 N 
ATOM      6  C   UNL     1      -9.056  53.729  50.822  0.00  0.00    +0.000 A 
ATOM      7  C   UNL     1      -8.974  53.028  49.603  0.00  0.00    +0.000 A 
ATOM      8  C   UNL     1      -8.056  53.576  51.799  0.00  0.00    +0.000 A 
ATOM      9  C   UNL     1      -7.872  52.179  49.402  0.00  0.00    +0.000 A 
ATOM     10  C   UNL     1      -6.964  52.765  51.556  0.00  0.00    +0.000 A 
ATOM     11  C   UNL     1      -6.862  52.068  50.363  0.00  0.00    +0.000 A 
ATOM     12  F   UNL     1      -5.991  52.665  52.467  0.00  0.00    +0.000 F 
ENDROOT
BRANCH   1  18
ATOM     13  S   UNL     1     -13.833  57.541  49.110  0.00  0.00    +0.000 S 
ATOM     14  O   UNL     1     -14.822  56.641  48.574  0.00  0.00    +0.000 OA
ATOM     15  O   UNL     1     -13.522  58.809  48.483  0.00  0.00    +0.000 OA
ATOM     16  N   UNL     1     -12.409  56.724  49.263  0.00  0.00    +0.000 N 
ATOM     17  C   UNL     1     -14.231  57.846  50.779  0.00  0.00    +0.000 A 
ATOM     18  C   UNL     1     -12.147  55.879  50.337  0.00  0.00    +0.000 C 
ATOM     19  C   UNL     1     -13.627  57.043  51.741  0.00  0.00    +0.000 A 
ATOM     20  C   UNL     1     -15.100  58.885  51.113  0.00  0.00    +0.000 A 
ATOM     21  N   UNL     1     -12.761  55.976  51.475  0.00  0.00    +0.000 N 
ATOM     22  C   UNL     1     -13.893  57.323  53.085  0.00  0.00    +0.000 A 
ATOM     23  C   UNL     1     -15.372  59.130  52.455  0.00  0.00    +0.000 A 
ATOM     24  C   UNL     1     -14.761  58.356  53.442  0.00  0.00    +0.000 A 
ATOM     25  H   UNL     1     -11.719  56.837  48.571  0.00  0.00    +0.000 HD
ATOM     26  H   UNL     1     -12.614  55.289  52.164  0.00  0.00    +0.000 HD
ENDBRANCH   1  18
BRANCH   3  27
ATOM     27  O   UNL     1     -10.081  55.385  52.237  0.00  0.00    +0.000 OA
ATOM     28  H   UNL     1     -10.005  56.318  52.224  0.00  0.00    +0.000 HD
ENDBRANCH   3  27
BRANCH   5  29
ATOM     29  C   UNL     1      -9.966  52.430  47.351  0.00  0.00    +0.000 C 
BRANCH  29  30
ATOM     30  C   UNL     1      -9.279  53.092  46.144  0.00  0.00    +0.000 C 
BRANCH  30  31
ATOM     31  C   UNL     1     -10.237  53.606  45.111  0.00  0.00    +0.000 C 
ATOM     32  C   UNL     1     -11.576  52.982  44.826  0.00  0.00    +0.000 C 
ATOM     33  C   UNL     1     -10.439  52.781  43.866  0.00  0.00    +0.000 C 
ENDBRANCH  30  31
ENDBRANCH  29  30
ENDBRANCH   5  29
TORSDOF 5
ENDMDL
