MODEL 1
REMARK VINA RESULT:      -8.6      0.000      0.000
REMARK  Name = 338063
REMARK  8 active torsions:
REMARK  status: ('A' for Active; 'I' for Inactive)
REMARK    1  A    between atoms: C_6  and  C_10
REMARK    2  A    between atoms: C_14  and  O_18
REMARK    3  A    between atoms: N_17  and  C_21
REMARK    4  A    between atoms: C_21  and  C_24
REMARK    5  A    between atoms: C_24  and  C_27
REMARK    6  A    between atoms: C_25  and  C_28
REMARK    7  A    between atoms: C_27  and  C_29
REMARK    8  A    between atoms: C_27  and  C_30
REMARK                            x       y       z     vdW  Elec       q    Type
REMARK                         _______ _______ _______ _____ _____    ______ ____
ROOT
ATOM      1  C   UNL     1     -10.147  54.419  52.203  0.00  0.00    +0.000 A 
ATOM      2  C   UNL     1      -8.764  54.982  52.120  0.00  0.00    +0.000 A 
ATOM      3  C   UNL     1     -10.377  53.315  52.938  0.00  0.00    +0.000 A 
ATOM      4  O   UNL     1      -8.609  56.054  51.525  0.00  0.00    +0.000 OA
ATOM      5  N   UNL     1      -7.719  54.294  52.726  0.00  0.00    +0.000 N 
ATOM      6  C   UNL     1      -9.283  52.667  53.673  0.00  0.00    +0.000 A 
ATOM      7  C   UNL     1      -7.978  53.176  53.580  0.00  0.00    +0.000 A 
ATOM      8  C   UNL     1      -9.536  51.549  54.491  0.00  0.00    +0.000 A 
ATOM      9  C   UNL     1      -6.971  52.583  54.357  0.00  0.00    +0.000 A 
ATOM     10  C   UNL     1      -8.516  50.937  55.223  0.00  0.00    +0.000 A 
ATOM     11  C   UNL     1      -7.232  51.468  55.156  0.00  0.00    +0.000 A 
ATOM     12  C   UNL     1      -8.792  49.755  56.102  0.00  0.00    +0.000 C 
ENDROOT
BRANCH   1  18
ATOM     13  S   UNL     1     -12.372  55.959  49.357  0.00  0.00    +0.000 S 
ATOM     14  O   UNL     1     -13.225  54.977  48.715  0.00  0.00    +0.000 OA
ATOM     15  O   UNL     1     -11.690  56.964  48.562  0.00  0.00    +0.000 OA
ATOM     16  N   UNL     1     -11.256  55.155  50.212  0.00  0.00    +0.000 N 
ATOM     17  C   UNL     1     -13.397  56.841  50.474  0.00  0.00    +0.000 A 
ATOM     18  C   UNL     1     -11.283  55.145  51.511  0.00  0.00    +0.000 C 
ATOM     19  C   UNL     1     -13.202  56.635  51.830  0.00  0.00    +0.000 A 
ATOM     20  C   UNL     1     -14.361  57.732  49.991  0.00  0.00    +0.000 A 
ATOM     21  N   UNL     1     -12.244  55.742  52.299  0.00  0.00    +0.000 N 
ATOM     22  C   UNL     1     -14.052  57.292  52.726  0.00  0.00    +0.000 A 
ATOM     23  C   UNL     1     -15.174  58.408  50.896  0.00  0.00    +0.000 A 
ATOM     24  C   UNL     1     -15.026  58.180  52.264  0.00  0.00    +0.000 A 
ATOM     25  H   UNL     1     -10.543  54.667  49.738  0.00  0.00    +0.000 HD
ATOM     26  H   UNL     1     -12.253  55.521  53.258  0.00  0.00    +0.000 HD
ENDBRANCH   1  18
BRANCH   3  27
ATOM     27  O   UNL     1     -11.624  52.738  53.106  0.00  0.00    +0.000 OA
ATOM     28  H   UNL     1     -11.971  52.613  53.967  0.00  0.00    +0.000 HD
ENDBRANCH   3  27
BRANCH   5  29
ATOM     29  C   UNL     1      -6.362  54.832  52.567  0.00  0.00    +0.000 C 
BRANCH  29  30
ATOM     30  C   UNL     1      -5.553  54.283  51.378  0.00  0.00    +0.000 C 
BRANCH  30  31
ATOM     31  C   UNL     1      -4.195  53.639  51.701  0.00  0.00    +0.000 C 
ATOM     32  C   UNL     1      -3.847  53.722  53.186  0.00  0.00    +0.000 C 
ATOM     33  C   UNL     1      -4.231  52.169  51.261  0.00  0.00    +0.000 C 
ENDBRANCH  30  31
ENDBRANCH  29  30
ENDBRANCH   5  29
TORSDOF 5
ENDMDL
MODEL 2
REMARK VINA RESULT:      -8.3      3.653      5.395
REMARK  Name = 338063
REMARK  8 active torsions:
REMARK  status: ('A' for Active; 'I' for Inactive)
REMARK    1  A    between atoms: C_6  and  C_10
REMARK    2  A    between atoms: C_14  and  O_18
REMARK    3  A    between atoms: N_17  and  C_21
REMARK    4  A    between atoms: C_21  and  C_24
REMARK    5  A    between atoms: C_24  and  C_27
REMARK    6  A    between atoms: C_25  and  C_28
REMARK    7  A    between atoms: C_27  and  C_29
REMARK    8  A    between atoms: C_27  and  C_30
REMARK                            x       y       z     vdW  Elec       q    Type
REMARK                         _______ _______ _______ _____ _____    ______ ____
ROOT
ATOM      1  C   UNL     1     -11.337  56.140  48.732  0.00  0.00    +0.000 A 
ATOM      2  C   UNL     1     -10.144  55.712  49.526  0.00  0.00    +0.000 A 
ATOM      3  C   UNL     1     -11.515  55.670  47.484  0.00  0.00    +0.000 A 
ATOM      4  O   UNL     1     -10.069  56.079  50.704  0.00  0.00    +0.000 OA
ATOM      5  N   UNL     1      -9.185  54.909  48.919  0.00  0.00    +0.000 N 
ATOM      6  C   UNL     1     -10.555  54.725  46.899  0.00  0.00    +0.000 A 
ATOM      7  C   UNL     1      -9.419  54.338  47.629  0.00  0.00    +0.000 A 
ATOM      8  C   UNL     1     -10.774  54.185  45.617  0.00  0.00    +0.000 A 
ATOM      9  C   UNL     1      -8.564  53.373  47.075  0.00  0.00    +0.000 A 
ATOM     10  C   UNL     1      -9.889  53.261  45.055  0.00  0.00    +0.000 A 
ATOM     11  C   UNL     1      -8.786  52.853  45.799  0.00  0.00    +0.000 A 
ATOM     12  C   UNL     1     -10.133  52.680  43.695  0.00  0.00    +0.000 C 
ENDROOT
BRANCH   1  18
ATOM     13  S   UNL     1     -13.555  59.299  49.460  0.00  0.00    +0.000 S 
ATOM     14  O   UNL     1     -14.701  59.399  48.577  0.00  0.00    +0.000 OA
ATOM     15  O   UNL     1     -12.789  60.485  49.797  0.00  0.00    +0.000 OA
ATOM     16  N   UNL     1     -12.538  58.211  48.823  0.00  0.00    +0.000 N 
ATOM     17  C   UNL     1     -14.162  58.668  50.980  0.00  0.00    +0.000 A 
ATOM     18  C   UNL     1     -12.367  57.047  49.376  0.00  0.00    +0.000 C 
ATOM     19  C   UNL     1     -13.814  57.374  51.327  0.00  0.00    +0.000 A 
ATOM     20  C   UNL     1     -14.955  59.470  51.807  0.00  0.00    +0.000 A 
ATOM     21  N   UNL     1     -13.029  56.583  50.492  0.00  0.00    +0.000 N 
ATOM     22  C   UNL     1     -14.339  56.843  52.510  0.00  0.00    +0.000 A 
ATOM     23  C   UNL     1     -15.439  58.942  53.001  0.00  0.00    +0.000 A 
ATOM     24  C   UNL     1     -15.140  57.624  53.347  0.00  0.00    +0.000 A 
ATOM     25  H   UNL     1     -12.040  58.436  48.004  0.00  0.00    +0.000 HD
ATOM     26  H   UNL     1     -12.941  55.628  50.714  0.00  0.00    +0.000 HD
ENDBRANCH   1  18
BRANCH   3  27
ATOM     27  O   UNL     1     -12.601  55.978  46.683  0.00  0.00    +0.000 OA
ATOM     28  H   UNL     1     -12.980  56.835  46.716  0.00  0.00    +0.000 HD
ENDBRANCH   3  27
BRANCH   5  29
ATOM     29  C   UNL     1      -7.989  54.564  49.699  0.00  0.00    +0.000 C 
BRANCH  29  30
ATOM     30  C   UNL     1      -6.812  55.551  49.604  0.00  0.00    +0.000 C 
BRANCH  30  31
ATOM     31  C   UNL     1      -5.398  54.956  49.712  0.00  0.00    +0.000 C 
ATOM     32  C   UNL     1      -5.167  54.234  51.038  0.00  0.00    +0.000 C 
ATOM     33  C   UNL     1      -5.186  53.979  48.548  0.00  0.00    +0.000 C 
ENDBRANCH  30  31
ENDBRANCH  29  30
ENDBRANCH   5  29
TORSDOF 5
ENDMDL
MODEL 3
REMARK VINA RESULT:      -8.0      3.815      4.903
REMARK  Name = 338063
REMARK  8 active torsions:
REMARK  status: ('A' for Active; 'I' for Inactive)
REMARK    1  A    between atoms: C_6  and  C_10
REMARK    2  A    between atoms: C_14  and  O_18
REMARK    3  A    between atoms: N_17  and  C_21
REMARK    4  A    between atoms: C_21  and  C_24
REMARK    5  A    between atoms: C_24  and  C_27
REMARK    6  A    between atoms: C_25  and  C_28
REMARK    7  A    between atoms: C_27  and  C_29
REMARK    8  A    between atoms: C_27  and  C_30
REMARK                            x       y       z     vdW  Elec       q    Type
REMARK                         _______ _______ _______ _____ _____    ______ ____
ROOT
ATOM      1  C   UNL     1     -12.443  54.365  49.720  0.00  0.00    +0.000 A 
ATOM      2  C   UNL     1     -12.050  54.231  48.284  0.00  0.00    +0.000 A 
ATOM      3  C   UNL     1     -12.017  53.459  50.619  0.00  0.00    +0.000 A 
ATOM      4  O   UNL     1     -12.371  55.137  47.507  0.00  0.00    +0.000 OA
ATOM      5  N   UNL     1     -11.328  53.111  47.886  0.00  0.00    +0.000 N 
ATOM      6  C   UNL     1     -11.152  52.347  50.204  0.00  0.00    +0.000 A 
ATOM      7  C   UNL     1     -10.799  52.201  48.852  0.00  0.00    +0.000 A 
ATOM      8  C   UNL     1     -10.655  51.435  51.155  0.00  0.00    +0.000 A 
ATOM      9  C   UNL     1      -9.908  51.175  48.501  0.00  0.00    +0.000 A 
ATOM     10  C   UNL     1      -9.806  50.389  50.786  0.00  0.00    +0.000 A 
ATOM     11  C   UNL     1      -9.430  50.271  49.451  0.00  0.00    +0.000 A 
ATOM     12  C   UNL     1      -9.269  49.428  51.803  0.00  0.00    +0.000 C 
ENDROOT
BRANCH   1  18
ATOM     13  S   UNL     1     -15.366  56.501  51.244  0.00  0.00    +0.000 S 
ATOM     14  O   UNL     1     -15.284  56.622  52.687  0.00  0.00    +0.000 OA
ATOM     15  O   UNL     1     -16.650  56.274  50.604  0.00  0.00    +0.000 OA
ATOM     16  N   UNL     1     -14.366  55.310  50.793  0.00  0.00    +0.000 N 
ATOM     17  C   UNL     1     -14.761  58.012  50.591  0.00  0.00    +0.000 A 
ATOM     18  C   UNL     1     -13.264  55.564  50.153  0.00  0.00    +0.000 C 
ATOM     19  C   UNL     1     -13.537  57.991  49.943  0.00  0.00    +0.000 A 
ATOM     20  C   UNL     1     -15.515  59.183  50.714  0.00  0.00    +0.000 A 
ATOM     21  N   UNL     1     -12.794  56.819  49.831  0.00  0.00    +0.000 N 
ATOM     22  C   UNL     1     -13.021  59.200  49.468  0.00  0.00    +0.000 A 
ATOM     23  C   UNL     1     -15.006  60.373  50.202  0.00  0.00    +0.000 A 
ATOM     24  C   UNL     1     -13.754  60.384  49.588  0.00  0.00    +0.000 A 
ATOM     25  H   UNL     1     -14.598  54.376  51.006  0.00  0.00    +0.000 HD
ATOM     26  H   UNL     1     -11.869  56.892  49.500  0.00  0.00    +0.000 HD
ENDBRANCH   1  18
BRANCH   3  27
ATOM     27  O   UNL     1     -12.297  53.515  51.974  0.00  0.00    +0.000 OA
ATOM     28  H   UNL     1     -13.184  53.574  52.267  0.00  0.00    +0.000 HD
ENDBRANCH   3  27
BRANCH   5  29
ATOM     29  C   UNL     1     -11.018  52.970  46.457  0.00  0.00    +0.000 C 
BRANCH  29  30
ATOM     30  C   UNL     1     -10.152  54.084  45.841  0.00  0.00    +0.000 C 
BRANCH  30  31
ATOM     31  C   UNL     1      -8.725  54.238  46.394  0.00  0.00    +0.000 C 
ATOM     32  C   UNL     1      -7.701  54.526  45.297  0.00  0.00    +0.000 C 
ATOM     33  C   UNL     1      -8.717  55.380  47.419  0.00  0.00    +0.000 C 
ENDBRANCH  30  31
ENDBRANCH  29  30
ENDBRANCH   5  29
TORSDOF 5
ENDMDL
MODEL 4
REMARK VINA RESULT:      -7.9      4.265      6.247
REMARK  Name = 338063
REMARK  8 active torsions:
REMARK  status: ('A' for Active; 'I' for Inactive)
REMARK    1  A    between atoms: C_6  and  C_10
REMARK    2  A    between atoms: C_14  and  O_18
REMARK    3  A    between atoms: N_17  and  C_21
REMARK    4  A    between atoms: C_21  and  C_24
REMARK    5  A    between atoms: C_24  and  C_27
REMARK    6  A    between atoms: C_25  and  C_28
REMARK    7  A    between atoms: C_27  and  C_29
REMARK    8  A    between atoms: C_27  and  C_30
REMARK                            x       y       z     vdW  Elec       q    Type
REMARK                         _______ _______ _______ _____ _____    ______ ____
ROOT
ATOM      1  C   UNL     1     -10.820  55.678  48.684  0.00  0.00    +0.000 A 
ATOM      2  C   UNL     1     -11.177  55.238  47.300  0.00  0.00    +0.000 A 
ATOM      3  C   UNL     1      -9.572  55.480  49.149  0.00  0.00    +0.000 A 
ATOM      4  O   UNL     1     -12.298  55.531  46.870  0.00  0.00    +0.000 OA
ATOM      5  N   UNL     1     -10.235  54.540  46.552  0.00  0.00    +0.000 N 
ATOM      6  C   UNL     1      -8.552  54.850  48.301  0.00  0.00    +0.000 A 
ATOM      7  C   UNL     1      -8.887  54.412  47.009  0.00  0.00    +0.000 A 
ATOM      8  C   UNL     1      -7.231  54.699  48.765  0.00  0.00    +0.000 A 
ATOM      9  C   UNL     1      -7.871  53.887  46.196  0.00  0.00    +0.000 A 
ATOM     10  C   UNL     1      -6.238  54.131  47.964  0.00  0.00    +0.000 A 
ATOM     11  C   UNL     1      -6.567  53.734  46.671  0.00  0.00    +0.000 A 
ATOM     12  C   UNL     1      -4.830  53.985  48.457  0.00  0.00    +0.000 C 
ENDROOT
BRANCH   1  18
ATOM     13  S   UNL     1     -13.524  56.383  51.443  0.00  0.00    +0.000 S 
ATOM     14  O   UNL     1     -12.944  56.691  52.737  0.00  0.00    +0.000 OA
ATOM     15  O   UNL     1     -14.689  55.521  51.353  0.00  0.00    +0.000 OA
ATOM     16  N   UNL     1     -12.357  55.744  50.521  0.00  0.00    +0.000 N 
ATOM     17  C   UNL     1     -14.005  57.919  50.746  0.00  0.00    +0.000 A 
ATOM     18  C   UNL     1     -11.856  56.404  49.519  0.00  0.00    +0.000 C 
ATOM     19  C   UNL     1     -13.282  58.392  49.664  0.00  0.00    +0.000 A 
ATOM     20  C   UNL     1     -15.098  58.618  51.270  0.00  0.00    +0.000 A 
ATOM     21  N   UNL     1     -12.193  57.690  49.155  0.00  0.00    +0.000 N 
ATOM     22  C   UNL     1     -13.623  59.641  49.137  0.00  0.00    +0.000 A 
ATOM     23  C   UNL     1     -15.450  59.843  50.711  0.00  0.00    +0.000 A 
ATOM     24  C   UNL     1     -14.706  60.360  49.651  0.00  0.00    +0.000 A 
ATOM     25  H   UNL     1     -12.023  54.840  50.721  0.00  0.00    +0.000 HD
ATOM     26  H   UNL     1     -11.626  58.142  48.489  0.00  0.00    +0.000 HD
ENDBRANCH   1  18
BRANCH   3  27
ATOM     27  O   UNL     1      -9.135  55.881  50.400  0.00  0.00    +0.000 OA
ATOM     28  H   UNL     1      -8.558  55.332  50.893  0.00  0.00    +0.000 HD
ENDBRANCH   3  27
BRANCH   5  29
ATOM     29  C   UNL     1     -10.638  54.058  45.224  0.00  0.00    +0.000 C 
BRANCH  29  30
ATOM     30  C   UNL     1     -11.240  52.642  45.174  0.00  0.00    +0.000 C 
BRANCH  30  31
ATOM     31  C   UNL     1     -10.594  51.650  44.192  0.00  0.00    +0.000 C 
ATOM     32  C   UNL     1      -9.913  52.348  43.017  0.00  0.00    +0.000 C 
ATOM     33  C   UNL     1      -9.567  50.803  44.956  0.00  0.00    +0.000 C 
ENDBRANCH  30  31
ENDBRANCH  29  30
ENDBRANCH   5  29
TORSDOF 5
ENDMDL
MODEL 5
REMARK VINA RESULT:      -7.7      3.976      5.718
REMARK  Name = 338063
REMARK  8 active torsions:
REMARK  status: ('A' for Active; 'I' for Inactive)
REMARK    1  A    between atoms: C_6  and  C_10
REMARK    2  A    between atoms: C_14  and  O_18
REMARK    3  A    between atoms: N_17  and  C_21
REMARK    4  A    between atoms: C_21  and  C_24
REMARK    5  A    between atoms: C_24  and  C_27
REMARK    6  A    between atoms: C_25  and  C_28
REMARK    7  A    between atoms: C_27  and  C_29
REMARK    8  A    between atoms: C_27  and  C_30
REMARK                            x       y       z     vdW  Elec       q    Type
REMARK                         _______ _______ _______ _____ _____    ______ ____
ROOT
ATOM      1  C   UNL     1     -11.572  54.905  48.667  0.00  0.00    +0.000 A 
ATOM      2  C   UNL     1     -10.659  54.039  49.474  0.00  0.00    +0.000 A 
ATOM      3  C   UNL     1     -11.569  54.814  47.324  0.00  0.00    +0.000 A 
ATOM      4  O   UNL     1     -10.764  54.073  50.705  0.00  0.00    +0.000 OA
ATOM      5  N   UNL     1      -9.748  53.221  48.813  0.00  0.00    +0.000 N 
ATOM      6  C   UNL     1     -10.687  53.857  46.645  0.00  0.00    +0.000 A 
ATOM      7  C   UNL     1      -9.809  53.057  47.394  0.00  0.00    +0.000 A 
ATOM      8  C   UNL     1     -10.729  53.717  45.243  0.00  0.00    +0.000 A 
ATOM      9  C   UNL     1      -9.038  52.097  46.721  0.00  0.00    +0.000 A 
ATOM     10  C   UNL     1      -9.921  52.791  44.580  0.00  0.00    +0.000 A 
ATOM     11  C   UNL     1      -9.080  51.975  45.331  0.00  0.00    +0.000 A 
ATOM     12  C   UNL     1      -9.978  52.636  43.090  0.00  0.00    +0.000 C 
ENDROOT
BRANCH   1  18
ATOM     13  S   UNL     1     -14.615  56.129  50.827  0.00  0.00    +0.000 S 
ATOM     14  O   UNL     1     -14.363  56.047  52.254  0.00  0.00    +0.000 OA
ATOM     15  O   UNL     1     -15.906  55.737  50.292  0.00  0.00    +0.000 OA
ATOM     16  N   UNL     1     -13.477  55.255  50.077  0.00  0.00    +0.000 N 
ATOM     17  C   UNL     1     -14.401  57.813  50.389  0.00  0.00    +0.000 A 
ATOM     18  C   UNL     1     -12.539  55.827  49.382  0.00  0.00    +0.000 C 
ATOM     19  C   UNL     1     -13.294  58.146  49.627  0.00  0.00    +0.000 A 
ATOM     20  C   UNL     1     -15.340  58.769  50.790  0.00  0.00    +0.000 A 
ATOM     21  N   UNL     1     -12.364  57.187  49.237  0.00  0.00    +0.000 N 
ATOM     22  C   UNL     1     -13.086  59.495  49.319  0.00  0.00    +0.000 A 
ATOM     23  C   UNL     1     -15.140  60.103  50.443  0.00  0.00    +0.000 A 
ATOM     24  C   UNL     1     -14.007  60.467  49.717  0.00  0.00    +0.000 A 
ATOM     25  H   UNL     1     -13.496  54.273  50.147  0.00  0.00    +0.000 HD
ATOM     26  H   UNL     1     -11.523  57.500  48.832  0.00  0.00    +0.000 HD
ENDBRANCH   1  18
BRANCH   3  27
ATOM     27  O   UNL     1     -12.399  55.545  46.493  0.00  0.00    +0.000 OA
ATOM     28  H   UNL     1     -12.041  56.011  45.763  0.00  0.00    +0.000 HD
ENDBRANCH   3  27
BRANCH   5  29
ATOM     29  C   UNL     1      -8.815  52.436  49.632  0.00  0.00    +0.000 C 
BRANCH  29  30
ATOM     30  C   UNL     1      -7.501  53.138  50.020  0.00  0.00    +0.000 C 
BRANCH  30  31
ATOM     31  C   UNL     1      -7.022  54.271  49.097  0.00  0.00    +0.000 C 
ATOM     32  C   UNL     1      -6.408  55.436  49.871  0.00  0.00    +0.000 C 
ATOM     33  C   UNL     1      -5.988  53.701  48.117  0.00  0.00    +0.000 C 
ENDBRANCH  30  31
ENDBRANCH  29  30
ENDBRANCH   5  29
TORSDOF 5
ENDMDL
MODEL 6
REMARK VINA RESULT:      -7.7      3.206      7.488
REMARK  Name = 338063
REMARK  8 active torsions:
REMARK  status: ('A' for Active; 'I' for Inactive)
REMARK    1  A    between atoms: C_6  and  C_10
REMARK    2  A    between atoms: C_14  and  O_18
REMARK    3  A    between atoms: N_17  and  C_21
REMARK    4  A    between atoms: C_21  and  C_24
REMARK    5  A    between atoms: C_24  and  C_27
REMARK    6  A    between atoms: C_25  and  C_28
REMARK    7  A    between atoms: C_27  and  C_29
REMARK    8  A    between atoms: C_27  and  C_30
REMARK                            x       y       z     vdW  Elec       q    Type
REMARK                         _______ _______ _______ _____ _____    ______ ____
ROOT
ATOM      1  C   UNL     1     -10.007  55.137  50.997  0.00  0.00    +0.000 A 
ATOM      2  C   UNL     1      -9.716  55.145  49.530  0.00  0.00    +0.000 A 
ATOM      3  C   UNL     1     -11.228  55.491  51.440  0.00  0.00    +0.000 A 
ATOM      4  O   UNL     1      -8.622  54.713  49.153  0.00  0.00    +0.000 OA
ATOM      5  N   UNL     1     -10.688  55.616  48.654  0.00  0.00    +0.000 N 
ATOM      6  C   UNL     1     -12.283  55.870  50.492  0.00  0.00    +0.000 A 
ATOM      7  C   UNL     1     -12.011  55.903  49.115  0.00  0.00    +0.000 A 
ATOM      8  C   UNL     1     -13.578  56.179  50.952  0.00  0.00    +0.000 A 
ATOM      9  C   UNL     1     -13.062  56.191  48.232  0.00  0.00    +0.000 A 
ATOM     10  C   UNL     1     -14.605  56.512  50.065  0.00  0.00    +0.000 A 
ATOM     11  C   UNL     1     -14.339  56.507  48.699  0.00  0.00    +0.000 A 
ATOM     12  C   UNL     1     -15.985  56.829  50.558  0.00  0.00    +0.000 C 
ENDROOT
BRANCH   1  18
ATOM     13  S   UNL     1      -6.545  54.808  52.822  0.00  0.00    +0.000 S 
ATOM     14  O   UNL     1      -6.337  55.834  53.826  0.00  0.00    +0.000 OA
ATOM     15  O   UNL     1      -5.457  54.417  51.944  0.00  0.00    +0.000 OA
ATOM     16  N   UNL     1      -7.791  55.272  51.897  0.00  0.00    +0.000 N 
ATOM     17  C   UNL     1      -7.008  53.358  53.693  0.00  0.00    +0.000 A 
ATOM     18  C   UNL     1      -8.937  54.661  51.960  0.00  0.00    +0.000 C 
ATOM     19  C   UNL     1      -8.318  52.925  53.575  0.00  0.00    +0.000 A 
ATOM     20  C   UNL     1      -6.064  52.667  54.459  0.00  0.00    +0.000 A 
ATOM     21  N   UNL     1      -9.249  53.624  52.812  0.00  0.00    +0.000 N 
ATOM     22  C   UNL     1      -8.710  51.801  54.309  0.00  0.00    +0.000 A 
ATOM     23  C   UNL     1      -6.460  51.528  55.155  0.00  0.00    +0.000 A 
ATOM     24  C   UNL     1      -7.786  51.101  55.089  0.00  0.00    +0.000 A 
ATOM     25  H   UNL     1      -7.678  56.028  51.277  0.00  0.00    +0.000 HD
ATOM     26  H   UNL     1     -10.195  53.360  52.887  0.00  0.00    +0.000 HD
ENDBRANCH   1  18
BRANCH   3  27
ATOM     27  O   UNL     1     -11.605  55.482  52.772  0.00  0.00    +0.000 OA
ATOM     28  H   UNL     1     -12.439  55.825  53.025  0.00  0.00    +0.000 HD
ENDBRANCH   3  27
BRANCH   5  29
ATOM     29  C   UNL     1     -10.349  55.679  47.227  0.00  0.00    +0.000 C 
BRANCH  29  30
ATOM     30  C   UNL     1     -10.610  54.400  46.412  0.00  0.00    +0.000 C 
BRANCH  30  31
ATOM     31  C   UNL     1      -9.384  53.712  45.789  0.00  0.00    +0.000 C 
ATOM     32  C   UNL     1      -9.675  53.141  44.402  0.00  0.00    +0.000 C 
ATOM     33  C   UNL     1      -8.242  54.732  45.698  0.00  0.00    +0.000 C 
ENDBRANCH  30  31
ENDBRANCH  29  30
ENDBRANCH   5  29
TORSDOF 5
ENDMDL
MODEL 7
REMARK VINA RESULT:      -7.7      3.180      8.196
REMARK  Name = 338063
REMARK  8 active torsions:
REMARK  status: ('A' for Active; 'I' for Inactive)
REMARK    1  A    between atoms: C_6  and  C_10
REMARK    2  A    between atoms: C_14  and  O_18
REMARK    3  A    between atoms: N_17  and  C_21
REMARK    4  A    between atoms: C_21  and  C_24
REMARK    5  A    between atoms: C_24  and  C_27
REMARK    6  A    between atoms: C_25  and  C_28
REMARK    7  A    between atoms: C_27  and  C_29
REMARK    8  A    between atoms: C_27  and  C_30
REMARK                            x       y       z     vdW  Elec       q    Type
REMARK                         _______ _______ _______ _____ _____    ______ ____
ROOT
ATOM      1  C   UNL     1      -9.766  53.944  50.906  0.00  0.00    +0.000 A 
ATOM      2  C   UNL     1     -10.803  54.994  51.149  0.00  0.00    +0.000 A 
ATOM      3  C   UNL     1      -9.582  53.460  49.664  0.00  0.00    +0.000 A 
ATOM      4  O   UNL     1     -10.872  55.491  52.278  0.00  0.00    +0.000 OA
ATOM      5  N   UNL     1     -11.629  55.380  50.099  0.00  0.00    +0.000 N 
ATOM      6  C   UNL     1     -10.380  53.966  48.540  0.00  0.00    +0.000 A 
ATOM      7  C   UNL     1     -11.373  54.934  48.765  0.00  0.00    +0.000 A 
ATOM      8  C   UNL     1     -10.144  53.504  47.231  0.00  0.00    +0.000 A 
ATOM      9  C   UNL     1     -12.063  55.454  47.660  0.00  0.00    +0.000 A 
ATOM     10  C   UNL     1     -10.871  53.995  46.144  0.00  0.00    +0.000 A 
ATOM     11  C   UNL     1     -11.828  54.981  46.368  0.00  0.00    +0.000 A 
ATOM     12  C   UNL     1     -10.608  53.510  44.750  0.00  0.00    +0.000 C 
ENDROOT
BRANCH   1  18
ATOM     13  S   UNL     1      -6.594  53.406  53.158  0.00  0.00    +0.000 S 
ATOM     14  O   UNL     1      -6.290  54.556  53.989  0.00  0.00    +0.000 OA
ATOM     15  O   UNL     1      -5.524  52.681  52.496  0.00  0.00    +0.000 OA
ATOM     16  N   UNL     1      -7.649  53.883  52.026  0.00  0.00    +0.000 N 
ATOM     17  C   UNL     1      -7.389  52.244  54.204  0.00  0.00    +0.000 A 
ATOM     18  C   UNL     1      -8.889  53.492  52.056  0.00  0.00    +0.000 C 
ATOM     19  C   UNL     1      -8.741  52.017  54.008  0.00  0.00    +0.000 A 
ATOM     20  C   UNL     1      -6.658  51.566  55.185  0.00  0.00    +0.000 A 
ATOM     21  N   UNL     1      -9.458  52.701  53.031  0.00  0.00    +0.000 N 
ATOM     22  C   UNL     1      -9.394  51.133  54.873  0.00  0.00    +0.000 A 
ATOM     23  C   UNL     1      -7.314  50.661  56.015  0.00  0.00    +0.000 A 
ATOM     24  C   UNL     1      -8.685  50.452  55.865  0.00  0.00    +0.000 A 
ATOM     25  H   UNL     1      -7.347  54.478  51.303  0.00  0.00    +0.000 HD
ATOM     26  H   UNL     1     -10.439  52.615  53.037  0.00  0.00    +0.000 HD
ENDBRANCH   1  18
BRANCH   3  27
ATOM     27  O   UNL     1      -8.626  52.515  49.331  0.00  0.00    +0.000 OA
ATOM     28  H   UNL     1      -8.193  52.558  48.501  0.00  0.00    +0.000 HD
ENDBRANCH   3  27
BRANCH   5  29
ATOM     29  C   UNL     1     -12.686  56.360  50.385  0.00  0.00    +0.000 C 
BRANCH  29  30
ATOM     30  C   UNL     1     -14.014  55.786  50.910  0.00  0.00    +0.000 C 
BRANCH  30  31
ATOM     31  C   UNL     1     -15.165  56.784  51.120  0.00  0.00    +0.000 C 
ATOM     32  C   UNL     1     -16.493  56.271  50.567  0.00  0.00    +0.000 C 
ATOM     33  C   UNL     1     -15.305  57.064  52.622  0.00  0.00    +0.000 C 
ENDBRANCH  30  31
ENDBRANCH  29  30
ENDBRANCH   5  29
TORSDOF 5
ENDMDL
MODEL 8
REMARK VINA RESULT:      -7.7      4.498      7.102
REMARK  Name = 338063
REMARK  8 active torsions:
REMARK  status: ('A' for Active; 'I' for Inactive)
REMARK    1  A    between atoms: C_6  and  C_10
REMARK    2  A    between atoms: C_14  and  O_18
REMARK    3  A    between atoms: N_17  and  C_21
REMARK    4  A    between atoms: C_21  and  C_24
REMARK    5  A    between atoms: C_24  and  C_27
REMARK    6  A    between atoms: C_25  and  C_28
REMARK    7  A    between atoms: C_27  and  C_29
REMARK    8  A    between atoms: C_27  and  C_30
REMARK                            x       y       z     vdW  Elec       q    Type
REMARK                         _______ _______ _______ _____ _____    ______ ____
ROOT
ATOM      1  C   UNL     1     -10.780  54.448  48.696  0.00  0.00    +0.000 A 
ATOM      2  C   UNL     1     -10.292  54.015  50.041  0.00  0.00    +0.000 A 
ATOM      3  C   UNL     1     -11.795  55.327  48.603  0.00  0.00    +0.000 A 
ATOM      4  O   UNL     1      -9.292  53.291  50.090  0.00  0.00    +0.000 OA
ATOM      5  N   UNL     1     -10.965  54.456  51.176  0.00  0.00    +0.000 N 
ATOM      6  C   UNL     1     -12.417  55.878  49.814  0.00  0.00    +0.000 A 
ATOM      7  C   UNL     1     -11.980  55.458  51.080  0.00  0.00    +0.000 A 
ATOM      8  C   UNL     1     -13.437  56.845  49.716  0.00  0.00    +0.000 A 
ATOM      9  C   UNL     1     -12.540  56.062  52.216  0.00  0.00    +0.000 A 
ATOM     10  C   UNL     1     -14.020  57.405  50.855  0.00  0.00    +0.000 A 
ATOM     11  C   UNL     1     -13.557  57.012  52.107  0.00  0.00    +0.000 A 
ATOM     12  C   UNL     1     -15.096  58.443  50.746  0.00  0.00    +0.000 C 
ENDROOT
BRANCH   1  18
ATOM     13  S   UNL     1      -8.033  53.963  45.932  0.00  0.00    +0.000 S 
ATOM     14  O   UNL     1      -6.978  53.054  46.338  0.00  0.00    +0.000 OA
ATOM     15  O   UNL     1      -7.709  55.180  45.210  0.00  0.00    +0.000 OA
ATOM     16  N   UNL     1      -8.865  54.374  47.258  0.00  0.00    +0.000 N 
ATOM     17  C   UNL     1      -9.090  53.043  44.876  0.00  0.00    +0.000 A 
ATOM     18  C   UNL     1     -10.075  53.940  47.454  0.00  0.00    +0.000 C 
ATOM     19  C   UNL     1     -10.348  52.713  45.351  0.00  0.00    +0.000 A 
ATOM     20  C   UNL     1      -8.662  52.682  43.594  0.00  0.00    +0.000 A 
ATOM     21  N   UNL     1     -10.761  53.074  46.630  0.00  0.00    +0.000 N 
ATOM     22  C   UNL     1     -11.177  51.933  44.537  0.00  0.00    +0.000 A 
ATOM     23  C   UNL     1      -9.512  51.937  42.781  0.00  0.00    +0.000 A 
ATOM     24  C   UNL     1     -10.766  51.554  43.257  0.00  0.00    +0.000 A 
ATOM     25  H   UNL     1      -8.449  54.965  47.927  0.00  0.00    +0.000 HD
ATOM     26  H   UNL     1     -11.599  52.684  46.969  0.00  0.00    +0.000 HD
ENDBRANCH   1  18
BRANCH   3  27
ATOM     27  O   UNL     1     -12.295  55.815  47.408  0.00  0.00    +0.000 OA
ATOM     28  H   UNL     1     -12.484  55.228  46.703  0.00  0.00    +0.000 HD
ENDBRANCH   3  27
BRANCH   5  29
ATOM     29  C   UNL     1     -10.507  53.957  52.479  0.00  0.00    +0.000 C 
BRANCH  29  30
ATOM     30  C   UNL     1      -9.617  54.912  53.294  0.00  0.00    +0.000 C 
BRANCH  30  31
ATOM     31  C   UNL     1      -8.114  54.904  52.970  0.00  0.00    +0.000 C 
ATOM     32  C   UNL     1      -7.737  55.943  51.916  0.00  0.00    +0.000 C 
ATOM     33  C   UNL     1      -7.333  55.175  54.263  0.00  0.00    +0.000 C 
ENDBRANCH  30  31
ENDBRANCH  29  30
ENDBRANCH   5  29
TORSDOF 5
ENDMDL
MODEL 9
REMARK VINA RESULT:      -7.6      3.062      7.666
REMARK  Name = 338063
REMARK  8 active torsions:
REMARK  status: ('A' for Active; 'I' for Inactive)
REMARK    1  A    between atoms: C_6  and  C_10
REMARK    2  A    between atoms: C_14  and  O_18
REMARK    3  A    between atoms: N_17  and  C_21
REMARK    4  A    between atoms: C_21  and  C_24
REMARK    5  A    between atoms: C_24  and  C_27
REMARK    6  A    between atoms: C_25  and  C_28
REMARK    7  A    between atoms: C_27  and  C_29
REMARK    8  A    between atoms: C_27  and  C_30
REMARK                            x       y       z     vdW  Elec       q    Type
REMARK                         _______ _______ _______ _____ _____    ______ ____
ROOT
ATOM      1  C   UNL     1     -10.133  54.209  51.176  0.00  0.00    +0.000 A 
ATOM      2  C   UNL     1     -10.595  53.926  49.782  0.00  0.00    +0.000 A 
ATOM      3  C   UNL     1     -10.850  55.028  51.966  0.00  0.00    +0.000 A 
ATOM      4  O   UNL     1      -9.970  53.088  49.123  0.00  0.00    +0.000 OA
ATOM      5  N   UNL     1     -11.711  54.597  49.293  0.00  0.00    +0.000 N 
ATOM      6  C   UNL     1     -12.095  55.635  51.476  0.00  0.00    +0.000 A 
ATOM      7  C   UNL     1     -12.522  55.394  50.160  0.00  0.00    +0.000 A 
ATOM      8  C   UNL     1     -12.878  56.443  52.324  0.00  0.00    +0.000 A 
ATOM      9  C   UNL     1     -13.755  55.923  49.749  0.00  0.00    +0.000 A 
ATOM     10  C   UNL     1     -14.080  57.004  51.887  0.00  0.00    +0.000 A 
ATOM     11  C   UNL     1     -14.517  56.731  50.594  0.00  0.00    +0.000 A 
ATOM     12  C   UNL     1     -14.917  57.853  52.797  0.00  0.00    +0.000 C 
ENDROOT
BRANCH   1  18
ATOM     13  S   UNL     1      -7.849  51.755  53.221  0.00  0.00    +0.000 S 
ATOM     14  O   UNL     1      -7.787  50.426  52.642  0.00  0.00    +0.000 OA
ATOM     15  O   UNL     1      -7.958  51.918  54.660  0.00  0.00    +0.000 OA
ATOM     16  N   UNL     1      -9.092  52.533  52.535  0.00  0.00    +0.000 N 
ATOM     17  C   UNL     1      -6.363  52.561  52.755  0.00  0.00    +0.000 A 
ATOM     18  C   UNL     1      -8.894  53.510  51.700  0.00  0.00    +0.000 C 
ATOM     19  C   UNL     1      -6.448  53.589  51.831  0.00  0.00    +0.000 A 
ATOM     20  C   UNL     1      -5.145  52.176  53.325  0.00  0.00    +0.000 A 
ATOM     21  N   UNL     1      -7.666  53.961  51.268  0.00  0.00    +0.000 N 
ATOM     22  C   UNL     1      -5.262  54.201  51.412  0.00  0.00    +0.000 A 
ATOM     23  C   UNL     1      -3.976  52.819  52.926  0.00  0.00    +0.000 A 
ATOM     24  C   UNL     1      -4.034  53.825  51.962  0.00  0.00    +0.000 A 
ATOM     25  H   UNL     1     -10.013  52.262  52.754  0.00  0.00    +0.000 HD
ATOM     26  H   UNL     1      -7.648  54.588  50.509  0.00  0.00    +0.000 HD
ENDBRANCH   1  18
BRANCH   3  27
ATOM     27  O   UNL     1     -10.526  55.325  53.278  0.00  0.00    +0.000 OA
ATOM     28  H   UNL     1     -11.117  55.825  53.806  0.00  0.00    +0.000 HD
ENDBRANCH   3  27
BRANCH   5  29
ATOM     29  C   UNL     1     -12.098  54.353  47.898  0.00  0.00    +0.000 C 
BRANCH  29  30
ATOM     30  C   UNL     1     -11.507  55.318  46.854  0.00  0.00    +0.000 C 
BRANCH  30  31
ATOM     31  C   UNL     1     -10.455  54.741  45.894  0.00  0.00    +0.000 C 
ATOM     32  C   UNL     1      -9.027  54.954  46.393  0.00  0.00    +0.000 C 
ATOM     33  C   UNL     1     -10.721  53.239  45.719  0.00  0.00    +0.000 C 
ENDBRANCH  30  31
ENDBRANCH  29  30
ENDBRANCH   5  29
TORSDOF 5
ENDMDL
