MODEL 1
REMARK VINA RESULT:      -8.5      0.000      0.000
REMARK  Name = 338298
REMARK  5 active torsions:
REMARK  status: ('A' for Active; 'I' for Inactive)
REMARK    1  A    between atoms: C_6  and  C_10
REMARK    2  A    between atoms: C_14  and  O_18
REMARK    3  A    between atoms: N_17  and  C_21
REMARK    4  A    between atoms: C_21  and  C_24
REMARK    5  A    between atoms: C_24  and  C_27
REMARK                            x       y       z     vdW  Elec       q    Type
REMARK                         _______ _______ _______ _____ _____    ______ ____
ROOT
ATOM      1  C   UNL     1     -10.091  55.362  50.964  0.00  0.00    +0.000 A 
ATOM      2  C   UNL     1     -11.496  55.692  51.391  0.00  0.00    +0.000 A 
ATOM      3  C   UNL     1      -9.793  55.365  49.656  0.00  0.00    +0.000 A 
ATOM      4  O   UNL     1     -11.838  55.423  52.546  0.00  0.00    +0.000 OA
ATOM      5  N   UNL     1     -12.366  56.266  50.445  0.00  0.00    +0.000 N 
ATOM      6  C   UNL     1     -10.825  55.656  48.667  0.00  0.00    +0.000 A 
ATOM      7  C   UNL     1     -12.007  56.287  49.059  0.00  0.00    +0.000 A 
ATOM      8  C   UNL     1     -10.693  55.206  47.351  0.00  0.00    +0.000 A 
ATOM      9  C   UNL     1     -12.879  56.744  48.065  0.00  0.00    +0.000 A 
ATOM     10  C   UNL     1     -11.702  55.434  46.427  0.00  0.00    +0.000 A 
ATOM     11  C   UNL     1     -12.737  56.301  46.750  0.00  0.00    +0.000 A 
ENDROOT
BRANCH   1  17
ATOM     12  S   UNL     1      -6.647  54.978  52.850  0.00  0.00    +0.000 S 
ATOM     13  O   UNL     1      -6.508  55.989  53.880  0.00  0.00    +0.000 OA
ATOM     14  O   UNL     1      -5.520  54.626  52.008  0.00  0.00    +0.000 OA
ATOM     15  N   UNL     1      -7.866  55.403  51.884  0.00  0.00    +0.000 N 
ATOM     16  C   UNL     1      -7.123  53.502  53.672  0.00  0.00    +0.000 A 
ATOM     17  C   UNL     1      -9.042  54.854  51.964  0.00  0.00    +0.000 C 
ATOM     18  C   UNL     1      -8.450  53.111  53.580  0.00  0.00    +0.000 A 
ATOM     19  C   UNL     1      -6.162  52.767  54.382  0.00  0.00    +0.000 A 
ATOM     20  N   UNL     1      -9.379  53.849  52.839  0.00  0.00    +0.000 N 
ATOM     21  C   UNL     1      -8.830  51.948  54.256  0.00  0.00    +0.000 A 
ATOM     22  C   UNL     1      -6.558  51.612  55.041  0.00  0.00    +0.000 A 
ATOM     23  C   UNL     1      -7.889  51.203  54.981  0.00  0.00    +0.000 A 
ATOM     24  H   UNL     1      -7.714  56.103  51.207  0.00  0.00    +0.000 HD
ATOM     25  H   UNL     1     -10.333  53.635  52.952  0.00  0.00    +0.000 HD
ENDBRANCH   1  17
BRANCH   3  26
ATOM     26  O   UNL     1      -8.558  55.074  49.101  0.00  0.00    +0.000 OA
ATOM     27  H   UNL     1      -7.864  55.701  49.146  0.00  0.00    +0.000 HD
ENDBRANCH   3  26
BRANCH   5  28
ATOM     28  C   UNL     1     -13.804  56.276  50.772  0.00  0.00    +0.000 C 
BRANCH  28  29
ATOM     29  C   UNL     1     -14.231  57.621  51.329  0.00  0.00    +0.000 C 
BRANCH  29  30
ATOM     30  C   UNL     1     -15.044  57.456  52.655  0.00  0.00    +0.000 C 
ATOM     31  C   UNL     1     -15.001  58.976  51.191  0.00  0.00    +0.000 C 
ATOM     32  C   UNL     1     -15.036  58.994  52.742  0.00  0.00    +0.000 C 
ENDBRANCH  29  30
ENDBRANCH  28  29
ENDBRANCH   5  28
TORSDOF 5
ENDMDL
MODEL 2
REMARK VINA RESULT:      -8.3      2.809      7.590
REMARK  Name = 338298
REMARK  5 active torsions:
REMARK  status: ('A' for Active; 'I' for Inactive)
REMARK    1  A    between atoms: C_6  and  C_10
REMARK    2  A    between atoms: C_14  and  O_18
REMARK    3  A    between atoms: N_17  and  C_21
REMARK    4  A    between atoms: C_21  and  C_24
REMARK    5  A    between atoms: C_24  and  C_27
REMARK                            x       y       z     vdW  Elec       q    Type
REMARK                         _______ _______ _______ _____ _____    ______ ____
ROOT
ATOM      1  C   UNL     1     -11.059  54.538  51.595  0.00  0.00    +0.000 A 
ATOM      2  C   UNL     1      -9.593  54.877  51.577  0.00  0.00    +0.000 A 
ATOM      3  C   UNL     1     -11.427  53.262  51.783  0.00  0.00    +0.000 A 
ATOM      4  O   UNL     1      -9.249  55.977  51.135  0.00  0.00    +0.000 OA
ATOM      5  N   UNL     1      -8.676  53.913  52.038  0.00  0.00    +0.000 N 
ATOM      6  C   UNL     1     -10.417  52.220  51.938  0.00  0.00    +0.000 A 
ATOM      7  C   UNL     1      -9.104  52.565  52.263  0.00  0.00    +0.000 A 
ATOM      8  C   UNL     1     -10.724  50.887  51.650  0.00  0.00    +0.000 A 
ATOM      9  C   UNL     1      -8.215  51.544  52.615  0.00  0.00    +0.000 A 
ATOM     10  C   UNL     1      -9.747  49.907  51.744  0.00  0.00    +0.000 A 
ATOM     11  C   UNL     1      -8.529  50.214  52.336  0.00  0.00    +0.000 A 
ENDROOT
BRANCH   1  17
ATOM     12  S   UNL     1     -13.165  57.100  49.460  0.00  0.00    +0.000 S 
ATOM     13  O   UNL     1     -14.187  56.414  48.692  0.00  0.00    +0.000 OA
ATOM     14  O   UNL     1     -12.402  58.181  48.867  0.00  0.00    +0.000 OA
ATOM     15  N   UNL     1     -12.117  56.002  50.003  0.00  0.00    +0.000 N 
ATOM     16  C   UNL     1     -13.978  57.784  50.857  0.00  0.00    +0.000 A 
ATOM     17  C   UNL     1     -12.131  55.575  51.232  0.00  0.00    +0.000 C 
ATOM     18  C   UNL     1     -13.807  57.149  52.078  0.00  0.00    +0.000 A 
ATOM     19  C   UNL     1     -14.759  58.939  50.704  0.00  0.00    +0.000 A 
ATOM     20  N   UNL     1     -12.998  56.015  52.204  0.00  0.00    +0.000 N 
ATOM     21  C   UNL     1     -14.476  57.682  53.183  0.00  0.00    +0.000 A 
ATOM     22  C   UNL     1     -15.408  59.457  51.815  0.00  0.00    +0.000 A 
ATOM     23  C   UNL     1     -15.271  58.830  53.052  0.00  0.00    +0.000 A 
ATOM     24  H   UNL     1     -11.441  55.642  49.383  0.00  0.00    +0.000 HD
ATOM     25  H   UNL     1     -13.053  55.500  53.041  0.00  0.00    +0.000 HD
ENDBRANCH   1  17
BRANCH   3  26
ATOM     26  O   UNL     1     -12.727  52.785  51.814  0.00  0.00    +0.000 OA
ATOM     27  H   UNL     1     -12.913  51.913  51.528  0.00  0.00    +0.000 HD
ENDBRANCH   3  26
BRANCH   5  28
ATOM     28  C   UNL     1      -7.254  54.125  51.711  0.00  0.00    +0.000 C 
BRANCH  28  29
ATOM     29  C   UNL     1      -6.528  54.821  52.847  0.00  0.00    +0.000 C 
BRANCH  29  30
ATOM     30  C   UNL     1      -5.199  54.081  53.212  0.00  0.00    +0.000 C 
ATOM     31  C   UNL     1      -6.789  54.815  54.390  0.00  0.00    +0.000 C 
ATOM     32  C   UNL     1      -5.245  54.851  54.546  0.00  0.00    +0.000 C 
ENDBRANCH  29  30
ENDBRANCH  28  29
ENDBRANCH   5  28
TORSDOF 5
ENDMDL
MODEL 3
REMARK VINA RESULT:      -8.2      1.425      4.234
REMARK  Name = 338298
REMARK  5 active torsions:
REMARK  status: ('A' for Active; 'I' for Inactive)
REMARK    1  A    between atoms: C_6  and  C_10
REMARK    2  A    between atoms: C_14  and  O_18
REMARK    3  A    between atoms: N_17  and  C_21
REMARK    4  A    between atoms: C_21  and  C_24
REMARK    5  A    between atoms: C_24  and  C_27
REMARK                            x       y       z     vdW  Elec       q    Type
REMARK                         _______ _______ _______ _____ _____    ______ ____
ROOT
ATOM      1  C   UNL     1     -10.401  55.065  50.535  0.00  0.00    +0.000 A 
ATOM      2  C   UNL     1      -9.978  54.938  49.096  0.00  0.00    +0.000 A 
ATOM      3  C   UNL     1     -11.533  55.725  50.822  0.00  0.00    +0.000 A 
ATOM      4  O   UNL     1      -8.821  54.585  48.853  0.00  0.00    +0.000 OA
ATOM      5  N   UNL     1     -10.912  55.257  48.093  0.00  0.00    +0.000 N 
ATOM      6  C   UNL     1     -12.322  56.332  49.755  0.00  0.00    +0.000 A 
ATOM      7  C   UNL     1     -12.128  55.931  48.432  0.00  0.00    +0.000 A 
ATOM      8  C   UNL     1     -13.187  57.394  50.030  0.00  0.00    +0.000 A 
ATOM      9  C   UNL     1     -13.039  56.369  47.464  0.00  0.00    +0.000 A 
ATOM     10  C   UNL     1     -13.892  58.007  49.005  0.00  0.00    +0.000 A 
ATOM     11  C   UNL     1     -13.909  57.422  47.745  0.00  0.00    +0.000 A 
ENDROOT
BRANCH   1  17
ATOM     12  S   UNL     1      -7.294  54.915  52.961  0.00  0.00    +0.000 S 
ATOM     13  O   UNL     1      -7.416  55.900  54.018  0.00  0.00    +0.000 OA
ATOM     14  O   UNL     1      -6.017  54.688  52.312  0.00  0.00    +0.000 OA
ATOM     15  N   UNL     1      -8.370  55.266  51.813  0.00  0.00    +0.000 N 
ATOM     16  C   UNL     1      -7.765  53.378  53.667  0.00  0.00    +0.000 A 
ATOM     17  C   UNL     1      -9.490  54.617  51.687  0.00  0.00    +0.000 C 
ATOM     18  C   UNL     1      -9.018  52.879  53.347  0.00  0.00    +0.000 A 
ATOM     19  C   UNL     1      -6.871  52.706  54.513  0.00  0.00    +0.000 A 
ATOM     20  N   UNL     1      -9.875  53.559  52.476  0.00  0.00    +0.000 N 
ATOM     21  C   UNL     1      -9.399  51.667  53.931  0.00  0.00    +0.000 A 
ATOM     22  C   UNL     1      -7.266  51.501  55.077  0.00  0.00    +0.000 A 
ATOM     23  C   UNL     1      -8.527  50.982  54.789  0.00  0.00    +0.000 A 
ATOM     24  H   UNL     1      -8.172  55.998  51.184  0.00  0.00    +0.000 HD
ATOM     25  H   UNL     1     -10.812  53.261  52.424  0.00  0.00    +0.000 HD
ENDBRANCH   1  17
BRANCH   3  26
ATOM     26  O   UNL     1     -12.053  55.940  52.088  0.00  0.00    +0.000 OA
ATOM     27  H   UNL     1     -11.723  56.637  52.618  0.00  0.00    +0.000 HD
ENDBRANCH   3  26
BRANCH   5  28
ATOM     28  C   UNL     1     -10.393  55.446  46.725  0.00  0.00    +0.000 C 
BRANCH  28  29
ATOM     29  C   UNL     1     -10.625  54.210  45.875  0.00  0.00    +0.000 C 
BRANCH  29  30
ATOM     30  C   UNL     1      -9.307  53.746  45.173  0.00  0.00    +0.000 C 
ATOM     31  C   UNL     1     -11.345  53.379  44.762  0.00  0.00    +0.000 C 
ATOM     32  C   UNL     1     -10.081  52.478  44.764  0.00  0.00    +0.000 C 
ENDBRANCH  29  30
ENDBRANCH  28  29
ENDBRANCH   5  28
TORSDOF 5
ENDMDL
MODEL 4
REMARK VINA RESULT:      -8.1      3.057      7.036
REMARK  Name = 338298
REMARK  5 active torsions:
REMARK  status: ('A' for Active; 'I' for Inactive)
REMARK    1  A    between atoms: C_6  and  C_10
REMARK    2  A    between atoms: C_14  and  O_18
REMARK    3  A    between atoms: N_17  and  C_21
REMARK    4  A    between atoms: C_21  and  C_24
REMARK    5  A    between atoms: C_24  and  C_27
REMARK                            x       y       z     vdW  Elec       q    Type
REMARK                         _______ _______ _______ _____ _____    ______ ____
ROOT
ATOM      1  C   UNL     1     -11.148  55.591  49.270  0.00  0.00    +0.000 A 
ATOM      2  C   UNL     1     -10.247  54.915  50.268  0.00  0.00    +0.000 A 
ATOM      3  C   UNL     1     -10.894  55.440  47.961  0.00  0.00    +0.000 A 
ATOM      4  O   UNL     1     -10.305  55.272  51.448  0.00  0.00    +0.000 OA
ATOM      5  N   UNL     1      -9.358  53.926  49.806  0.00  0.00    +0.000 N 
ATOM      6  C   UNL     1      -9.747  54.654  47.520  0.00  0.00    +0.000 A 
ATOM      7  C   UNL     1      -9.133  53.763  48.402  0.00  0.00    +0.000 A 
ATOM      8  C   UNL     1      -9.184  54.868  46.259  0.00  0.00    +0.000 A 
ATOM      9  C   UNL     1      -8.180  52.873  47.893  0.00  0.00    +0.000 A 
ATOM     10  C   UNL     1      -8.058  54.160  45.865  0.00  0.00    +0.000 A 
ATOM     11  C   UNL     1      -7.628  53.084  46.631  0.00  0.00    +0.000 A 
ENDROOT
BRANCH   1  17
ATOM     12  S   UNL     1     -13.356  58.858  49.376  0.00  0.00    +0.000 S 
ATOM     13  O   UNL     1     -14.422  58.792  48.395  0.00  0.00    +0.000 OA
ATOM     14  O   UNL     1     -12.621  60.091  49.581  0.00  0.00    +0.000 OA
ATOM     15  N   UNL     1     -12.285  57.701  49.039  0.00  0.00    +0.000 N 
ATOM     16  C   UNL     1     -14.087  58.461  50.921  0.00  0.00    +0.000 A 
ATOM     17  C   UNL     1     -12.233  56.586  49.706  0.00  0.00    +0.000 C 
ATOM     18  C   UNL     1     -13.852  57.197  51.440  0.00  0.00    +0.000 A 
ATOM     19  C   UNL     1     -14.869  59.420  51.581  0.00  0.00    +0.000 A 
ATOM     20  N   UNL     1     -13.043  56.272  50.772  0.00  0.00    +0.000 N 
ATOM     21  C   UNL     1     -14.456  56.876  52.660  0.00  0.00    +0.000 A 
ATOM     22  C   UNL     1     -15.454  59.084  52.794  0.00  0.00    +0.000 A 
ATOM     23  C   UNL     1     -15.251  57.815  53.332  0.00  0.00    +0.000 A 
ATOM     24  H   UNL     1     -11.646  57.844  48.303  0.00  0.00    +0.000 HD
ATOM     25  H   UNL     1     -13.055  55.339  51.085  0.00  0.00    +0.000 HD
ENDBRANCH   1  17
BRANCH   3  26
ATOM     26  O   UNL     1     -11.616  56.001  46.921  0.00  0.00    +0.000 OA
ATOM     27  H   UNL     1     -11.738  55.525  46.124  0.00  0.00    +0.000 HD
ENDBRANCH   3  26
BRANCH   5  28
ATOM     28  C   UNL     1      -8.273  53.518  50.718  0.00  0.00    +0.000 C 
BRANCH  28  29
ATOM     29  C   UNL     1      -7.230  54.612  50.855  0.00  0.00    +0.000 C 
BRANCH  29  30
ATOM     30  C   UNL     1      -5.801  54.085  50.498  0.00  0.00    +0.000 C 
ATOM     31  C   UNL     1      -6.695  55.992  50.350  0.00  0.00    +0.000 C 
ATOM     32  C   UNL     1      -5.775  55.171  49.406  0.00  0.00    +0.000 C 
ENDBRANCH  29  30
ENDBRANCH  28  29
ENDBRANCH   5  28
TORSDOF 5
ENDMDL
MODEL 5
REMARK VINA RESULT:      -8.0      3.891      7.633
REMARK  Name = 338298
REMARK  5 active torsions:
REMARK  status: ('A' for Active; 'I' for Inactive)
REMARK    1  A    between atoms: C_6  and  C_10
REMARK    2  A    between atoms: C_14  and  O_18
REMARK    3  A    between atoms: N_17  and  C_21
REMARK    4  A    between atoms: C_21  and  C_24
REMARK    5  A    between atoms: C_24  and  C_27
REMARK                            x       y       z     vdW  Elec       q    Type
REMARK                         _______ _______ _______ _____ _____    ______ ____
ROOT
ATOM      1  C   UNL     1     -10.735  55.740  48.488  0.00  0.00    +0.000 A 
ATOM      2  C   UNL     1     -11.137  54.710  47.467  0.00  0.00    +0.000 A 
ATOM      3  C   UNL     1      -9.430  55.941  48.728  0.00  0.00    +0.000 A 
ATOM      4  O   UNL     1     -12.311  54.330  47.446  0.00  0.00    +0.000 OA
ATOM      5  N   UNL     1     -10.149  54.203  46.602  0.00  0.00    +0.000 N 
ATOM      6  C   UNL     1      -8.424  55.150  48.028  0.00  0.00    +0.000 A 
ATOM      7  C   UNL     1      -8.765  54.461  46.862  0.00  0.00    +0.000 A 
ATOM      8  C   UNL     1      -7.149  54.980  48.576  0.00  0.00    +0.000 A 
ATOM      9  C   UNL     1      -7.739  53.892  46.100  0.00  0.00    +0.000 A 
ATOM     10  C   UNL     1      -6.213  54.181  47.937  0.00  0.00    +0.000 A 
ATOM     11  C   UNL     1      -6.466  53.734  46.646  0.00  0.00    +0.000 A 
ENDROOT
BRANCH   1  17
ATOM     12  S   UNL     1     -13.448  56.264  51.303  0.00  0.00    +0.000 S 
ATOM     13  O   UNL     1     -12.819  56.503  52.588  0.00  0.00    +0.000 OA
ATOM     14  O   UNL     1     -14.613  55.405  51.203  0.00  0.00    +0.000 OA
ATOM     15  N   UNL     1     -12.331  55.693  50.290  0.00  0.00    +0.000 N 
ATOM     16  C   UNL     1     -13.946  57.836  50.701  0.00  0.00    +0.000 A 
ATOM     17  C   UNL     1     -11.771  56.437  49.382  0.00  0.00    +0.000 C 
ATOM     18  C   UNL     1     -13.185  58.412  49.695  0.00  0.00    +0.000 A 
ATOM     19  C   UNL     1     -15.085  58.451  51.240  0.00  0.00    +0.000 A 
ATOM     20  N   UNL     1     -12.072  57.759  49.158  0.00  0.00    +0.000 N 
ATOM     21  C   UNL     1     -13.571  59.675  49.236  0.00  0.00    +0.000 A 
ATOM     22  C   UNL     1     -15.455  59.702  50.765  0.00  0.00    +0.000 A 
ATOM     23  C   UNL     1     -14.700  60.314  49.767  0.00  0.00    +0.000 A 
ATOM     24  H   UNL     1     -12.065  54.748  50.360  0.00  0.00    +0.000 HD
ATOM     25  H   UNL     1     -11.465  58.280  48.582  0.00  0.00    +0.000 HD
ENDBRANCH   1  17
BRANCH   3  26
ATOM     26  O   UNL     1      -8.898  56.838  49.639  0.00  0.00    +0.000 OA
ATOM     27  H   UNL     1      -8.619  57.685  49.354  0.00  0.00    +0.000 HD
ENDBRANCH   3  26
BRANCH   5  28
ATOM     28  C   UNL     1     -10.478  52.979  45.847  0.00  0.00    +0.000 C 
BRANCH  28  29
ATOM     29  C   UNL     1     -10.960  53.310  44.448  0.00  0.00    +0.000 C 
BRANCH  29  30
ATOM     30  C   UNL     1     -10.135  52.541  43.364  0.00  0.00    +0.000 C 
ATOM     31  C   UNL     1     -11.481  51.892  44.856  0.00  0.00    +0.000 C 
ATOM     32  C   UNL     1     -10.112  51.360  44.354  0.00  0.00    +0.000 C 
ENDBRANCH  29  30
ENDBRANCH  28  29
ENDBRANCH   5  28
TORSDOF 5
ENDMDL
MODEL 6
REMARK VINA RESULT:      -7.7      2.169      4.735
REMARK  Name = 338298
REMARK  5 active torsions:
REMARK  status: ('A' for Active; 'I' for Inactive)
REMARK    1  A    between atoms: C_6  and  C_10
REMARK    2  A    between atoms: C_14  and  O_18
REMARK    3  A    between atoms: N_17  and  C_21
REMARK    4  A    between atoms: C_21  and  C_24
REMARK    5  A    between atoms: C_24  and  C_27
REMARK                            x       y       z     vdW  Elec       q    Type
REMARK                         _______ _______ _______ _____ _____    ______ ____
ROOT
ATOM      1  C   UNL     1     -10.559  54.741  50.212  0.00  0.00    +0.000 A 
ATOM      2  C   UNL     1     -10.274  54.635  48.739  0.00  0.00    +0.000 A 
ATOM      3  C   UNL     1     -11.564  55.530  50.623  0.00  0.00    +0.000 A 
ATOM      4  O   UNL     1      -9.199  54.144  48.382  0.00  0.00    +0.000 OA
ATOM      5  N   UNL     1     -11.232  55.128  47.833  0.00  0.00    +0.000 N 
ATOM      6  C   UNL     1     -12.344  56.292  49.654  0.00  0.00    +0.000 A 
ATOM      7  C   UNL     1     -12.314  55.939  48.303  0.00  0.00    +0.000 A 
ATOM      8  C   UNL     1     -13.031  57.444  50.046  0.00  0.00    +0.000 A 
ATOM      9  C   UNL     1     -13.230  56.545  47.436  0.00  0.00    +0.000 A 
ATOM     10  C   UNL     1     -13.725  58.199  49.111  0.00  0.00    +0.000 A 
ATOM     11  C   UNL     1     -13.922  57.688  47.835  0.00  0.00    +0.000 A 
ENDROOT
BRANCH   1  17
ATOM     12  S   UNL     1      -9.261  52.315  53.039  0.00  0.00    +0.000 S 
ATOM     13  O   UNL     1      -8.720  51.098  52.466  0.00  0.00    +0.000 OA
ATOM     14  O   UNL     1     -10.084  52.263  54.232  0.00  0.00    +0.000 OA
ATOM     15  N   UNL     1     -10.101  53.084  51.897  0.00  0.00    +0.000 N 
ATOM     16  C   UNL     1      -7.881  53.323  53.440  0.00  0.00    +0.000 A 
ATOM     17  C   UNL     1      -9.630  54.115  51.261  0.00  0.00    +0.000 C 
ATOM     18  C   UNL     1      -7.601  54.396  52.606  0.00  0.00    +0.000 A 
ATOM     19  C   UNL     1      -7.117  53.026  54.578  0.00  0.00    +0.000 A 
ATOM     20  N   UNL     1      -8.400  54.684  51.495  0.00  0.00    +0.000 N 
ATOM     21  C   UNL     1      -6.487  55.181  52.916  0.00  0.00    +0.000 A 
ATOM     22  C   UNL     1      -6.019  53.822  54.871  0.00  0.00    +0.000 A 
ATOM     23  C   UNL     1      -5.702  54.897  54.042  0.00  0.00    +0.000 A 
ATOM     24  H   UNL     1     -11.005  52.761  51.674  0.00  0.00    +0.000 HD
ATOM     25  H   UNL     1      -8.060  55.335  50.839  0.00  0.00    +0.000 HD
ENDBRANCH   1  17
BRANCH   3  26
ATOM     26  O   UNL     1     -11.947  55.745  51.936  0.00  0.00    +0.000 OA
ATOM     27  H   UNL     1     -12.786  56.115  52.125  0.00  0.00    +0.000 HD
ENDBRANCH   3  26
BRANCH   5  28
ATOM     28  C   UNL     1     -10.803  55.317  46.434  0.00  0.00    +0.000 C 
BRANCH  28  29
ATOM     29  C   UNL     1     -11.177  54.121  45.580  0.00  0.00    +0.000 C 
BRANCH  29  30
ATOM     30  C   UNL     1      -9.918  53.498  44.891  0.00  0.00    +0.000 C 
ATOM     31  C   UNL     1     -11.930  52.871  45.016  0.00  0.00    +0.000 C 
ATOM     32  C   UNL     1     -10.574  52.127  45.143  0.00  0.00    +0.000 C 
ENDBRANCH  29  30
ENDBRANCH  28  29
ENDBRANCH   5  28
TORSDOF 5
ENDMDL
MODEL 7
REMARK VINA RESULT:      -7.5      3.675      7.533
REMARK  Name = 338298
REMARK  5 active torsions:
REMARK  status: ('A' for Active; 'I' for Inactive)
REMARK    1  A    between atoms: C_6  and  C_10
REMARK    2  A    between atoms: C_14  and  O_18
REMARK    3  A    between atoms: N_17  and  C_21
REMARK    4  A    between atoms: C_21  and  C_24
REMARK    5  A    between atoms: C_24  and  C_27
REMARK                            x       y       z     vdW  Elec       q    Type
REMARK                         _______ _______ _______ _____ _____    ______ ____
ROOT
ATOM      1  C   UNL     1     -11.969  54.595  48.819  0.00  0.00    +0.000 A 
ATOM      2  C   UNL     1     -11.370  53.451  49.593  0.00  0.00    +0.000 A 
ATOM      3  C   UNL     1     -11.613  54.768  47.537  0.00  0.00    +0.000 A 
ATOM      4  O   UNL     1     -11.476  53.454  50.823  0.00  0.00    +0.000 OA
ATOM      5  N   UNL     1     -10.691  52.444  48.881  0.00  0.00    +0.000 N 
ATOM      6  C   UNL     1     -10.639  53.875  46.918  0.00  0.00    +0.000 A 
ATOM      7  C   UNL     1     -10.354  52.640  47.504  0.00  0.00    +0.000 A 
ATOM      8  C   UNL     1      -9.903  54.292  45.805  0.00  0.00    +0.000 A 
ATOM      9  C   UNL     1      -9.585  51.722  46.781  0.00  0.00    +0.000 A 
ATOM     10  C   UNL     1      -8.938  53.463  45.253  0.00  0.00    +0.000 A 
ATOM     11  C   UNL     1      -8.861  52.139  45.665  0.00  0.00    +0.000 A 
ENDROOT
BRANCH   1  17
ATOM     12  S   UNL     1     -14.919  56.224  50.870  0.00  0.00    +0.000 S 
ATOM     13  O   UNL     1     -14.664  56.142  52.295  0.00  0.00    +0.000 OA
ATOM     14  O   UNL     1     -16.247  55.970  50.346  0.00  0.00    +0.000 OA
ATOM     15  N   UNL     1     -13.897  55.233  50.114  0.00  0.00    +0.000 N 
ATOM     16  C   UNL     1     -14.510  57.862  50.392  0.00  0.00    +0.000 A 
ATOM     17  C   UNL     1     -12.834  55.665  49.501  0.00  0.00    +0.000 C 
ATOM     18  C   UNL     1     -13.315  58.057  49.714  0.00  0.00    +0.000 A 
ATOM     19  C   UNL     1     -15.391  58.910  50.696  0.00  0.00    +0.000 A 
ATOM     20  N   UNL     1     -12.472  56.987  49.399  0.00  0.00    +0.000 N 
ATOM     21  C   UNL     1     -12.981  59.367  49.357  0.00  0.00    +0.000 A 
ATOM     22  C   UNL     1     -15.043  60.202  50.326  0.00  0.00    +0.000 A 
ATOM     23  C   UNL     1     -13.841  60.432  49.660  0.00  0.00    +0.000 A 
ATOM     24  H   UNL     1     -14.084  54.266  50.114  0.00  0.00    +0.000 HD
ATOM     25  H   UNL     1     -11.562  57.194  49.084  0.00  0.00    +0.000 HD
ENDBRANCH   1  17
BRANCH   3  26
ATOM     26  O   UNL     1     -12.061  55.772  46.695  0.00  0.00    +0.000 OA
ATOM     27  H   UNL     1     -11.712  56.637  46.771  0.00  0.00    +0.000 HD
ENDBRANCH   3  26
BRANCH   5  28
ATOM     28  C   UNL     1      -9.841  51.524  49.661  0.00  0.00    +0.000 C 
BRANCH  28  29
ATOM     29  C   UNL     1      -8.581  52.218  50.142  0.00  0.00    +0.000 C 
BRANCH  29  30
ATOM     30  C   UNL     1      -7.297  51.463  49.664  0.00  0.00    +0.000 C 
ATOM     31  C   UNL     1      -7.677  53.494  50.095  0.00  0.00    +0.000 C 
ATOM     32  C   UNL     1      -6.901  52.774  48.960  0.00  0.00    +0.000 C 
ENDBRANCH  29  30
ENDBRANCH  28  29
ENDBRANCH   5  28
TORSDOF 5
ENDMDL
MODEL 8
REMARK VINA RESULT:      -7.5      2.955      7.446
REMARK  Name = 338298
REMARK  5 active torsions:
REMARK  status: ('A' for Active; 'I' for Inactive)
REMARK    1  A    between atoms: C_6  and  C_10
REMARK    2  A    between atoms: C_14  and  O_18
REMARK    3  A    between atoms: N_17  and  C_21
REMARK    4  A    between atoms: C_21  and  C_24
REMARK    5  A    between atoms: C_24  and  C_27
REMARK                            x       y       z     vdW  Elec       q    Type
REMARK                         _______ _______ _______ _____ _____    ______ ____
ROOT
ATOM      1  C   UNL     1     -10.687  55.596  49.427  0.00  0.00    +0.000 A 
ATOM      2  C   UNL     1      -9.535  55.088  50.251  0.00  0.00    +0.000 A 
ATOM      3  C   UNL     1     -10.648  55.445  48.094  0.00  0.00    +0.000 A 
ATOM      4  O   UNL     1      -9.438  55.466  51.422  0.00  0.00    +0.000 OA
ATOM      5  N   UNL     1      -8.604  54.227  49.641  0.00  0.00    +0.000 N 
ATOM      6  C   UNL     1      -9.492  54.822  47.458  0.00  0.00    +0.000 A 
ATOM      7  C   UNL     1      -8.606  54.057  48.220  0.00  0.00    +0.000 A 
ATOM      8  C   UNL     1      -9.196  55.080  46.117  0.00  0.00    +0.000 A 
ATOM      9  C   UNL     1      -7.636  53.301  47.552  0.00  0.00    +0.000 A 
ATOM     10  C   UNL     1      -8.065  54.533  45.531  0.00  0.00    +0.000 A 
ATOM     11  C   UNL     1      -7.352  53.554  46.211  0.00  0.00    +0.000 A 
ENDROOT
BRANCH   1  17
ATOM     12  S   UNL     1     -13.781  56.561  51.676  0.00  0.00    +0.000 S 
ATOM     13  O   UNL     1     -13.352  56.948  53.006  0.00  0.00    +0.000 OA
ATOM     14  O   UNL     1     -14.956  55.731  51.495  0.00  0.00    +0.000 OA
ATOM     15  N   UNL     1     -12.548  55.831  50.937  0.00  0.00    +0.000 N 
ATOM     16  C   UNL     1     -14.100  58.055  50.810  0.00  0.00    +0.000 A 
ATOM     17  C   UNL     1     -11.815  56.433  50.047  0.00  0.00    +0.000 C 
ATOM     18  C   UNL     1     -13.162  58.472  49.878  0.00  0.00    +0.000 A 
ATOM     19  C   UNL     1     -15.278  58.768  51.076  0.00  0.00    +0.000 A 
ATOM     20  N   UNL     1     -12.011  57.723  49.614  0.00  0.00    +0.000 N 
ATOM     21  C   UNL     1     -13.408  59.675  49.208  0.00  0.00    +0.000 A 
ATOM     22  C   UNL     1     -15.506  59.956  50.395  0.00  0.00    +0.000 A 
ATOM     23  C   UNL     1     -14.573  60.411  49.465  0.00  0.00    +0.000 A 
ATOM     24  H   UNL     1     -12.343  54.895  51.166  0.00  0.00    +0.000 HD
ATOM     25  H   UNL     1     -11.297  58.146  49.085  0.00  0.00    +0.000 HD
ENDBRANCH   1  17
BRANCH   3  26
ATOM     26  O   UNL     1     -11.616  55.864  47.197  0.00  0.00    +0.000 OA
ATOM     27  H   UNL     1     -12.263  56.487  47.463  0.00  0.00    +0.000 HD
ENDBRANCH   3  26
BRANCH   5  28
ATOM     28  C   UNL     1      -7.327  54.008  50.346  0.00  0.00    +0.000 C 
BRANCH  28  29
ATOM     29  C   UNL     1      -6.442  55.238  50.274  0.00  0.00    +0.000 C 
BRANCH  29  30
ATOM     30  C   UNL     1      -5.102  54.934  49.526  0.00  0.00    +0.000 C 
ATOM     31  C   UNL     1      -6.160  53.899  51.032  0.00  0.00    +0.000 C 
ATOM     32  C   UNL     1      -4.656  54.214  50.813  0.00  0.00    +0.000 C 
ENDBRANCH  29  30
ENDBRANCH  28  29
ENDBRANCH   5  28
TORSDOF 5
ENDMDL
MODEL 9
REMARK VINA RESULT:      -7.3      2.654      7.146
REMARK  Name = 338298
REMARK  5 active torsions:
REMARK  status: ('A' for Active; 'I' for Inactive)
REMARK    1  A    between atoms: C_6  and  C_10
REMARK    2  A    between atoms: C_14  and  O_18
REMARK    3  A    between atoms: N_17  and  C_21
REMARK    4  A    between atoms: C_21  and  C_24
REMARK    5  A    between atoms: C_24  and  C_27
REMARK                            x       y       z     vdW  Elec       q    Type
REMARK                         _______ _______ _______ _____ _____    ______ ____
ROOT
ATOM      1  C   UNL     1     -10.770  55.126  50.477  0.00  0.00    +0.000 A 
ATOM      2  C   UNL     1     -10.315  54.333  51.672  0.00  0.00    +0.000 A 
ATOM      3  C   UNL     1      -9.950  55.234  49.420  0.00  0.00    +0.000 A 
ATOM      4  O   UNL     1     -10.934  54.461  52.733  0.00  0.00    +0.000 OA
ATOM      5  N   UNL     1      -9.186  53.503  51.536  0.00  0.00    +0.000 N 
ATOM      6  C   UNL     1      -8.629  54.615  49.448  0.00  0.00    +0.000 A 
ATOM      7  C   UNL     1      -8.347  53.616  50.382  0.00  0.00    +0.000 A 
ATOM      8  C   UNL     1      -7.605  55.093  48.626  0.00  0.00    +0.000 A 
ATOM      9  C   UNL     1      -7.155  52.895  50.246  0.00  0.00    +0.000 A 
ATOM     10  C   UNL     1      -6.335  54.540  48.695  0.00  0.00    +0.000 A 
ATOM     11  C   UNL     1      -6.140  53.369  49.416  0.00  0.00    +0.000 A 
ENDROOT
BRANCH   1  17
ATOM     12  S   UNL     1     -13.847  57.235  49.195  0.00  0.00    +0.000 S 
ATOM     13  O   UNL     1     -14.926  56.365  48.766  0.00  0.00    +0.000 OA
ATOM     14  O   UNL     1     -13.506  58.416  48.426  0.00  0.00    +0.000 OA
ATOM     15  N   UNL     1     -12.510  56.347  49.346  0.00  0.00    +0.000 N 
ATOM     16  C   UNL     1     -14.282  57.802  50.797  0.00  0.00    +0.000 A 
ATOM     17  C   UNL     1     -12.062  55.954  50.502  0.00  0.00    +0.000 C 
ATOM     18  C   UNL     1     -13.629  57.236  51.882  0.00  0.00    +0.000 A 
ATOM     19  C   UNL     1     -15.256  58.802  50.934  0.00  0.00    +0.000 A 
ATOM     20  N   UNL     1     -12.641  56.261  51.711  0.00  0.00    +0.000 N 
ATOM     21  C   UNL     1     -13.996  57.673  53.158  0.00  0.00    +0.000 A 
ATOM     22  C   UNL     1     -15.601  59.227  52.209  0.00  0.00    +0.000 A 
ATOM     23  C   UNL     1     -14.975  58.664  53.320  0.00  0.00    +0.000 A 
ATOM     24  H   UNL     1     -12.013  56.094  48.534  0.00  0.00    +0.000 HD
ATOM     25  H   UNL     1     -12.340  55.765  52.506  0.00  0.00    +0.000 HD
ENDBRANCH   1  17
BRANCH   3  26
ATOM     26  O   UNL     1     -10.211  55.933  48.254  0.00  0.00    +0.000 OA
ATOM     27  H   UNL     1     -11.095  56.130  48.013  0.00  0.00    +0.000 HD
ENDBRANCH   3  26
BRANCH   5  28
ATOM     28  C   UNL     1      -8.566  53.000  52.776  0.00  0.00    +0.000 C 
BRANCH  28  29
ATOM     29  C   UNL     1      -7.550  53.987  53.321  0.00  0.00    +0.000 C 
BRANCH  29  30
ATOM     30  C   UNL     1      -6.634  53.324  54.401  0.00  0.00    +0.000 C 
ATOM     31  C   UNL     1      -7.550  55.222  54.282  0.00  0.00    +0.000 C 
ATOM     32  C   UNL     1      -6.139  54.747  54.721  0.00  0.00    +0.000 C 
ENDBRANCH  29  30
ENDBRANCH  28  29
ENDBRANCH   5  28
TORSDOF 5
ENDMDL
