MODEL 1
REMARK VINA RESULT:      -7.9      0.000      0.000
REMARK  Name = 338121
REMARK  12 active torsions:
REMARK  status: ('A' for Active; 'I' for Inactive)
REMARK    1  A    between atoms: C_6  and  C_10
REMARK    2  A    between atoms: C_14  and  O_18
REMARK    3  A    between atoms: N_17  and  C_21
REMARK    4  A    between atoms: C_21  and  C_24
REMARK    5  A    between atoms: C_24  and  C_27
REMARK    6  A    between atoms: C_25  and  O_28
REMARK    7  A    between atoms: C_27  and  C_29
REMARK    8  A    between atoms: C_27  and  C_30
REMARK    9  A    between atoms: O_28  and  C_31
REMARK   10  A    between atoms: C_31  and  C_32
REMARK   11  A    between atoms: C_32  and  C_33
REMARK   12  A    between atoms: C_33  and  C_34
REMARK                            x       y       z     vdW  Elec       q    Type
REMARK                         _______ _______ _______ _____ _____    ______ ____
ROOT
ATOM      1  C   UNL     1      -9.082  54.873  50.293  0.00  0.00    +0.000 A 
ATOM      2  C   UNL     1      -8.505  54.616  48.936  0.00  0.00    +0.000 A 
ATOM      3  C   UNL     1     -10.315  55.394  50.415  0.00  0.00    +0.000 A 
ATOM      4  O   UNL     1      -7.427  54.019  48.863  0.00  0.00    +0.000 OA
ATOM      5  N   UNL     1      -9.212  55.038  47.819  0.00  0.00    +0.000 N 
ATOM      6  C   UNL     1     -11.109  55.703  49.218  0.00  0.00    +0.000 A 
ATOM      7  C   UNL     1     -10.556  55.501  47.942  0.00  0.00    +0.000 A 
ATOM      8  C   UNL     1     -12.429  56.170  49.328  0.00  0.00    +0.000 A 
ATOM      9  C   UNL     1     -11.357  55.728  46.818  0.00  0.00    +0.000 A 
ATOM     10  C   UNL     1     -13.204  56.418  48.197  0.00  0.00    +0.000 A 
ATOM     11  C   UNL     1     -12.661  56.197  46.939  0.00  0.00    +0.000 A 
ENDROOT
BRANCH   1  17
ATOM     12  S   UNL     1      -6.178  54.660  52.930  0.00  0.00    +0.000 S 
ATOM     13  O   UNL     1      -6.210  55.739  53.896  0.00  0.00    +0.000 OA
ATOM     14  O   UNL     1      -4.914  54.221  52.365  0.00  0.00    +0.000 OA
ATOM     15  N   UNL     1      -7.153  55.071  51.700  0.00  0.00    +0.000 N 
ATOM     16  C   UNL     1      -6.861  53.259  53.732  0.00  0.00    +0.000 A 
ATOM     17  C   UNL     1      -8.286  54.465  51.514  0.00  0.00    +0.000 C 
ATOM     18  C   UNL     1      -8.108  52.822  53.317  0.00  0.00    +0.000 A 
ATOM     19  C   UNL     1      -6.146  52.610  54.741  0.00  0.00    +0.000 A 
ATOM     20  N   UNL     1      -8.816  53.483  52.320  0.00  0.00    +0.000 N 
ATOM     21  C   UNL     1      -8.683  51.735  53.984  0.00  0.00    +0.000 A 
ATOM     22  C   UNL     1      -6.718  51.510  55.373  0.00  0.00    +0.000 A 
ATOM     23  C   UNL     1      -7.991  51.080  55.002  0.00  0.00    +0.000 A 
ATOM     24  H   UNL     1      -6.880  55.790  51.085  0.00  0.00    +0.000 HD
ATOM     25  H   UNL     1      -9.759  53.234  52.182  0.00  0.00    +0.000 HD
ENDBRANCH   1  17
BRANCH   3  26
ATOM     26  O   UNL     1     -10.953  55.624  51.621  0.00  0.00    +0.000 OA
ATOM     27  H   UNL     1     -11.880  55.754  51.643  0.00  0.00    +0.000 HD
ENDBRANCH   3  26
BRANCH   5  28
ATOM     28  C   UNL     1      -8.599  54.843  46.501  0.00  0.00    +0.000 C 
BRANCH  28  29
ATOM     29  C   UNL     1      -8.801  53.455  45.865  0.00  0.00    +0.000 C 
BRANCH  29  30
ATOM     30  C   UNL     1      -9.425  53.427  44.461  0.00  0.00    +0.000 C 
ATOM     31  C   UNL     1      -8.647  52.531  43.501  0.00  0.00    +0.000 C 
ATOM     32  C   UNL     1     -10.872  52.933  44.581  0.00  0.00    +0.000 C 
ENDBRANCH  29  30
ENDBRANCH  28  29
ENDBRANCH   5  28
BRANCH  10  33
ATOM     33  O   UNL     1     -14.477  56.848  48.438  0.00  0.00    +0.000 OA
BRANCH  33  34
ATOM     34  C   UNL     1     -14.721  57.397  49.732  0.00  0.00    +0.000 C 
BRANCH  34  35
ATOM     35  C   UNL     1     -15.759  56.532  50.426  0.00  0.00    +0.000 C 
BRANCH  35  36
ATOM     36  C   UNL     1     -15.783  56.801  51.930  0.00  0.00    +0.000 C 
BRANCH  36  37
ATOM     37  C   UNL     1     -14.423  57.010  52.441  0.00  0.00    +0.000 C 
ATOM     38  N   UNL     1     -13.349  57.160  52.845  0.00  0.00    +0.000 NA
ENDBRANCH  36  37
ENDBRANCH  35  36
ENDBRANCH  34  35
ENDBRANCH  33  34
ENDBRANCH  10  33
TORSDOF 10
ENDMDL
MODEL 2
REMARK VINA RESULT:      -7.7      2.840      6.992
REMARK  Name = 338121
REMARK  12 active torsions:
REMARK  status: ('A' for Active; 'I' for Inactive)
REMARK    1  A    between atoms: C_6  and  C_10
REMARK    2  A    between atoms: C_14  and  O_18
REMARK    3  A    between atoms: N_17  and  C_21
REMARK    4  A    between atoms: C_21  and  C_24
REMARK    5  A    between atoms: C_24  and  C_27
REMARK    6  A    between atoms: C_25  and  O_28
REMARK    7  A    between atoms: C_27  and  C_29
REMARK    8  A    between atoms: C_27  and  C_30
REMARK    9  A    between atoms: O_28  and  C_31
REMARK   10  A    between atoms: C_31  and  C_32
REMARK   11  A    between atoms: C_32  and  C_33
REMARK   12  A    between atoms: C_33  and  C_34
REMARK                            x       y       z     vdW  Elec       q    Type
REMARK                         _______ _______ _______ _____ _____    ______ ____
ROOT
ATOM      1  C   UNL     1     -11.476  56.282  48.484  0.00  0.00    +0.000 A 
ATOM      2  C   UNL     1     -11.865  55.679  47.171  0.00  0.00    +0.000 A 
ATOM      3  C   UNL     1     -10.235  56.105  48.967  0.00  0.00    +0.000 A 
ATOM      4  O   UNL     1     -12.969  55.969  46.698  0.00  0.00    +0.000 OA
ATOM      5  N   UNL     1     -10.966  54.839  46.529  0.00  0.00    +0.000 N 
ATOM      6  C   UNL     1      -9.248  55.330  48.203  0.00  0.00    +0.000 A 
ATOM      7  C   UNL     1      -9.620  54.728  46.990  0.00  0.00    +0.000 A 
ATOM      8  C   UNL     1      -7.923  55.205  48.653  0.00  0.00    +0.000 A 
ATOM      9  C   UNL     1      -8.644  54.060  46.242  0.00  0.00    +0.000 A 
ATOM     10  C   UNL     1      -6.970  54.513  47.910  0.00  0.00    +0.000 A 
ATOM     11  C   UNL     1      -7.337  53.939  46.701  0.00  0.00    +0.000 A 
ENDROOT
BRANCH   1  17
ATOM     12  S   UNL     1     -13.652  59.396  49.487  0.00  0.00    +0.000 S 
ATOM     13  O   UNL     1     -14.831  59.552  48.661  0.00  0.00    +0.000 OA
ATOM     14  O   UNL     1     -12.863  60.555  49.865  0.00  0.00    +0.000 OA
ATOM     15  N   UNL     1     -12.663  58.347  48.741  0.00  0.00    +0.000 N 
ATOM     16  C   UNL     1     -14.194  58.671  50.989  0.00  0.00    +0.000 A 
ATOM     17  C   UNL     1     -12.478  57.152  49.213  0.00  0.00    +0.000 C 
ATOM     18  C   UNL     1     -13.836  57.356  51.236  0.00  0.00    +0.000 A 
ATOM     19  C   UNL     1     -14.945  59.419  51.898  0.00  0.00    +0.000 A 
ATOM     20  N   UNL     1     -13.100  56.616  50.319  0.00  0.00    +0.000 N 
ATOM     21  C   UNL     1     -14.306  56.754  52.408  0.00  0.00    +0.000 A 
ATOM     22  C   UNL     1     -15.377  58.815  53.075  0.00  0.00    +0.000 A 
ATOM     23  C   UNL     1     -15.067  57.478  53.325  0.00  0.00    +0.000 A 
ATOM     24  H   UNL     1     -12.197  58.623  47.919  0.00  0.00    +0.000 HD
ATOM     25  H   UNL     1     -13.018  55.647  50.468  0.00  0.00    +0.000 HD
ENDBRANCH   1  17
BRANCH   3  26
ATOM     26  O   UNL     1      -9.766  56.659  50.145  0.00  0.00    +0.000 OA
ATOM     27  H   UNL     1      -9.088  57.305  50.122  0.00  0.00    +0.000 HD
ENDBRANCH   3  26
BRANCH   5  28
ATOM     28  C   UNL     1     -11.391  54.200  45.278  0.00  0.00    +0.000 C 
BRANCH  28  29
ATOM     29  C   UNL     1     -11.899  52.752  45.405  0.00  0.00    +0.000 C 
BRANCH  29  30
ATOM     30  C   UNL     1     -11.185  51.696  44.548  0.00  0.00    +0.000 C 
ATOM     31  C   UNL     1     -10.305  52.323  43.470  0.00  0.00    +0.000 C 
ATOM     32  C   UNL     1     -10.334  50.814  45.471  0.00  0.00    +0.000 C 
ENDBRANCH  29  30
ENDBRANCH  28  29
ENDBRANCH   5  28
BRANCH  10  33
ATOM     33  O   UNL     1      -5.715  54.482  48.445  0.00  0.00    +0.000 OA
BRANCH  33  34
ATOM     34  C   UNL     1      -5.556  55.113  49.714  0.00  0.00    +0.000 C 
BRANCH  34  35
ATOM     35  C   UNL     1      -5.249  54.038  50.743  0.00  0.00    +0.000 C 
BRANCH  35  36
ATOM     36  C   UNL     1      -5.593  54.513  52.154  0.00  0.00    +0.000 C 
BRANCH  36  37
ATOM     37  C   UNL     1      -7.005  54.907  52.239  0.00  0.00    +0.000 C 
ATOM     38  N   UNL     1      -8.121  55.206  52.300  0.00  0.00    +0.000 NA
ENDBRANCH  36  37
ENDBRANCH  35  36
ENDBRANCH  34  35
ENDBRANCH  33  34
ENDBRANCH  10  33
TORSDOF 10
ENDMDL
MODEL 3
REMARK VINA RESULT:      -7.6      1.979      2.517
REMARK  Name = 338121
REMARK  12 active torsions:
REMARK  status: ('A' for Active; 'I' for Inactive)
REMARK    1  A    between atoms: C_6  and  C_10
REMARK    2  A    between atoms: C_14  and  O_18
REMARK    3  A    between atoms: N_17  and  C_21
REMARK    4  A    between atoms: C_21  and  C_24
REMARK    5  A    between atoms: C_24  and  C_27
REMARK    6  A    between atoms: C_25  and  O_28
REMARK    7  A    between atoms: C_27  and  C_29
REMARK    8  A    between atoms: C_27  and  C_30
REMARK    9  A    between atoms: O_28  and  C_31
REMARK   10  A    between atoms: C_31  and  C_32
REMARK   11  A    between atoms: C_32  and  C_33
REMARK   12  A    between atoms: C_33  and  C_34
REMARK                            x       y       z     vdW  Elec       q    Type
REMARK                         _______ _______ _______ _____ _____    ______ ____
ROOT
ATOM      1  C   UNL     1      -9.895  54.511  49.756  0.00  0.00    +0.000 A 
ATOM      2  C   UNL     1      -9.831  54.015  48.346  0.00  0.00    +0.000 A 
ATOM      3  C   UNL     1     -10.756  55.487  50.090  0.00  0.00    +0.000 A 
ATOM      4  O   UNL     1      -9.124  53.032  48.103  0.00  0.00    +0.000 OA
ATOM      5  N   UNL     1     -10.582  54.664  47.376  0.00  0.00    +0.000 N 
ATOM      6  C   UNL     1     -11.648  56.065  49.076  0.00  0.00    +0.000 A 
ATOM      7  C   UNL     1     -11.562  55.632  47.743  0.00  0.00    +0.000 A 
ATOM      8  C   UNL     1     -12.611  57.028  49.426  0.00  0.00    +0.000 A 
ATOM      9  C   UNL     1     -12.474  56.141  46.810  0.00  0.00    +0.000 A 
ATOM     10  C   UNL     1     -13.492  57.544  48.478  0.00  0.00    +0.000 A 
ATOM     11  C   UNL     1     -13.418  57.098  47.167  0.00  0.00    +0.000 A 
ENDROOT
BRANCH   1  17
ATOM     12  S   UNL     1      -8.349  51.742  52.075  0.00  0.00    +0.000 S 
ATOM     13  O   UNL     1      -7.325  50.958  51.415  0.00  0.00    +0.000 OA
ATOM     14  O   UNL     1      -9.325  51.096  52.936  0.00  0.00    +0.000 OA
ATOM     15  N   UNL     1      -9.161  52.555  50.930  0.00  0.00    +0.000 N 
ATOM     16  C   UNL     1      -7.507  52.902  53.084  0.00  0.00    +0.000 A 
ATOM     17  C   UNL     1      -9.034  53.841  50.805  0.00  0.00    +0.000 C 
ATOM     18  C   UNL     1      -7.545  54.234  52.705  0.00  0.00    +0.000 A 
ATOM     19  C   UNL     1      -6.843  52.478  54.238  0.00  0.00    +0.000 A 
ATOM     20  N   UNL     1      -8.198  54.643  51.549  0.00  0.00    +0.000 N 
ATOM     21  C   UNL     1      -6.835  55.160  53.477  0.00  0.00    +0.000 A 
ATOM     22  C   UNL     1      -6.169  53.417  55.012  0.00  0.00    +0.000 A 
ATOM     23  C   UNL     1      -6.156  54.757  54.626  0.00  0.00    +0.000 A 
ATOM     24  H   UNL     1      -9.761  52.065  50.321  0.00  0.00    +0.000 HD
ATOM     25  H   UNL     1      -8.053  55.567  51.240  0.00  0.00    +0.000 HD
ENDBRANCH   1  17
BRANCH   3  26
ATOM     26  O   UNL     1     -10.924  55.979  51.373  0.00  0.00    +0.000 OA
ATOM     27  H   UNL     1     -11.758  55.915  51.794  0.00  0.00    +0.000 HD
ENDBRANCH   3  26
BRANCH   5  28
ATOM     28  C   UNL     1     -10.451  54.211  45.986  0.00  0.00    +0.000 C 
BRANCH  28  29
ATOM     29  C   UNL     1     -11.572  53.290  45.472  0.00  0.00    +0.000 C 
BRANCH  29  30
ATOM     30  C   UNL     1     -11.455  51.800  45.830  0.00  0.00    +0.000 C 
ATOM     31  C   UNL     1     -12.494  51.369  46.862  0.00  0.00    +0.000 C 
ATOM     32  C   UNL     1     -11.619  50.976  44.546  0.00  0.00    +0.000 C 
ENDBRANCH  29  30
ENDBRANCH  28  29
ENDBRANCH   5  28
BRANCH  10  33
ATOM     33  O   UNL     1     -14.392  58.456  48.948  0.00  0.00    +0.000 OA
BRANCH  33  34
ATOM     34  C   UNL     1     -14.006  59.177  50.117  0.00  0.00    +0.000 C 
BRANCH  34  35
ATOM     35  C   UNL     1     -15.219  59.294  51.025  0.00  0.00    +0.000 C 
BRANCH  35  36
ATOM     36  C   UNL     1     -14.826  59.130  52.492  0.00  0.00    +0.000 C 
BRANCH  36  37
ATOM     37  C   UNL     1     -14.057  57.895  52.688  0.00  0.00    +0.000 C 
ATOM     38  N   UNL     1     -13.462  56.915  52.840  0.00  0.00    +0.000 NA
ENDBRANCH  36  37
ENDBRANCH  35  36
ENDBRANCH  34  35
ENDBRANCH  33  34
ENDBRANCH  10  33
TORSDOF 10
ENDMDL
MODEL 4
REMARK VINA RESULT:      -7.6      3.010      7.492
REMARK  Name = 338121
REMARK  12 active torsions:
REMARK  status: ('A' for Active; 'I' for Inactive)
REMARK    1  A    between atoms: C_6  and  C_10
REMARK    2  A    between atoms: C_14  and  O_18
REMARK    3  A    between atoms: N_17  and  C_21
REMARK    4  A    between atoms: C_21  and  C_24
REMARK    5  A    between atoms: C_24  and  C_27
REMARK    6  A    between atoms: C_25  and  O_28
REMARK    7  A    between atoms: C_27  and  C_29
REMARK    8  A    between atoms: C_27  and  C_30
REMARK    9  A    between atoms: O_28  and  C_31
REMARK   10  A    between atoms: C_31  and  C_32
REMARK   11  A    between atoms: C_32  and  C_33
REMARK   12  A    between atoms: C_33  and  C_34
REMARK                            x       y       z     vdW  Elec       q    Type
REMARK                         _______ _______ _______ _____ _____    ______ ____
ROOT
ATOM      1  C   UNL     1     -12.185  54.354  50.326  0.00  0.00    +0.000 A 
ATOM      2  C   UNL     1     -11.933  53.919  48.916  0.00  0.00    +0.000 A 
ATOM      3  C   UNL     1     -11.568  53.732  51.345  0.00  0.00    +0.000 A 
ATOM      4  O   UNL     1     -12.414  54.594  48.000  0.00  0.00    +0.000 OA
ATOM      5  N   UNL     1     -11.152  52.793  48.695  0.00  0.00    +0.000 N 
ATOM      6  C   UNL     1     -10.633  52.631  51.081  0.00  0.00    +0.000 A 
ATOM      7  C   UNL     1     -10.423  52.192  49.763  0.00  0.00    +0.000 A 
ATOM      8  C   UNL     1      -9.917  52.026  52.129  0.00  0.00    +0.000 A 
ATOM      9  C   UNL     1      -9.470  51.195  49.529  0.00  0.00    +0.000 A 
ATOM     10  C   UNL     1      -8.992  51.014  51.880  0.00  0.00    +0.000 A 
ATOM     11  C   UNL     1      -8.772  50.599  50.574  0.00  0.00    +0.000 A 
ENDROOT
BRANCH   1  17
ATOM     12  S   UNL     1     -15.317  56.497  51.344  0.00  0.00    +0.000 S 
ATOM     13  O   UNL     1     -15.395  56.742  52.770  0.00  0.00    +0.000 OA
ATOM     14  O   UNL     1     -16.514  56.167  50.591  0.00  0.00    +0.000 OA
ATOM     15  N   UNL     1     -14.240  55.306  51.108  0.00  0.00    +0.000 N 
ATOM     16  C   UNL     1     -14.683  57.965  50.625  0.00  0.00    +0.000 A 
ATOM     17  C   UNL     1     -13.082  55.548  50.572  0.00  0.00    +0.000 C 
ATOM     18  C   UNL     1     -13.394  57.931  50.118  0.00  0.00    +0.000 A 
ATOM     19  C   UNL     1     -15.475  59.113  50.560  0.00  0.00    +0.000 A 
ATOM     20  N   UNL     1     -12.610  56.786  50.200  0.00  0.00    +0.000 N 
ATOM     21  C   UNL     1     -12.862  59.110  49.587  0.00  0.00    +0.000 A 
ATOM     22  C   UNL     1     -14.942  60.270  50.000  0.00  0.00    +0.000 A 
ATOM     23  C   UNL     1     -13.632  60.271  49.523  0.00  0.00    +0.000 A 
ATOM     24  H   UNL     1     -14.469  54.386  51.375  0.00  0.00    +0.000 HD
ATOM     25  H   UNL     1     -11.654  56.866  49.977  0.00  0.00    +0.000 HD
ENDBRANCH   1  17
BRANCH   3  26
ATOM     26  O   UNL     1     -11.700  54.089  52.675  0.00  0.00    +0.000 OA
ATOM     27  H   UNL     1     -11.315  54.884  52.988  0.00  0.00    +0.000 HD
ENDBRANCH   3  26
BRANCH   5  28
ATOM     28  C   UNL     1     -10.974  52.339  47.310  0.00  0.00    +0.000 C 
BRANCH  28  29
ATOM     29  C   UNL     1      -9.819  52.995  46.533  0.00  0.00    +0.000 C 
BRANCH  29  30
ATOM     30  C   UNL     1     -10.158  53.559  45.144  0.00  0.00    +0.000 C 
ATOM     31  C   UNL     1      -9.212  53.042  44.063  0.00  0.00    +0.000 C 
ATOM     32  C   UNL     1     -11.603  53.174  44.802  0.00  0.00    +0.000 C 
ENDBRANCH  29  30
ENDBRANCH  28  29
ENDBRANCH   5  28
BRANCH  10  33
ATOM     33  O   UNL     1      -8.348  50.523  52.979  0.00  0.00    +0.000 OA
BRANCH  33  34
ATOM     34  C   UNL     1      -7.999  51.475  53.982  0.00  0.00    +0.000 C 
BRANCH  34  35
ATOM     35  C   UNL     1      -6.625  52.033  53.650  0.00  0.00    +0.000 C 
BRANCH  35  36
ATOM     36  C   UNL     1      -6.192  53.077  54.677  0.00  0.00    +0.000 C 
BRANCH  36  37
ATOM     37  C   UNL     1      -6.868  54.357  54.432  0.00  0.00    +0.000 C 
ATOM     38  N   UNL     1      -7.406  55.365  54.251  0.00  0.00    +0.000 NA
ENDBRANCH  36  37
ENDBRANCH  35  36
ENDBRANCH  34  35
ENDBRANCH  33  34
ENDBRANCH  10  33
TORSDOF 10
ENDMDL
MODEL 5
REMARK VINA RESULT:      -7.5      3.132      7.308
REMARK  Name = 338121
REMARK  12 active torsions:
REMARK  status: ('A' for Active; 'I' for Inactive)
REMARK    1  A    between atoms: C_6  and  C_10
REMARK    2  A    between atoms: C_14  and  O_18
REMARK    3  A    between atoms: N_17  and  C_21
REMARK    4  A    between atoms: C_21  and  C_24
REMARK    5  A    between atoms: C_24  and  C_27
REMARK    6  A    between atoms: C_25  and  O_28
REMARK    7  A    between atoms: C_27  and  C_29
REMARK    8  A    between atoms: C_27  and  C_30
REMARK    9  A    between atoms: O_28  and  C_31
REMARK   10  A    between atoms: C_31  and  C_32
REMARK   11  A    between atoms: C_32  and  C_33
REMARK   12  A    between atoms: C_33  and  C_34
REMARK                            x       y       z     vdW  Elec       q    Type
REMARK                         _______ _______ _______ _____ _____    ______ ____
ROOT
ATOM      1  C   UNL     1     -11.221  55.986  49.046  0.00  0.00    +0.000 A 
ATOM      2  C   UNL     1     -10.254  55.385  50.017  0.00  0.00    +0.000 A 
ATOM      3  C   UNL     1     -11.178  55.639  47.749  0.00  0.00    +0.000 A 
ATOM      4  O   UNL     1     -10.406  55.626  51.219  0.00  0.00    +0.000 OA
ATOM      5  N   UNL     1      -9.245  54.564  49.534  0.00  0.00    +0.000 N 
ATOM      6  C   UNL     1     -10.191  54.658  47.278  0.00  0.00    +0.000 A 
ATOM      7  C   UNL     1      -9.256  54.122  48.178  0.00  0.00    +0.000 A 
ATOM      8  C   UNL     1     -10.187  54.223  45.941  0.00  0.00    +0.000 A 
ATOM      9  C   UNL     1      -8.377  53.132  47.724  0.00  0.00    +0.000 A 
ATOM     10  C   UNL     1      -9.285  53.257  45.500  0.00  0.00    +0.000 A 
ATOM     11  C   UNL     1      -8.378  52.714  46.398  0.00  0.00    +0.000 A 
ENDROOT
BRANCH   1  17
ATOM     12  S   UNL     1     -13.497  59.165  49.436  0.00  0.00    +0.000 S 
ATOM     13  O   UNL     1     -14.601  59.188  48.498  0.00  0.00    +0.000 OA
ATOM     14  O   UNL     1     -12.752  60.379  49.721  0.00  0.00    +0.000 OA
ATOM     15  N   UNL     1     -12.440  58.045  48.923  0.00  0.00    +0.000 N 
ATOM     16  C   UNL     1     -14.163  58.635  50.969  0.00  0.00    +0.000 A 
ATOM     17  C   UNL     1     -12.288  56.926  49.565  0.00  0.00    +0.000 C 
ATOM     18  C   UNL     1     -13.818  57.371  51.419  0.00  0.00    +0.000 A 
ATOM     19  C   UNL     1     -14.995  59.483  51.703  0.00  0.00    +0.000 A 
ATOM     20  N   UNL     1     -13.000  56.531  50.674  0.00  0.00    +0.000 N 
ATOM     21  C   UNL     1     -14.383  56.921  52.617  0.00  0.00    +0.000 A 
ATOM     22  C   UNL     1     -15.523  59.032  52.908  0.00  0.00    +0.000 A 
ATOM     23  C   UNL     1     -15.226  57.746  53.360  0.00  0.00    +0.000 A 
ATOM     24  H   UNL     1     -11.906  58.218  48.114  0.00  0.00    +0.000 HD
ATOM     25  H   UNL     1     -12.924  55.591  50.959  0.00  0.00    +0.000 HD
ENDBRANCH   1  17
BRANCH   3  26
ATOM     26  O   UNL     1     -12.055  56.103  46.784  0.00  0.00    +0.000 OA
ATOM     27  H   UNL     1     -11.795  56.121  45.884  0.00  0.00    +0.000 HD
ENDBRANCH   3  26
BRANCH   5  28
ATOM     28  C   UNL     1      -8.264  54.041  50.491  0.00  0.00    +0.000 C 
BRANCH  28  29
ATOM     29  C   UNL     1      -7.066  54.960  50.793  0.00  0.00    +0.000 C 
BRANCH  29  30
ATOM     30  C   UNL     1      -5.669  54.378  50.526  0.00  0.00    +0.000 C 
ATOM     31  C   UNL     1      -5.696  52.861  50.361  0.00  0.00    +0.000 C 
ATOM     32  C   UNL     1      -5.103  55.033  49.259  0.00  0.00    +0.000 C 
ENDBRANCH  29  30
ENDBRANCH  28  29
ENDBRANCH   5  28
BRANCH  10  33
ATOM     33  O   UNL     1      -9.396  52.905  44.186  0.00  0.00    +0.000 OA
BRANCH  33  34
ATOM     34  C   UNL     1      -9.633  51.523  43.923  0.00  0.00    +0.000 C 
BRANCH  34  35
ATOM     35  C   UNL     1     -11.131  51.278  43.986  0.00  0.00    +0.000 C 
BRANCH  35  36
ATOM     36  C   UNL     1     -11.484  50.314  45.118  0.00  0.00    +0.000 C 
BRANCH  36  37
ATOM     37  C   UNL     1     -12.082  51.036  46.247  0.00  0.00    +0.000 C 
ATOM     38  N   UNL     1     -12.555  51.594  47.143  0.00  0.00    +0.000 NA
ENDBRANCH  36  37
ENDBRANCH  35  36
ENDBRANCH  34  35
ENDBRANCH  33  34
ENDBRANCH  10  33
TORSDOF 10
ENDMDL
MODEL 6
REMARK VINA RESULT:      -7.4      1.821      5.211
REMARK  Name = 338121
REMARK  12 active torsions:
REMARK  status: ('A' for Active; 'I' for Inactive)
REMARK    1  A    between atoms: C_6  and  C_10
REMARK    2  A    between atoms: C_14  and  O_18
REMARK    3  A    between atoms: N_17  and  C_21
REMARK    4  A    between atoms: C_21  and  C_24
REMARK    5  A    between atoms: C_24  and  C_27
REMARK    6  A    between atoms: C_25  and  O_28
REMARK    7  A    between atoms: C_27  and  C_29
REMARK    8  A    between atoms: C_27  and  C_30
REMARK    9  A    between atoms: O_28  and  C_31
REMARK   10  A    between atoms: C_31  and  C_32
REMARK   11  A    between atoms: C_32  and  C_33
REMARK   12  A    between atoms: C_33  and  C_34
REMARK                            x       y       z     vdW  Elec       q    Type
REMARK                         _______ _______ _______ _____ _____    ______ ____
ROOT
ATOM      1  C   UNL     1      -9.568  53.983  51.294  0.00  0.00    +0.000 A 
ATOM      2  C   UNL     1     -10.652  54.986  51.536  0.00  0.00    +0.000 A 
ATOM      3  C   UNL     1      -9.251  53.621  50.039  0.00  0.00    +0.000 A 
ATOM      4  O   UNL     1     -10.828  55.390  52.690  0.00  0.00    +0.000 OA
ATOM      5  N   UNL     1     -11.397  55.437  50.456  0.00  0.00    +0.000 N 
ATOM      6  C   UNL     1      -9.957  54.218  48.897  0.00  0.00    +0.000 A 
ATOM      7  C   UNL     1     -11.002  55.129  49.120  0.00  0.00    +0.000 A 
ATOM      8  C   UNL     1      -9.581  53.913  47.577  0.00  0.00    +0.000 A 
ATOM      9  C   UNL     1     -11.607  55.743  48.018  0.00  0.00    +0.000 A 
ATOM     10  C   UNL     1     -10.213  54.512  46.490  0.00  0.00    +0.000 A 
ATOM     11  C   UNL     1     -11.231  55.428  46.716  0.00  0.00    +0.000 A 
ENDROOT
BRANCH   1  17
ATOM     12  S   UNL     1      -6.604  53.259  53.769  0.00  0.00    +0.000 S 
ATOM     13  O   UNL     1      -6.379  54.335  54.711  0.00  0.00    +0.000 OA
ATOM     14  O   UNL     1      -5.479  52.585  53.143  0.00  0.00    +0.000 OA
ATOM     15  N   UNL     1      -7.556  53.832  52.586  0.00  0.00    +0.000 N 
ATOM     16  C   UNL     1      -7.488  52.019  54.638  0.00  0.00    +0.000 A 
ATOM     17  C   UNL     1      -8.792  53.447  52.477  0.00  0.00    +0.000 C 
ATOM     18  C   UNL     1      -8.816  51.818  54.302  0.00  0.00    +0.000 A 
ATOM     19  C   UNL     1      -6.848  51.258  55.619  0.00  0.00    +0.000 A 
ATOM     20  N   UNL     1      -9.447  52.590  53.333  0.00  0.00    +0.000 N 
ATOM     21  C   UNL     1      -9.543  50.865  55.023  0.00  0.00    +0.000 A 
ATOM     22  C   UNL     1      -7.576  50.292  56.305  0.00  0.00    +0.000 A 
ATOM     23  C   UNL     1      -8.927  50.103  56.015  0.00  0.00    +0.000 A 
ATOM     24  H   UNL     1      -7.191  54.480  51.941  0.00  0.00    +0.000 HD
ATOM     25  H   UNL     1     -10.426  52.519  53.253  0.00  0.00    +0.000 HD
ENDBRANCH   1  17
BRANCH   3  26
ATOM     26  O   UNL     1      -8.237  52.740  49.711  0.00  0.00    +0.000 OA
ATOM     27  H   UNL     1      -7.454  53.055  49.304  0.00  0.00    +0.000 HD
ENDBRANCH   3  26
BRANCH   5  28
ATOM     28  C   UNL     1     -12.502  56.366  50.720  0.00  0.00    +0.000 C 
BRANCH  28  29
ATOM     29  C   UNL     1     -13.898  55.729  50.843  0.00  0.00    +0.000 C 
BRANCH  29  30
ATOM     30  C   UNL     1     -15.080  56.694  51.032  0.00  0.00    +0.000 C 
ATOM     31  C   UNL     1     -16.387  56.119  50.494  0.00  0.00    +0.000 C 
ATOM     32  C   UNL     1     -15.221  57.003  52.529  0.00  0.00    +0.000 C 
ENDBRANCH  29  30
ENDBRANCH  28  29
ENDBRANCH   5  28
BRANCH  10  33
ATOM     33  O   UNL     1      -9.743  54.148  45.262  0.00  0.00    +0.000 OA
BRANCH  33  34
ATOM     34  C   UNL     1      -9.836  52.762  44.938  0.00  0.00    +0.000 C 
BRANCH  34  35
ATOM     35  C   UNL     1     -11.248  52.481  44.455  0.00  0.00    +0.000 C 
BRANCH  35  36
ATOM     36  C   UNL     1     -11.821  51.233  45.125  0.00  0.00    +0.000 C 
BRANCH  36  37
ATOM     37  C   UNL     1     -12.191  51.515  46.517  0.00  0.00    +0.000 C 
ATOM     38  N   UNL     1     -12.486  51.724  47.616  0.00  0.00    +0.000 NA
ENDBRANCH  36  37
ENDBRANCH  35  36
ENDBRANCH  34  35
ENDBRANCH  33  34
ENDBRANCH  10  33
TORSDOF 10
ENDMDL
MODEL 7
REMARK VINA RESULT:      -7.2      3.327      8.166
REMARK  Name = 338121
REMARK  12 active torsions:
REMARK  status: ('A' for Active; 'I' for Inactive)
REMARK    1  A    between atoms: C_6  and  C_10
REMARK    2  A    between atoms: C_14  and  O_18
REMARK    3  A    between atoms: N_17  and  C_21
REMARK    4  A    between atoms: C_21  and  C_24
REMARK    5  A    between atoms: C_24  and  C_27
REMARK    6  A    between atoms: C_25  and  O_28
REMARK    7  A    between atoms: C_27  and  C_29
REMARK    8  A    between atoms: C_27  and  C_30
REMARK    9  A    between atoms: O_28  and  C_31
REMARK   10  A    between atoms: C_31  and  C_32
REMARK   11  A    between atoms: C_32  and  C_33
REMARK   12  A    between atoms: C_33  and  C_34
REMARK                            x       y       z     vdW  Elec       q    Type
REMARK                         _______ _______ _______ _____ _____    ______ ____
ROOT
ATOM      1  C   UNL     1     -12.298  54.380  49.777  0.00  0.00    +0.000 A 
ATOM      2  C   UNL     1     -11.775  53.459  50.833  0.00  0.00    +0.000 A 
ATOM      3  C   UNL     1     -12.074  54.115  48.479  0.00  0.00    +0.000 A 
ATOM      4  O   UNL     1     -12.109  53.662  52.005  0.00  0.00    +0.000 OA
ATOM      5  N   UNL     1     -10.956  52.405  50.454  0.00  0.00    +0.000 N 
ATOM      6  C   UNL     1     -11.324  52.914  48.088  0.00  0.00    +0.000 A 
ATOM      7  C   UNL     1     -10.796  52.068  49.077  0.00  0.00    +0.000 A 
ATOM      8  C   UNL     1     -11.152  52.579  46.734  0.00  0.00    +0.000 A 
ATOM      9  C   UNL     1     -10.153  50.890  48.682  0.00  0.00    +0.000 A 
ATOM     10  C   UNL     1     -10.485  51.415  46.358  0.00  0.00    +0.000 A 
ATOM     11  C   UNL     1      -9.984  50.572  47.338  0.00  0.00    +0.000 A 
ENDROOT
BRANCH   1  17
ATOM     12  S   UNL     1     -15.281  56.481  51.235  0.00  0.00    +0.000 S 
ATOM     13  O   UNL     1     -15.227  56.615  52.676  0.00  0.00    +0.000 OA
ATOM     14  O   UNL     1     -16.547  56.228  50.570  0.00  0.00    +0.000 OA
ATOM     15  N   UNL     1     -14.255  55.297  50.812  0.00  0.00    +0.000 N 
ATOM     16  C   UNL     1     -14.682  57.992  50.576  0.00  0.00    +0.000 A 
ATOM     17  C   UNL     1     -13.144  55.564  50.194  0.00  0.00    +0.000 C 
ATOM     18  C   UNL     1     -13.445  57.979  49.954  0.00  0.00    +0.000 A 
ATOM     19  C   UNL     1     -15.453  59.153  50.671  0.00  0.00    +0.000 A 
ATOM     20  N   UNL     1     -12.681  56.821  49.877  0.00  0.00    +0.000 N 
ATOM     21  C   UNL     1     -12.938  59.189  49.469  0.00  0.00    +0.000 A 
ATOM     22  C   UNL     1     -14.949  60.342  50.155  0.00  0.00    +0.000 A 
ATOM     23  C   UNL     1     -13.686  60.362  49.564  0.00  0.00    +0.000 A 
ATOM     24  H   UNL     1     -14.479  54.362  51.027  0.00  0.00    +0.000 HD
ATOM     25  H   UNL     1     -11.747  56.904  49.576  0.00  0.00    +0.000 HD
ENDBRANCH   1  17
BRANCH   3  26
ATOM     26  O   UNL     1     -12.554  54.878  47.429  0.00  0.00    +0.000 OA
ATOM     27  H   UNL     1     -13.379  55.315  47.506  0.00  0.00    +0.000 HD
ENDBRANCH   3  26
BRANCH   5  28
ATOM     28  C   UNL     1     -10.393  51.554  51.509  0.00  0.00    +0.000 C 
BRANCH  28  29
ATOM     29  C   UNL     1      -8.975  51.923  51.982  0.00  0.00    +0.000 C 
BRANCH  29  30
ATOM     30  C   UNL     1      -8.861  52.577  53.368  0.00  0.00    +0.000 C 
ATOM     31  C   UNL     1      -8.878  54.102  53.291  0.00  0.00    +0.000 C 
ATOM     32  C   UNL     1     -10.025  52.084  54.237  0.00  0.00    +0.000 C 
ENDBRANCH  29  30
ENDBRANCH  28  29
ENDBRANCH   5  28
BRANCH  10  33
ATOM     33  O   UNL     1     -10.402  51.193  45.014  0.00  0.00    +0.000 OA
BRANCH  33  34
ATOM     34  C   UNL     1     -10.872  52.244  44.172  0.00  0.00    +0.000 C 
BRANCH  34  35
ATOM     35  C   UNL     1      -9.884  52.414  43.029  0.00  0.00    +0.000 C 
BRANCH  35  36
ATOM     36  C   UNL     1      -8.455  52.547  43.552  0.00  0.00    +0.000 C 
BRANCH  36  37
ATOM     37  C   UNL     1      -8.336  53.702  44.449  0.00  0.00    +0.000 C 
ATOM     38  N   UNL     1      -8.256  54.614  45.156  0.00  0.00    +0.000 NA
ENDBRANCH  36  37
ENDBRANCH  35  36
ENDBRANCH  34  35
ENDBRANCH  33  34
ENDBRANCH  10  33
TORSDOF 10
ENDMDL
MODEL 8
REMARK VINA RESULT:      -7.2      2.876      7.696
REMARK  Name = 338121
REMARK  12 active torsions:
REMARK  status: ('A' for Active; 'I' for Inactive)
REMARK    1  A    between atoms: C_6  and  C_10
REMARK    2  A    between atoms: C_14  and  O_18
REMARK    3  A    between atoms: N_17  and  C_21
REMARK    4  A    between atoms: C_21  and  C_24
REMARK    5  A    between atoms: C_24  and  C_27
REMARK    6  A    between atoms: C_25  and  O_28
REMARK    7  A    between atoms: C_27  and  C_29
REMARK    8  A    between atoms: C_27  and  C_30
REMARK    9  A    between atoms: O_28  and  C_31
REMARK   10  A    between atoms: C_31  and  C_32
REMARK   11  A    between atoms: C_32  and  C_33
REMARK   12  A    between atoms: C_33  and  C_34
REMARK                            x       y       z     vdW  Elec       q    Type
REMARK                         _______ _______ _______ _____ _____    ______ ____
ROOT
ATOM      1  C   UNL     1     -11.373  55.127  49.946  0.00  0.00    +0.000 A 
ATOM      2  C   UNL     1     -10.476  54.739  51.079  0.00  0.00    +0.000 A 
ATOM      3  C   UNL     1     -11.335  54.443  48.790  0.00  0.00    +0.000 A 
ATOM      4  O   UNL     1     -10.630  55.304  52.167  0.00  0.00    +0.000 OA
ATOM      5  N   UNL     1      -9.526  53.749  50.870  0.00  0.00    +0.000 N 
ATOM      6  C   UNL     1     -10.420  53.304  48.635  0.00  0.00    +0.000 A 
ATOM      7  C   UNL     1      -9.547  52.962  49.681  0.00  0.00    +0.000 A 
ATOM      8  C   UNL     1     -10.425  52.528  47.463  0.00  0.00    +0.000 A 
ATOM      9  C   UNL     1      -8.741  51.827  49.541  0.00  0.00    +0.000 A 
ATOM     10  C   UNL     1      -9.596  51.417  47.330  0.00  0.00    +0.000 A 
ATOM     11  C   UNL     1      -8.751  51.070  48.374  0.00  0.00    +0.000 A 
ENDROOT
BRANCH   1  17
ATOM     12  S   UNL     1     -13.352  58.481  49.428  0.00  0.00    +0.000 S 
ATOM     13  O   UNL     1     -14.396  58.374  48.429  0.00  0.00    +0.000 OA
ATOM     14  O   UNL     1     -12.511  59.664  49.484  0.00  0.00    +0.000 OA
ATOM     15  N   UNL     1     -12.381  57.191  49.265  0.00  0.00    +0.000 N 
ATOM     16  C   UNL     1     -14.148  58.380  50.987  0.00  0.00    +0.000 A 
ATOM     17  C   UNL     1     -12.372  56.245  50.155  0.00  0.00    +0.000 C 
ATOM     18  C   UNL     1     -13.952  57.234  51.738  0.00  0.00    +0.000 A 
ATOM     19  C   UNL     1     -14.934  59.441  51.443  0.00  0.00    +0.000 A 
ATOM     20  N   UNL     1     -13.178  56.179  51.269  0.00  0.00    +0.000 N 
ATOM     21  C   UNL     1     -14.622  57.123  52.961  0.00  0.00    +0.000 A 
ATOM     22  C   UNL     1     -15.568  59.329  52.676  0.00  0.00    +0.000 A 
ATOM     23  C   UNL     1     -15.421  58.165  53.431  0.00  0.00    +0.000 A 
ATOM     24  H   UNL     1     -11.790  57.126  48.481  0.00  0.00    +0.000 HD
ATOM     25  H   UNL     1     -13.208  55.329  51.765  0.00  0.00    +0.000 HD
ENDBRANCH   1  17
BRANCH   3  26
ATOM     26  O   UNL     1     -12.154  54.693  47.704  0.00  0.00    +0.000 OA
ATOM     27  H   UNL     1     -12.402  53.994  47.132  0.00  0.00    +0.000 HD
ENDBRANCH   3  26
BRANCH   5  28
ATOM     28  C   UNL     1      -8.607  53.433  51.970  0.00  0.00    +0.000 C 
BRANCH  28  29
ATOM     29  C   UNL     1      -7.191  54.022  51.850  0.00  0.00    +0.000 C 
BRANCH  29  30
ATOM     30  C   UNL     1      -6.943  55.364  52.558  0.00  0.00    +0.000 C 
ATOM     31  C   UNL     1      -7.395  56.554  51.715  0.00  0.00    +0.000 C 
ATOM     32  C   UNL     1      -7.694  55.355  53.896  0.00  0.00    +0.000 C 
ENDBRANCH  29  30
ENDBRANCH  28  29
ENDBRANCH   5  28
BRANCH  10  33
ATOM     33  O   UNL     1      -9.710  50.735  46.153  0.00  0.00    +0.000 OA
BRANCH  33  34
ATOM     34  C   UNL     1      -9.899  51.528  44.982  0.00  0.00    +0.000 C 
BRANCH  34  35
ATOM     35  C   UNL     1      -8.536  52.003  44.506  0.00  0.00    +0.000 C 
BRANCH  35  36
ATOM     36  C   UNL     1      -8.489  53.526  44.404  0.00  0.00    +0.000 C 
BRANCH  36  37
ATOM     37  C   UNL     1      -7.818  54.104  45.574  0.00  0.00    +0.000 C 
ATOM     38  N   UNL     1      -7.294  54.571  46.494  0.00  0.00    +0.000 NA
ENDBRANCH  36  37
ENDBRANCH  35  36
ENDBRANCH  34  35
ENDBRANCH  33  34
ENDBRANCH  10  33
TORSDOF 10
ENDMDL
MODEL 9
REMARK VINA RESULT:      -7.1      2.846      8.043
REMARK  Name = 338121
REMARK  12 active torsions:
REMARK  status: ('A' for Active; 'I' for Inactive)
REMARK    1  A    between atoms: C_6  and  C_10
REMARK    2  A    between atoms: C_14  and  O_18
REMARK    3  A    between atoms: N_17  and  C_21
REMARK    4  A    between atoms: C_21  and  C_24
REMARK    5  A    between atoms: C_24  and  C_27
REMARK    6  A    between atoms: C_25  and  O_28
REMARK    7  A    between atoms: C_27  and  C_29
REMARK    8  A    between atoms: C_27  and  C_30
REMARK    9  A    between atoms: O_28  and  C_31
REMARK   10  A    between atoms: C_31  and  C_32
REMARK   11  A    between atoms: C_32  and  C_33
REMARK   12  A    between atoms: C_33  and  C_34
REMARK                            x       y       z     vdW  Elec       q    Type
REMARK                         _______ _______ _______ _____ _____    ______ ____
ROOT
ATOM      1  C   UNL     1     -11.390  55.967  48.905  0.00  0.00    +0.000 A 
ATOM      2  C   UNL     1     -10.389  55.346  49.828  0.00  0.00    +0.000 A 
ATOM      3  C   UNL     1     -11.421  55.617  47.608  0.00  0.00    +0.000 A 
ATOM      4  O   UNL     1     -10.474  55.593  51.035  0.00  0.00    +0.000 OA
ATOM      5  N   UNL     1      -9.423  54.503  49.296  0.00  0.00    +0.000 N 
ATOM      6  C   UNL     1     -10.481  54.614  47.090  0.00  0.00    +0.000 A 
ATOM      7  C   UNL     1      -9.513  54.059  47.943  0.00  0.00    +0.000 A 
ATOM      8  C   UNL     1     -10.554  54.177  45.757  0.00  0.00    +0.000 A 
ATOM      9  C   UNL     1      -8.679  53.049  47.448  0.00  0.00    +0.000 A 
ATOM     10  C   UNL     1      -9.697  53.191  45.273  0.00  0.00    +0.000 A 
ATOM     11  C   UNL     1      -8.757  52.629  46.125  0.00  0.00    +0.000 A 
ENDROOT
BRANCH   1  17
ATOM     12  S   UNL     1     -13.539  59.213  49.433  0.00  0.00    +0.000 S 
ATOM     13  O   UNL     1     -14.666  59.300  48.526  0.00  0.00    +0.000 OA
ATOM     14  O   UNL     1     -12.744  60.393  49.728  0.00  0.00    +0.000 OA
ATOM     15  N   UNL     1     -12.537  58.071  48.866  0.00  0.00    +0.000 N 
ATOM     16  C   UNL     1     -14.184  58.669  50.970  0.00  0.00    +0.000 A 
ATOM     17  C   UNL     1     -12.409  56.931  49.475  0.00  0.00    +0.000 C 
ATOM     18  C   UNL     1     -13.874  57.383  51.380  0.00  0.00    +0.000 A 
ATOM     19  C   UNL     1     -14.966  59.527  51.747  0.00  0.00    +0.000 A 
ATOM     20  N   UNL     1     -13.106  56.533  50.593  0.00  0.00    +0.000 N 
ATOM     21  C   UNL     1     -14.424  56.922  52.581  0.00  0.00    +0.000 A 
ATOM     22  C   UNL     1     -15.479  59.064  52.954  0.00  0.00    +0.000 A 
ATOM     23  C   UNL     1     -15.217  57.758  53.366  0.00  0.00    +0.000 A 
ATOM     24  H   UNL     1     -12.018  58.245  48.047  0.00  0.00    +0.000 HD
ATOM     25  H   UNL     1     -13.057  55.584  50.852  0.00  0.00    +0.000 HD
ENDBRANCH   1  17
BRANCH   3  26
ATOM     26  O   UNL     1     -12.336  56.098  46.688  0.00  0.00    +0.000 OA
ATOM     27  H   UNL     1     -12.916  55.507  46.250  0.00  0.00    +0.000 HD
ENDBRANCH   3  26
BRANCH   5  28
ATOM     28  C   UNL     1      -8.406  53.960  50.203  0.00  0.00    +0.000 C 
BRANCH  28  29
ATOM     29  C   UNL     1      -8.833  52.737  51.034  0.00  0.00    +0.000 C 
BRANCH  29  30
ATOM     30  C   UNL     1      -8.366  52.702  52.497  0.00  0.00    +0.000 C 
ATOM     31  C   UNL     1      -8.081  54.098  53.047  0.00  0.00    +0.000 C 
ATOM     32  C   UNL     1      -9.452  52.021  53.339  0.00  0.00    +0.000 C 
ENDBRANCH  29  30
ENDBRANCH  28  29
ENDBRANCH   5  28
BRANCH  10  33
ATOM     33  O   UNL     1      -9.883  52.839  43.967  0.00  0.00    +0.000 OA
BRANCH  33  34
ATOM     34  C   UNL     1      -8.722  52.860  43.139  0.00  0.00    +0.000 C 
BRANCH  34  35
ATOM     35  C   UNL     1      -8.821  51.707  42.154  0.00  0.00    +0.000 C 
BRANCH  35  36
ATOM     36  C   UNL     1      -9.120  50.393  42.873  0.00  0.00    +0.000 C 
BRANCH  36  37
ATOM     37  C   UNL     1      -7.909  49.866  43.514  0.00  0.00    +0.000 C 
ATOM     38  N   UNL     1      -6.959  49.437  44.017  0.00  0.00    +0.000 NA
ENDBRANCH  36  37
ENDBRANCH  35  36
ENDBRANCH  34  35
ENDBRANCH  33  34
ENDBRANCH  10  33
TORSDOF 10
ENDMDL
