MODEL 1
REMARK VINA RESULT:      -8.4      0.000      0.000
REMARK  Name = 338298
REMARK  5 active torsions:
REMARK  status: ('A' for Active; 'I' for Inactive)
REMARK    1  A    between atoms: C_6  and  C_10
REMARK    2  A    between atoms: C_14  and  O_18
REMARK    3  A    between atoms: N_17  and  C_21
REMARK    4  A    between atoms: C_21  and  C_24
REMARK    5  A    between atoms: C_24  and  C_27
REMARK                            x       y       z     vdW  Elec       q    Type
REMARK                         _______ _______ _______ _____ _____    ______ ____
ROOT
ATOM      1  C   UNL     1      -9.910  55.386  50.675  0.00  0.00    +0.000 A 
ATOM      2  C   UNL     1     -11.214  55.477  51.456  0.00  0.00    +0.000 A 
ATOM      3  C   UNL     1      -9.920  55.684  49.358  0.00  0.00    +0.000 A 
ATOM      4  O   UNL     1     -11.266  54.941  52.567  0.00  0.00    +0.000 OA
ATOM      5  N   UNL     1     -12.297  56.132  50.863  0.00  0.00    +0.000 N 
ATOM      6  C   UNL     1     -11.156  56.044  48.699  0.00  0.00    +0.000 A 
ATOM      7  C   UNL     1     -12.278  56.428  49.461  0.00  0.00    +0.000 A 
ATOM      8  C   UNL     1     -11.277  55.883  47.339  0.00  0.00    +0.000 A 
ATOM      9  C   UNL     1     -13.361  56.983  48.779  0.00  0.00    +0.000 A 
ATOM     10  C   UNL     1     -12.515  56.010  46.777  0.00  0.00    +0.000 A 
ATOM     11  C   UNL     1     -13.440  56.834  47.400  0.00  0.00    +0.000 A 
ENDROOT
BRANCH   1  17
ATOM     12  S   UNL     1      -7.056  54.830  53.316  0.00  0.00    +0.000 S 
ATOM     13  O   UNL     1      -7.463  53.828  54.276  0.00  0.00    +0.000 OA
ATOM     14  O   UNL     1      -6.352  56.031  53.770  0.00  0.00    +0.000 OA
ATOM     15  N   UNL     1      -8.364  55.315  52.504  0.00  0.00    +0.000 N 
ATOM     16  C   UNL     1      -5.994  54.033  52.180  0.00  0.00    +0.000 A 
ATOM     17  C   UNL     1      -8.630  54.860  51.318  0.00  0.00    +0.000 C 
ATOM     18  C   UNL     1      -6.524  53.690  50.943  0.00  0.00    +0.000 A 
ATOM     19  C   UNL     1      -4.666  53.773  52.527  0.00  0.00    +0.000 A 
ATOM     20  N   UNL     1      -7.843  53.991  50.606  0.00  0.00    +0.000 N 
ATOM     21  C   UNL     1      -5.694  53.010  50.045  0.00  0.00    +0.000 A 
ATOM     22  C   UNL     1      -3.848  53.110  51.617  0.00  0.00    +0.000 A 
ATOM     23  C   UNL     1      -4.367  52.722  50.380  0.00  0.00    +0.000 A 
ATOM     24  H   UNL     1      -8.972  55.970  52.917  0.00  0.00    +0.000 HD
ATOM     25  H   UNL     1      -8.231  53.556  49.812  0.00  0.00    +0.000 HD
ENDBRANCH   1  17
BRANCH   3  26
ATOM     26  O   UNL     1      -8.831  55.623  48.509  0.00  0.00    +0.000 OA
ATOM     27  H   UNL     1      -8.273  56.369  48.408  0.00  0.00    +0.000 HD
ENDBRANCH   3  26
BRANCH   5  28
ATOM     28  C   UNL     1     -13.633  56.012  51.512  0.00  0.00    +0.000 C 
BRANCH  28  29
ATOM     29  C   UNL     1     -13.952  57.206  52.396  0.00  0.00    +0.000 C 
BRANCH  29  30
ATOM     30  C   UNL     1     -15.480  57.212  52.755  0.00  0.00    +0.000 C 
ATOM     31  C   UNL     1     -14.211  58.703  51.987  0.00  0.00    +0.000 C 
ATOM     32  C   UNL     1     -15.294  58.702  53.105  0.00  0.00    +0.000 C 
ENDBRANCH  29  30
ENDBRANCH  28  29
ENDBRANCH   5  28
TORSDOF 5
ENDMDL
MODEL 2
REMARK VINA RESULT:      -8.4      1.745      2.180
REMARK  Name = 338298
REMARK  5 active torsions:
REMARK  status: ('A' for Active; 'I' for Inactive)
REMARK    1  A    between atoms: C_6  and  C_10
REMARK    2  A    between atoms: C_14  and  O_18
REMARK    3  A    between atoms: N_17  and  C_21
REMARK    4  A    between atoms: C_21  and  C_24
REMARK    5  A    between atoms: C_24  and  C_27
REMARK                            x       y       z     vdW  Elec       q    Type
REMARK                         _______ _______ _______ _____ _____    ______ ____
ROOT
ATOM      1  C   UNL     1     -10.078  55.302  50.904  0.00  0.00    +0.000 A 
ATOM      2  C   UNL     1     -11.498  55.644  51.335  0.00  0.00    +0.000 A 
ATOM      3  C   UNL     1      -9.774  55.326  49.588  0.00  0.00    +0.000 A 
ATOM      4  O   UNL     1     -11.845  55.349  52.482  0.00  0.00    +0.000 OA
ATOM      5  N   UNL     1     -12.347  56.242  50.400  0.00  0.00    +0.000 N 
ATOM      6  C   UNL     1     -10.792  55.635  48.609  0.00  0.00    +0.000 A 
ATOM      7  C   UNL     1     -11.998  56.246  49.010  0.00  0.00    +0.000 A 
ATOM      8  C   UNL     1     -10.641  55.211  47.309  0.00  0.00    +0.000 A 
ATOM      9  C   UNL     1     -12.839  56.729  48.008  0.00  0.00    +0.000 A 
ATOM     10  C   UNL     1     -11.708  55.311  46.464  0.00  0.00    +0.000 A 
ATOM     11  C   UNL     1     -12.642  56.310  46.698  0.00  0.00    +0.000 A 
ENDROOT
BRANCH   1  17
ATOM     12  S   UNL     1      -6.665  54.989  52.822  0.00  0.00    +0.000 S 
ATOM     13  O   UNL     1      -6.575  56.015  53.836  0.00  0.00    +0.000 OA
ATOM     14  O   UNL     1      -5.491  54.664  52.008  0.00  0.00    +0.000 OA
ATOM     15  N   UNL     1      -7.862  55.377  51.812  0.00  0.00    +0.000 N 
ATOM     16  C   UNL     1      -7.121  53.515  53.641  0.00  0.00    +0.000 A 
ATOM     17  C   UNL     1      -9.033  54.825  51.908  0.00  0.00    +0.000 C 
ATOM     18  C   UNL     1      -8.448  53.115  53.545  0.00  0.00    +0.000 A 
ATOM     19  C   UNL     1      -6.166  52.782  54.351  0.00  0.00    +0.000 A 
ATOM     20  N   UNL     1      -9.376  53.843  52.803  0.00  0.00    +0.000 N 
ATOM     21  C   UNL     1      -8.832  51.960  54.236  0.00  0.00    +0.000 A 
ATOM     22  C   UNL     1      -6.560  51.627  55.020  0.00  0.00    +0.000 A 
ATOM     23  C   UNL     1      -7.896  51.224  54.968  0.00  0.00    +0.000 A 
ATOM     24  H   UNL     1      -7.700  56.046  51.108  0.00  0.00    +0.000 HD
ATOM     25  H   UNL     1     -10.332  53.641  52.926  0.00  0.00    +0.000 HD
ENDBRANCH   1  17
BRANCH   3  26
ATOM     26  O   UNL     1      -8.545  55.015  49.038  0.00  0.00    +0.000 OA
ATOM     27  H   UNL     1      -8.442  54.994  48.107  0.00  0.00    +0.000 HD
ENDBRANCH   3  26
BRANCH   5  28
ATOM     28  C   UNL     1     -13.794  56.355  50.734  0.00  0.00    +0.000 C 
BRANCH  28  29
ATOM     29  C   UNL     1     -14.141  57.701  51.347  0.00  0.00    +0.000 C 
BRANCH  29  30
ATOM     30  C   UNL     1     -14.995  57.493  52.647  0.00  0.00    +0.000 C 
ATOM     31  C   UNL     1     -15.005  59.006  51.187  0.00  0.00    +0.000 C 
ATOM     32  C   UNL     1     -15.050  59.031  52.742  0.00  0.00    +0.000 C 
ENDBRANCH  29  30
ENDBRANCH  28  29
ENDBRANCH   5  28
TORSDOF 5
ENDMDL
MODEL 3
REMARK VINA RESULT:      -8.2      1.616      2.218
REMARK  Name = 338298
REMARK  5 active torsions:
REMARK  status: ('A' for Active; 'I' for Inactive)
REMARK    1  A    between atoms: C_6  and  C_10
REMARK    2  A    between atoms: C_14  and  O_18
REMARK    3  A    between atoms: N_17  and  C_21
REMARK    4  A    between atoms: C_21  and  C_24
REMARK    5  A    between atoms: C_24  and  C_27
REMARK                            x       y       z     vdW  Elec       q    Type
REMARK                         _______ _______ _______ _____ _____    ______ ____
ROOT
ATOM      1  C   UNL     1     -10.172  55.490  50.472  0.00  0.00    +0.000 A 
ATOM      2  C   UNL     1     -11.409  55.628  51.350  0.00  0.00    +0.000 A 
ATOM      3  C   UNL     1     -10.266  55.806  49.162  0.00  0.00    +0.000 A 
ATOM      4  O   UNL     1     -11.401  55.079  52.456  0.00  0.00    +0.000 OA
ATOM      5  N   UNL     1     -12.502  56.338  50.846  0.00  0.00    +0.000 N 
ATOM      6  C   UNL     1     -11.530  56.230  48.602  0.00  0.00    +0.000 A 
ATOM      7  C   UNL     1     -12.574  56.652  49.450  0.00  0.00    +0.000 A 
ATOM      8  C   UNL     1     -11.759  56.093  47.253  0.00  0.00    +0.000 A 
ATOM      9  C   UNL     1     -13.678  57.264  48.856  0.00  0.00    +0.000 A 
ATOM     10  C   UNL     1     -13.028  56.282  46.787  0.00  0.00    +0.000 A 
ATOM     11  C   UNL     1     -13.867  57.138  47.486  0.00  0.00    +0.000 A 
ENDROOT
BRANCH   1  17
ATOM     12  S   UNL     1      -6.981  53.218  50.759  0.00  0.00    +0.000 S 
ATOM     13  O   UNL     1      -5.916  53.759  49.944  0.00  0.00    +0.000 OA
ATOM     14  O   UNL     1      -7.215  51.772  50.785  0.00  0.00    +0.000 OA
ATOM     15  N   UNL     1      -8.364  53.924  50.322  0.00  0.00    +0.000 N 
ATOM     16  C   UNL     1      -6.642  53.693  52.405  0.00  0.00    +0.000 A 
ATOM     17  C   UNL     1      -8.872  54.900  51.011  0.00  0.00    +0.000 C 
ATOM     18  C   UNL     1      -7.371  54.753  52.928  0.00  0.00    +0.000 A 
ATOM     19  C   UNL     1      -5.675  53.009  53.148  0.00  0.00    +0.000 A 
ATOM     20  N   UNL     1      -8.355  55.398  52.180  0.00  0.00    +0.000 N 
ATOM     21  C   UNL     1      -7.074  55.170  54.230  0.00  0.00    +0.000 A 
ATOM     22  C   UNL     1      -5.401  53.426  54.447  0.00  0.00    +0.000 A 
ATOM     23  C   UNL     1      -6.097  54.512  54.982  0.00  0.00    +0.000 A 
ATOM     24  H   UNL     1      -8.833  53.609  49.516  0.00  0.00    +0.000 HD
ATOM     25  H   UNL     1      -8.700  56.260  52.509  0.00  0.00    +0.000 HD
ENDBRANCH   1  17
BRANCH   3  26
ATOM     26  O   UNL     1      -9.247  55.709  48.233  0.00  0.00    +0.000 OA
ATOM     27  H   UNL     1      -9.287  55.056  47.562  0.00  0.00    +0.000 HD
ENDBRANCH   3  26
BRANCH   5  28
ATOM     28  C   UNL     1     -13.789  56.268  51.592  0.00  0.00    +0.000 C 
BRANCH  28  29
ATOM     29  C   UNL     1     -13.985  57.459  52.516  0.00  0.00    +0.000 C 
BRANCH  29  30
ATOM     30  C   UNL     1     -15.466  57.496  53.034  0.00  0.00    +0.000 C 
ATOM     31  C   UNL     1     -14.320  58.890  51.953  0.00  0.00    +0.000 C 
ATOM     32  C   UNL     1     -15.278  59.020  53.173  0.00  0.00    +0.000 C 
ENDBRANCH  29  30
ENDBRANCH  28  29
ENDBRANCH   5  28
TORSDOF 5
ENDMDL
MODEL 4
REMARK VINA RESULT:      -8.2      2.869      7.948
REMARK  Name = 338298
REMARK  5 active torsions:
REMARK  status: ('A' for Active; 'I' for Inactive)
REMARK    1  A    between atoms: C_6  and  C_10
REMARK    2  A    between atoms: C_14  and  O_18
REMARK    3  A    between atoms: N_17  and  C_21
REMARK    4  A    between atoms: C_21  and  C_24
REMARK    5  A    between atoms: C_24  and  C_27
REMARK                            x       y       z     vdW  Elec       q    Type
REMARK                         _______ _______ _______ _____ _____    ______ ____
ROOT
ATOM      1  C   UNL     1     -11.068  54.618  51.544  0.00  0.00    +0.000 A 
ATOM      2  C   UNL     1      -9.590  54.980  51.489  0.00  0.00    +0.000 A 
ATOM      3  C   UNL     1     -11.415  53.337  51.796  0.00  0.00    +0.000 A 
ATOM      4  O   UNL     1      -9.275  56.063  50.986  0.00  0.00    +0.000 OA
ATOM      5  N   UNL     1      -8.663  54.055  51.977  0.00  0.00    +0.000 N 
ATOM      6  C   UNL     1     -10.396  52.326  51.971  0.00  0.00    +0.000 A 
ATOM      7  C   UNL     1      -9.062  52.702  52.229  0.00  0.00    +0.000 A 
ATOM      8  C   UNL     1     -10.702  51.003  51.752  0.00  0.00    +0.000 A 
ATOM      9  C   UNL     1      -8.174  51.699  52.616  0.00  0.00    +0.000 A 
ATOM     10  C   UNL     1      -9.681  50.099  51.698  0.00  0.00    +0.000 A 
ATOM     11  C   UNL     1      -8.523  50.369  52.415  0.00  0.00    +0.000 A 
ENDROOT
BRANCH   1  17
ATOM     12  S   UNL     1     -13.245  57.164  49.493  0.00  0.00    +0.000 S 
ATOM     13  O   UNL     1     -14.259  56.454  48.746  0.00  0.00    +0.000 OA
ATOM     14  O   UNL     1     -12.526  58.276  48.869  0.00  0.00    +0.000 OA
ATOM     15  N   UNL     1     -12.145  56.097  49.996  0.00  0.00    +0.000 N 
ATOM     16  C   UNL     1     -14.034  57.817  50.909  0.00  0.00    +0.000 A 
ATOM     17  C   UNL     1     -12.153  55.638  51.210  0.00  0.00    +0.000 C 
ATOM     18  C   UNL     1     -13.837  57.153  52.113  0.00  0.00    +0.000 A 
ATOM     19  C   UNL     1     -14.818  58.969  50.807  0.00  0.00    +0.000 A 
ATOM     20  N   UNL     1     -13.022  56.025  52.199  0.00  0.00    +0.000 N 
ATOM     21  C   UNL     1     -14.502  57.642  53.243  0.00  0.00    +0.000 A 
ATOM     22  C   UNL     1     -15.461  59.452  51.943  0.00  0.00    +0.000 A 
ATOM     23  C   UNL     1     -15.307  58.782  53.157  0.00  0.00    +0.000 A 
ATOM     24  H   UNL     1     -11.452  55.787  49.368  0.00  0.00    +0.000 HD
ATOM     25  H   UNL     1     -13.072  55.475  53.014  0.00  0.00    +0.000 HD
ENDBRANCH   1  17
BRANCH   3  26
ATOM     26  O   UNL     1     -12.705  52.846  51.851  0.00  0.00    +0.000 OA
ATOM     27  H   UNL     1     -12.998  52.383  52.611  0.00  0.00    +0.000 HD
ENDBRANCH   3  26
BRANCH   5  28
ATOM     28  C   UNL     1      -7.219  54.296  51.705  0.00  0.00    +0.000 C 
BRANCH  28  29
ATOM     29  C   UNL     1      -6.508  54.931  52.889  0.00  0.00    +0.000 C 
BRANCH  29  30
ATOM     30  C   UNL     1      -5.160  54.179  53.169  0.00  0.00    +0.000 C 
ATOM     31  C   UNL     1      -6.697  54.832  54.447  0.00  0.00    +0.000 C 
ATOM     32  C   UNL     1      -5.145  54.911  54.526  0.00  0.00    +0.000 C 
ENDBRANCH  29  30
ENDBRANCH  28  29
ENDBRANCH   5  28
TORSDOF 5
ENDMDL
MODEL 5
REMARK VINA RESULT:      -8.1      2.391      4.834
REMARK  Name = 338298
REMARK  5 active torsions:
REMARK  status: ('A' for Active; 'I' for Inactive)
REMARK    1  A    between atoms: C_6  and  C_10
REMARK    2  A    between atoms: C_14  and  O_18
REMARK    3  A    between atoms: N_17  and  C_21
REMARK    4  A    between atoms: C_21  and  C_24
REMARK    5  A    between atoms: C_24  and  C_27
REMARK                            x       y       z     vdW  Elec       q    Type
REMARK                         _______ _______ _______ _____ _____    ______ ____
ROOT
ATOM      1  C   UNL     1     -10.354  55.112  50.559  0.00  0.00    +0.000 A 
ATOM      2  C   UNL     1      -9.909  54.986  49.108  0.00  0.00    +0.000 A 
ATOM      3  C   UNL     1     -11.518  55.740  50.829  0.00  0.00    +0.000 A 
ATOM      4  O   UNL     1      -8.735  54.675  48.885  0.00  0.00    +0.000 OA
ATOM      5  N   UNL     1     -10.840  55.262  48.103  0.00  0.00    +0.000 N 
ATOM      6  C   UNL     1     -12.304  56.314  49.760  0.00  0.00    +0.000 A 
ATOM      7  C   UNL     1     -12.064  55.935  48.423  0.00  0.00    +0.000 A 
ATOM      8  C   UNL     1     -13.192  57.329  50.032  0.00  0.00    +0.000 A 
ATOM      9  C   UNL     1     -12.992  56.338  47.463  0.00  0.00    +0.000 A 
ATOM     10  C   UNL     1     -13.748  58.005  48.986  0.00  0.00    +0.000 A 
ATOM     11  C   UNL     1     -13.900  57.341  47.777  0.00  0.00    +0.000 A 
ENDROOT
BRANCH   1  17
ATOM     12  S   UNL     1      -7.304  54.908  53.025  0.00  0.00    +0.000 S 
ATOM     13  O   UNL     1      -7.458  55.886  54.080  0.00  0.00    +0.000 OA
ATOM     14  O   UNL     1      -5.990  54.698  52.415  0.00  0.00    +0.000 OA
ATOM     15  N   UNL     1      -8.336  55.274  51.840  0.00  0.00    +0.000 N 
ATOM     16  C   UNL     1      -7.791  53.370  53.694  0.00  0.00    +0.000 A 
ATOM     17  C   UNL     1      -9.465  54.648  51.710  0.00  0.00    +0.000 C 
ATOM     18  C   UNL     1      -9.051  52.895  53.353  0.00  0.00    +0.000 A 
ATOM     19  C   UNL     1      -6.922  52.661  54.528  0.00  0.00    +0.000 A 
ATOM     20  N   UNL     1      -9.888  53.603  52.491  0.00  0.00    +0.000 N 
ATOM     21  C   UNL     1      -9.468  51.686  53.921  0.00  0.00    +0.000 A 
ATOM     22  C   UNL     1      -7.345  51.452  55.073  0.00  0.00    +0.000 A 
ATOM     23  C   UNL     1      -8.621  50.972  54.774  0.00  0.00    +0.000 A 
ATOM     24  H   UNL     1      -8.103  55.987  51.202  0.00  0.00    +0.000 HD
ATOM     25  H   UNL     1     -10.834  53.338  52.439  0.00  0.00    +0.000 HD
ENDBRANCH   1  17
BRANCH   3  26
ATOM     26  O   UNL     1     -12.044  55.959  52.088  0.00  0.00    +0.000 OA
ATOM     27  H   UNL     1     -12.973  56.004  52.207  0.00  0.00    +0.000 HD
ENDBRANCH   3  26
BRANCH   5  28
ATOM     28  C   UNL     1     -10.349  55.377  46.702  0.00  0.00    +0.000 C 
BRANCH  28  29
ATOM     29  C   UNL     1     -10.525  54.085  45.922  0.00  0.00    +0.000 C 
BRANCH  29  30
ATOM     30  C   UNL     1      -9.219  53.767  45.113  0.00  0.00    +0.000 C 
ATOM     31  C   UNL     1     -11.249  53.404  44.703  0.00  0.00    +0.000 C 
ATOM     32  C   UNL     1      -9.967  52.531  44.576  0.00  0.00    +0.000 C 
ENDBRANCH  29  30
ENDBRANCH  28  29
ENDBRANCH   5  28
TORSDOF 5
ENDMDL
MODEL 6
REMARK VINA RESULT:      -7.7      2.473      4.693
REMARK  Name = 338298
REMARK  5 active torsions:
REMARK  status: ('A' for Active; 'I' for Inactive)
REMARK    1  A    between atoms: C_6  and  C_10
REMARK    2  A    between atoms: C_14  and  O_18
REMARK    3  A    between atoms: N_17  and  C_21
REMARK    4  A    between atoms: C_21  and  C_24
REMARK    5  A    between atoms: C_24  and  C_27
REMARK                            x       y       z     vdW  Elec       q    Type
REMARK                         _______ _______ _______ _____ _____    ______ ____
ROOT
ATOM      1  C   UNL     1     -10.555  54.806  50.179  0.00  0.00    +0.000 A 
ATOM      2  C   UNL     1     -10.264  54.694  48.688  0.00  0.00    +0.000 A 
ATOM      3  C   UNL     1     -11.583  55.583  50.584  0.00  0.00    +0.000 A 
ATOM      4  O   UNL     1      -9.175  54.227  48.341  0.00  0.00    +0.000 OA
ATOM      5  N   UNL     1     -11.229  55.156  47.789  0.00  0.00    +0.000 N 
ATOM      6  C   UNL     1     -12.365  56.321  49.618  0.00  0.00    +0.000 A 
ATOM      7  C   UNL     1     -12.305  55.983  48.251  0.00  0.00    +0.000 A 
ATOM      8  C   UNL     1     -13.063  57.439  50.014  0.00  0.00    +0.000 A 
ATOM      9  C   UNL     1     -13.244  56.568  47.401  0.00  0.00    +0.000 A 
ATOM     10  C   UNL     1     -13.601  58.244  49.053  0.00  0.00    +0.000 A 
ATOM     11  C   UNL     1     -13.959  57.674  47.840  0.00  0.00    +0.000 A 
ENDROOT
BRANCH   1  17
ATOM     12  S   UNL     1      -9.299  52.349  52.973  0.00  0.00    +0.000 S 
ATOM     13  O   UNL     1      -8.784  51.140  52.369  0.00  0.00    +0.000 OA
ATOM     14  O   UNL     1     -10.122  52.266  54.181  0.00  0.00    +0.000 OA
ATOM     15  N   UNL     1     -10.151  53.148  51.860  0.00  0.00    +0.000 N 
ATOM     16  C   UNL     1      -7.914  53.331  53.385  0.00  0.00    +0.000 A 
ATOM     17  C   UNL     1      -9.647  54.158  51.219  0.00  0.00    +0.000 C 
ATOM     18  C   UNL     1      -7.614  54.397  52.546  0.00  0.00    +0.000 A 
ATOM     19  C   UNL     1      -7.160  53.039  54.525  0.00  0.00    +0.000 A 
ATOM     20  N   UNL     1      -8.401  54.691  51.433  0.00  0.00    +0.000 N 
ATOM     21  C   UNL     1      -6.480  55.161  52.842  0.00  0.00    +0.000 A 
ATOM     22  C   UNL     1      -6.044  53.817  54.814  0.00  0.00    +0.000 A 
ATOM     23  C   UNL     1      -5.702  54.872  53.967  0.00  0.00    +0.000 A 
ATOM     24  H   UNL     1     -11.073  52.864  51.664  0.00  0.00    +0.000 HD
ATOM     25  H   UNL     1      -8.043  55.317  50.762  0.00  0.00    +0.000 HD
ENDBRANCH   1  17
BRANCH   3  26
ATOM     26  O   UNL     1     -11.955  55.809  51.895  0.00  0.00    +0.000 OA
ATOM     27  H   UNL     1     -11.664  55.229  52.571  0.00  0.00    +0.000 HD
ENDBRANCH   3  26
BRANCH   5  28
ATOM     28  C   UNL     1     -10.854  55.273  46.352  0.00  0.00    +0.000 C 
BRANCH  28  29
ATOM     29  C   UNL     1     -11.375  54.111  45.524  0.00  0.00    +0.000 C 
BRANCH  29  30
ATOM     30  C   UNL     1     -10.179  53.375  44.823  0.00  0.00    +0.000 C 
ATOM     31  C   UNL     1     -11.967  52.661  45.670  0.00  0.00    +0.000 C 
ATOM     32  C   UNL     1     -10.486  52.189  45.759  0.00  0.00    +0.000 C 
ENDBRANCH  29  30
ENDBRANCH  28  29
ENDBRANCH   5  28
TORSDOF 5
ENDMDL
MODEL 7
REMARK VINA RESULT:      -7.7      1.984      4.515
REMARK  Name = 338298
REMARK  5 active torsions:
REMARK  status: ('A' for Active; 'I' for Inactive)
REMARK    1  A    between atoms: C_6  and  C_10
REMARK    2  A    between atoms: C_14  and  O_18
REMARK    3  A    between atoms: N_17  and  C_21
REMARK    4  A    between atoms: C_21  and  C_24
REMARK    5  A    between atoms: C_24  and  C_27
REMARK                            x       y       z     vdW  Elec       q    Type
REMARK                         _______ _______ _______ _____ _____    ______ ____
ROOT
ATOM      1  C   UNL     1      -9.455  55.177  50.460  0.00  0.00    +0.000 A 
ATOM      2  C   UNL     1      -9.909  55.409  49.025  0.00  0.00    +0.000 A 
ATOM      3  C   UNL     1     -10.371  55.235  51.450  0.00  0.00    +0.000 A 
ATOM      4  O   UNL     1      -9.047  55.636  48.171  0.00  0.00    +0.000 OA
ATOM      5  N   UNL     1     -11.280  55.387  48.753  0.00  0.00    +0.000 N 
ATOM      6  C   UNL     1     -11.750  55.550  51.150  0.00  0.00    +0.000 A 
ATOM      7  C   UNL     1     -12.227  55.456  49.827  0.00  0.00    +0.000 A 
ATOM      8  C   UNL     1     -12.561  56.071  52.132  0.00  0.00    +0.000 A 
ATOM      9  C   UNL     1     -13.605  55.545  49.631  0.00  0.00    +0.000 A 
ATOM     10  C   UNL     1     -13.779  56.571  51.773  0.00  0.00    +0.000 A 
ATOM     11  C   UNL     1     -14.404  56.043  50.652  0.00  0.00    +0.000 A 
ENDROOT
BRANCH   1  17
ATOM     12  S   UNL     1      -5.686  54.112  50.159  0.00  0.00    +0.000 S 
ATOM     13  O   UNL     1      -4.958  55.093  49.384  0.00  0.00    +0.000 OA
ATOM     14  O   UNL     1      -5.430  52.686  49.951  0.00  0.00    +0.000 OA
ATOM     15  N   UNL     1      -7.265  54.359  49.934  0.00  0.00    +0.000 N 
ATOM     16  C   UNL     1      -5.333  54.439  51.838  0.00  0.00    +0.000 A 
ATOM     17  C   UNL     1      -7.980  54.995  50.810  0.00  0.00    +0.000 C 
ATOM     18  C   UNL     1      -6.304  55.103  52.578  0.00  0.00    +0.000 A 
ATOM     19  C   UNL     1      -4.117  54.029  52.392  0.00  0.00    +0.000 A 
ATOM     20  N   UNL     1      -7.524  55.471  52.013  0.00  0.00    +0.000 N 
ATOM     21  C   UNL     1      -6.011  55.409  53.911  0.00  0.00    +0.000 A 
ATOM     22  C   UNL     1      -3.847  54.328  53.724  0.00  0.00    +0.000 A 
ATOM     23  C   UNL     1      -4.792  55.025  54.478  0.00  0.00    +0.000 A 
ATOM     24  H   UNL     1      -7.694  54.018  49.116  0.00  0.00    +0.000 HD
ATOM     25  H   UNL     1      -8.091  56.109  52.505  0.00  0.00    +0.000 HD
ENDBRANCH   1  17
BRANCH   3  26
ATOM     26  O   UNL     1     -10.114  55.076  52.798  0.00  0.00    +0.000 OA
ATOM     27  H   UNL     1     -10.578  55.593  53.427  0.00  0.00    +0.000 HD
ENDBRANCH   3  26
BRANCH   5  28
ATOM     28  C   UNL     1     -11.739  55.850  47.415  0.00  0.00    +0.000 C 
BRANCH  28  29
ATOM     29  C   UNL     1     -11.540  54.795  46.340  0.00  0.00    +0.000 C 
BRANCH  29  30
ATOM     30  C   UNL     1     -12.060  53.406  46.852  0.00  0.00    +0.000 C 
ATOM     31  C   UNL     1     -10.653  53.923  45.377  0.00  0.00    +0.000 C 
ATOM     32  C   UNL     1     -11.820  52.895  45.417  0.00  0.00    +0.000 C 
ENDBRANCH  29  30
ENDBRANCH  28  29
ENDBRANCH   5  28
TORSDOF 5
ENDMDL
MODEL 8
REMARK VINA RESULT:      -7.5      1.478      1.608
REMARK  Name = 338298
REMARK  5 active torsions:
REMARK  status: ('A' for Active; 'I' for Inactive)
REMARK    1  A    between atoms: C_6  and  C_10
REMARK    2  A    between atoms: C_14  and  O_18
REMARK    3  A    between atoms: N_17  and  C_21
REMARK    4  A    between atoms: C_21  and  C_24
REMARK    5  A    between atoms: C_24  and  C_27
REMARK                            x       y       z     vdW  Elec       q    Type
REMARK                         _______ _______ _______ _____ _____    ______ ____
ROOT
ATOM      1  C   UNL     1     -10.245  55.282  50.431  0.00  0.00    +0.000 A 
ATOM      2  C   UNL     1     -11.468  55.471  51.318  0.00  0.00    +0.000 A 
ATOM      3  C   UNL     1     -10.321  55.643  49.132  0.00  0.00    +0.000 A 
ATOM      4  O   UNL     1     -11.493  54.890  52.407  0.00  0.00    +0.000 OA
ATOM      5  N   UNL     1     -12.515  56.264  50.841  0.00  0.00    +0.000 N 
ATOM      6  C   UNL     1     -11.557  56.163  48.590  0.00  0.00    +0.000 A 
ATOM      7  C   UNL     1     -12.570  56.625  49.454  0.00  0.00    +0.000 A 
ATOM      8  C   UNL     1     -11.798  56.081  47.238  0.00  0.00    +0.000 A 
ATOM      9  C   UNL     1     -13.634  57.323  48.884  0.00  0.00    +0.000 A 
ATOM     10  C   UNL     1     -13.053  56.364  46.783  0.00  0.00    +0.000 A 
ATOM     11  C   UNL     1     -13.834  57.250  47.511  0.00  0.00    +0.000 A 
ENDROOT
BRANCH   1  17
ATOM     12  S   UNL     1      -6.505  54.732  51.500  0.00  0.00    +0.000 S 
ATOM     13  O   UNL     1      -6.305  55.206  52.851  0.00  0.00    +0.000 OA
ATOM     14  O   UNL     1      -5.492  55.001  50.477  0.00  0.00    +0.000 OA
ATOM     15  N   UNL     1      -7.907  55.319  50.959  0.00  0.00    +0.000 N 
ATOM     16  C   UNL     1      -6.661  52.995  51.597  0.00  0.00    +0.000 A 
ATOM     17  C   UNL     1      -8.984  54.594  50.947  0.00  0.00    +0.000 C 
ATOM     18  C   UNL     1      -7.941  52.462  51.509  0.00  0.00    +0.000 A 
ATOM     19  C   UNL     1      -5.525  52.196  51.749  0.00  0.00    +0.000 A 
ATOM     20  N   UNL     1      -9.057  53.276  51.323  0.00  0.00    +0.000 N 
ATOM     21  C   UNL     1      -8.080  51.075  51.632  0.00  0.00    +0.000 A 
ATOM     22  C   UNL     1      -5.678  50.817  51.855  0.00  0.00    +0.000 A 
ATOM     23  C   UNL     1      -6.957  50.261  51.804  0.00  0.00    +0.000 A 
ATOM     24  H   UNL     1      -7.947  56.246  50.630  0.00  0.00    +0.000 HD
ATOM     25  H   UNL     1      -9.949  52.884  51.468  0.00  0.00    +0.000 HD
ENDBRANCH   1  17
BRANCH   3  26
ATOM     26  O   UNL     1      -9.313  55.509  48.197  0.00  0.00    +0.000 OA
ATOM     27  H   UNL     1      -9.395  54.880  47.506  0.00  0.00    +0.000 HD
ENDBRANCH   3  26
BRANCH   5  28
ATOM     28  C   UNL     1     -13.803  56.255  51.589  0.00  0.00    +0.000 C 
BRANCH  28  29
ATOM     29  C   UNL     1     -13.949  57.462  52.500  0.00  0.00    +0.000 C 
BRANCH  29  30
ATOM     30  C   UNL     1     -15.409  57.528  53.071  0.00  0.00    +0.000 C 
ATOM     31  C   UNL     1     -14.300  58.869  51.890  0.00  0.00    +0.000 C 
ATOM     32  C   UNL     1     -15.211  59.056  53.138  0.00  0.00    +0.000 C 
ENDBRANCH  29  30
ENDBRANCH  28  29
ENDBRANCH   5  28
TORSDOF 5
ENDMDL
MODEL 9
REMARK VINA RESULT:      -7.4      3.033      7.419
REMARK  Name = 338298
REMARK  5 active torsions:
REMARK  status: ('A' for Active; 'I' for Inactive)
REMARK    1  A    between atoms: C_6  and  C_10
REMARK    2  A    between atoms: C_14  and  O_18
REMARK    3  A    between atoms: N_17  and  C_21
REMARK    4  A    between atoms: C_21  and  C_24
REMARK    5  A    between atoms: C_24  and  C_27
REMARK                            x       y       z     vdW  Elec       q    Type
REMARK                         _______ _______ _______ _____ _____    ______ ____
ROOT
ATOM      1  C   UNL     1     -11.349  55.641  49.084  0.00  0.00    +0.000 A 
ATOM      2  C   UNL     1     -10.277  55.065  49.999  0.00  0.00    +0.000 A 
ATOM      3  C   UNL     1     -11.324  55.324  47.772  0.00  0.00    +0.000 A 
ATOM      4  O   UNL     1     -10.130  55.571  51.115  0.00  0.00    +0.000 OA
ATOM      5  N   UNL     1      -9.489  54.016  49.516  0.00  0.00    +0.000 N 
ATOM      6  C   UNL     1     -10.274  54.482  47.245  0.00  0.00    +0.000 A 
ATOM      7  C   UNL     1      -9.481  53.708  48.116  0.00  0.00    +0.000 A 
ATOM      8  C   UNL     1      -9.960  54.539  45.906  0.00  0.00    +0.000 A 
ATOM      9  C   UNL     1      -8.645  52.748  47.546  0.00  0.00    +0.000 A 
ATOM     10  C   UNL     1      -8.825  53.914  45.478  0.00  0.00    +0.000 A 
ATOM     11  C   UNL     1      -8.372  52.810  46.185  0.00  0.00    +0.000 A 
ENDROOT
BRANCH   1  17
ATOM     12  S   UNL     1     -13.399  58.974  49.433  0.00  0.00    +0.000 S 
ATOM     13  O   UNL     1     -14.470  58.997  48.461  0.00  0.00    +0.000 OA
ATOM     14  O   UNL     1     -12.623  60.189  49.690  0.00  0.00    +0.000 OA
ATOM     15  N   UNL     1     -12.359  57.814  49.015  0.00  0.00    +0.000 N 
ATOM     16  C   UNL     1     -14.118  58.515  50.958  0.00  0.00    +0.000 A 
ATOM     17  C   UNL     1     -12.373  56.652  49.594  0.00  0.00    +0.000 C 
ATOM     18  C   UNL     1     -13.941  57.203  51.378  0.00  0.00    +0.000 A 
ATOM     19  C   UNL     1     -14.830  59.454  51.709  0.00  0.00    +0.000 A 
ATOM     20  N   UNL     1     -13.198  56.292  50.630  0.00  0.00    +0.000 N 
ATOM     21  C   UNL     1     -14.552  56.814  52.576  0.00  0.00    +0.000 A 
ATOM     22  C   UNL     1     -15.418  59.057  52.906  0.00  0.00    +0.000 A 
ATOM     23  C   UNL     1     -15.285  57.734  53.332  0.00  0.00    +0.000 A 
ATOM     24  H   UNL     1     -11.699  57.991  48.305  0.00  0.00    +0.000 HD
ATOM     25  H   UNL     1     -13.267  55.336  50.856  0.00  0.00    +0.000 HD
ENDBRANCH   1  17
BRANCH   3  26
ATOM     26  O   UNL     1     -12.206  55.785  46.813  0.00  0.00    +0.000 OA
ATOM     27  H   UNL     1     -11.890  56.301  46.097  0.00  0.00    +0.000 HD
ENDBRANCH   3  26
BRANCH   5  28
ATOM     28  C   UNL     1      -8.291  53.616  50.304  0.00  0.00    +0.000 C 
BRANCH  28  29
ATOM     29  C   UNL     1      -8.601  52.516  51.306  0.00  0.00    +0.000 C 
BRANCH  29  30
ATOM     30  C   UNL     1      -8.149  52.958  52.743  0.00  0.00    +0.000 C 
ATOM     31  C   UNL     1      -7.089  52.749  50.938  0.00  0.00    +0.000 C 
ATOM     32  C   UNL     1      -6.785  52.325  52.404  0.00  0.00    +0.000 C 
ENDBRANCH  29  30
ENDBRANCH  28  29
ENDBRANCH   5  28
TORSDOF 5
ENDMDL
