MODEL 1
REMARK VINA RESULT:      -8.4      0.000      0.000
REMARK  Name = 338623
REMARK  6 active torsions:
REMARK  status: ('A' for Active; 'I' for Inactive)
REMARK    1  A    between atoms: C_2  and  C_3
REMARK    2  A    between atoms: C_2  and  C_4
REMARK    3  A    between atoms: C_3  and  C_5
REMARK    4  A    between atoms: C_5  and  N_6
REMARK    5  A    between atoms: C_10  and  C_13
REMARK    6  A    between atoms: C_14  and  O_19
REMARK                            x       y       z     vdW  Elec       q    Type
REMARK                         _______ _______ _______ _____ _____    ______ ____
ROOT
ATOM      1  N   UNL     1     -11.957  55.691  50.231  0.00  0.00    +0.000 N 
ATOM      2  C   UNL     1     -11.283  55.470  51.424  0.00  0.00    +0.000 A 
ATOM      3  C   UNL     1     -11.276  55.623  48.982  0.00  0.00    +0.000 A 
ATOM      4  O   UNL     1     -11.780  55.735  52.518  0.00  0.00    +0.000 OA
ATOM      5  C   UNL     1      -9.939  54.832  51.325  0.00  0.00    +0.000 A 
ATOM      6  C   UNL     1      -9.885  55.391  48.975  0.00  0.00    +0.000 A 
ATOM      7  C   UNL     1     -11.953  55.731  47.760  0.00  0.00    +0.000 A 
ATOM      8  C   UNL     1      -9.197  55.040  50.225  0.00  0.00    +0.000 A 
ATOM      9  C   UNL     1      -9.211  55.268  47.751  0.00  0.00    +0.000 A 
ATOM     10  C   UNL     1     -11.283  55.530  46.557  0.00  0.00    +0.000 A 
ATOM     11  C   UNL     1      -9.912  55.306  46.551  0.00  0.00    +0.000 A 
ENDROOT
BRANCH   5  12
ATOM     12  C   UNL     1      -9.439  53.976  52.448  0.00  0.00    +0.000 C 
ATOM     13  N   UNL     1      -9.091  52.731  52.215  0.00  0.00    +0.000 N 
ATOM     14  N   UNL     1      -9.302  54.534  53.717  0.00  0.00    +0.000 N 
ATOM     15  S   UNL     1      -8.427  51.908  53.483  0.00  0.00    +0.000 S 
ATOM     16  C   UNL     1      -7.936  54.444  54.100  0.00  0.00    +0.000 A 
ATOM     17  O   UNL     1      -7.594  50.848  52.958  0.00  0.00    +0.000 OA
ATOM     18  O   UNL     1      -9.445  51.678  54.486  0.00  0.00    +0.000 OA
ATOM     19  C   UNL     1      -7.349  53.175  54.134  0.00  0.00    +0.000 A 
ATOM     20  C   UNL     1      -7.131  55.570  53.984  0.00  0.00    +0.000 A 
ATOM     21  C   UNL     1      -5.975  52.994  54.188  0.00  0.00    +0.000 A 
ATOM     22  C   UNL     1      -5.748  55.411  53.950  0.00  0.00    +0.000 A 
ATOM     23  C   UNL     1      -5.173  54.138  54.087  0.00  0.00    +0.000 A 
ATOM     24  H   UNL     1      -9.219  52.313  51.333  0.00  0.00    +0.000 HD
ATOM     25  H   UNL     1     -10.028  54.925  54.256  0.00  0.00    +0.000 HD
ENDBRANCH   5  12
BRANCH   8  26
ATOM     26  O   UNL     1      -7.849  54.750  50.101  0.00  0.00    +0.000 OA
ATOM     27  H   UNL     1      -7.228  55.160  50.670  0.00  0.00    +0.000 HD
ENDBRANCH   8  26
BRANCH   1  28
ATOM     28  C   UNL     1     -13.412  55.832  50.312  0.00  0.00    +0.000 C 
BRANCH  28  29
ATOM     29  C   UNL     1     -13.813  57.315  50.292  0.00  0.00    +0.000 C 
BRANCH  29  31
ATOM     30 BR   UNL     1     -14.934  57.807  52.889  0.00  0.00    +0.000 Br
ATOM     31  C   UNL     1     -15.156  57.602  50.956  0.00  0.00    +0.000 C 
ATOM     32  C   UNL     1     -16.131  56.458  50.712  0.00  0.00    +0.000 C 
ENDBRANCH  29  31
ENDBRANCH  28  29
ENDBRANCH   1  28
TORSDOF 5
ENDMDL
MODEL 2
REMARK VINA RESULT:      -8.2      2.863      4.486
REMARK  Name = 338623
REMARK  6 active torsions:
REMARK  status: ('A' for Active; 'I' for Inactive)
REMARK    1  A    between atoms: C_2  and  C_3
REMARK    2  A    between atoms: C_2  and  C_4
REMARK    3  A    between atoms: C_3  and  C_5
REMARK    4  A    between atoms: C_5  and  N_6
REMARK    5  A    between atoms: C_10  and  C_13
REMARK    6  A    between atoms: C_14  and  O_19
REMARK                            x       y       z     vdW  Elec       q    Type
REMARK                         _______ _______ _______ _____ _____    ______ ____
ROOT
ATOM      1  N   UNL     1     -13.162  56.030  48.831  0.00  0.00    +0.000 N 
ATOM      2  C   UNL     1     -12.813  54.998  49.691  0.00  0.00    +0.000 A 
ATOM      3  C   UNL     1     -13.621  57.281  49.336  0.00  0.00    +0.000 A 
ATOM      4  O   UNL     1     -12.628  53.848  49.295  0.00  0.00    +0.000 OA
ATOM      5  C   UNL     1     -12.608  55.360  51.123  0.00  0.00    +0.000 A 
ATOM      6  C   UNL     1     -13.779  57.438  50.729  0.00  0.00    +0.000 A 
ATOM      7  C   UNL     1     -13.873  58.374  48.497  0.00  0.00    +0.000 A 
ATOM      8  C   UNL     1     -13.297  56.390  51.641  0.00  0.00    +0.000 A 
ATOM      9  C   UNL     1     -14.178  58.680  51.244  0.00  0.00    +0.000 A 
ATOM     10  C   UNL     1     -14.193  59.619  49.029  0.00  0.00    +0.000 A 
ATOM     11  C   UNL     1     -14.352  59.771  50.401  0.00  0.00    +0.000 A 
ENDROOT
BRANCH   5  12
ATOM     12  C   UNL     1     -11.644  54.574  51.957  0.00  0.00    +0.000 C 
ATOM     13  N   UNL     1     -11.688  53.262  51.942  0.00  0.00    +0.000 N 
ATOM     14  N   UNL     1     -10.679  55.252  52.697  0.00  0.00    +0.000 N 
ATOM     15  S   UNL     1     -10.503  52.481  52.786  0.00  0.00    +0.000 S 
ATOM     16  C   UNL     1      -9.396  54.834  52.248  0.00  0.00    +0.000 A 
ATOM     17  O   UNL     1     -10.325  51.162  52.217  0.00  0.00    +0.000 OA
ATOM     18  O   UNL     1     -10.703  52.702  54.202  0.00  0.00    +0.000 OA
ATOM     19  C   UNL     1      -9.093  53.471  52.312  0.00  0.00    +0.000 A 
ATOM     20  C   UNL     1      -8.691  55.655  51.377  0.00  0.00    +0.000 A 
ATOM     21  C   UNL     1      -8.020  52.916  51.631  0.00  0.00    +0.000 A 
ATOM     22  C   UNL     1      -7.662  55.105  50.615  0.00  0.00    +0.000 A 
ATOM     23  C   UNL     1      -7.305  53.757  50.767  0.00  0.00    +0.000 A 
ATOM     24  H   UNL     1     -12.389  52.771  51.454  0.00  0.00    +0.000 HD
ATOM     25  H   UNL     1     -10.855  55.909  53.410  0.00  0.00    +0.000 HD
ENDBRANCH   5  12
BRANCH   8  26
ATOM     26  O   UNL     1     -13.422  56.673  52.990  0.00  0.00    +0.000 OA
ATOM     27  H   UNL     1     -12.688  57.003  53.469  0.00  0.00    +0.000 HD
ENDBRANCH   8  26
BRANCH   1  28
ATOM     28  C   UNL     1     -12.883  55.826  47.408  0.00  0.00    +0.000 C 
BRANCH  28  29
ATOM     29  C   UNL     1     -11.378  55.962  47.128  0.00  0.00    +0.000 C 
BRANCH  29  31
ATOM     30 BR   UNL     1      -8.807  54.950  46.349  0.00  0.00    +0.000 Br
ATOM     31  C   UNL     1     -10.709  54.659  46.703  0.00  0.00    +0.000 C 
ATOM     32  C   UNL     1     -11.348  54.116  45.432  0.00  0.00    +0.000 C 
ENDBRANCH  29  31
ENDBRANCH  28  29
ENDBRANCH   1  28
TORSDOF 5
ENDMDL
MODEL 3
REMARK VINA RESULT:      -8.2      3.206      6.808
REMARK  Name = 338623
REMARK  6 active torsions:
REMARK  status: ('A' for Active; 'I' for Inactive)
REMARK    1  A    between atoms: C_2  and  C_3
REMARK    2  A    between atoms: C_2  and  C_4
REMARK    3  A    between atoms: C_3  and  C_5
REMARK    4  A    between atoms: C_5  and  N_6
REMARK    5  A    between atoms: C_10  and  C_13
REMARK    6  A    between atoms: C_14  and  O_19
REMARK                            x       y       z     vdW  Elec       q    Type
REMARK                         _______ _______ _______ _____ _____    ______ ____
ROOT
ATOM      1  N   UNL     1     -10.452  54.036  50.268  0.00  0.00    +0.000 N 
ATOM      2  C   UNL     1     -11.829  54.145  50.398  0.00  0.00    +0.000 A 
ATOM      3  C   UNL     1      -9.802  54.386  49.049  0.00  0.00    +0.000 A 
ATOM      4  O   UNL     1     -12.440  53.649  51.344  0.00  0.00    +0.000 OA
ATOM      5  C   UNL     1     -12.538  54.952  49.364  0.00  0.00    +0.000 A 
ATOM      6  C   UNL     1     -10.587  54.786  47.948  0.00  0.00    +0.000 A 
ATOM      7  C   UNL     1      -8.407  54.391  48.927  0.00  0.00    +0.000 A 
ATOM      8  C   UNL     1     -12.028  55.016  48.123  0.00  0.00    +0.000 A 
ATOM      9  C   UNL     1      -9.958  55.186  46.760  0.00  0.00    +0.000 A 
ATOM     10  C   UNL     1      -7.797  54.863  47.768  0.00  0.00    +0.000 A 
ATOM     11  C   UNL     1      -8.571  55.254  46.683  0.00  0.00    +0.000 A 
ENDROOT
BRANCH   5  12
ATOM     12  C   UNL     1     -13.801  55.673  49.722  0.00  0.00    +0.000 C 
ATOM     13  N   UNL     1     -14.301  55.554  50.931  0.00  0.00    +0.000 N 
ATOM     14  N   UNL     1     -14.398  56.503  48.777  0.00  0.00    +0.000 N 
ATOM     15  S   UNL     1     -15.617  56.490  51.273  0.00  0.00    +0.000 S 
ATOM     16  C   UNL     1     -14.438  57.824  49.303  0.00  0.00    +0.000 A 
ATOM     17  O   UNL     1     -15.673  56.701  52.704  0.00  0.00    +0.000 OA
ATOM     18  O   UNL     1     -16.750  56.014  50.509  0.00  0.00    +0.000 OA
ATOM     19  C   UNL     1     -15.102  58.024  50.517  0.00  0.00    +0.000 A 
ATOM     20  C   UNL     1     -13.485  58.742  48.882  0.00  0.00    +0.000 A 
ATOM     21  C   UNL     1     -14.945  59.179  51.268  0.00  0.00    +0.000 A 
ATOM     22  C   UNL     1     -13.245  59.871  49.661  0.00  0.00    +0.000 A 
ATOM     23  C   UNL     1     -13.992  60.107  50.825  0.00  0.00    +0.000 A 
ATOM     24  H   UNL     1     -13.911  54.941  51.596  0.00  0.00    +0.000 HD
ATOM     25  H   UNL     1     -14.736  56.224  47.894  0.00  0.00    +0.000 HD
ENDBRANCH   5  12
BRANCH   8  26
ATOM     26  O   UNL     1     -12.695  55.487  47.006  0.00  0.00    +0.000 OA
ATOM     27  H   UNL     1     -13.108  56.327  47.027  0.00  0.00    +0.000 HD
ENDBRANCH   8  26
BRANCH   1  28
ATOM     28  C   UNL     1      -9.698  53.704  51.479  0.00  0.00    +0.000 C 
BRANCH  28  29
ATOM     29  C   UNL     1      -9.515  54.950  52.359  0.00  0.00    +0.000 C 
BRANCH  29  31
ATOM     30 BR   UNL     1      -7.531  56.755  51.335  0.00  0.00    +0.000 Br
ATOM     31  C   UNL     1      -8.057  55.341  52.580  0.00  0.00    +0.000 C 
ATOM     32  C   UNL     1      -7.140  54.147  52.353  0.00  0.00    +0.000 C 
ENDBRANCH  29  31
ENDBRANCH  28  29
ENDBRANCH   1  28
TORSDOF 5
ENDMDL
MODEL 4
REMARK VINA RESULT:      -8.1      4.031      7.349
REMARK  Name = 338623
REMARK  6 active torsions:
REMARK  status: ('A' for Active; 'I' for Inactive)
REMARK    1  A    between atoms: C_2  and  C_3
REMARK    2  A    between atoms: C_2  and  C_4
REMARK    3  A    between atoms: C_3  and  C_5
REMARK    4  A    between atoms: C_5  and  N_6
REMARK    5  A    between atoms: C_10  and  C_13
REMARK    6  A    between atoms: C_14  and  O_19
REMARK                            x       y       z     vdW  Elec       q    Type
REMARK                         _______ _______ _______ _____ _____    ______ ____
ROOT
ATOM      1  N   UNL     1     -11.289  52.682  49.579  0.00  0.00    +0.000 N 
ATOM      2  C   UNL     1     -12.047  53.809  49.294  0.00  0.00    +0.000 A 
ATOM      3  C   UNL     1     -10.664  52.522  50.849  0.00  0.00    +0.000 A 
ATOM      4  O   UNL     1     -12.411  54.083  48.151  0.00  0.00    +0.000 OA
ATOM      5  C   UNL     1     -12.458  54.650  50.454  0.00  0.00    +0.000 A 
ATOM      6  C   UNL     1     -10.771  53.560  51.798  0.00  0.00    +0.000 A 
ATOM      7  C   UNL     1      -9.988  51.346  51.202  0.00  0.00    +0.000 A 
ATOM      8  C   UNL     1     -11.670  54.694  51.541  0.00  0.00    +0.000 A 
ATOM      9  C   UNL     1     -10.208  53.393  53.071  0.00  0.00    +0.000 A 
ATOM     10  C   UNL     1      -9.501  51.166  52.493  0.00  0.00    +0.000 A 
ATOM     11  C   UNL     1      -9.605  52.191  53.426  0.00  0.00    +0.000 A 
ENDROOT
BRANCH   5  12
ATOM     12  C   UNL     1     -13.735  55.430  50.390  0.00  0.00    +0.000 C 
ATOM     13  N   UNL     1     -14.485  55.544  51.461  0.00  0.00    +0.000 N 
ATOM     14  N   UNL     1     -14.080  56.068  49.200  0.00  0.00    +0.000 N 
ATOM     15  S   UNL     1     -15.802  56.532  51.331  0.00  0.00    +0.000 S 
ATOM     16  C   UNL     1     -14.173  57.464  49.452  0.00  0.00    +0.000 A 
ATOM     17  O   UNL     1     -16.151  57.011  52.651  0.00  0.00    +0.000 OA
ATOM     18  O   UNL     1     -16.766  55.923  50.440  0.00  0.00    +0.000 OA
ATOM     19  C   UNL     1     -15.070  57.893  50.434  0.00  0.00    +0.000 A 
ATOM     20  C   UNL     1     -13.112  58.283  49.086  0.00  0.00    +0.000 A 
ATOM     21  C   UNL     1     -15.025  59.169  50.975  0.00  0.00    +0.000 A 
ATOM     22  C   UNL     1     -12.993  59.539  49.677  0.00  0.00    +0.000 A 
ATOM     23  C   UNL     1     -13.960  59.993  50.586  0.00  0.00    +0.000 A 
ATOM     24  H   UNL     1     -14.273  55.067  52.297  0.00  0.00    +0.000 HD
ATOM     25  H   UNL     1     -14.234  55.626  48.333  0.00  0.00    +0.000 HD
ENDBRANCH   5  12
BRANCH   8  26
ATOM     26  O   UNL     1     -11.770  55.618  52.566  0.00  0.00    +0.000 OA
ATOM     27  H   UNL     1     -12.612  55.910  52.853  0.00  0.00    +0.000 HD
ENDBRANCH   8  26
BRANCH   1  28
ATOM     28  C   UNL     1     -11.301  51.609  48.582  0.00  0.00    +0.000 C 
BRANCH  28  29
ATOM     29  C   UNL     1     -10.160  51.799  47.570  0.00  0.00    +0.000 C 
BRANCH  29  31
ATOM     30 BR   UNL     1     -10.380  53.425  45.215  0.00  0.00    +0.000 Br
ATOM     31  C   UNL     1     -10.603  51.702  46.114  0.00  0.00    +0.000 C 
ATOM     32  C   UNL     1     -12.072  51.309  46.024  0.00  0.00    +0.000 C 
ENDBRANCH  29  31
ENDBRANCH  28  29
ENDBRANCH   1  28
TORSDOF 5
ENDMDL
MODEL 5
REMARK VINA RESULT:      -8.1      2.992      4.688
REMARK  Name = 338623
REMARK  6 active torsions:
REMARK  status: ('A' for Active; 'I' for Inactive)
REMARK    1  A    between atoms: C_2  and  C_3
REMARK    2  A    between atoms: C_2  and  C_4
REMARK    3  A    between atoms: C_3  and  C_5
REMARK    4  A    between atoms: C_5  and  N_6
REMARK    5  A    between atoms: C_10  and  C_13
REMARK    6  A    between atoms: C_14  and  O_19
REMARK                            x       y       z     vdW  Elec       q    Type
REMARK                         _______ _______ _______ _____ _____    ______ ____
ROOT
ATOM      1  N   UNL     1     -10.711  54.709  48.178  0.00  0.00    +0.000 N 
ATOM      2  C   UNL     1      -9.982  54.293  49.282  0.00  0.00    +0.000 A 
ATOM      3  C   UNL     1     -11.865  55.531  48.330  0.00  0.00    +0.000 A 
ATOM      4  O   UNL     1      -9.124  53.414  49.209  0.00  0.00    +0.000 OA
ATOM      5  C   UNL     1     -10.242  55.007  50.565  0.00  0.00    +0.000 A 
ATOM      6  C   UNL     1     -12.299  55.864  49.629  0.00  0.00    +0.000 A 
ATOM      7  C   UNL     1     -12.553  56.056  47.228  0.00  0.00    +0.000 A 
ATOM      8  C   UNL     1     -11.462  55.524  50.789  0.00  0.00    +0.000 A 
ATOM      9  C   UNL     1     -13.401  56.716  49.793  0.00  0.00    +0.000 A 
ATOM     10  C   UNL     1     -13.596  56.960  47.407  0.00  0.00    +0.000 A 
ATOM     11  C   UNL     1     -14.024  57.285  48.688  0.00  0.00    +0.000 A 
ENDROOT
BRANCH   5  12
ATOM     12  C   UNL     1      -9.147  55.135  51.579  0.00  0.00    +0.000 C 
ATOM     13  N   UNL     1      -9.023  54.232  52.523  0.00  0.00    +0.000 N 
ATOM     14  N   UNL     1      -8.243  56.189  51.470  0.00  0.00    +0.000 N 
ATOM     15  S   UNL     1      -7.709  54.383  53.512  0.00  0.00    +0.000 S 
ATOM     16  C   UNL     1      -6.940  55.645  51.306  0.00  0.00    +0.000 A 
ATOM     17  O   UNL     1      -7.391  53.081  54.057  0.00  0.00    +0.000 OA
ATOM     18  O   UNL     1      -7.870  55.559  54.339  0.00  0.00    +0.000 OA
ATOM     19  C   UNL     1      -6.462  54.782  52.297  0.00  0.00    +0.000 A 
ATOM     20  C   UNL     1      -6.388  55.601  50.032  0.00  0.00    +0.000 A 
ATOM     21  C   UNL     1      -5.360  53.964  52.100  0.00  0.00    +0.000 A 
ATOM     22  C   UNL     1      -5.334  54.725  49.783  0.00  0.00    +0.000 A 
ATOM     23  C   UNL     1      -4.800  53.940  50.816  0.00  0.00    +0.000 A 
ATOM     24  H   UNL     1      -9.678  53.504  52.635  0.00  0.00    +0.000 HD
ATOM     25  H   UNL     1      -8.468  57.148  51.501  0.00  0.00    +0.000 HD
ENDBRANCH   5  12
BRANCH   8  26
ATOM     26  O   UNL     1     -11.933  55.966  52.012  0.00  0.00    +0.000 OA
ATOM     27  H   UNL     1     -12.796  55.736  52.293  0.00  0.00    +0.000 HD
ENDBRANCH   8  26
BRANCH   1  28
ATOM     28  C   UNL     1     -10.148  54.403  46.861  0.00  0.00    +0.000 C 
BRANCH  28  29
ATOM     29  C   UNL     1      -8.967  55.335  46.548  0.00  0.00    +0.000 C 
BRANCH  29  31
ATOM     30 BR   UNL     1      -8.692  53.359  44.485  0.00  0.00    +0.000 Br
ATOM     31  C   UNL     1      -7.898  54.703  45.663  0.00  0.00    +0.000 C 
ATOM     32  C   UNL     1      -6.834  54.019  46.512  0.00  0.00    +0.000 C 
ENDBRANCH  29  31
ENDBRANCH  28  29
ENDBRANCH   1  28
TORSDOF 5
ENDMDL
MODEL 6
REMARK VINA RESULT:      -8.0      3.221      6.910
REMARK  Name = 338623
REMARK  6 active torsions:
REMARK  status: ('A' for Active; 'I' for Inactive)
REMARK    1  A    between atoms: C_2  and  C_3
REMARK    2  A    between atoms: C_2  and  C_4
REMARK    3  A    between atoms: C_3  and  C_5
REMARK    4  A    between atoms: C_5  and  N_6
REMARK    5  A    between atoms: C_10  and  C_13
REMARK    6  A    between atoms: C_14  and  O_19
REMARK                            x       y       z     vdW  Elec       q    Type
REMARK                         _______ _______ _______ _____ _____    ______ ____
ROOT
ATOM      1  N   UNL     1      -9.823  54.906  50.673  0.00  0.00    +0.000 N 
ATOM      2  C   UNL     1     -11.190  54.864  50.910  0.00  0.00    +0.000 A 
ATOM      3  C   UNL     1      -9.305  54.781  49.352  0.00  0.00    +0.000 A 
ATOM      4  O   UNL     1     -11.656  54.747  52.042  0.00  0.00    +0.000 OA
ATOM      5  C   UNL     1     -12.080  55.030  49.726  0.00  0.00    +0.000 A 
ATOM      6  C   UNL     1     -10.199  54.546  48.288  0.00  0.00    +0.000 A 
ATOM      7  C   UNL     1      -7.940  54.932  49.073  0.00  0.00    +0.000 A 
ATOM      8  C   UNL     1     -11.649  54.620  48.522  0.00  0.00    +0.000 A 
ATOM      9  C   UNL     1      -9.709  54.474  46.976  0.00  0.00    +0.000 A 
ATOM     10  C   UNL     1      -7.481  54.935  47.759  0.00  0.00    +0.000 A 
ATOM     11  C   UNL     1      -8.363  54.700  46.711  0.00  0.00    +0.000 A 
ENDROOT
BRANCH   5  12
ATOM     12  C   UNL     1     -13.435  55.646  49.896  0.00  0.00    +0.000 C 
ATOM     13  N   UNL     1     -14.069  55.523  51.039  0.00  0.00    +0.000 N 
ATOM     14  N   UNL     1     -13.978  56.387  48.850  0.00  0.00    +0.000 N 
ATOM     15  S   UNL     1     -15.493  56.347  51.178  0.00  0.00    +0.000 S 
ATOM     16  C   UNL     1     -14.196  57.715  49.308  0.00  0.00    +0.000 A 
ATOM     17  O   UNL     1     -15.743  56.601  52.581  0.00  0.00    +0.000 OA
ATOM     18  O   UNL     1     -16.477  55.746  50.304  0.00  0.00    +0.000 OA
ATOM     19  C   UNL     1     -15.020  57.896  50.423  0.00  0.00    +0.000 A 
ATOM     20  C   UNL     1     -13.279  58.701  48.964  0.00  0.00    +0.000 A 
ATOM     21  C   UNL     1     -15.056  59.085  51.135  0.00  0.00    +0.000 A 
ATOM     22  C   UNL     1     -13.234  59.873  49.716  0.00  0.00    +0.000 A 
ATOM     23  C   UNL     1     -14.138  60.079  50.769  0.00  0.00    +0.000 A 
ATOM     24  H   UNL     1     -13.714  54.970  51.773  0.00  0.00    +0.000 HD
ATOM     25  H   UNL     1     -14.178  56.049  47.946  0.00  0.00    +0.000 HD
ENDBRANCH   5  12
BRANCH   8  26
ATOM     26  O   UNL     1     -12.441  54.457  47.399  0.00  0.00    +0.000 OA
ATOM     27  H   UNL     1     -12.137  54.753  46.565  0.00  0.00    +0.000 HD
ENDBRANCH   8  26
BRANCH   1  28
ATOM     28  C   UNL     1      -8.966  55.246  51.811  0.00  0.00    +0.000 C 
BRANCH  28  29
ATOM     29  C   UNL     1      -8.287  53.986  52.371  0.00  0.00    +0.000 C 
BRANCH  29  31
ATOM     30 BR   UNL     1      -6.799  52.714  54.470  0.00  0.00    +0.000 Br
ATOM     31  C   UNL     1      -7.155  54.278  53.350  0.00  0.00    +0.000 C 
ATOM     32  C   UNL     1      -7.520  55.440  54.264  0.00  0.00    +0.000 C 
ENDBRANCH  29  31
ENDBRANCH  28  29
ENDBRANCH   1  28
TORSDOF 5
ENDMDL
MODEL 7
REMARK VINA RESULT:      -7.9      2.188      2.813
REMARK  Name = 338623
REMARK  6 active torsions:
REMARK  status: ('A' for Active; 'I' for Inactive)
REMARK    1  A    between atoms: C_2  and  C_3
REMARK    2  A    between atoms: C_2  and  C_4
REMARK    3  A    between atoms: C_3  and  C_5
REMARK    4  A    between atoms: C_5  and  N_6
REMARK    5  A    between atoms: C_10  and  C_13
REMARK    6  A    between atoms: C_14  and  O_19
REMARK                            x       y       z     vdW  Elec       q    Type
REMARK                         _______ _______ _______ _____ _____    ______ ____
ROOT
ATOM      1  N   UNL     1     -10.785  55.170  50.687  0.00  0.00    +0.000 N 
ATOM      2  C   UNL     1      -9.621  55.274  51.435  0.00  0.00    +0.000 A 
ATOM      3  C   UNL     1     -10.747  55.221  49.264  0.00  0.00    +0.000 A 
ATOM      4  O   UNL     1      -9.636  55.455  52.652  0.00  0.00    +0.000 OA
ATOM      5  C   UNL     1      -8.335  55.092  50.702  0.00  0.00    +0.000 A 
ATOM      6  C   UNL     1      -9.512  55.446  48.621  0.00  0.00    +0.000 A 
ATOM      7  C   UNL     1     -11.891  55.007  48.483  0.00  0.00    +0.000 A 
ATOM      8  C   UNL     1      -8.269  55.435  49.405  0.00  0.00    +0.000 A 
ATOM      9  C   UNL     1      -9.452  55.445  47.220  0.00  0.00    +0.000 A 
ATOM     10  C   UNL     1     -11.800  54.933  47.096  0.00  0.00    +0.000 A 
ATOM     11  C   UNL     1     -10.583  55.158  46.465  0.00  0.00    +0.000 A 
ENDROOT
BRANCH   5  12
ATOM     12  C   UNL     1      -7.144  54.535  51.419  0.00  0.00    +0.000 C 
ATOM     13  N   UNL     1      -6.547  55.248  52.345  0.00  0.00    +0.000 N 
ATOM     14  N   UNL     1      -6.720  53.241  51.124  0.00  0.00    +0.000 N 
ATOM     15  S   UNL     1      -5.329  54.500  53.173  0.00  0.00    +0.000 S 
ATOM     16  C   UNL     1      -6.799  52.463  52.312  0.00  0.00    +0.000 A 
ATOM     17  O   UNL     1      -5.194  55.134  54.467  0.00  0.00    +0.000 OA
ATOM     18  O   UNL     1      -4.207  54.294  52.283  0.00  0.00    +0.000 OA
ATOM     19  C   UNL     1      -6.077  52.898  53.428  0.00  0.00    +0.000 A 
ATOM     20  C   UNL     1      -7.883  51.612  52.485  0.00  0.00    +0.000 A 
ATOM     21  C   UNL     1      -6.315  52.410  54.703  0.00  0.00    +0.000 A 
ATOM     22  C   UNL     1      -8.199  51.172  53.769  0.00  0.00    +0.000 A 
ATOM     23  C   UNL     1      -7.401  51.538  54.863  0.00  0.00    +0.000 A 
ATOM     24  H   UNL     1      -6.811  56.178  52.536  0.00  0.00    +0.000 HD
ATOM     25  H   UNL     1      -6.417  52.919  50.244  0.00  0.00    +0.000 HD
ENDBRANCH   5  12
BRANCH   8  26
ATOM     26  O   UNL     1      -7.103  55.582  48.673  0.00  0.00    +0.000 OA
ATOM     27  H   UNL     1      -6.372  56.034  49.043  0.00  0.00    +0.000 HD
ENDBRANCH   8  26
BRANCH   1  28
ATOM     28  C   UNL     1     -12.012  54.846  51.418  0.00  0.00    +0.000 C 
BRANCH  28  29
ATOM     29  C   UNL     1     -12.694  56.127  51.924  0.00  0.00    +0.000 C 
BRANCH  29  31
ATOM     30 BR   UNL     1     -13.924  57.792  49.935  0.00  0.00    +0.000 Br
ATOM     31  C   UNL     1     -14.058  56.391  51.294  0.00  0.00    +0.000 C 
ATOM     32  C   UNL     1     -15.057  56.849  52.348  0.00  0.00    +0.000 C 
ENDBRANCH  29  31
ENDBRANCH  28  29
ENDBRANCH   1  28
TORSDOF 5
ENDMDL
MODEL 8
REMARK VINA RESULT:      -7.8      2.741      3.374
REMARK  Name = 338623
REMARK  6 active torsions:
REMARK  status: ('A' for Active; 'I' for Inactive)
REMARK    1  A    between atoms: C_2  and  C_3
REMARK    2  A    between atoms: C_2  and  C_4
REMARK    3  A    between atoms: C_3  and  C_5
REMARK    4  A    between atoms: C_5  and  N_6
REMARK    5  A    between atoms: C_10  and  C_13
REMARK    6  A    between atoms: C_14  and  O_19
REMARK                            x       y       z     vdW  Elec       q    Type
REMARK                         _______ _______ _______ _____ _____    ______ ____
ROOT
ATOM      1  N   UNL     1     -11.032  55.355  47.880  0.00  0.00    +0.000 N 
ATOM      2  C   UNL     1     -10.182  55.926  48.817  0.00  0.00    +0.000 A 
ATOM      3  C   UNL     1     -10.515  54.711  46.719  0.00  0.00    +0.000 A 
ATOM      4  O   UNL     1     -10.591  56.672  49.705  0.00  0.00    +0.000 OA
ATOM      5  C   UNL     1      -8.744  55.541  48.738  0.00  0.00    +0.000 A 
ATOM      6  C   UNL     1      -9.123  54.719  46.497  0.00  0.00    +0.000 A 
ATOM      7  C   UNL     1     -11.344  54.031  45.816  0.00  0.00    +0.000 A 
ATOM      8  C   UNL     1      -8.219  55.216  47.545  0.00  0.00    +0.000 A 
ATOM      9  C   UNL     1      -8.596  54.043  45.387  0.00  0.00    +0.000 A 
ATOM     10  C   UNL     1     -10.799  53.302  44.763  0.00  0.00    +0.000 A 
ATOM     11  C   UNL     1      -9.427  53.313  44.545  0.00  0.00    +0.000 A 
ENDROOT
BRANCH   5  12
ATOM     12  C   UNL     1      -7.910  55.525  49.982  0.00  0.00    +0.000 C 
ATOM     13  N   UNL     1      -8.386  54.985  51.080  0.00  0.00    +0.000 N 
ATOM     14  N   UNL     1      -6.617  56.041  49.938  0.00  0.00    +0.000 N 
ATOM     15  S   UNL     1      -7.348  54.894  52.360  0.00  0.00    +0.000 S 
ATOM     16  C   UNL     1      -5.709  55.000  50.273  0.00  0.00    +0.000 A 
ATOM     17  O   UNL     1      -7.770  53.809  53.220  0.00  0.00    +0.000 OA
ATOM     18  O   UNL     1      -7.086  56.228  52.856  0.00  0.00    +0.000 OA
ATOM     19  C   UNL     1      -5.867  54.368  51.511  0.00  0.00    +0.000 A 
ATOM     20  C   UNL     1      -5.027  54.350  49.252  0.00  0.00    +0.000 A 
ATOM     21  C   UNL     1      -5.255  53.160  51.811  0.00  0.00    +0.000 A 
ATOM     22  C   UNL     1      -4.475  53.096  49.501  0.00  0.00    +0.000 A 
ATOM     23  C   UNL     1      -4.556  52.521  50.778  0.00  0.00    +0.000 A 
ATOM     24  H   UNL     1      -9.312  54.652  51.136  0.00  0.00    +0.000 HD
ATOM     25  H   UNL     1      -6.374  56.969  49.713  0.00  0.00    +0.000 HD
ENDBRANCH   5  12
BRANCH   8  26
ATOM     26  O   UNL     1      -6.868  55.104  47.267  0.00  0.00    +0.000 OA
ATOM     27  H   UNL     1      -6.411  54.315  47.478  0.00  0.00    +0.000 HD
ENDBRANCH   8  26
BRANCH   1  28
ATOM     28  C   UNL     1     -12.455  55.304  48.224  0.00  0.00    +0.000 C 
BRANCH  28  29
ATOM     29  C   UNL     1     -13.172  56.576  47.743  0.00  0.00    +0.000 C 
BRANCH  29  31
ATOM     30 BR   UNL     1     -13.634  58.887  49.381  0.00  0.00    +0.000 Br
ATOM     31  C   UNL     1     -14.189  57.125  48.737  0.00  0.00    +0.000 C 
ATOM     32  C   UNL     1     -14.317  56.202  49.941  0.00  0.00    +0.000 C 
ENDBRANCH  29  31
ENDBRANCH  28  29
ENDBRANCH   1  28
TORSDOF 5
ENDMDL
MODEL 9
REMARK VINA RESULT:      -7.7      2.685      4.427
REMARK  Name = 338623
REMARK  6 active torsions:
REMARK  status: ('A' for Active; 'I' for Inactive)
REMARK    1  A    between atoms: C_2  and  C_3
REMARK    2  A    between atoms: C_2  and  C_4
REMARK    3  A    between atoms: C_3  and  C_5
REMARK    4  A    between atoms: C_5  and  N_6
REMARK    5  A    between atoms: C_10  and  C_13
REMARK    6  A    between atoms: C_14  and  O_19
REMARK                            x       y       z     vdW  Elec       q    Type
REMARK                         _______ _______ _______ _____ _____    ______ ____
ROOT
ATOM      1  N   UNL     1     -11.347  54.366  48.142  0.00  0.00    +0.000 N 
ATOM      2  C   UNL     1     -11.067  53.540  49.221  0.00  0.00    +0.000 A 
ATOM      3  C   UNL     1     -12.393  55.331  48.211  0.00  0.00    +0.000 A 
ATOM      4  O   UNL     1     -10.330  52.560  49.124  0.00  0.00    +0.000 OA
ATOM      5  C   UNL     1     -11.654  53.932  50.535  0.00  0.00    +0.000 A 
ATOM      6  C   UNL     1     -13.190  55.392  49.373  0.00  0.00    +0.000 A 
ATOM      7  C   UNL     1     -12.624  56.251  47.179  0.00  0.00    +0.000 A 
ATOM      8  C   UNL     1     -12.818  54.603  50.556  0.00  0.00    +0.000 A 
ATOM      9  C   UNL     1     -14.188  56.372  49.475  0.00  0.00    +0.000 A 
ATOM     10  C   UNL     1     -13.566  57.264  47.329  0.00  0.00    +0.000 A 
ATOM     11  C   UNL     1     -14.352  57.321  48.473  0.00  0.00    +0.000 A 
ENDROOT
BRANCH   5  12
ATOM     12  C   UNL     1     -10.943  53.572  51.803  0.00  0.00    +0.000 C 
ATOM     13  N   UNL     1     -10.655  52.317  52.056  0.00  0.00    +0.000 N 
ATOM     14  N   UNL     1     -10.552  54.588  52.672  0.00  0.00    +0.000 N 
ATOM     15  S   UNL     1      -9.754  52.032  53.410  0.00  0.00    +0.000 S 
ATOM     16  C   UNL     1      -9.137  54.543  52.804  0.00  0.00    +0.000 A 
ATOM     17  O   UNL     1      -9.047  50.781  53.238  0.00  0.00    +0.000 OA
ATOM     18  O   UNL     1     -10.550  52.325  54.582  0.00  0.00    +0.000 OA
ATOM     19  C   UNL     1      -8.561  53.354  53.262  0.00  0.00    +0.000 A 
ATOM     20  C   UNL     1      -8.367  55.446  52.083  0.00  0.00    +0.000 A 
ATOM     21  C   UNL     1      -7.205  53.090  53.139  0.00  0.00    +0.000 A 
ATOM     22  C   UNL     1      -7.019  55.165  51.870  0.00  0.00    +0.000 A 
ATOM     23  C   UNL     1      -6.434  54.016  52.423  0.00  0.00    +0.000 A 
ATOM     24  H   UNL     1     -10.959  51.586  51.470  0.00  0.00    +0.000 HD
ATOM     25  H   UNL     1     -11.153  55.229  53.118  0.00  0.00    +0.000 HD
ENDBRANCH   5  12
BRANCH   8  26
ATOM     26  O   UNL     1     -13.612  54.795  51.672  0.00  0.00    +0.000 OA
ATOM     27  H   UNL     1     -14.540  54.682  51.611  0.00  0.00    +0.000 HD
ENDBRANCH   8  26
BRANCH   1  28
ATOM     28  C   UNL     1     -10.421  54.309  47.009  0.00  0.00    +0.000 C 
BRANCH  28  29
ATOM     29  C   UNL     1      -9.218  55.235  47.247  0.00  0.00    +0.000 C 
BRANCH  29  31
ATOM     30 BR   UNL     1      -8.493  53.712  44.925  0.00  0.00    +0.000 Br
ATOM     31  C   UNL     1      -7.994  54.887  46.407  0.00  0.00    +0.000 C 
ATOM     32  C   UNL     1      -6.950  54.167  47.250  0.00  0.00    +0.000 C 
ENDBRANCH  29  31
ENDBRANCH  28  29
ENDBRANCH   1  28
TORSDOF 5
ENDMDL
