MODEL 1
REMARK VINA RESULT:      -8.2      0.000      0.000
REMARK  Name = 338350
REMARK  9 active torsions:
REMARK  status: ('A' for Active; 'I' for Inactive)
REMARK    1  A    between atoms: C_6  and  C_10
REMARK    2  A    between atoms: C_14  and  O_18
REMARK    3  A    between atoms: N_17  and  C_21
REMARK    4  A    between atoms: C_21  and  C_24
REMARK    5  A    between atoms: C_24  and  C_27
REMARK    6  A    between atoms: C_25  and  N_28
REMARK    7  A    between atoms: C_27  and  C_29
REMARK    8  A    between atoms: C_27  and  C_30
REMARK    9  A    between atoms: C_31  and  C_33
REMARK                            x       y       z     vdW  Elec       q    Type
REMARK                         _______ _______ _______ _____ _____    ______ ____
ROOT
ATOM      1  C   UNL     1     -11.176  55.972  49.066  0.00  0.00    +0.000 A 
ATOM      2  C   UNL     1     -10.173  55.423  50.030  0.00  0.00    +0.000 A 
ATOM      3  C   UNL     1     -11.148  55.584  47.780  0.00  0.00    +0.000 A 
ATOM      4  O   UNL     1     -10.300  55.707  51.226  0.00  0.00    +0.000 OA
ATOM      5  N   UNL     1      -9.155  54.606  49.550  0.00  0.00    +0.000 N 
ATOM      6  C   UNL     1     -10.148  54.608  47.317  0.00  0.00    +0.000 A 
ATOM      7  C   UNL     1      -9.177  54.123  48.205  0.00  0.00    +0.000 A 
ATOM      8  C   UNL     1     -10.174  54.140  45.989  0.00  0.00    +0.000 A 
ATOM      9  C   UNL     1      -8.274  53.155  47.742  0.00  0.00    +0.000 A 
ATOM     10  C   UNL     1      -9.257  53.194  45.532  0.00  0.00    +0.000 A 
ATOM     11  C   UNL     1      -8.293  52.719  46.414  0.00  0.00    +0.000 A 
ENDROOT
BRANCH   1  17
ATOM     12  S   UNL     1     -13.482  59.138  49.421  0.00  0.00    +0.000 S 
ATOM     13  O   UNL     1     -14.594  59.150  48.489  0.00  0.00    +0.000 OA
ATOM     14  O   UNL     1     -12.744  60.356  49.696  0.00  0.00    +0.000 OA
ATOM     15  N   UNL     1     -12.423  58.018  48.917  0.00  0.00    +0.000 N 
ATOM     16  C   UNL     1     -14.146  58.620  50.962  0.00  0.00    +0.000 A 
ATOM     17  C   UNL     1     -12.254  56.910  49.577  0.00  0.00    +0.000 C 
ATOM     18  C   UNL     1     -13.792  57.366  51.429  0.00  0.00    +0.000 A 
ATOM     19  C   UNL     1     -14.989  59.469  51.683  0.00  0.00    +0.000 A 
ATOM     20  N   UNL     1     -12.954  56.526  50.700  0.00  0.00    +0.000 N 
ATOM     21  C   UNL     1     -14.359  56.923  52.630  0.00  0.00    +0.000 A 
ATOM     22  C   UNL     1     -15.519  59.030  52.895  0.00  0.00    +0.000 A 
ATOM     23  C   UNL     1     -15.212  57.754  53.363  0.00  0.00    +0.000 A 
ATOM     24  H   UNL     1     -11.900  58.179  48.099  0.00  0.00    +0.000 HD
ATOM     25  H   UNL     1     -12.857  55.596  51.007  0.00  0.00    +0.000 HD
ENDBRANCH   1  17
BRANCH  10  26
ATOM     26  N   UNL     1      -9.253  52.683  44.218  0.00  0.00    +0.000 N 
ATOM     27  C   UNL     1      -9.938  51.568  43.775  0.00  0.00    +0.000 C 
ATOM     28  O   UNL     1     -10.609  50.801  44.459  0.00  0.00    +0.000 OA
ATOM     29  C   UNL     1      -9.771  51.309  42.301  0.00  0.00    +0.000 C 
ATOM     30  H   UNL     1      -8.711  53.167  43.554  0.00  0.00    +0.000 HD
ENDBRANCH  10  26
BRANCH   3  31
ATOM     31  O   UNL     1     -12.049  56.005  46.818  0.00  0.00    +0.000 OA
ATOM     32  H   UNL     1     -12.058  56.902  46.548  0.00  0.00    +0.000 HD
ENDBRANCH   3  31
BRANCH   5  33
ATOM     33  C   UNL     1      -8.139  54.148  50.506  0.00  0.00    +0.000 C 
BRANCH  33  34
ATOM     34  C   UNL     1      -6.942  55.091  50.717  0.00  0.00    +0.000 C 
BRANCH  34  35
ATOM     35  C   UNL     1      -5.542  54.483  50.545  0.00  0.00    +0.000 C 
ATOM     36  C   UNL     1      -5.534  52.967  50.728  0.00  0.00    +0.000 C 
ATOM     37  C   UNL     1      -5.020  54.837  49.147  0.00  0.00    +0.000 C 
ENDBRANCH  34  35
ENDBRANCH  33  34
ENDBRANCH   5  33
TORSDOF 6
ENDMDL
MODEL 2
REMARK VINA RESULT:      -8.1      1.543      4.641
REMARK  Name = 338350
REMARK  9 active torsions:
REMARK  status: ('A' for Active; 'I' for Inactive)
REMARK    1  A    between atoms: C_6  and  C_10
REMARK    2  A    between atoms: C_14  and  O_18
REMARK    3  A    between atoms: N_17  and  C_21
REMARK    4  A    between atoms: C_21  and  C_24
REMARK    5  A    between atoms: C_24  and  C_27
REMARK    6  A    between atoms: C_25  and  N_28
REMARK    7  A    between atoms: C_27  and  C_29
REMARK    8  A    between atoms: C_27  and  C_30
REMARK    9  A    between atoms: C_31  and  C_33
REMARK                            x       y       z     vdW  Elec       q    Type
REMARK                         _______ _______ _______ _____ _____    ______ ____
ROOT
ATOM      1  C   UNL     1     -11.491  55.893  48.833  0.00  0.00    +0.000 A 
ATOM      2  C   UNL     1     -11.647  55.484  47.403  0.00  0.00    +0.000 A 
ATOM      3  C   UNL     1     -10.450  55.433  49.550  0.00  0.00    +0.000 A 
ATOM      4  O   UNL     1     -12.543  56.017  46.741  0.00  0.00    +0.000 OA
ATOM      5  N   UNL     1     -10.772  54.542  46.872  0.00  0.00    +0.000 N 
ATOM      6  C   UNL     1      -9.453  54.545  48.931  0.00  0.00    +0.000 A 
ATOM      7  C   UNL     1      -9.617  54.123  47.603  0.00  0.00    +0.000 A 
ATOM      8  C   UNL     1      -8.321  54.132  49.659  0.00  0.00    +0.000 A 
ATOM      9  C   UNL     1      -8.620  53.319  47.031  0.00  0.00    +0.000 A 
ATOM     10  C   UNL     1      -7.345  53.315  49.087  0.00  0.00    +0.000 A 
ATOM     11  C   UNL     1      -7.514  52.895  47.772  0.00  0.00    +0.000 A 
ENDROOT
BRANCH   1  17
ATOM     12  S   UNL     1     -13.547  59.191  49.434  0.00  0.00    +0.000 S 
ATOM     13  O   UNL     1     -14.688  59.329  48.548  0.00  0.00    +0.000 OA
ATOM     14  O   UNL     1     -12.713  60.338  49.738  0.00  0.00    +0.000 OA
ATOM     15  N   UNL     1     -12.591  58.026  48.833  0.00  0.00    +0.000 N 
ATOM     16  C   UNL     1     -14.191  58.642  50.973  0.00  0.00    +0.000 A 
ATOM     17  C   UNL     1     -12.478  56.877  49.432  0.00  0.00    +0.000 C 
ATOM     18  C   UNL     1     -13.911  57.344  51.364  0.00  0.00    +0.000 A 
ATOM     19  C   UNL     1     -14.943  59.510  51.768  0.00  0.00    +0.000 A 
ATOM     20  N   UNL     1     -13.164  56.486  50.561  0.00  0.00    +0.000 N 
ATOM     21  C   UNL     1     -14.465  56.881  52.563  0.00  0.00    +0.000 A 
ATOM     22  C   UNL     1     -15.459  59.047  52.976  0.00  0.00    +0.000 A 
ATOM     23  C   UNL     1     -15.229  57.731  53.369  0.00  0.00    +0.000 A 
ATOM     24  H   UNL     1     -12.088  58.193  48.004  0.00  0.00    +0.000 HD
ATOM     25  H   UNL     1     -13.123  55.536  50.818  0.00  0.00    +0.000 HD
ENDBRANCH   1  17
BRANCH  10  26
ATOM     26  N   UNL     1      -6.187  52.890  49.769  0.00  0.00    +0.000 N 
ATOM     27  C   UNL     1      -5.110  53.682  50.117  0.00  0.00    +0.000 C 
ATOM     28  O   UNL     1      -4.951  54.867  49.838  0.00  0.00    +0.000 OA
ATOM     29  C   UNL     1      -4.047  52.943  50.887  0.00  0.00    +0.000 C 
ATOM     30  H   UNL     1      -6.142  51.939  50.019  0.00  0.00    +0.000 HD
ENDBRANCH  10  26
BRANCH   3  31
ATOM     31  O   UNL     1     -10.198  55.775  50.866  0.00  0.00    +0.000 OA
ATOM     32  H   UNL     1      -9.659  56.516  51.061  0.00  0.00    +0.000 HD
ENDBRANCH   3  31
BRANCH   5  33
ATOM     33  C   UNL     1     -10.999  54.101  45.491  0.00  0.00    +0.000 C 
BRANCH  33  34
ATOM     34  C   UNL     1     -11.842  52.825  45.324  0.00  0.00    +0.000 C 
BRANCH  34  35
ATOM     35  C   UNL     1     -11.253  51.716  44.437  0.00  0.00    +0.000 C 
ATOM     36  C   UNL     1     -10.189  52.238  43.475  0.00  0.00    +0.000 C 
ATOM     37  C   UNL     1     -10.647  50.635  45.341  0.00  0.00    +0.000 C 
ENDBRANCH  34  35
ENDBRANCH  33  34
ENDBRANCH   5  33
TORSDOF 6
ENDMDL
MODEL 3
REMARK VINA RESULT:      -8.0      3.708      7.049
REMARK  Name = 338350
REMARK  9 active torsions:
REMARK  status: ('A' for Active; 'I' for Inactive)
REMARK    1  A    between atoms: C_6  and  C_10
REMARK    2  A    between atoms: C_14  and  O_18
REMARK    3  A    between atoms: N_17  and  C_21
REMARK    4  A    between atoms: C_21  and  C_24
REMARK    5  A    between atoms: C_24  and  C_27
REMARK    6  A    between atoms: C_25  and  N_28
REMARK    7  A    between atoms: C_27  and  C_29
REMARK    8  A    between atoms: C_27  and  C_30
REMARK    9  A    between atoms: C_31  and  C_33
REMARK                            x       y       z     vdW  Elec       q    Type
REMARK                         _______ _______ _______ _____ _____    ______ ____
ROOT
ATOM      1  C   UNL     1      -9.524  53.845  51.280  0.00  0.00    +0.000 A 
ATOM      2  C   UNL     1     -10.586  54.874  51.498  0.00  0.00    +0.000 A 
ATOM      3  C   UNL     1      -9.247  53.423  50.034  0.00  0.00    +0.000 A 
ATOM      4  O   UNL     1     -10.733  55.327  52.638  0.00  0.00    +0.000 OA
ATOM      5  N   UNL     1     -11.351  55.293  50.414  0.00  0.00    +0.000 N 
ATOM      6  C   UNL     1      -9.972  53.981  48.881  0.00  0.00    +0.000 A 
ATOM      7  C   UNL     1     -10.999  54.914  49.081  0.00  0.00    +0.000 A 
ATOM      8  C   UNL     1      -9.622  53.598  47.571  0.00  0.00    +0.000 A 
ATOM      9  C   UNL     1     -11.632  55.461  47.955  0.00  0.00    +0.000 A 
ATOM     10  C   UNL     1     -10.272  54.133  46.459  0.00  0.00    +0.000 A 
ATOM     11  C   UNL     1     -11.294  55.054  46.662  0.00  0.00    +0.000 A 
ENDROOT
BRANCH   1  17
ATOM     12  S   UNL     1      -6.517  53.203  53.735  0.00  0.00    +0.000 S 
ATOM     13  O   UNL     1      -6.276  54.301  54.651  0.00  0.00    +0.000 OA
ATOM     14  O   UNL     1      -5.405  52.513  53.109  0.00  0.00    +0.000 OA
ATOM     15  N   UNL     1      -7.493  53.745  52.556  0.00  0.00    +0.000 N 
ATOM     16  C   UNL     1      -7.384  51.984  54.654  0.00  0.00    +0.000 A 
ATOM     17  C   UNL     1      -8.727  53.344  52.470  0.00  0.00    +0.000 C 
ATOM     18  C   UNL     1      -8.715  51.766  54.345  0.00  0.00    +0.000 A 
ATOM     19  C   UNL     1      -6.726  51.258  55.650  0.00  0.00    +0.000 A 
ATOM     20  N   UNL     1      -9.363  52.499  53.353  0.00  0.00    +0.000 N 
ATOM     21  C   UNL     1      -9.428  50.835  55.110  0.00  0.00    +0.000 A 
ATOM     22  C   UNL     1      -7.438  50.308  56.381  0.00  0.00    +0.000 A 
ATOM     23  C   UNL     1      -8.791  50.104  56.117  0.00  0.00    +0.000 A 
ATOM     24  H   UNL     1      -7.144  54.386  51.896  0.00  0.00    +0.000 HD
ATOM     25  H   UNL     1     -10.340  52.407  53.279  0.00  0.00    +0.000 HD
ENDBRANCH   1  17
BRANCH  10  26
ATOM     26  N   UNL     1      -9.948  53.795  45.129  0.00  0.00    +0.000 N 
ATOM     27  C   UNL     1     -10.464  52.733  44.410  0.00  0.00    +0.000 C 
ATOM     28  O   UNL     1     -11.236  51.874  44.825  0.00  0.00    +0.000 OA
ATOM     29  C   UNL     1      -9.958  52.668  42.993  0.00  0.00    +0.000 C 
ATOM     30  H   UNL     1      -9.294  54.368  44.670  0.00  0.00    +0.000 HD
ENDBRANCH  10  26
BRANCH   3  31
ATOM     31  O   UNL     1      -8.263  52.502  49.723  0.00  0.00    +0.000 OA
ATOM     32  H   UNL     1      -7.460  52.495  50.204  0.00  0.00    +0.000 HD
ENDBRANCH   3  31
BRANCH   5  33
ATOM     33  C   UNL     1     -12.439  56.243  50.672  0.00  0.00    +0.000 C 
BRANCH  33  34
ATOM     34  C   UNL     1     -13.792  55.624  51.063  0.00  0.00    +0.000 C 
BRANCH  34  35
ATOM     35  C   UNL     1     -14.708  56.470  51.962  0.00  0.00    +0.000 C 
ATOM     36  C   UNL     1     -13.943  57.542  52.734  0.00  0.00    +0.000 C 
ATOM     37  C   UNL     1     -15.782  57.130  51.087  0.00  0.00    +0.000 C 
ENDBRANCH  34  35
ENDBRANCH  33  34
ENDBRANCH   5  33
TORSDOF 6
ENDMDL
MODEL 4
REMARK VINA RESULT:      -7.7      3.141      8.611
REMARK  Name = 338350
REMARK  9 active torsions:
REMARK  status: ('A' for Active; 'I' for Inactive)
REMARK    1  A    between atoms: C_6  and  C_10
REMARK    2  A    between atoms: C_14  and  O_18
REMARK    3  A    between atoms: N_17  and  C_21
REMARK    4  A    between atoms: C_21  and  C_24
REMARK    5  A    between atoms: C_24  and  C_27
REMARK    6  A    between atoms: C_25  and  N_28
REMARK    7  A    between atoms: C_27  and  C_29
REMARK    8  A    between atoms: C_27  and  C_30
REMARK    9  A    between atoms: C_31  and  C_33
REMARK                            x       y       z     vdW  Elec       q    Type
REMARK                         _______ _______ _______ _____ _____    ______ ____
ROOT
ATOM      1  C   UNL     1     -10.043  53.359  48.511  0.00  0.00    +0.000 A 
ATOM      2  C   UNL     1     -11.279  53.605  49.316  0.00  0.00    +0.000 A 
ATOM      3  C   UNL     1      -8.841  53.688  49.015  0.00  0.00    +0.000 A 
ATOM      4  O   UNL     1     -12.353  53.184  48.876  0.00  0.00    +0.000 OA
ATOM      5  N   UNL     1     -11.170  54.277  50.530  0.00  0.00    +0.000 N 
ATOM      6  C   UNL     1      -8.731  54.271  50.362  0.00  0.00    +0.000 A 
ATOM      7  C   UNL     1      -9.889  54.545  51.105  0.00  0.00    +0.000 A 
ATOM      8  C   UNL     1      -7.465  54.536  50.920  0.00  0.00    +0.000 A 
ATOM      9  C   UNL     1      -9.742  55.052  52.405  0.00  0.00    +0.000 A 
ATOM     10  C   UNL     1      -7.332  55.060  52.205  0.00  0.00    +0.000 A 
ATOM     11  C   UNL     1      -8.482  55.335  52.937  0.00  0.00    +0.000 A 
ENDROOT
BRANCH   1  17
ATOM     12  S   UNL     1     -10.884  50.665  45.771  0.00  0.00    +0.000 S 
ATOM     13  O   UNL     1     -12.269  50.694  45.340  0.00  0.00    +0.000 OA
ATOM     14  O   UNL     1     -10.210  49.399  45.988  0.00  0.00    +0.000 OA
ATOM     15  N   UNL     1     -10.773  51.529  47.140  0.00  0.00    +0.000 N 
ATOM     16  C   UNL     1      -9.968  51.490  44.520  0.00  0.00    +0.000 A 
ATOM     17  C   UNL     1     -10.165  52.679  47.161  0.00  0.00    +0.000 C 
ATOM     18  C   UNL     1      -9.428  52.727  44.824  0.00  0.00    +0.000 A 
ATOM     19  C   UNL     1      -9.789  50.890  43.271  0.00  0.00    +0.000 A 
ATOM     20  N   UNL     1      -9.616  53.318  46.071  0.00  0.00    +0.000 N 
ATOM     21  C   UNL     1      -8.743  53.416  43.816  0.00  0.00    +0.000 A 
ATOM     22  C   UNL     1      -9.075  51.571  42.287  0.00  0.00    +0.000 A 
ATOM     23  C   UNL     1      -8.560  52.837  42.557  0.00  0.00    +0.000 A 
ATOM     24  H   UNL     1     -11.170  51.176  47.969  0.00  0.00    +0.000 HD
ATOM     25  H   UNL     1      -9.338  54.257  46.181  0.00  0.00    +0.000 HD
ENDBRANCH   1  17
BRANCH  10  26
ATOM     26  N   UNL     1      -6.088  55.328  52.813  0.00  0.00    +0.000 N 
ATOM     27  C   UNL     1      -5.398  54.482  53.662  0.00  0.00    +0.000 C 
ATOM     28  O   UNL     1      -5.778  53.392  54.078  0.00  0.00    +0.000 OA
ATOM     29  C   UNL     1      -4.069  55.035  54.106  0.00  0.00    +0.000 C 
ATOM     30  H   UNL     1      -5.673  56.197  52.614  0.00  0.00    +0.000 HD
ENDBRANCH  10  26
BRANCH   3  31
ATOM     31  O   UNL     1      -7.638  53.472  48.367  0.00  0.00    +0.000 OA
ATOM     32  H   UNL     1      -6.853  53.862  48.696  0.00  0.00    +0.000 HD
ENDBRANCH   3  31
BRANCH   5  33
ATOM     33  C   UNL     1     -12.408  54.575  51.259  0.00  0.00    +0.000 C 
BRANCH  33  34
ATOM     34  C   UNL     1     -13.011  55.969  51.016  0.00  0.00    +0.000 C 
BRANCH  34  35
ATOM     35  C   UNL     1     -14.222  56.360  51.878  0.00  0.00    +0.000 C 
ATOM     36  C   UNL     1     -13.911  57.505  52.840  0.00  0.00    +0.000 C 
ATOM     37  C   UNL     1     -15.375  56.764  50.950  0.00  0.00    +0.000 C 
ENDBRANCH  34  35
ENDBRANCH  33  34
ENDBRANCH   5  33
TORSDOF 6
ENDMDL
MODEL 5
REMARK VINA RESULT:      -7.7      2.869      8.054
REMARK  Name = 338350
REMARK  9 active torsions:
REMARK  status: ('A' for Active; 'I' for Inactive)
REMARK    1  A    between atoms: C_6  and  C_10
REMARK    2  A    between atoms: C_14  and  O_18
REMARK    3  A    between atoms: N_17  and  C_21
REMARK    4  A    between atoms: C_21  and  C_24
REMARK    5  A    between atoms: C_24  and  C_27
REMARK    6  A    between atoms: C_25  and  N_28
REMARK    7  A    between atoms: C_27  and  C_29
REMARK    8  A    between atoms: C_27  and  C_30
REMARK    9  A    between atoms: C_31  and  C_33
REMARK                            x       y       z     vdW  Elec       q    Type
REMARK                         _______ _______ _______ _____ _____    ______ ____
ROOT
ATOM      1  C   UNL     1      -9.477  53.639  47.955  0.00  0.00    +0.000 A 
ATOM      2  C   UNL     1      -8.459  54.046  48.972  0.00  0.00    +0.000 A 
ATOM      3  C   UNL     1     -10.785  53.805  48.216  0.00  0.00    +0.000 A 
ATOM      4  O   UNL     1      -7.266  53.992  48.655  0.00  0.00    +0.000 OA
ATOM      5  N   UNL     1      -8.891  54.485  50.219  0.00  0.00    +0.000 N 
ATOM      6  C   UNL     1     -11.222  54.402  49.488  0.00  0.00    +0.000 A 
ATOM      7  C   UNL     1     -10.275  54.746  50.464  0.00  0.00    +0.000 A 
ATOM      8  C   UNL     1     -12.588  54.652  49.723  0.00  0.00    +0.000 A 
ATOM      9  C   UNL     1     -10.725  55.361  51.642  0.00  0.00    +0.000 A 
ATOM     10  C   UNL     1     -13.026  55.244  50.907  0.00  0.00    +0.000 A 
ATOM     11  C   UNL     1     -12.085  55.580  51.874  0.00  0.00    +0.000 A 
ENDROOT
BRANCH   1  17
ATOM     12  S   UNL     1      -9.084  53.187  44.068  0.00  0.00    +0.000 S 
ATOM     13  O   UNL     1      -8.162  54.132  43.467  0.00  0.00    +0.000 OA
ATOM     14  O   UNL     1     -10.329  52.854  43.402  0.00  0.00    +0.000 OA
ATOM     15  N   UNL     1      -9.444  53.722  45.556  0.00  0.00    +0.000 N 
ATOM     16  C   UNL     1      -8.201  51.677  44.220  0.00  0.00    +0.000 A 
ATOM     17  C   UNL     1      -9.008  53.105  46.615  0.00  0.00    +0.000 C 
ATOM     18  C   UNL     1      -7.856  51.255  45.493  0.00  0.00    +0.000 A 
ATOM     19  C   UNL     1      -7.883  50.932  43.081  0.00  0.00    +0.000 A 
ATOM     20  N   UNL     1      -8.175  52.007  46.621  0.00  0.00    +0.000 N 
ATOM     21  C   UNL     1      -7.105  50.081  45.620  0.00  0.00    +0.000 A 
ATOM     22  C   UNL     1      -7.165  49.746  43.225  0.00  0.00    +0.000 A 
ATOM     23  C   UNL     1      -6.769  49.326  44.493  0.00  0.00    +0.000 A 
ATOM     24  H   UNL     1     -10.003  54.526  45.659  0.00  0.00    +0.000 HD
ATOM     25  H   UNL     1      -7.777  51.737  47.480  0.00  0.00    +0.000 HD
ENDBRANCH   1  17
BRANCH  10  26
ATOM     26  N   UNL     1     -14.379  55.529  51.182  0.00  0.00    +0.000 N 
ATOM     27  C   UNL     1     -15.174  56.438  50.509  0.00  0.00    +0.000 C 
ATOM     28  O   UNL     1     -14.821  57.192  49.607  0.00  0.00    +0.000 OA
ATOM     29  C   UNL     1     -16.594  56.476  51.007  0.00  0.00    +0.000 C 
ATOM     30  H   UNL     1     -14.797  55.034  51.923  0.00  0.00    +0.000 HD
ENDBRANCH  10  26
BRANCH   3  31
ATOM     31  O   UNL     1     -11.802  53.492  47.332  0.00  0.00    +0.000 OA
ATOM     32  H   UNL     1     -11.732  52.733  46.788  0.00  0.00    +0.000 HD
ENDBRANCH   3  31
BRANCH   5  33
ATOM     33  C   UNL     1      -7.869  54.802  51.223  0.00  0.00    +0.000 C 
BRANCH  33  34
ATOM     34  C   UNL     1      -7.460  53.646  52.153  0.00  0.00    +0.000 C 
BRANCH  34  35
ATOM     35  C   UNL     1      -7.301  53.979  53.645  0.00  0.00    +0.000 C 
ATOM     36  C   UNL     1      -5.863  53.820  54.131  0.00  0.00    +0.000 C 
ATOM     37  C   UNL     1      -7.769  55.421  53.879  0.00  0.00    +0.000 C 
ENDBRANCH  34  35
ENDBRANCH  33  34
ENDBRANCH   5  33
TORSDOF 6
ENDMDL
MODEL 6
REMARK VINA RESULT:      -7.7      2.952      8.035
REMARK  Name = 338350
REMARK  9 active torsions:
REMARK  status: ('A' for Active; 'I' for Inactive)
REMARK    1  A    between atoms: C_6  and  C_10
REMARK    2  A    between atoms: C_14  and  O_18
REMARK    3  A    between atoms: N_17  and  C_21
REMARK    4  A    between atoms: C_21  and  C_24
REMARK    5  A    between atoms: C_24  and  C_27
REMARK    6  A    between atoms: C_25  and  N_28
REMARK    7  A    between atoms: C_27  and  C_29
REMARK    8  A    between atoms: C_27  and  C_30
REMARK    9  A    between atoms: C_31  and  C_33
REMARK                            x       y       z     vdW  Elec       q    Type
REMARK                         _______ _______ _______ _____ _____    ______ ____
ROOT
ATOM      1  C   UNL     1      -9.288  53.803  49.793  0.00  0.00    +0.000 A 
ATOM      2  C   UNL     1      -9.689  53.128  48.520  0.00  0.00    +0.000 A 
ATOM      3  C   UNL     1      -9.916  54.926  50.181  0.00  0.00    +0.000 A 
ATOM      4  O   UNL     1      -9.175  52.037  48.254  0.00  0.00    +0.000 OA
ATOM      5  N   UNL     1     -10.632  53.741  47.701  0.00  0.00    +0.000 N 
ATOM      6  C   UNL     1     -11.010  55.486  49.371  0.00  0.00    +0.000 A 
ATOM      7  C   UNL     1     -11.362  54.883  48.155  0.00  0.00    +0.000 A 
ATOM      8  C   UNL     1     -11.722  56.614  49.822  0.00  0.00    +0.000 A 
ATOM      9  C   UNL     1     -12.444  55.414  47.436  0.00  0.00    +0.000 A 
ATOM     10  C   UNL     1     -12.782  57.147  49.089  0.00  0.00    +0.000 A 
ATOM     11  C   UNL     1     -13.125  56.550  47.882  0.00  0.00    +0.000 A 
ENDROOT
BRANCH   1  17
ATOM     12  S   UNL     1      -7.512  51.343  52.296  0.00  0.00    +0.000 S 
ATOM     13  O   UNL     1      -7.049  50.118  51.671  0.00  0.00    +0.000 OA
ATOM     14  O   UNL     1      -8.138  51.307  53.604  0.00  0.00    +0.000 OA
ATOM     15  N   UNL     1      -8.542  52.065  51.272  0.00  0.00    +0.000 N 
ATOM     16  C   UNL     1      -6.094  52.365  52.469  0.00  0.00    +0.000 A 
ATOM     17  C   UNL     1      -8.218  53.166  50.660  0.00  0.00    +0.000 C 
ATOM     18  C   UNL     1      -6.010  53.493  51.672  0.00  0.00    +0.000 A 
ATOM     19  C   UNL     1      -5.105  52.039  53.400  0.00  0.00    +0.000 A 
ATOM     20  N   UNL     1      -7.000  53.805  50.744  0.00  0.00    +0.000 N 
ATOM     21  C   UNL     1      -4.858  54.284  51.764  0.00  0.00    +0.000 A 
ATOM     22  C   UNL     1      -3.980  52.854  53.507  0.00  0.00    +0.000 A 
ATOM     23  C   UNL     1      -3.852  53.970  52.683  0.00  0.00    +0.000 A 
ATOM     24  H   UNL     1      -9.426  51.663  51.111  0.00  0.00    +0.000 HD
ATOM     25  H   UNL     1      -6.817  54.532  50.104  0.00  0.00    +0.000 HD
ENDBRANCH   1  17
BRANCH  10  26
ATOM     26  N   UNL     1     -13.535  58.264  49.506  0.00  0.00    +0.000 N 
ATOM     27  C   UNL     1     -14.555  58.256  50.439  0.00  0.00    +0.000 C 
ATOM     28  O   UNL     1     -15.018  57.273  51.009  0.00  0.00    +0.000 OA
ATOM     29  C   UNL     1     -15.131  59.622  50.707  0.00  0.00    +0.000 C 
ATOM     30  H   UNL     1     -13.313  59.129  49.095  0.00  0.00    +0.000 HD
ENDBRANCH  10  26
BRANCH   3  31
ATOM     31  O   UNL     1      -9.644  55.607  51.354  0.00  0.00    +0.000 OA
ATOM     32  H   UNL     1     -10.046  56.437  51.517  0.00  0.00    +0.000 HD
ENDBRANCH   3  31
BRANCH   5  33
ATOM     33  C   UNL     1     -10.947  53.096  46.421  0.00  0.00    +0.000 C 
BRANCH  33  34
ATOM     34  C   UNL     1     -10.299  53.724  45.176  0.00  0.00    +0.000 C 
BRANCH  34  35
ATOM     35  C   UNL     1      -8.820  53.392  44.920  0.00  0.00    +0.000 C 
ATOM     36  C   UNL     1      -8.539  53.059  43.456  0.00  0.00    +0.000 C 
ATOM     37  C   UNL     1      -7.965  54.590  45.351  0.00  0.00    +0.000 C 
ENDBRANCH  34  35
ENDBRANCH  33  34
ENDBRANCH   5  33
TORSDOF 6
ENDMDL
MODEL 7
REMARK VINA RESULT:      -7.6      1.571      2.108
REMARK  Name = 338350
REMARK  9 active torsions:
REMARK  status: ('A' for Active; 'I' for Inactive)
REMARK    1  A    between atoms: C_6  and  C_10
REMARK    2  A    between atoms: C_14  and  O_18
REMARK    3  A    between atoms: N_17  and  C_21
REMARK    4  A    between atoms: C_21  and  C_24
REMARK    5  A    between atoms: C_24  and  C_27
REMARK    6  A    between atoms: C_25  and  N_28
REMARK    7  A    between atoms: C_27  and  C_29
REMARK    8  A    between atoms: C_27  and  C_30
REMARK    9  A    between atoms: C_31  and  C_33
REMARK                            x       y       z     vdW  Elec       q    Type
REMARK                         _______ _______ _______ _____ _____    ______ ____
ROOT
ATOM      1  C   UNL     1     -10.769  55.689  49.148  0.00  0.00    +0.000 A 
ATOM      2  C   UNL     1      -9.550  55.291  49.917  0.00  0.00    +0.000 A 
ATOM      3  C   UNL     1     -10.905  55.308  47.866  0.00  0.00    +0.000 A 
ATOM      4  O   UNL     1      -9.511  55.555  51.123  0.00  0.00    +0.000 OA
ATOM      5  N   UNL     1      -8.522  54.629  49.254  0.00  0.00    +0.000 N 
ATOM      6  C   UNL     1      -9.869  54.486  47.220  0.00  0.00    +0.000 A 
ATOM      7  C   UNL     1      -8.703  54.146  47.921  0.00  0.00    +0.000 A 
ATOM      8  C   UNL     1     -10.053  54.018  45.904  0.00  0.00    +0.000 A 
ATOM      9  C   UNL     1      -7.763  53.318  47.289  0.00  0.00    +0.000 A 
ATOM     10  C   UNL     1      -9.102  53.213  45.278  0.00  0.00    +0.000 A 
ATOM     11  C   UNL     1      -7.945  52.882  45.975  0.00  0.00    +0.000 A 
ENDROOT
BRANCH   1  17
ATOM     12  S   UNL     1     -13.715  56.551  51.609  0.00  0.00    +0.000 S 
ATOM     13  O   UNL     1     -13.267  56.920  52.938  0.00  0.00    +0.000 OA
ATOM     14  O   UNL     1     -14.873  55.694  51.437  0.00  0.00    +0.000 OA
ATOM     15  N   UNL     1     -12.466  55.859  50.838  0.00  0.00    +0.000 N 
ATOM     16  C   UNL     1     -14.104  58.056  50.792  0.00  0.00    +0.000 A 
ATOM     17  C   UNL     1     -11.867  56.463  49.854  0.00  0.00    +0.000 C 
ATOM     18  C   UNL     1     -13.274  58.467  49.764  0.00  0.00    +0.000 A 
ATOM     19  C   UNL     1     -15.230  58.789  51.174  0.00  0.00    +0.000 A 
ATOM     20  N   UNL     1     -12.152  57.730  49.394  0.00  0.00    +0.000 N 
ATOM     21  C   UNL     1     -13.546  59.693  49.144  0.00  0.00    +0.000 A 
ATOM     22  C   UNL     1     -15.510  59.991  50.525  0.00  0.00    +0.000 A 
ATOM     23  C   UNL     1     -14.662  60.446  49.517  0.00  0.00    +0.000 A 
ATOM     24  H   UNL     1     -12.158  54.967  51.119  0.00  0.00    +0.000 HD
ATOM     25  H   UNL     1     -11.520  58.142  48.762  0.00  0.00    +0.000 HD
ENDBRANCH   1  17
BRANCH  10  26
ATOM     26  N   UNL     1      -9.248  52.707  43.970  0.00  0.00    +0.000 N 
ATOM     27  C   UNL     1      -9.639  51.425  43.631  0.00  0.00    +0.000 C 
ATOM     28  O   UNL     1      -9.862  50.499  44.405  0.00  0.00    +0.000 OA
ATOM     29  C   UNL     1      -9.751  51.207  42.145  0.00  0.00    +0.000 C 
ATOM     30  H   UNL     1      -9.052  53.324  43.229  0.00  0.00    +0.000 HD
ENDBRANCH  10  26
BRANCH   3  31
ATOM     31  O   UNL     1     -12.006  55.595  47.080  0.00  0.00    +0.000 OA
ATOM     32  H   UNL     1     -12.187  56.480  46.834  0.00  0.00    +0.000 HD
ENDBRANCH   3  31
BRANCH   5  33
ATOM     33  C   UNL     1      -7.305  54.323  50.014  0.00  0.00    +0.000 C 
BRANCH  33  34
ATOM     34  C   UNL     1      -6.025  55.039  49.550  0.00  0.00    +0.000 C 
BRANCH  34  35
ATOM     35  C   UNL     1      -4.703  54.271  49.709  0.00  0.00    +0.000 C 
ATOM     36  C   UNL     1      -4.831  53.072  50.647  0.00  0.00    +0.000 C 
ATOM     37  C   UNL     1      -4.240  53.797  48.326  0.00  0.00    +0.000 C 
ENDBRANCH  34  35
ENDBRANCH  33  34
ENDBRANCH   5  33
TORSDOF 6
ENDMDL
MODEL 8
REMARK VINA RESULT:      -7.6      2.647      7.842
REMARK  Name = 338350
REMARK  9 active torsions:
REMARK  status: ('A' for Active; 'I' for Inactive)
REMARK    1  A    between atoms: C_6  and  C_10
REMARK    2  A    between atoms: C_14  and  O_18
REMARK    3  A    between atoms: N_17  and  C_21
REMARK    4  A    between atoms: C_21  and  C_24
REMARK    5  A    between atoms: C_24  and  C_27
REMARK    6  A    between atoms: C_25  and  N_28
REMARK    7  A    between atoms: C_27  and  C_29
REMARK    8  A    between atoms: C_27  and  C_30
REMARK    9  A    between atoms: C_31  and  C_33
REMARK                            x       y       z     vdW  Elec       q    Type
REMARK                         _______ _______ _______ _____ _____    ______ ____
ROOT
ATOM      1  C   UNL     1     -10.502  54.197  48.740  0.00  0.00    +0.000 A 
ATOM      2  C   UNL     1     -10.000  53.784  50.087  0.00  0.00    +0.000 A 
ATOM      3  C   UNL     1     -11.517  55.074  48.645  0.00  0.00    +0.000 A 
ATOM      4  O   UNL     1      -8.992  53.072  50.139  0.00  0.00    +0.000 OA
ATOM      5  N   UNL     1     -10.672  54.229  51.222  0.00  0.00    +0.000 N 
ATOM      6  C   UNL     1     -12.126  55.644  49.858  0.00  0.00    +0.000 A 
ATOM      7  C   UNL     1     -11.690  55.227  51.124  0.00  0.00    +0.000 A 
ATOM      8  C   UNL     1     -13.131  56.624  49.754  0.00  0.00    +0.000 A 
ATOM      9  C   UNL     1     -12.258  55.831  52.256  0.00  0.00    +0.000 A 
ATOM     10  C   UNL     1     -13.705  57.202  50.886  0.00  0.00    +0.000 A 
ATOM     11  C   UNL     1     -13.273  56.784  52.140  0.00  0.00    +0.000 A 
ENDROOT
BRANCH   1  17
ATOM     12  S   UNL     1      -7.745  53.581  46.003  0.00  0.00    +0.000 S 
ATOM     13  O   UNL     1      -6.762  52.586  46.388  0.00  0.00    +0.000 OA
ATOM     14  O   UNL     1      -7.333  54.794  45.323  0.00  0.00    +0.000 OA
ATOM     15  N   UNL     1      -8.564  54.012  47.336  0.00  0.00    +0.000 N 
ATOM     16  C   UNL     1      -8.855  52.770  44.910  0.00  0.00    +0.000 A 
ATOM     17  C   UNL     1      -9.807  53.667  47.500  0.00  0.00    +0.000 C 
ATOM     18  C   UNL     1     -10.140  52.522  45.359  0.00  0.00    +0.000 A 
ATOM     19  C   UNL     1      -8.436  52.411  43.626  0.00  0.00    +0.000 A 
ATOM     20  N   UNL     1     -10.545  52.880  46.643  0.00  0.00    +0.000 N 
ATOM     21  C   UNL     1     -11.014  51.827  44.514  0.00  0.00    +0.000 A 
ATOM     22  C   UNL     1      -9.327  51.751  42.782  0.00  0.00    +0.000 A 
ATOM     23  C   UNL     1     -10.612  51.451  43.229  0.00  0.00    +0.000 A 
ATOM     24  H   UNL     1      -8.112  54.543  48.031  0.00  0.00    +0.000 HD
ATOM     25  H   UNL     1     -11.417  52.548  46.958  0.00  0.00    +0.000 HD
ENDBRANCH   1  17
BRANCH  10  26
ATOM     26  N   UNL     1     -14.701  58.197  50.834  0.00  0.00    +0.000 N 
ATOM     27  C   UNL     1     -14.514  59.520  50.477  0.00  0.00    +0.000 C 
ATOM     28  O   UNL     1     -13.446  60.062  50.211  0.00  0.00    +0.000 OA
ATOM     29  C   UNL     1     -15.788  60.323  50.468  0.00  0.00    +0.000 C 
ATOM     30  H   UNL     1     -15.616  57.925  51.073  0.00  0.00    +0.000 HD
ENDBRANCH  10  26
BRANCH   3  31
ATOM     31  O   UNL     1     -12.032  55.544  47.450  0.00  0.00    +0.000 OA
ATOM     32  H   UNL     1     -11.530  55.468  46.663  0.00  0.00    +0.000 HD
ENDBRANCH   3  31
BRANCH   5  33
ATOM     33  C   UNL     1     -10.206  53.742  52.525  0.00  0.00    +0.000 C 
BRANCH  33  34
ATOM     34  C   UNL     1      -9.387  54.741  53.361  0.00  0.00    +0.000 C 
BRANCH  34  35
ATOM     35  C   UNL     1      -7.899  54.888  53.005  0.00  0.00    +0.000 C 
ATOM     36  C   UNL     1      -7.645  56.007  51.998  0.00  0.00    +0.000 C 
ATOM     37  C   UNL     1      -7.111  55.163  54.292  0.00  0.00    +0.000 C 
ENDBRANCH  34  35
ENDBRANCH  33  34
ENDBRANCH   5  33
TORSDOF 6
ENDMDL
MODEL 9
REMARK VINA RESULT:      -7.2      3.222      7.956
REMARK  Name = 338350
REMARK  9 active torsions:
REMARK  status: ('A' for Active; 'I' for Inactive)
REMARK    1  A    between atoms: C_6  and  C_10
REMARK    2  A    between atoms: C_14  and  O_18
REMARK    3  A    between atoms: N_17  and  C_21
REMARK    4  A    between atoms: C_21  and  C_24
REMARK    5  A    between atoms: C_24  and  C_27
REMARK    6  A    between atoms: C_25  and  N_28
REMARK    7  A    between atoms: C_27  and  C_29
REMARK    8  A    between atoms: C_27  and  C_30
REMARK    9  A    between atoms: C_31  and  C_33
REMARK                            x       y       z     vdW  Elec       q    Type
REMARK                         _______ _______ _______ _____ _____    ______ ____
ROOT
ATOM      1  C   UNL     1      -8.737  54.134  49.599  0.00  0.00    +0.000 A 
ATOM      2  C   UNL     1      -9.101  53.360  48.372  0.00  0.00    +0.000 A 
ATOM      3  C   UNL     1      -9.464  55.208  49.952  0.00  0.00    +0.000 A 
ATOM      4  O   UNL     1      -8.488  52.312  48.143  0.00  0.00    +0.000 OA
ATOM      5  N   UNL     1     -10.119  53.836  47.553  0.00  0.00    +0.000 N 
ATOM      6  C   UNL     1     -10.627  55.617  49.148  0.00  0.00    +0.000 A 
ATOM      7  C   UNL     1     -10.948  54.923  47.973  0.00  0.00    +0.000 A 
ATOM      8  C   UNL     1     -11.436  56.692  49.566  0.00  0.00    +0.000 A 
ATOM      9  C   UNL     1     -12.094  55.309  47.262  0.00  0.00    +0.000 A 
ATOM     10  C   UNL     1     -12.561  57.081  48.840  0.00  0.00    +0.000 A 
ATOM     11  C   UNL     1     -12.873  56.393  47.673  0.00  0.00    +0.000 A 
ENDROOT
BRANCH   1  17
ATOM     12  S   UNL     1      -5.180  52.836  50.666  0.00  0.00    +0.000 S 
ATOM     13  O   UNL     1      -4.196  53.894  50.799  0.00  0.00    +0.000 OA
ATOM     14  O   UNL     1      -4.821  51.575  50.045  0.00  0.00    +0.000 OA
ATOM     15  N   UNL     1      -6.454  53.441  49.863  0.00  0.00    +0.000 N 
ATOM     16  C   UNL     1      -5.692  52.440  52.298  0.00  0.00    +0.000 A 
ATOM     17  C   UNL     1      -7.588  53.649  50.463  0.00  0.00    +0.000 C 
ATOM     18  C   UNL     1      -6.977  52.790  52.676  0.00  0.00    +0.000 A 
ATOM     19  C   UNL     1      -4.819  51.778  53.165  0.00  0.00    +0.000 A 
ATOM     20  N   UNL     1      -7.837  53.454  51.804  0.00  0.00    +0.000 N 
ATOM     21  C   UNL     1      -7.375  52.527  53.992  0.00  0.00    +0.000 A 
ATOM     22  C   UNL     1      -5.240  51.490  54.462  0.00  0.00    +0.000 A 
ATOM     23  C   UNL     1      -6.513  51.873  54.878  0.00  0.00    +0.000 A 
ATOM     24  H   UNL     1      -6.366  53.653  48.906  0.00  0.00    +0.000 HD
ATOM     25  H   UNL     1      -8.679  53.808  52.172  0.00  0.00    +0.000 HD
ENDBRANCH   1  17
BRANCH  10  26
ATOM     26  N   UNL     1     -13.410  58.138  49.225  0.00  0.00    +0.000 N 
ATOM     27  C   UNL     1     -14.238  58.156  50.332  0.00  0.00    +0.000 C 
ATOM     28  O   UNL     1     -14.421  57.237  51.125  0.00  0.00    +0.000 OA
ATOM     29  C   UNL     1     -14.984  59.454  50.501  0.00  0.00    +0.000 C 
ATOM     30  H   UNL     1     -13.414  58.938  48.653  0.00  0.00    +0.000 HD
ENDBRANCH  10  26
BRANCH   3  31
ATOM     31  O   UNL     1      -9.231  55.970  51.082  0.00  0.00    +0.000 OA
ATOM     32  H   UNL     1      -8.353  56.141  51.358  0.00  0.00    +0.000 HD
ENDBRANCH   3  31
BRANCH   5  33
ATOM     33  C   UNL     1     -10.400  53.100  46.315  0.00  0.00    +0.000 C 
BRANCH  33  34
ATOM     34  C   UNL     1      -9.976  53.795  45.009  0.00  0.00    +0.000 C 
BRANCH  34  35
ATOM     35  C   UNL     1      -9.067  52.997  44.062  0.00  0.00    +0.000 C 
ATOM     36  C   UNL     1      -8.268  51.917  44.788  0.00  0.00    +0.000 C 
ATOM     37  C   UNL     1      -9.937  52.353  42.974  0.00  0.00    +0.000 C 
ENDBRANCH  34  35
ENDBRANCH  33  34
ENDBRANCH   5  33
TORSDOF 6
ENDMDL
