MODEL 1
REMARK VINA RESULT:      -8.5      0.000      0.000
REMARK  Name = 338306
REMARK  4 active torsions:
REMARK  status: ('A' for Active; 'I' for Inactive)
REMARK    1  A    between atoms: C_6  and  C_10
REMARK    2  A    between atoms: C_14  and  O_18
REMARK    3  A    between atoms: N_17  and  C_21
REMARK    4  A    between atoms: C_21  and  C_24
REMARK                            x       y       z     vdW  Elec       q    Type
REMARK                         _______ _______ _______ _____ _____    ______ ____
ROOT
ATOM      1  C   UNL     1     -10.183  54.391  52.187  0.00  0.00    +0.000 A 
ATOM      2  C   UNL     1      -8.798  54.929  52.047  0.00  0.00    +0.000 A 
ATOM      3  C   UNL     1     -10.409  53.299  52.935  0.00  0.00    +0.000 A 
ATOM      4  O   UNL     1      -8.656  56.063  51.577  0.00  0.00    +0.000 OA
ATOM      5  N   UNL     1      -7.730  54.145  52.459  0.00  0.00    +0.000 N 
ATOM      6  C   UNL     1      -9.282  52.636  53.617  0.00  0.00    +0.000 A 
ATOM      7  C   UNL     1      -7.958  53.043  53.348  0.00  0.00    +0.000 A 
ATOM      8  C   UNL     1      -9.514  51.616  54.559  0.00  0.00    +0.000 A 
ATOM      9  C   UNL     1      -6.909  52.405  54.024  0.00  0.00    +0.000 A 
ATOM     10  C   UNL     1      -8.456  51.008  55.234  0.00  0.00    +0.000 A 
ATOM     11  C   UNL     1      -7.154  51.400  54.962  0.00  0.00    +0.000 A 
ENDROOT
BRANCH   1  17
ATOM     12  S   UNL     1     -12.450  56.132  49.482  0.00  0.00    +0.000 S 
ATOM     13  O   UNL     1     -13.376  55.261  48.789  0.00  0.00    +0.000 OA
ATOM     14  O   UNL     1     -11.719  57.154  48.754  0.00  0.00    +0.000 OA
ATOM     15  N   UNL     1     -11.371  55.200  50.249  0.00  0.00    +0.000 N 
ATOM     16  C   UNL     1     -13.399  56.997  50.684  0.00  0.00    +0.000 A 
ATOM     17  C   UNL     1     -11.318  55.162  51.546  0.00  0.00    +0.000 C 
ATOM     18  C   UNL     1     -13.143  56.732  52.019  0.00  0.00    +0.000 A 
ATOM     19  C   UNL     1     -14.360  57.937  50.291  0.00  0.00    +0.000 A 
ATOM     20  N   UNL     1     -12.202  55.787  52.405  0.00  0.00    +0.000 N 
ATOM     21  C   UNL     1     -13.922  57.380  52.985  0.00  0.00    +0.000 A 
ATOM     22  C   UNL     1     -15.112  58.599  51.273  0.00  0.00    +0.000 A 
ATOM     23  C   UNL     1     -14.892  58.309  52.617  0.00  0.00    +0.000 A 
ATOM     24  H   UNL     1     -10.744  54.652  49.724  0.00  0.00    +0.000 HD
ATOM     25  H   UNL     1     -12.163  55.543  53.358  0.00  0.00    +0.000 HD
ENDBRANCH   1  17
BRANCH   3  26
ATOM     26  O   UNL     1     -11.655  52.753  53.174  0.00  0.00    +0.000 OA
ATOM     27  H   UNL     1     -12.429  53.237  52.959  0.00  0.00    +0.000 HD
ENDBRANCH   3  26
BRANCH   5  28
ATOM     28  C   UNL     1      -6.368  54.661  52.207  0.00  0.00    +0.000 C 
BRANCH  28  29
ATOM     29  C   UNL     1      -5.678  54.253  50.881  0.00  0.00    +0.000 C 
ATOM     30  O   UNL     1      -6.109  52.973  50.404  0.00  0.00    +0.000 OA
ATOM     31  C   UNL     1      -5.791  55.248  49.736  0.00  0.00    +0.000 C 
ATOM     32  C   UNL     1      -6.560  53.097  49.054  0.00  0.00    +0.000 C 
ATOM     33  C   UNL     1      -6.011  54.394  48.511  0.00  0.00    +0.000 C 
ENDBRANCH  28  29
ENDBRANCH   5  28
TORSDOF 4
ENDMDL
MODEL 2
REMARK VINA RESULT:      -8.4      2.516      7.824
REMARK  Name = 338306
REMARK  4 active torsions:
REMARK  status: ('A' for Active; 'I' for Inactive)
REMARK    1  A    between atoms: C_6  and  C_10
REMARK    2  A    between atoms: C_14  and  O_18
REMARK    3  A    between atoms: N_17  and  C_21
REMARK    4  A    between atoms: C_21  and  C_24
REMARK                            x       y       z     vdW  Elec       q    Type
REMARK                         _______ _______ _______ _____ _____    ______ ____
ROOT
ATOM      1  C   UNL     1     -10.127  54.614  51.081  0.00  0.00    +0.000 A 
ATOM      2  C   UNL     1     -11.391  55.254  51.551  0.00  0.00    +0.000 A 
ATOM      3  C   UNL     1      -9.862  54.532  49.768  0.00  0.00    +0.000 A 
ATOM      4  O   UNL     1     -11.488  55.546  52.747  0.00  0.00    +0.000 OA
ATOM      5  N   UNL     1     -12.397  55.508  50.630  0.00  0.00    +0.000 N 
ATOM      6  C   UNL     1     -10.824  55.078  48.793  0.00  0.00    +0.000 A 
ATOM      7  C   UNL     1     -12.089  55.529  49.229  0.00  0.00    +0.000 A 
ATOM      8  C   UNL     1     -10.484  55.184  47.431  0.00  0.00    +0.000 A 
ATOM      9  C   UNL     1     -12.975  56.059  48.282  0.00  0.00    +0.000 A 
ATOM     10  C   UNL     1     -11.375  55.732  46.510  0.00  0.00    +0.000 A 
ATOM     11  C   UNL     1     -12.623  56.165  46.935  0.00  0.00    +0.000 A 
ENDROOT
BRANCH   1  17
ATOM     12  S   UNL     1      -6.771  54.157  53.085  0.00  0.00    +0.000 S 
ATOM     13  O   UNL     1      -6.474  55.194  54.050  0.00  0.00    +0.000 OA
ATOM     14  O   UNL     1      -5.719  53.615  52.242  0.00  0.00    +0.000 OA
ATOM     15  N   UNL     1      -7.951  54.701  52.118  0.00  0.00    +0.000 N 
ATOM     16  C   UNL     1      -7.387  52.792  54.008  0.00  0.00    +0.000 A 
ATOM     17  C   UNL     1      -9.129  54.154  52.122  0.00  0.00    +0.000 C 
ATOM     18  C   UNL     1      -8.714  52.441  53.829  0.00  0.00    +0.000 A 
ATOM     19  C   UNL     1      -6.546  52.079  54.872  0.00  0.00    +0.000 A 
ATOM     20  N   UNL     1      -9.550  53.161  52.986  0.00  0.00    +0.000 N 
ATOM     21  C   UNL     1      -9.229  51.385  54.591  0.00  0.00    +0.000 A 
ATOM     22  C   UNL     1      -7.070  51.006  55.606  0.00  0.00    +0.000 A 
ATOM     23  C   UNL     1      -8.414  50.670  55.466  0.00  0.00    +0.000 A 
ATOM     24  H   UNL     1      -7.772  55.460  51.518  0.00  0.00    +0.000 HD
ATOM     25  H   UNL     1     -10.512  52.951  53.006  0.00  0.00    +0.000 HD
ENDBRANCH   1  17
BRANCH   3  26
ATOM     26  O   UNL     1      -8.701  54.010  49.231  0.00  0.00    +0.000 OA
ATOM     27  H   UNL     1      -8.421  54.270  48.375  0.00  0.00    +0.000 HD
ENDBRANCH   3  26
BRANCH   5  28
ATOM     28  C   UNL     1     -13.675  56.042  51.144  0.00  0.00    +0.000 C 
BRANCH  28  29
ATOM     29  C   UNL     1     -13.682  57.494  51.684  0.00  0.00    +0.000 C 
ATOM     30  O   UNL     1     -14.047  58.455  50.687  0.00  0.00    +0.000 OA
ATOM     31  C   UNL     1     -14.537  57.743  52.917  0.00  0.00    +0.000 C 
ATOM     32  C   UNL     1     -15.129  59.253  51.170  0.00  0.00    +0.000 C 
ATOM     33  C   UNL     1     -15.179  59.087  52.669  0.00  0.00    +0.000 C 
ENDBRANCH  28  29
ENDBRANCH   5  28
TORSDOF 4
ENDMDL
MODEL 3
REMARK VINA RESULT:      -8.3      2.057      2.776
REMARK  Name = 338306
REMARK  4 active torsions:
REMARK  status: ('A' for Active; 'I' for Inactive)
REMARK    1  A    between atoms: C_6  and  C_10
REMARK    2  A    between atoms: C_14  and  O_18
REMARK    3  A    between atoms: N_17  and  C_21
REMARK    4  A    between atoms: C_21  and  C_24
REMARK                            x       y       z     vdW  Elec       q    Type
REMARK                         _______ _______ _______ _____ _____    ______ ____
ROOT
ATOM      1  C   UNL     1     -11.430  54.050  51.357  0.00  0.00    +0.000 A 
ATOM      2  C   UNL     1     -10.460  54.242  52.475  0.00  0.00    +0.000 A 
ATOM      3  C   UNL     1     -11.539  52.852  50.759  0.00  0.00    +0.000 A 
ATOM      4  O   UNL     1     -10.563  55.260  53.168  0.00  0.00    +0.000 OA
ATOM      5  N   UNL     1      -9.494  53.272  52.699  0.00  0.00    +0.000 N 
ATOM      6  C   UNL     1     -10.696  51.730  51.212  0.00  0.00    +0.000 A 
ATOM      7  C   UNL     1      -9.665  51.958  52.150  0.00  0.00    +0.000 A 
ATOM      8  C   UNL     1     -10.926  50.424  50.742  0.00  0.00    +0.000 A 
ATOM      9  C   UNL     1      -8.892  50.869  52.575  0.00  0.00    +0.000 A 
ATOM     10  C   UNL     1     -10.156  49.353  51.193  0.00  0.00    +0.000 A 
ATOM     11  C   UNL     1      -9.136  49.577  52.106  0.00  0.00    +0.000 A 
ENDROOT
BRANCH   1  17
ATOM     12  S   UNL     1     -13.154  56.936  49.313  0.00  0.00    +0.000 S 
ATOM     13  O   UNL     1     -14.230  56.525  48.436  0.00  0.00    +0.000 OA
ATOM     14  O   UNL     1     -12.186  57.927  48.872  0.00  0.00    +0.000 OA
ATOM     15  N   UNL     1     -12.340  55.609  49.757  0.00  0.00    +0.000 N 
ATOM     16  C   UNL     1     -13.921  57.628  50.737  0.00  0.00    +0.000 A 
ATOM     17  C   UNL     1     -12.339  55.203  50.991  0.00  0.00    +0.000 C 
ATOM     18  C   UNL     1     -13.775  56.954  51.938  0.00  0.00    +0.000 A 
ATOM     19  C   UNL     1     -14.630  58.832  50.650  0.00  0.00    +0.000 A 
ATOM     20  N   UNL     1     -13.086  55.750  52.017  0.00  0.00    +0.000 N 
ATOM     21  C   UNL     1     -14.417  57.468  53.070  0.00  0.00    +0.000 A 
ATOM     22  C   UNL     1     -15.243  59.350  51.800  0.00  0.00    +0.000 A 
ATOM     23  C   UNL     1     -15.139  58.658  53.004  0.00  0.00    +0.000 A 
ATOM     24  H   UNL     1     -11.837  55.101  49.081  0.00  0.00    +0.000 HD
ATOM     25  H   UNL     1     -13.134  55.251  52.864  0.00  0.00    +0.000 HD
ENDBRANCH   1  17
BRANCH   3  26
ATOM     26  O   UNL     1     -12.440  52.553  49.755  0.00  0.00    +0.000 OA
ATOM     27  H   UNL     1     -12.830  51.702  49.714  0.00  0.00    +0.000 HD
ENDBRANCH   3  26
BRANCH   5  28
ATOM     28  C   UNL     1      -8.483  53.544  53.742  0.00  0.00    +0.000 C 
BRANCH  28  29
ATOM     29  C   UNL     1      -7.266  54.419  53.353  0.00  0.00    +0.000 C 
ATOM     30  O   UNL     1      -6.688  55.097  54.475  0.00  0.00    +0.000 OA
ATOM     31  C   UNL     1      -6.148  53.712  52.602  0.00  0.00    +0.000 C 
ATOM     32  C   UNL     1      -5.290  54.810  54.536  0.00  0.00    +0.000 C 
ATOM     33  C   UNL     1      -4.877  54.284  53.183  0.00  0.00    +0.000 C 
ENDBRANCH  28  29
ENDBRANCH   5  28
TORSDOF 4
ENDMDL
MODEL 4
REMARK VINA RESULT:      -8.2      3.426      4.496
REMARK  Name = 338306
REMARK  4 active torsions:
REMARK  status: ('A' for Active; 'I' for Inactive)
REMARK    1  A    between atoms: C_6  and  C_10
REMARK    2  A    between atoms: C_14  and  O_18
REMARK    3  A    between atoms: N_17  and  C_21
REMARK    4  A    between atoms: C_21  and  C_24
REMARK                            x       y       z     vdW  Elec       q    Type
REMARK                         _______ _______ _______ _____ _____    ______ ____
ROOT
ATOM      1  C   UNL     1     -12.477  54.257  49.996  0.00  0.00    +0.000 A 
ATOM      2  C   UNL     1     -12.193  54.036  48.548  0.00  0.00    +0.000 A 
ATOM      3  C   UNL     1     -11.951  53.435  50.919  0.00  0.00    +0.000 A 
ATOM      4  O   UNL     1     -12.469  54.941  47.754  0.00  0.00    +0.000 OA
ATOM      5  N   UNL     1     -11.622  52.835  48.152  0.00  0.00    +0.000 N 
ATOM      6  C   UNL     1     -11.091  52.315  50.493  0.00  0.00    +0.000 A 
ATOM      7  C   UNL     1     -10.962  52.008  49.121  0.00  0.00    +0.000 A 
ATOM      8  C   UNL     1     -10.371  51.563  51.440  0.00  0.00    +0.000 A 
ATOM      9  C   UNL     1     -10.125  50.949  48.746  0.00  0.00    +0.000 A 
ATOM     10  C   UNL     1      -9.530  50.525  51.043  0.00  0.00    +0.000 A 
ATOM     11  C   UNL     1      -9.411  50.215  49.696  0.00  0.00    +0.000 A 
ENDROOT
BRANCH   1  17
ATOM     12  S   UNL     1     -15.392  56.512  51.376  0.00  0.00    +0.000 S 
ATOM     13  O   UNL     1     -15.392  56.727  52.807  0.00  0.00    +0.000 OA
ATOM     14  O   UNL     1     -16.638  56.260  50.671  0.00  0.00    +0.000 OA
ATOM     15  N   UNL     1     -14.384  55.286  51.057  0.00  0.00    +0.000 N 
ATOM     16  C   UNL     1     -14.735  57.979  50.660  0.00  0.00    +0.000 A 
ATOM     17  C   UNL     1     -13.286  55.475  50.389  0.00  0.00    +0.000 C 
ATOM     18  C   UNL     1     -13.509  57.891  50.023  0.00  0.00    +0.000 A 
ATOM     19  C   UNL     1     -15.450  59.182  50.720  0.00  0.00    +0.000 A 
ATOM     20  N   UNL     1     -12.795  56.700  49.981  0.00  0.00    +0.000 N 
ATOM     21  C   UNL     1     -12.954  59.059  49.488  0.00  0.00    +0.000 A 
ATOM     22  C   UNL     1     -14.892  60.338  50.154  0.00  0.00    +0.000 A 
ATOM     23  C   UNL     1     -13.641  60.270  49.547  0.00  0.00    +0.000 A 
ATOM     24  H   UNL     1     -14.607  54.381  51.375  0.00  0.00    +0.000 HD
ATOM     25  H   UNL     1     -11.873  56.732  49.637  0.00  0.00    +0.000 HD
ENDBRANCH   1  17
BRANCH   3  26
ATOM     26  O   UNL     1     -12.106  53.582  52.283  0.00  0.00    +0.000 OA
ATOM     27  H   UNL     1     -12.142  52.826  52.836  0.00  0.00    +0.000 HD
ENDBRANCH   3  26
BRANCH   5  28
ATOM     28  C   UNL     1     -11.454  52.604  46.702  0.00  0.00    +0.000 C 
BRANCH  28  29
ATOM     29  C   UNL     1     -10.413  53.472  45.952  0.00  0.00    +0.000 C 
ATOM     30  O   UNL     1      -9.163  53.562  46.645  0.00  0.00    +0.000 OA
ATOM     31  C   UNL     1     -10.127  53.075  44.511  0.00  0.00    +0.000 C 
ATOM     32  C   UNL     1      -8.104  53.177  45.767  0.00  0.00    +0.000 C 
ATOM     33  C   UNL     1      -8.636  53.251  44.357  0.00  0.00    +0.000 C 
ENDBRANCH  28  29
ENDBRANCH   5  28
TORSDOF 4
ENDMDL
MODEL 5
REMARK VINA RESULT:      -8.1      1.566      2.272
REMARK  Name = 338306
REMARK  4 active torsions:
REMARK  status: ('A' for Active; 'I' for Inactive)
REMARK    1  A    between atoms: C_6  and  C_10
REMARK    2  A    between atoms: C_14  and  O_18
REMARK    3  A    between atoms: N_17  and  C_21
REMARK    4  A    between atoms: C_21  and  C_24
REMARK                            x       y       z     vdW  Elec       q    Type
REMARK                         _______ _______ _______ _____ _____    ______ ____
ROOT
ATOM      1  C   UNL     1     -10.169  54.507  52.090  0.00  0.00    +0.000 A 
ATOM      2  C   UNL     1      -8.762  54.999  52.007  0.00  0.00    +0.000 A 
ATOM      3  C   UNL     1     -10.459  53.416  52.818  0.00  0.00    +0.000 A 
ATOM      4  O   UNL     1      -8.566  56.131  51.555  0.00  0.00    +0.000 OA
ATOM      5  N   UNL     1      -7.737  54.176  52.450  0.00  0.00    +0.000 N 
ATOM      6  C   UNL     1      -9.382  52.709  53.534  0.00  0.00    +0.000 A 
ATOM      7  C   UNL     1      -8.035  53.074  53.319  0.00  0.00    +0.000 A 
ATOM      8  C   UNL     1      -9.682  51.689  54.457  0.00  0.00    +0.000 A 
ATOM      9  C   UNL     1      -7.034  52.395  54.027  0.00  0.00    +0.000 A 
ATOM     10  C   UNL     1      -8.672  51.040  55.164  0.00  0.00    +0.000 A 
ATOM     11  C   UNL     1      -7.347  51.390  54.945  0.00  0.00    +0.000 A 
ENDROOT
BRANCH   1  17
ATOM     12  S   UNL     1     -13.517  56.483  51.484  0.00  0.00    +0.000 S 
ATOM     13  O   UNL     1     -13.518  57.862  51.926  0.00  0.00    +0.000 OA
ATOM     14  O   UNL     1     -14.680  55.640  51.705  0.00  0.00    +0.000 OA
ATOM     15  N   UNL     1     -12.236  55.749  52.148  0.00  0.00    +0.000 N 
ATOM     16  C   UNL     1     -13.295  56.530  49.739  0.00  0.00    +0.000 A 
ATOM     17  C   UNL     1     -11.253  55.321  51.416  0.00  0.00    +0.000 C 
ATOM     18  C   UNL     1     -12.114  56.020  49.227  0.00  0.00    +0.000 A 
ATOM     19  C   UNL     1     -14.296  57.046  48.907  0.00  0.00    +0.000 A 
ATOM     20  N   UNL     1     -11.116  55.525  50.056  0.00  0.00    +0.000 N 
ATOM     21  C   UNL     1     -11.904  56.091  47.844  0.00  0.00    +0.000 A 
ATOM     22  C   UNL     1     -14.082  57.085  47.522  0.00  0.00    +0.000 A 
ATOM     23  C   UNL     1     -12.881  56.613  46.999  0.00  0.00    +0.000 A 
ATOM     24  H   UNL     1     -12.202  55.624  53.124  0.00  0.00    +0.000 HD
ATOM     25  H   UNL     1     -10.248  55.305  49.646  0.00  0.00    +0.000 HD
ENDBRANCH   1  17
BRANCH   3  26
ATOM     26  O   UNL     1     -11.731  52.911  53.005  0.00  0.00    +0.000 OA
ATOM     27  H   UNL     1     -12.064  52.253  52.426  0.00  0.00    +0.000 HD
ENDBRANCH   3  26
BRANCH   5  28
ATOM     28  C   UNL     1      -6.350  54.648  52.255  0.00  0.00    +0.000 C 
BRANCH  28  29
ATOM     29  C   UNL     1      -5.621  54.218  50.958  0.00  0.00    +0.000 C 
ATOM     30  O   UNL     1      -6.029  52.925  50.494  0.00  0.00    +0.000 OA
ATOM     31  C   UNL     1      -5.708  55.188  49.790  0.00  0.00    +0.000 C 
ATOM     32  C   UNL     1      -6.443  53.019  49.130  0.00  0.00    +0.000 C 
ATOM     33  C   UNL     1      -5.887  54.308  48.576  0.00  0.00    +0.000 C 
ENDBRANCH  28  29
ENDBRANCH   5  28
TORSDOF 4
ENDMDL
MODEL 6
REMARK VINA RESULT:      -7.9      3.120      6.979
REMARK  Name = 338306
REMARK  4 active torsions:
REMARK  status: ('A' for Active; 'I' for Inactive)
REMARK    1  A    between atoms: C_6  and  C_10
REMARK    2  A    between atoms: C_14  and  O_18
REMARK    3  A    between atoms: N_17  and  C_21
REMARK    4  A    between atoms: C_21  and  C_24
REMARK                            x       y       z     vdW  Elec       q    Type
REMARK                         _______ _______ _______ _____ _____    ______ ____
ROOT
ATOM      1  C   UNL     1     -10.169  55.101  50.776  0.00  0.00    +0.000 A 
ATOM      2  C   UNL     1      -9.773  54.866  49.356  0.00  0.00    +0.000 A 
ATOM      3  C   UNL     1     -11.348  55.679  51.059  0.00  0.00    +0.000 A 
ATOM      4  O   UNL     1      -8.821  54.111  49.132  0.00  0.00    +0.000 OA
ATOM      5  N   UNL     1     -10.493  55.490  48.347  0.00  0.00    +0.000 N 
ATOM      6  C   UNL     1     -12.247  56.079  49.961  0.00  0.00    +0.000 A 
ATOM      7  C   UNL     1     -11.801  56.010  48.624  0.00  0.00    +0.000 A 
ATOM      8  C   UNL     1     -13.563  56.501  50.230  0.00  0.00    +0.000 A 
ATOM      9  C   UNL     1     -12.685  56.380  47.601  0.00  0.00    +0.000 A 
ATOM     10  C   UNL     1     -14.431  56.847  49.195  0.00  0.00    +0.000 A 
ATOM     11  C   UNL     1     -13.989  56.791  47.881  0.00  0.00    +0.000 A 
ENDROOT
BRANCH   1  17
ATOM     12  S   UNL     1      -6.994  54.574  53.040  0.00  0.00    +0.000 S 
ATOM     13  O   UNL     1      -6.814  55.543  54.100  0.00  0.00    +0.000 OA
ATOM     14  O   UNL     1      -5.855  54.117  52.261  0.00  0.00    +0.000 OA
ATOM     15  N   UNL     1      -8.098  55.161  52.011  0.00  0.00    +0.000 N 
ATOM     16  C   UNL     1      -7.651  53.131  53.804  0.00  0.00    +0.000 A 
ATOM     17  C   UNL     1      -9.255  54.588  51.868  0.00  0.00    +0.000 C 
ATOM     18  C   UNL     1      -8.946  52.765  53.480  0.00  0.00    +0.000 A 
ATOM     19  C   UNL     1      -6.871  52.375  54.688  0.00  0.00    +0.000 A 
ATOM     20  N   UNL     1      -9.723  53.526  52.617  0.00  0.00    +0.000 N 
ATOM     21  C   UNL     1      -9.497  51.645  54.115  0.00  0.00    +0.000 A 
ATOM     22  C   UNL     1      -7.428  51.240  55.293  0.00  0.00    +0.000 A 
ATOM     23  C   UNL     1      -8.744  50.886  55.007  0.00  0.00    +0.000 A 
ATOM     24  H   UNL     1      -7.888  55.966  51.484  0.00  0.00    +0.000 HD
ATOM     25  H   UNL     1     -10.676  53.294  52.534  0.00  0.00    +0.000 HD
ENDBRANCH   1  17
BRANCH   3  26
ATOM     26  O   UNL     1     -11.832  55.892  52.335  0.00  0.00    +0.000 OA
ATOM     27  H   UNL     1     -12.735  56.110  52.464  0.00  0.00    +0.000 HD
ENDBRANCH   3  26
BRANCH   5  28
ATOM     28  C   UNL     1     -10.009  55.323  46.960  0.00  0.00    +0.000 C 
BRANCH  28  29
ATOM     29  C   UNL     1     -10.096  53.910  46.334  0.00  0.00    +0.000 C 
ATOM     30  O   UNL     1     -11.446  53.462  46.161  0.00  0.00    +0.000 OA
ATOM     31  C   UNL     1      -9.361  53.717  45.015  0.00  0.00    +0.000 C 
ATOM     32  C   UNL     1     -11.644  53.066  44.802  0.00  0.00    +0.000 C 
ATOM     33  C   UNL     1     -10.282  52.852  44.189  0.00  0.00    +0.000 C 
ENDBRANCH  28  29
ENDBRANCH   5  28
TORSDOF 4
ENDMDL
MODEL 7
REMARK VINA RESULT:      -7.8      2.934      5.137
REMARK  Name = 338306
REMARK  4 active torsions:
REMARK  status: ('A' for Active; 'I' for Inactive)
REMARK    1  A    between atoms: C_6  and  C_10
REMARK    2  A    between atoms: C_14  and  O_18
REMARK    3  A    between atoms: N_17  and  C_21
REMARK    4  A    between atoms: C_21  and  C_24
REMARK                            x       y       z     vdW  Elec       q    Type
REMARK                         _______ _______ _______ _____ _____    ______ ____
ROOT
ATOM      1  C   UNL     1     -10.770  55.681  48.388  0.00  0.00    +0.000 A 
ATOM      2  C   UNL     1      -9.367  55.474  48.854  0.00  0.00    +0.000 A 
ATOM      3  C   UNL     1     -11.158  55.215  47.190  0.00  0.00    +0.000 A 
ATOM      4  O   UNL     1      -9.112  55.677  50.045  0.00  0.00    +0.000 OA
ATOM      5  N   UNL     1      -8.413  55.052  47.940  0.00  0.00    +0.000 N 
ATOM      6  C   UNL     1     -10.190  54.499  46.338  0.00  0.00    +0.000 A 
ATOM      7  C   UNL     1      -8.828  54.452  46.704  0.00  0.00    +0.000 A 
ATOM      8  C   UNL     1     -10.616  53.832  45.173  0.00  0.00    +0.000 A 
ATOM      9  C   UNL     1      -7.936  53.749  45.884  0.00  0.00    +0.000 A 
ATOM     10  C   UNL     1      -9.714  53.123  44.382  0.00  0.00    +0.000 A 
ATOM     11  C   UNL     1      -8.373  53.086  44.735  0.00  0.00    +0.000 A 
ENDROOT
BRANCH   1  17
ATOM     12  S   UNL     1     -13.312  56.216  51.345  0.00  0.00    +0.000 S 
ATOM     13  O   UNL     1     -12.719  56.488  52.637  0.00  0.00    +0.000 OA
ATOM     14  O   UNL     1     -14.453  55.323  51.233  0.00  0.00    +0.000 OA
ATOM     15  N   UNL     1     -12.146  55.658  50.370  0.00  0.00    +0.000 N 
ATOM     16  C   UNL     1     -13.866  57.767  50.725  0.00  0.00    +0.000 A 
ATOM     17  C   UNL     1     -11.750  56.338  49.337  0.00  0.00    +0.000 C 
ATOM     18  C   UNL     1     -13.230  58.276  49.606  0.00  0.00    +0.000 A 
ATOM     19  C   UNL     1     -14.930  58.439  51.338  0.00  0.00    +0.000 A 
ATOM     20  N   UNL     1     -12.163  57.616  49.011  0.00  0.00    +0.000 N 
ATOM     21  C   UNL     1     -13.631  59.531  49.129  0.00  0.00    +0.000 A 
ATOM     22  C   UNL     1     -15.338  59.681  50.830  0.00  0.00    +0.000 A 
ATOM     23  C   UNL     1     -14.678  60.223  49.731  0.00  0.00    +0.000 A 
ATOM     24  H   UNL     1     -11.730  54.787  50.563  0.00  0.00    +0.000 HD
ATOM     25  H   UNL     1     -11.666  58.091  48.307  0.00  0.00    +0.000 HD
ENDBRANCH   1  17
BRANCH   3  26
ATOM     26  O   UNL     1     -12.442  55.305  46.688  0.00  0.00    +0.000 OA
ATOM     27  H   UNL     1     -12.700  54.771  45.963  0.00  0.00    +0.000 HD
ENDBRANCH   3  26
BRANCH   5  28
ATOM     28  C   UNL     1      -7.014  54.961  48.407  0.00  0.00    +0.000 C 
BRANCH  28  29
ATOM     29  C   UNL     1      -6.611  53.714  49.232  0.00  0.00    +0.000 C 
ATOM     30  O   UNL     1      -6.238  54.035  50.577  0.00  0.00    +0.000 OA
ATOM     31  C   UNL     1      -7.632  52.587  49.282  0.00  0.00    +0.000 C 
ATOM     32  C   UNL     1      -7.005  53.244  51.486  0.00  0.00    +0.000 C 
ATOM     33  C   UNL     1      -7.578  52.086  50.705  0.00  0.00    +0.000 C 
ENDBRANCH  28  29
ENDBRANCH   5  28
TORSDOF 4
ENDMDL
MODEL 8
REMARK VINA RESULT:      -7.7      2.467      4.383
REMARK  Name = 338306
REMARK  4 active torsions:
REMARK  status: ('A' for Active; 'I' for Inactive)
REMARK    1  A    between atoms: C_6  and  C_10
REMARK    2  A    between atoms: C_14  and  O_18
REMARK    3  A    between atoms: N_17  and  C_21
REMARK    4  A    between atoms: C_21  and  C_24
REMARK                            x       y       z     vdW  Elec       q    Type
REMARK                         _______ _______ _______ _____ _____    ______ ____
ROOT
ATOM      1  C   UNL     1     -11.260  55.789  49.328  0.00  0.00    +0.000 A 
ATOM      2  C   UNL     1     -10.437  55.159  50.402  0.00  0.00    +0.000 A 
ATOM      3  C   UNL     1     -11.108  55.404  48.050  0.00  0.00    +0.000 A 
ATOM      4  O   UNL     1     -10.774  55.340  51.577  0.00  0.00    +0.000 OA
ATOM      5  N   UNL     1      -9.341  54.388  50.043  0.00  0.00    +0.000 N 
ATOM      6  C   UNL     1     -10.125  54.356  47.716  0.00  0.00    +0.000 A 
ATOM      7  C   UNL     1      -9.234  53.884  48.704  0.00  0.00    +0.000 A 
ATOM      8  C   UNL     1     -10.085  53.797  46.425  0.00  0.00    +0.000 A 
ATOM      9  C   UNL     1      -8.324  52.876  48.360  0.00  0.00    +0.000 A 
ATOM     10  C   UNL     1      -9.183  52.781  46.111  0.00  0.00    +0.000 A 
ATOM     11  C   UNL     1      -8.299  52.325  47.078  0.00  0.00    +0.000 A 
ENDROOT
BRANCH   1  17
ATOM     12  S   UNL     1     -13.461  59.049  49.442  0.00  0.00    +0.000 S 
ATOM     13  O   UNL     1     -14.554  59.098  48.494  0.00  0.00    +0.000 OA
ATOM     14  O   UNL     1     -12.651  60.229  49.690  0.00  0.00    +0.000 OA
ATOM     15  N   UNL     1     -12.469  57.849  48.995  0.00  0.00    +0.000 N 
ATOM     16  C   UNL     1     -14.178  58.634  50.994  0.00  0.00    +0.000 A 
ATOM     17  C   UNL     1     -12.319  56.791  49.733  0.00  0.00    +0.000 C 
ATOM     18  C   UNL     1     -13.858  57.405  51.543  0.00  0.00    +0.000 A 
ATOM     19  C   UNL     1     -15.023  59.537  51.652  0.00  0.00    +0.000 A 
ATOM     20  N   UNL     1     -13.034  56.504  50.880  0.00  0.00    +0.000 N 
ATOM     21  C   UNL     1     -14.457  57.043  52.756  0.00  0.00    +0.000 A 
ATOM     22  C   UNL     1     -15.592  59.171  52.880  0.00  0.00    +0.000 A 
ATOM     23  C   UNL     1     -15.310  57.920  53.421  0.00  0.00    +0.000 A 
ATOM     24  H   UNL     1     -11.971  57.924  48.149  0.00  0.00    +0.000 HD
ATOM     25  H   UNL     1     -12.955  55.597  51.253  0.00  0.00    +0.000 HD
ENDBRANCH   1  17
BRANCH   3  26
ATOM     26  O   UNL     1     -11.853  55.882  46.990  0.00  0.00    +0.000 OA
ATOM     27  H   UNL     1     -12.783  55.970  47.072  0.00  0.00    +0.000 HD
ENDBRANCH   3  26
BRANCH   5  28
ATOM     28  C   UNL     1      -8.486  53.869  51.130  0.00  0.00    +0.000 C 
BRANCH  28  29
ATOM     29  C   UNL     1      -7.229  54.689  51.511  0.00  0.00    +0.000 C 
ATOM     30  O   UNL     1      -7.511  55.731  52.453  0.00  0.00    +0.000 OA
ATOM     31  C   UNL     1      -6.043  53.891  52.031  0.00  0.00    +0.000 C 
ATOM     32  C   UNL     1      -6.635  55.608  53.575  0.00  0.00    +0.000 C 
ATOM     33  C   UNL     1      -5.482  54.730  53.154  0.00  0.00    +0.000 C 
ENDBRANCH  28  29
ENDBRANCH   5  28
TORSDOF 4
ENDMDL
MODEL 9
REMARK VINA RESULT:      -7.7      3.813      7.360
REMARK  Name = 338306
REMARK  4 active torsions:
REMARK  status: ('A' for Active; 'I' for Inactive)
REMARK    1  A    between atoms: C_6  and  C_10
REMARK    2  A    between atoms: C_14  and  O_18
REMARK    3  A    between atoms: N_17  and  C_21
REMARK    4  A    between atoms: C_21  and  C_24
REMARK                            x       y       z     vdW  Elec       q    Type
REMARK                         _______ _______ _______ _____ _____    ______ ____
ROOT
ATOM      1  C   UNL     1     -10.956  54.872  48.285  0.00  0.00    +0.000 A 
ATOM      2  C   UNL     1     -10.444  54.747  49.682  0.00  0.00    +0.000 A 
ATOM      3  C   UNL     1     -12.069  55.582  48.037  0.00  0.00    +0.000 A 
ATOM      4  O   UNL     1      -9.297  54.317  49.846  0.00  0.00    +0.000 OA
ATOM      5  N   UNL     1     -11.265  55.128  50.733  0.00  0.00    +0.000 N 
ATOM      6  C   UNL     1     -12.781  56.236  49.151  0.00  0.00    +0.000 A 
ATOM      7  C   UNL     1     -12.393  55.978  50.483  0.00  0.00    +0.000 A 
ATOM      8  C   UNL     1     -13.828  57.142  48.899  0.00  0.00    +0.000 A 
ATOM      9  C   UNL     1     -13.076  56.628  51.520  0.00  0.00    +0.000 A 
ATOM     10  C   UNL     1     -14.482  57.792  49.945  0.00  0.00    +0.000 A 
ATOM     11  C   UNL     1     -14.109  57.530  51.255  0.00  0.00    +0.000 A 
ENDROOT
BRANCH   1  17
ATOM     12  S   UNL     1      -8.020  54.187  45.756  0.00  0.00    +0.000 S 
ATOM     13  O   UNL     1      -6.945  53.356  46.257  0.00  0.00    +0.000 OA
ATOM     14  O   UNL     1      -7.727  55.361  44.952  0.00  0.00    +0.000 OA
ATOM     15  N   UNL     1      -8.912  54.662  47.022  0.00  0.00    +0.000 N 
ATOM     16  C   UNL     1      -9.005  53.149  44.733  0.00  0.00    +0.000 A 
ATOM     17  C   UNL     1     -10.139  54.262  47.166  0.00  0.00    +0.000 C 
ATOM     18  C   UNL     1     -10.291  52.862  45.157  0.00  0.00    +0.000 A 
ATOM     19  C   UNL     1      -8.501  52.657  43.522  0.00  0.00    +0.000 A 
ATOM     20  N   UNL     1     -10.782  53.336  46.367  0.00  0.00    +0.000 N 
ATOM     21  C   UNL     1     -11.071  52.000  44.375  0.00  0.00    +0.000 A 
ATOM     22  C   UNL     1      -9.305  51.819  42.737  0.00  0.00    +0.000 A 
ATOM     23  C   UNL     1     -10.585  51.489  43.174  0.00  0.00    +0.000 A 
ATOM     24  H   UNL     1      -8.517  55.263  47.693  0.00  0.00    +0.000 HD
ATOM     25  H   UNL     1     -11.648  52.987  46.677  0.00  0.00    +0.000 HD
ENDBRANCH   1  17
BRANCH   3  26
ATOM     26  O   UNL     1     -12.596  55.805  46.780  0.00  0.00    +0.000 OA
ATOM     27  H   UNL     1     -12.063  56.183  46.108  0.00  0.00    +0.000 HD
ENDBRANCH   3  26
BRANCH   5  28
ATOM     28  C   UNL     1     -10.770  54.890  52.105  0.00  0.00    +0.000 C 
BRANCH  28  29
ATOM     29  C   UNL     1     -10.933  53.466  52.693  0.00  0.00    +0.000 C 
ATOM     30  O   UNL     1     -11.812  52.644  51.916  0.00  0.00    +0.000 OA
ATOM     31  C   UNL     1      -9.647  52.690  52.930  0.00  0.00    +0.000 C 
ATOM     32  C   UNL     1     -11.148  51.426  51.578  0.00  0.00    +0.000 C 
ATOM     33  C   UNL     1      -9.972  51.277  52.512  0.00  0.00    +0.000 C 
ENDBRANCH  28  29
ENDBRANCH   5  28
TORSDOF 4
ENDMDL
