MODEL 1
REMARK VINA RESULT:      -8.3      0.000      0.000
REMARK  Name = 338396
REMARK  13 active torsions:
REMARK  status: ('A' for Active; 'I' for Inactive)
REMARK    1  A    between atoms: C_6  and  C_10
REMARK    2  A    between atoms: C_14  and  O_18
REMARK    3  A    between atoms: N_17  and  C_21
REMARK    4  A    between atoms: C_21  and  C_24
REMARK    5  A    between atoms: C_24  and  C_27
REMARK    6  A    between atoms: C_25  and  N_28
REMARK    7  A    between atoms: C_27  and  C_29
REMARK    8  A    between atoms: C_27  and  C_30
REMARK    9  A    between atoms: N_28  and  C_31
REMARK   10  A    between atoms: C_31  and  C_32
REMARK   11  A    between atoms: C_32  and  O_34
REMARK   12  A    between atoms: O_34  and  C_35
REMARK   13  A    between atoms: C_35  and  C_36
REMARK                            x       y       z     vdW  Elec       q    Type
REMARK                         _______ _______ _______ _____ _____    ______ ____
ROOT
ATOM      1  C   UNL     1      -9.264  54.931  50.394  0.00  0.00    +0.000 A 
ATOM      2  C   UNL     1      -8.786  54.714  48.991  0.00  0.00    +0.000 A 
ATOM      3  C   UNL     1     -10.482  55.450  50.612  0.00  0.00    +0.000 A 
ATOM      4  O   UNL     1      -7.715  54.121  48.829  0.00  0.00    +0.000 OA
ATOM      5  N   UNL     1      -9.569  55.164  47.936  0.00  0.00    +0.000 N 
ATOM      6  C   UNL     1     -11.357  55.787  49.481  0.00  0.00    +0.000 A 
ATOM      7  C   UNL     1     -10.900  55.633  48.164  0.00  0.00    +0.000 A 
ATOM      8  C   UNL     1     -12.672  56.228  49.707  0.00  0.00    +0.000 A 
ATOM      9  C   UNL     1     -11.786  55.898  47.114  0.00  0.00    +0.000 A 
ATOM     10  C   UNL     1     -13.539  56.540  48.658  0.00  0.00    +0.000 A 
ATOM     11  C   UNL     1     -13.083  56.351  47.357  0.00  0.00    +0.000 A 
ENDROOT
BRANCH   1  17
ATOM     12  S   UNL     1      -6.170  54.589  52.797  0.00  0.00    +0.000 S 
ATOM     13  O   UNL     1      -6.071  55.672  53.756  0.00  0.00    +0.000 OA
ATOM     14  O   UNL     1      -4.978  54.083  52.138  0.00  0.00    +0.000 OA
ATOM     15  N   UNL     1      -7.219  55.039  51.645  0.00  0.00    +0.000 N 
ATOM     16  C   UNL     1      -6.854  53.225  53.666  0.00  0.00    +0.000 A 
ATOM     17  C   UNL     1      -8.390  54.481  51.550  0.00  0.00    +0.000 C 
ATOM     18  C   UNL     1      -8.146  52.842  53.352  0.00  0.00    +0.000 A 
ATOM     19  C   UNL     1      -6.094  52.555  54.629  0.00  0.00    +0.000 A 
ATOM     20  N   UNL     1      -8.894  53.521  52.398  0.00  0.00    +0.000 N 
ATOM     21  C   UNL     1      -8.719  51.792  54.082  0.00  0.00    +0.000 A 
ATOM     22  C   UNL     1      -6.663  51.488  55.320  0.00  0.00    +0.000 A 
ATOM     23  C   UNL     1      -7.979  51.113  55.053  0.00  0.00    +0.000 A 
ATOM     24  H   UNL     1      -6.965  55.746  51.009  0.00  0.00    +0.000 HD
ATOM     25  H   UNL     1      -9.850  53.300  52.323  0.00  0.00    +0.000 HD
ENDBRANCH   1  17
BRANCH   3  26
ATOM     26  O   UNL     1     -11.033  55.660  51.865  0.00  0.00    +0.000 OA
ATOM     27  H   UNL     1     -11.358  54.934  52.361  0.00  0.00    +0.000 HD
ENDBRANCH   3  26
BRANCH  10  28
ATOM     28  N   UNL     1     -14.852  56.891  48.950  0.00  0.00    +0.000 N 
ATOM     29  H   UNL     1     -15.355  57.488  48.350  0.00  0.00    +0.000 HD
BRANCH  28  30
ATOM     30  C   UNL     1     -15.473  56.355  50.164  0.00  0.00    +0.000 C 
BRANCH  30  31
ATOM     31  C   UNL     1     -15.451  57.420  51.251  0.00  0.00    +0.000 C 
ATOM     32  O   UNL     1     -15.527  57.189  52.452  0.00  0.00    +0.000 OA
BRANCH  31  33
ATOM     33  O   UNL     1     -15.395  58.658  50.684  0.00  0.00    +0.000 OA
BRANCH  33  34
ATOM     34  C   UNL     1     -14.321  59.477  51.159  0.00  0.00    +0.000 C 
ATOM     35  C   UNL     1     -13.693  60.145  49.950  0.00  0.00    +0.000 C 
ENDBRANCH  33  34
ENDBRANCH  31  33
ENDBRANCH  30  31
ENDBRANCH  28  30
ENDBRANCH  10  28
BRANCH   5  36
ATOM     36  C   UNL     1      -9.050  54.994  46.574  0.00  0.00    +0.000 C 
BRANCH  36  37
ATOM     37  C   UNL     1      -9.253  53.603  45.946  0.00  0.00    +0.000 C 
BRANCH  37  38
ATOM     38  C   UNL     1     -10.156  53.534  44.705  0.00  0.00    +0.000 C 
ATOM     39  C   UNL     1      -9.528  52.727  43.570  0.00  0.00    +0.000 C 
ATOM     40  C   UNL     1     -11.496  52.905  45.106  0.00  0.00    +0.000 C 
ENDBRANCH  37  38
ENDBRANCH  36  37
ENDBRANCH   5  36
TORSDOF 10
ENDMDL
MODEL 2
REMARK VINA RESULT:      -7.9      2.676      7.771
REMARK  Name = 338396
REMARK  13 active torsions:
REMARK  status: ('A' for Active; 'I' for Inactive)
REMARK    1  A    between atoms: C_6  and  C_10
REMARK    2  A    between atoms: C_14  and  O_18
REMARK    3  A    between atoms: N_17  and  C_21
REMARK    4  A    between atoms: C_21  and  C_24
REMARK    5  A    between atoms: C_24  and  C_27
REMARK    6  A    between atoms: C_25  and  N_28
REMARK    7  A    between atoms: C_27  and  C_29
REMARK    8  A    between atoms: C_27  and  C_30
REMARK    9  A    between atoms: N_28  and  C_31
REMARK   10  A    between atoms: C_31  and  C_32
REMARK   11  A    between atoms: C_32  and  O_34
REMARK   12  A    between atoms: O_34  and  C_35
REMARK   13  A    between atoms: C_35  and  C_36
REMARK                            x       y       z     vdW  Elec       q    Type
REMARK                         _______ _______ _______ _____ _____    ______ ____
ROOT
ATOM      1  C   UNL     1     -12.114  54.403  50.341  0.00  0.00    +0.000 A 
ATOM      2  C   UNL     1     -11.878  53.931  48.939  0.00  0.00    +0.000 A 
ATOM      3  C   UNL     1     -11.456  53.827  51.359  0.00  0.00    +0.000 A 
ATOM      4  O   UNL     1     -12.404  54.564  48.018  0.00  0.00    +0.000 OA
ATOM      5  N   UNL     1     -11.065  52.824  48.729  0.00  0.00    +0.000 N 
ATOM      6  C   UNL     1     -10.489  52.751  51.102  0.00  0.00    +0.000 A 
ATOM      7  C   UNL     1     -10.297  52.271  49.799  0.00  0.00    +0.000 A 
ATOM      8  C   UNL     1      -9.720  52.222  52.153  0.00  0.00    +0.000 A 
ATOM      9  C   UNL     1      -9.318  51.294  49.585  0.00  0.00    +0.000 A 
ATOM     10  C   UNL     1      -8.779  51.212  51.945  0.00  0.00    +0.000 A 
ATOM     11  C   UNL     1      -8.575  50.768  50.642  0.00  0.00    +0.000 A 
ENDROOT
BRANCH   1  17
ATOM     12  S   UNL     1     -15.283  56.491  51.370  0.00  0.00    +0.000 S 
ATOM     13  O   UNL     1     -15.360  56.744  52.796  0.00  0.00    +0.000 OA
ATOM     14  O   UNL     1     -16.478  56.136  50.624  0.00  0.00    +0.000 OA
ATOM     15  N   UNL     1     -14.185  55.322  51.132  0.00  0.00    +0.000 N 
ATOM     16  C   UNL     1     -14.683  57.971  50.641  0.00  0.00    +0.000 A 
ATOM     17  C   UNL     1     -13.037  55.583  50.578  0.00  0.00    +0.000 C 
ATOM     18  C   UNL     1     -13.400  57.960  50.120  0.00  0.00    +0.000 A 
ATOM     19  C   UNL     1     -15.497  59.106  50.587  0.00  0.00    +0.000 A 
ATOM     20  N   UNL     1     -12.599  56.828  50.187  0.00  0.00    +0.000 N 
ATOM     21  C   UNL     1     -12.894  59.154  49.588  0.00  0.00    +0.000 A 
ATOM     22  C   UNL     1     -14.994  60.275  50.021  0.00  0.00    +0.000 A 
ATOM     23  C   UNL     1     -13.689  60.302  49.531  0.00  0.00    +0.000 A 
ATOM     24  H   UNL     1     -14.391  54.401  51.411  0.00  0.00    +0.000 HD
ATOM     25  H   UNL     1     -11.651  56.922  49.936  0.00  0.00    +0.000 HD
ENDBRANCH   1  17
BRANCH   3  26
ATOM     26  O   UNL     1     -11.575  54.207  52.685  0.00  0.00    +0.000 OA
ATOM     27  H   UNL     1     -11.852  55.076  52.900  0.00  0.00    +0.000 HD
ENDBRANCH   3  26
BRANCH  10  28
ATOM     28  N   UNL     1      -7.993  50.792  53.012  0.00  0.00    +0.000 N 
ATOM     29  H   UNL     1      -7.546  49.915  52.989  0.00  0.00    +0.000 HD
BRANCH  28  30
ATOM     30  C   UNL     1      -7.843  51.677  54.170  0.00  0.00    +0.000 C 
BRANCH  30  31
ATOM     31  C   UNL     1      -6.474  52.340  54.121  0.00  0.00    +0.000 C 
ATOM     32  O   UNL     1      -5.560  51.995  53.380  0.00  0.00    +0.000 OA
BRANCH  31  33
ATOM     33  O   UNL     1      -6.404  53.327  55.058  0.00  0.00    +0.000 OA
BRANCH  33  34
ATOM     34  C   UNL     1      -6.046  54.612  54.537  0.00  0.00    +0.000 C 
ATOM     35  C   UNL     1      -7.336  55.339  54.201  0.00  0.00    +0.000 C 
ENDBRANCH  33  34
ENDBRANCH  31  33
ENDBRANCH  30  31
ENDBRANCH  28  30
ENDBRANCH  10  28
BRANCH   5  36
ATOM     36  C   UNL     1     -10.899  52.347  47.351  0.00  0.00    +0.000 C 
BRANCH  36  37
ATOM     37  C   UNL     1      -9.782  53.022  46.536  0.00  0.00    +0.000 C 
BRANCH  37  38
ATOM     38  C   UNL     1     -10.164  53.538  45.140  0.00  0.00    +0.000 C 
ATOM     39  C   UNL     1      -9.255  52.986  44.044  0.00  0.00    +0.000 C 
ATOM     40  C   UNL     1     -11.619  53.145  44.853  0.00  0.00    +0.000 C 
ENDBRANCH  37  38
ENDBRANCH  36  37
ENDBRANCH   5  36
TORSDOF 10
ENDMDL
MODEL 3
REMARK VINA RESULT:      -7.8      3.013      6.582
REMARK  Name = 338396
REMARK  13 active torsions:
REMARK  status: ('A' for Active; 'I' for Inactive)
REMARK    1  A    between atoms: C_6  and  C_10
REMARK    2  A    between atoms: C_14  and  O_18
REMARK    3  A    between atoms: N_17  and  C_21
REMARK    4  A    between atoms: C_21  and  C_24
REMARK    5  A    between atoms: C_24  and  C_27
REMARK    6  A    between atoms: C_25  and  N_28
REMARK    7  A    between atoms: C_27  and  C_29
REMARK    8  A    between atoms: C_27  and  C_30
REMARK    9  A    between atoms: N_28  and  C_31
REMARK   10  A    between atoms: C_31  and  C_32
REMARK   11  A    between atoms: C_32  and  O_34
REMARK   12  A    between atoms: O_34  and  C_35
REMARK   13  A    between atoms: C_35  and  C_36
REMARK                            x       y       z     vdW  Elec       q    Type
REMARK                         _______ _______ _______ _____ _____    ______ ____
ROOT
ATOM      1  C   UNL     1      -9.410  53.750  47.894  0.00  0.00    +0.000 A 
ATOM      2  C   UNL     1      -8.405  54.493  48.718  0.00  0.00    +0.000 A 
ATOM      3  C   UNL     1     -10.689  53.688  48.296  0.00  0.00    +0.000 A 
ATOM      4  O   UNL     1      -7.268  54.636  48.257  0.00  0.00    +0.000 OA
ATOM      5  N   UNL     1      -8.793  55.008  49.949  0.00  0.00    +0.000 N 
ATOM      6  C   UNL     1     -11.112  54.364  49.530  0.00  0.00    +0.000 A 
ATOM      7  C   UNL     1     -10.169  55.021  50.333  0.00  0.00    +0.000 A 
ATOM      8  C   UNL     1     -12.469  54.391  49.896  0.00  0.00    +0.000 A 
ATOM      9  C   UNL     1     -10.620  55.711  51.464  0.00  0.00    +0.000 A 
ATOM     10  C   UNL     1     -12.911  55.039  51.051  0.00  0.00    +0.000 A 
ATOM     11  C   UNL     1     -11.969  55.715  51.821  0.00  0.00    +0.000 A 
ENDROOT
BRANCH   1  17
ATOM     12  S   UNL     1      -9.143  53.085  44.027  0.00  0.00    +0.000 S 
ATOM     13  O   UNL     1      -8.275  54.025  43.346  0.00  0.00    +0.000 OA
ATOM     14  O   UNL     1     -10.399  52.677  43.422  0.00  0.00    +0.000 OA
ATOM     15  N   UNL     1      -9.474  53.688  45.496  0.00  0.00    +0.000 N 
ATOM     16  C   UNL     1      -8.208  51.613  44.232  0.00  0.00    +0.000 A 
ATOM     17  C   UNL     1      -8.979  53.146  46.571  0.00  0.00    +0.000 C 
ATOM     18  C   UNL     1      -7.809  51.274  45.513  0.00  0.00    +0.000 A 
ATOM     19  C   UNL     1      -7.902  50.818  43.124  0.00  0.00    +0.000 A 
ATOM     20  N   UNL     1      -8.113  52.077  46.605  0.00  0.00    +0.000 N 
ATOM     21  C   UNL     1      -7.013  50.132  45.676  0.00  0.00    +0.000 A 
ATOM     22  C   UNL     1      -7.142  49.664  43.306  0.00  0.00    +0.000 A 
ATOM     23  C   UNL     1      -6.689  49.327  44.581  0.00  0.00    +0.000 A 
ATOM     24  H   UNL     1     -10.058  54.476  45.574  0.00  0.00    +0.000 HD
ATOM     25  H   UNL     1      -7.679  51.867  47.463  0.00  0.00    +0.000 HD
ENDBRANCH   1  17
BRANCH   3  26
ATOM     26  O   UNL     1     -11.703  53.057  47.594  0.00  0.00    +0.000 OA
ATOM     27  H   UNL     1     -12.460  53.540  47.329  0.00  0.00    +0.000 HD
ENDBRANCH   3  26
BRANCH  10  28
ATOM     28  N   UNL     1     -14.275  55.100  51.310  0.00  0.00    +0.000 N 
ATOM     29  H   UNL     1     -14.685  54.500  51.973  0.00  0.00    +0.000 HD
BRANCH  28  30
ATOM     30  C   UNL     1     -15.090  56.073  50.578  0.00  0.00    +0.000 C 
BRANCH  30  31
ATOM     31  C   UNL     1     -15.338  57.287  51.462  0.00  0.00    +0.000 C 
ATOM     32  O   UNL     1     -15.579  57.235  52.663  0.00  0.00    +0.000 OA
BRANCH  31  33
ATOM     33  O   UNL     1     -15.309  58.421  50.708  0.00  0.00    +0.000 OA
BRANCH  33  34
ATOM     34  C   UNL     1     -14.156  58.541  49.866  0.00  0.00    +0.000 C 
ATOM     35  C   UNL     1     -13.698  59.987  49.931  0.00  0.00    +0.000 C 
ENDBRANCH  33  34
ENDBRANCH  31  33
ENDBRANCH  30  31
ENDBRANCH  28  30
ENDBRANCH  10  28
BRANCH   5  36
ATOM     36  C   UNL     1      -7.773  55.680  50.764  0.00  0.00    +0.000 C 
BRANCH  36  37
ATOM     37  C   UNL     1      -7.128  54.827  51.871  0.00  0.00    +0.000 C 
BRANCH  37  38
ATOM     38  C   UNL     1      -6.894  55.518  53.223  0.00  0.00    +0.000 C 
ATOM     39  C   UNL     1      -8.088  55.381  54.164  0.00  0.00    +0.000 C 
ATOM     40  C   UNL     1      -5.647  54.909  53.876  0.00  0.00    +0.000 C 
ENDBRANCH  37  38
ENDBRANCH  36  37
ENDBRANCH   5  36
TORSDOF 10
ENDMDL
MODEL 4
REMARK VINA RESULT:      -7.7      2.935      7.786
REMARK  Name = 338396
REMARK  13 active torsions:
REMARK  status: ('A' for Active; 'I' for Inactive)
REMARK    1  A    between atoms: C_6  and  C_10
REMARK    2  A    between atoms: C_14  and  O_18
REMARK    3  A    between atoms: N_17  and  C_21
REMARK    4  A    between atoms: C_21  and  C_24
REMARK    5  A    between atoms: C_24  and  C_27
REMARK    6  A    between atoms: C_25  and  N_28
REMARK    7  A    between atoms: C_27  and  C_29
REMARK    8  A    between atoms: C_27  and  C_30
REMARK    9  A    between atoms: N_28  and  C_31
REMARK   10  A    between atoms: C_31  and  C_32
REMARK   11  A    between atoms: C_32  and  O_34
REMARK   12  A    between atoms: O_34  and  C_35
REMARK   13  A    between atoms: C_35  and  C_36
REMARK                            x       y       z     vdW  Elec       q    Type
REMARK                         _______ _______ _______ _____ _____    ______ ____
ROOT
ATOM      1  C   UNL     1     -11.861  53.984  51.176  0.00  0.00    +0.000 A 
ATOM      2  C   UNL     1     -11.831  52.870  50.176  0.00  0.00    +0.000 A 
ATOM      3  C   UNL     1     -11.119  53.901  52.291  0.00  0.00    +0.000 A 
ATOM      4  O   UNL     1     -12.427  53.035  49.106  0.00  0.00    +0.000 OA
ATOM      5  N   UNL     1     -11.124  51.713  50.478  0.00  0.00    +0.000 N 
ATOM      6  C   UNL     1     -10.262  52.731  52.525  0.00  0.00    +0.000 A 
ATOM      7  C   UNL     1     -10.265  51.661  51.618  0.00  0.00    +0.000 A 
ATOM      8  C   UNL     1      -9.404  52.690  53.638  0.00  0.00    +0.000 A 
ATOM      9  C   UNL     1      -9.384  50.596  51.840  0.00  0.00    +0.000 A 
ATOM     10  C   UNL     1      -8.562  51.604  53.883  0.00  0.00    +0.000 A 
ATOM     11  C   UNL     1      -8.551  50.565  52.958  0.00  0.00    +0.000 A 
ENDROOT
BRANCH   1  17
ATOM     12  S   UNL     1     -13.335  57.072  49.237  0.00  0.00    +0.000 S 
ATOM     13  O   UNL     1     -14.418  56.717  48.340  0.00  0.00    +0.000 OA
ATOM     14  O   UNL     1     -12.326  58.032  48.824  0.00  0.00    +0.000 OA
ATOM     15  N   UNL     1     -12.574  55.705  49.662  0.00  0.00    +0.000 N 
ATOM     16  C   UNL     1     -14.088  57.753  50.670  0.00  0.00    +0.000 A 
ATOM     17  C   UNL     1     -12.670  55.231  50.870  0.00  0.00    +0.000 C 
ATOM     18  C   UNL     1     -14.037  57.015  51.839  0.00  0.00    +0.000 A 
ATOM     19  C   UNL     1     -14.701  59.008  50.609  0.00  0.00    +0.000 A 
ATOM     20  N   UNL     1     -13.431  55.766  51.884  0.00  0.00    +0.000 N 
ATOM     21  C   UNL     1     -14.686  57.527  52.971  0.00  0.00    +0.000 A 
ATOM     22  C   UNL     1     -15.310  59.521  51.753  0.00  0.00    +0.000 A 
ATOM     23  C   UNL     1     -15.311  58.776  52.931  0.00  0.00    +0.000 A 
ATOM     24  H   UNL     1     -12.031  55.226  48.994  0.00  0.00    +0.000 HD
ATOM     25  H   UNL     1     -13.554  55.226  52.698  0.00  0.00    +0.000 HD
ENDBRANCH   1  17
BRANCH   3  26
ATOM     26  O   UNL     1     -11.048  54.886  53.262  0.00  0.00    +0.000 OA
ATOM     27  H   UNL     1     -10.260  55.000  53.756  0.00  0.00    +0.000 HD
ENDBRANCH   3  26
BRANCH  10  28
ATOM     28  N   UNL     1      -7.678  51.665  54.954  0.00  0.00    +0.000 N 
ATOM     29  H   UNL     1      -8.008  51.591  55.879  0.00  0.00    +0.000 HD
BRANCH  28  30
ATOM     30  C   UNL     1      -6.249  51.840  54.683  0.00  0.00    +0.000 C 
BRANCH  30  31
ATOM     31  C   UNL     1      -5.972  53.306  54.380  0.00  0.00    +0.000 C 
ATOM     32  O   UNL     1      -6.203  54.231  55.151  0.00  0.00    +0.000 OA
BRANCH  31  33
ATOM     33  O   UNL     1      -5.489  53.433  53.113  0.00  0.00    +0.000 OA
BRANCH  33  34
ATOM     34  C   UNL     1      -6.277  54.273  52.262  0.00  0.00    +0.000 C 
ATOM     35  C   UNL     1      -6.763  53.417  51.106  0.00  0.00    +0.000 C 
ENDBRANCH  33  34
ENDBRANCH  31  33
ENDBRANCH  30  31
ENDBRANCH  28  30
ENDBRANCH  10  28
BRANCH   5  36
ATOM     36  C   UNL     1     -11.161  50.613  49.507  0.00  0.00    +0.000 C 
BRANCH  36  37
ATOM     37  C   UNL     1     -10.142  50.698  48.356  0.00  0.00    +0.000 C 
BRANCH  37  38
ATOM     38  C   UNL     1     -10.713  50.680  46.929  0.00  0.00    +0.000 C 
ATOM     39  C   UNL     1     -12.202  50.339  46.900  0.00  0.00    +0.000 C 
ATOM     40  C   UNL     1     -10.486  52.057  46.293  0.00  0.00    +0.000 C 
ENDBRANCH  37  38
ENDBRANCH  36  37
ENDBRANCH   5  36
TORSDOF 10
ENDMDL
MODEL 5
REMARK VINA RESULT:      -7.7      3.113      7.891
REMARK  Name = 338396
REMARK  13 active torsions:
REMARK  status: ('A' for Active; 'I' for Inactive)
REMARK    1  A    between atoms: C_6  and  C_10
REMARK    2  A    between atoms: C_14  and  O_18
REMARK    3  A    between atoms: N_17  and  C_21
REMARK    4  A    between atoms: C_21  and  C_24
REMARK    5  A    between atoms: C_24  and  C_27
REMARK    6  A    between atoms: C_25  and  N_28
REMARK    7  A    between atoms: C_27  and  C_29
REMARK    8  A    between atoms: C_27  and  C_30
REMARK    9  A    between atoms: N_28  and  C_31
REMARK   10  A    between atoms: C_31  and  C_32
REMARK   11  A    between atoms: C_32  and  O_34
REMARK   12  A    between atoms: O_34  and  C_35
REMARK   13  A    between atoms: C_35  and  C_36
REMARK                            x       y       z     vdW  Elec       q    Type
REMARK                         _______ _______ _______ _____ _____    ______ ____
ROOT
ATOM      1  C   UNL     1     -11.140  55.965  49.095  0.00  0.00    +0.000 A 
ATOM      2  C   UNL     1     -10.250  55.275  50.083  0.00  0.00    +0.000 A 
ATOM      3  C   UNL     1     -11.021  55.693  47.786  0.00  0.00    +0.000 A 
ATOM      4  O   UNL     1     -10.470  55.454  51.285  0.00  0.00    +0.000 OA
ATOM      5  N   UNL     1      -9.236  54.450  49.614  0.00  0.00    +0.000 N 
ATOM      6  C   UNL     1     -10.037  54.707  47.320  0.00  0.00    +0.000 A 
ATOM      7  C   UNL     1      -9.167  54.093  48.233  0.00  0.00    +0.000 A 
ATOM      8  C   UNL     1      -9.985  54.342  45.963  0.00  0.00    +0.000 A 
ATOM      9  C   UNL     1      -8.292  53.108  47.760  0.00  0.00    +0.000 A 
ATOM     10  C   UNL     1      -9.076  53.395  45.487  0.00  0.00    +0.000 A 
ATOM     11  C   UNL     1      -8.242  52.770  46.408  0.00  0.00    +0.000 A 
ENDROOT
BRANCH   1  17
ATOM     12  S   UNL     1     -13.456  59.125  49.433  0.00  0.00    +0.000 S 
ATOM     13  O   UNL     1     -14.550  59.134  48.481  0.00  0.00    +0.000 OA
ATOM     14  O   UNL     1     -12.728  60.348  49.723  0.00  0.00    +0.000 OA
ATOM     15  N   UNL     1     -12.381  58.013  48.944  0.00  0.00    +0.000 N 
ATOM     16  C   UNL     1     -14.140  58.598  50.962  0.00  0.00    +0.000 A 
ATOM     17  C   UNL     1     -12.220  56.902  49.601  0.00  0.00    +0.000 C 
ATOM     18  C   UNL     1     -13.786  57.345  51.430  0.00  0.00    +0.000 A 
ATOM     19  C   UNL     1     -15.000  59.441  51.671  0.00  0.00    +0.000 A 
ATOM     20  N   UNL     1     -12.937  56.514  50.712  0.00  0.00    +0.000 N 
ATOM     21  C   UNL     1     -14.374  56.895  52.620  0.00  0.00    +0.000 A 
ATOM     22  C   UNL     1     -15.547  58.996  52.873  0.00  0.00    +0.000 A 
ATOM     23  C   UNL     1     -15.242  57.718  53.342  0.00  0.00    +0.000 A 
ATOM     24  H   UNL     1     -11.843  58.182  48.138  0.00  0.00    +0.000 HD
ATOM     25  H   UNL     1     -12.839  55.583  51.017  0.00  0.00    +0.000 HD
ENDBRANCH   1  17
BRANCH   3  26
ATOM     26  O   UNL     1     -11.813  56.248  46.795  0.00  0.00    +0.000 OA
ATOM     27  H   UNL     1     -11.420  56.752  46.109  0.00  0.00    +0.000 HD
ENDBRANCH   3  26
BRANCH  10  28
ATOM     28  N   UNL     1      -9.134  53.019  44.150  0.00  0.00    +0.000 N 
ATOM     29  H   UNL     1      -8.392  53.230  43.538  0.00  0.00    +0.000 HD
BRANCH  28  30
ATOM     30  C   UNL     1     -10.318  52.303  43.668  0.00  0.00    +0.000 C 
BRANCH  30  31
ATOM     31  C   UNL     1     -10.018  50.812  43.620  0.00  0.00    +0.000 C 
ATOM     32  O   UNL     1      -9.472  50.242  42.683  0.00  0.00    +0.000 OA
BRANCH  31  33
ATOM     33  O   UNL     1     -10.500  50.208  44.742  0.00  0.00    +0.000 OA
BRANCH  33  34
ATOM     34  C   UNL     1     -11.771  50.702  45.180  0.00  0.00    +0.000 C 
ATOM     35  C   UNL     1     -11.678  50.924  46.679  0.00  0.00    +0.000 C 
ENDBRANCH  33  34
ENDBRANCH  31  33
ENDBRANCH  30  31
ENDBRANCH  28  30
ENDBRANCH  10  28
BRANCH   5  36
ATOM     36  C   UNL     1      -8.341  53.834  50.601  0.00  0.00    +0.000 C 
BRANCH  36  37
ATOM     37  C   UNL     1      -7.102  54.660  50.992  0.00  0.00    +0.000 C 
BRANCH  37  38
ATOM     38  C   UNL     1      -5.756  54.196  50.414  0.00  0.00    +0.000 C 
ATOM     39  C   UNL     1      -5.263  55.097  49.284  0.00  0.00    +0.000 C 
ATOM     40  C   UNL     1      -4.719  54.170  51.544  0.00  0.00    +0.000 C 
ENDBRANCH  37  38
ENDBRANCH  36  37
ENDBRANCH   5  36
TORSDOF 10
ENDMDL
MODEL 6
REMARK VINA RESULT:      -7.6      2.641      6.690
REMARK  Name = 338396
REMARK  13 active torsions:
REMARK  status: ('A' for Active; 'I' for Inactive)
REMARK    1  A    between atoms: C_6  and  C_10
REMARK    2  A    between atoms: C_14  and  O_18
REMARK    3  A    between atoms: N_17  and  C_21
REMARK    4  A    between atoms: C_21  and  C_24
REMARK    5  A    between atoms: C_24  and  C_27
REMARK    6  A    between atoms: C_25  and  N_28
REMARK    7  A    between atoms: C_27  and  C_29
REMARK    8  A    between atoms: C_27  and  C_30
REMARK    9  A    between atoms: N_28  and  C_31
REMARK   10  A    between atoms: C_31  and  C_32
REMARK   11  A    between atoms: C_32  and  O_34
REMARK   12  A    between atoms: O_34  and  C_35
REMARK   13  A    between atoms: C_35  and  C_36
REMARK                            x       y       z     vdW  Elec       q    Type
REMARK                         _______ _______ _______ _____ _____    ______ ____
ROOT
ATOM      1  C   UNL     1      -9.777  53.194  48.566  0.00  0.00    +0.000 A 
ATOM      2  C   UNL     1      -8.740  53.776  49.476  0.00  0.00    +0.000 A 
ATOM      3  C   UNL     1     -11.079  53.398  48.821  0.00  0.00    +0.000 A 
ATOM      4  O   UNL     1      -7.554  53.676  49.144  0.00  0.00    +0.000 OA
ATOM      5  N   UNL     1      -9.148  54.421  50.637  0.00  0.00    +0.000 N 
ATOM      6  C   UNL     1     -11.490  54.206  49.976  0.00  0.00    +0.000 A 
ATOM      7  C   UNL     1     -10.528  54.714  50.861  0.00  0.00    +0.000 A 
ATOM      8  C   UNL     1     -12.847  54.511  50.184  0.00  0.00    +0.000 A 
ATOM      9  C   UNL     1     -10.954  55.537  51.910  0.00  0.00    +0.000 A 
ATOM     10  C   UNL     1     -13.274  55.291  51.260  0.00  0.00    +0.000 A 
ATOM     11  C   UNL     1     -12.306  55.816  52.111  0.00  0.00    +0.000 A 
ENDROOT
BRANCH   1  17
ATOM     12  S   UNL     1      -7.886  50.658  46.231  0.00  0.00    +0.000 S 
ATOM     13  O   UNL     1      -8.459  49.326  46.253  0.00  0.00    +0.000 OA
ATOM     14  O   UNL     1      -6.444  50.835  46.231  0.00  0.00    +0.000 OA
ATOM     15  N   UNL     1      -8.486  51.479  47.494  0.00  0.00    +0.000 N 
ATOM     16  C   UNL     1      -8.462  51.415  44.755  0.00  0.00    +0.000 A 
ATOM     17  C   UNL     1      -9.334  52.451  47.321  0.00  0.00    +0.000 C 
ATOM     18  C   UNL     1      -9.379  52.446  44.873  0.00  0.00    +0.000 A 
ATOM     19  C   UNL     1      -7.985  50.984  43.514  0.00  0.00    +0.000 A 
ATOM     20  N   UNL     1      -9.850  52.860  46.112  0.00  0.00    +0.000 N 
ATOM     21  C   UNL     1      -9.886  53.015  43.698  0.00  0.00    +0.000 A 
ATOM     22  C   UNL     1      -8.470  51.585  42.355  0.00  0.00    +0.000 A 
ATOM     23  C   UNL     1      -9.429  52.594  42.446  0.00  0.00    +0.000 A 
ATOM     24  H   UNL     1      -8.204  51.237  48.405  0.00  0.00    +0.000 HD
ATOM     25  H   UNL     1     -10.606  53.490  46.127  0.00  0.00    +0.000 HD
ENDBRANCH   1  17
BRANCH   3  26
ATOM     26  O   UNL     1     -12.115  52.934  48.028  0.00  0.00    +0.000 OA
ATOM     27  H   UNL     1     -12.717  53.540  47.643  0.00  0.00    +0.000 HD
ENDBRANCH   3  26
BRANCH  10  28
ATOM     28  N   UNL     1     -14.620  55.624  51.359  0.00  0.00    +0.000 N 
ATOM     29  H   UNL     1     -15.123  55.434  52.184  0.00  0.00    +0.000 HD
BRANCH  28  30
ATOM     30  C   UNL     1     -15.277  56.261  50.215  0.00  0.00    +0.000 C 
BRANCH  30  31
ATOM     31  C   UNL     1     -14.682  57.645  50.001  0.00  0.00    +0.000 C 
ATOM     32  O   UNL     1     -13.739  57.890  49.257  0.00  0.00    +0.000 OA
BRANCH  31  33
ATOM     33  O   UNL     1     -15.315  58.548  50.802  0.00  0.00    +0.000 OA
BRANCH  33  34
ATOM     34  C   UNL     1     -14.498  59.080  51.851  0.00  0.00    +0.000 C 
ATOM     35  C   UNL     1     -15.187  58.762  53.166  0.00  0.00    +0.000 C 
ENDBRANCH  33  34
ENDBRANCH  31  33
ENDBRANCH  30  31
ENDBRANCH  28  30
ENDBRANCH  10  28
BRANCH   5  36
ATOM     36  C   UNL     1      -8.109  54.929  51.542  0.00  0.00    +0.000 C 
BRANCH  36  37
ATOM     37  C   UNL     1      -7.815  54.065  52.781  0.00  0.00    +0.000 C 
BRANCH  37  38
ATOM     38  C   UNL     1      -7.351  54.809  54.043  0.00  0.00    +0.000 C 
ATOM     39  C   UNL     1      -6.251  54.059  54.792  0.00  0.00    +0.000 C 
ATOM     40  C   UNL     1      -6.845  56.198  53.636  0.00  0.00    +0.000 C 
ENDBRANCH  37  38
ENDBRANCH  36  37
ENDBRANCH   5  36
TORSDOF 10
ENDMDL
MODEL 7
REMARK VINA RESULT:      -7.6      1.796      2.618
REMARK  Name = 338396
REMARK  13 active torsions:
REMARK  status: ('A' for Active; 'I' for Inactive)
REMARK    1  A    between atoms: C_6  and  C_10
REMARK    2  A    between atoms: C_14  and  O_18
REMARK    3  A    between atoms: N_17  and  C_21
REMARK    4  A    between atoms: C_21  and  C_24
REMARK    5  A    between atoms: C_24  and  C_27
REMARK    6  A    between atoms: C_25  and  N_28
REMARK    7  A    between atoms: C_27  and  C_29
REMARK    8  A    between atoms: C_27  and  C_30
REMARK    9  A    between atoms: N_28  and  C_31
REMARK   10  A    between atoms: C_31  and  C_32
REMARK   11  A    between atoms: C_32  and  O_34
REMARK   12  A    between atoms: O_34  and  C_35
REMARK   13  A    between atoms: C_35  and  C_36
REMARK                            x       y       z     vdW  Elec       q    Type
REMARK                         _______ _______ _______ _____ _____    ______ ____
ROOT
ATOM      1  C   UNL     1      -9.753  54.000  49.906  0.00  0.00    +0.000 A 
ATOM      2  C   UNL     1      -9.863  53.233  48.625  0.00  0.00    +0.000 A 
ATOM      3  C   UNL     1     -10.434  55.147  50.058  0.00  0.00    +0.000 A 
ATOM      4  O   UNL     1      -9.324  52.122  48.566  0.00  0.00    +0.000 OA
ATOM      5  N   UNL     1     -10.578  53.784  47.569  0.00  0.00    +0.000 N 
ATOM      6  C   UNL     1     -11.302  55.642  48.981  0.00  0.00    +0.000 A 
ATOM      7  C   UNL     1     -11.372  54.955  47.760  0.00  0.00    +0.000 A 
ATOM      8  C   UNL     1     -12.098  56.784  49.178  0.00  0.00    +0.000 A 
ATOM      9  C   UNL     1     -12.263  55.419  46.784  0.00  0.00    +0.000 A 
ATOM     10  C   UNL     1     -12.948  57.273  48.184  0.00  0.00    +0.000 A 
ATOM     11  C   UNL     1     -13.033  56.564  46.990  0.00  0.00    +0.000 A 
ENDROOT
BRANCH   1  17
ATOM     12  S   UNL     1      -8.473  51.514  52.670  0.00  0.00    +0.000 S 
ATOM     13  O   UNL     1      -7.608  50.475  52.145  0.00  0.00    +0.000 OA
ATOM     14  O   UNL     1      -9.475  51.196  53.672  0.00  0.00    +0.000 OA
ATOM     15  N   UNL     1      -9.229  52.210  51.417  0.00  0.00    +0.000 N 
ATOM     16  C   UNL     1      -7.415  52.705  53.410  0.00  0.00    +0.000 A 
ATOM     17  C   UNL     1      -8.936  53.423  51.046  0.00  0.00    +0.000 C 
ATOM     18  C   UNL     1      -7.292  53.934  52.786  0.00  0.00    +0.000 A 
ATOM     19  C   UNL     1      -6.742  52.403  54.596  0.00  0.00    +0.000 A 
ATOM     20  N   UNL     1      -7.960  54.219  51.603  0.00  0.00    +0.000 N 
ATOM     21  C   UNL     1      -6.405  54.868  53.339  0.00  0.00    +0.000 A 
ATOM     22  C   UNL     1      -5.893  53.355  55.156  0.00  0.00    +0.000 A 
ATOM     23  C   UNL     1      -5.717  54.584  54.522  0.00  0.00    +0.000 A 
ATOM     24  H   UNL     1      -9.920  51.708  50.929  0.00  0.00    +0.000 HD
ATOM     25  H   UNL     1      -7.721  55.048  51.129  0.00  0.00    +0.000 HD
ENDBRANCH   1  17
BRANCH   3  26
ATOM     26  O   UNL     1     -10.429  55.916  51.210  0.00  0.00    +0.000 OA
ATOM     27  H   UNL     1     -10.715  56.808  51.178  0.00  0.00    +0.000 HD
ENDBRANCH   3  26
BRANCH  10  28
ATOM     28  N   UNL     1     -13.770  58.356  48.474  0.00  0.00    +0.000 N 
ATOM     29  H   UNL     1     -14.530  58.578  47.889  0.00  0.00    +0.000 HD
BRANCH  28  30
ATOM     30  C   UNL     1     -13.483  59.162  49.663  0.00  0.00    +0.000 C 
BRANCH  30  31
ATOM     31  C   UNL     1     -14.607  58.982  50.674  0.00  0.00    +0.000 C 
ATOM     32  O   UNL     1     -15.560  59.744  50.798  0.00  0.00    +0.000 OA
BRANCH  31  33
ATOM     33  O   UNL     1     -14.360  57.890  51.450  0.00  0.00    +0.000 OA
BRANCH  33  34
ATOM     34  C   UNL     1     -15.519  57.102  51.745  0.00  0.00    +0.000 C 
ATOM     35  C   UNL     1     -15.817  56.258  50.519  0.00  0.00    +0.000 C 
ENDBRANCH  33  34
ENDBRANCH  31  33
ENDBRANCH  30  31
ENDBRANCH  28  30
ENDBRANCH  10  28
BRANCH   5  36
ATOM     36  C   UNL     1     -10.619  53.039  46.305  0.00  0.00    +0.000 C 
BRANCH  36  37
ATOM     37  C   UNL     1      -9.930  53.712  45.105  0.00  0.00    +0.000 C 
BRANCH  37  38
ATOM     38  C   UNL     1      -8.409  53.530  44.993  0.00  0.00    +0.000 C 
ATOM     39  C   UNL     1      -7.636  54.536  45.844  0.00  0.00    +0.000 C 
ATOM     40  C   UNL     1      -8.052  52.103  45.428  0.00  0.00    +0.000 C 
ENDBRANCH  37  38
ENDBRANCH  36  37
ENDBRANCH   5  36
TORSDOF 10
ENDMDL
MODEL 8
REMARK VINA RESULT:      -7.5      3.305      7.753
REMARK  Name = 338396
REMARK  13 active torsions:
REMARK  status: ('A' for Active; 'I' for Inactive)
REMARK    1  A    between atoms: C_6  and  C_10
REMARK    2  A    between atoms: C_14  and  O_18
REMARK    3  A    between atoms: N_17  and  C_21
REMARK    4  A    between atoms: C_21  and  C_24
REMARK    5  A    between atoms: C_24  and  C_27
REMARK    6  A    between atoms: C_25  and  N_28
REMARK    7  A    between atoms: C_27  and  C_29
REMARK    8  A    between atoms: C_27  and  C_30
REMARK    9  A    between atoms: N_28  and  C_31
REMARK   10  A    between atoms: C_31  and  C_32
REMARK   11  A    between atoms: C_32  and  O_34
REMARK   12  A    between atoms: O_34  and  C_35
REMARK   13  A    between atoms: C_35  and  C_36
REMARK                            x       y       z     vdW  Elec       q    Type
REMARK                         _______ _______ _______ _____ _____    ______ ____
ROOT
ATOM      1  C   UNL     1     -10.741  55.731  48.356  0.00  0.00    +0.000 A 
ATOM      2  C   UNL     1      -9.308  55.614  48.775  0.00  0.00    +0.000 A 
ATOM      3  C   UNL     1     -11.138  55.212  47.184  0.00  0.00    +0.000 A 
ATOM      4  O   UNL     1      -9.004  55.991  49.911  0.00  0.00    +0.000 OA
ATOM      5  N   UNL     1      -8.388  55.071  47.887  0.00  0.00    +0.000 N 
ATOM      6  C   UNL     1     -10.178  54.511  46.320  0.00  0.00    +0.000 A 
ATOM      7  C   UNL     1      -8.825  54.440  46.682  0.00  0.00    +0.000 A 
ATOM      8  C   UNL     1     -10.613  53.874  45.145  0.00  0.00    +0.000 A 
ATOM      9  C   UNL     1      -7.955  53.705  45.868  0.00  0.00    +0.000 A 
ATOM     10  C   UNL     1      -9.733  53.183  44.309  0.00  0.00    +0.000 A 
ATOM     11  C   UNL     1      -8.400  53.092  44.697  0.00  0.00    +0.000 A 
ENDROOT
BRANCH   1  17
ATOM     12  S   UNL     1     -13.259  56.175  51.343  0.00  0.00    +0.000 S 
ATOM     13  O   UNL     1     -12.601  56.433  52.609  0.00  0.00    +0.000 OA
ATOM     14  O   UNL     1     -14.397  55.275  51.279  0.00  0.00    +0.000 OA
ATOM     15  N   UNL     1     -12.140  55.632  50.303  0.00  0.00    +0.000 N 
ATOM     16  C   UNL     1     -13.841  57.729  50.768  0.00  0.00    +0.000 A 
ATOM     17  C   UNL     1     -11.740  56.365  49.305  0.00  0.00    +0.000 C 
ATOM     18  C   UNL     1     -13.217  58.284  49.664  0.00  0.00    +0.000 A 
ATOM     19  C   UNL     1     -14.911  58.358  51.411  0.00  0.00    +0.000 A 
ATOM     20  N   UNL     1     -12.150  57.652  49.038  0.00  0.00    +0.000 N 
ATOM     21  C   UNL     1     -13.638  59.550  49.235  0.00  0.00    +0.000 A 
ATOM     22  C   UNL     1     -15.344  59.599  50.950  0.00  0.00    +0.000 A 
ATOM     23  C   UNL     1     -14.701  60.199  49.868  0.00  0.00    +0.000 A 
ATOM     24  H   UNL     1     -11.757  54.734  50.430  0.00  0.00    +0.000 HD
ATOM     25  H   UNL     1     -11.653  58.159  48.356  0.00  0.00    +0.000 HD
ENDBRANCH   1  17
BRANCH   3  26
ATOM     26  O   UNL     1     -12.442  55.235  46.716  0.00  0.00    +0.000 OA
ATOM     27  H   UNL     1     -12.744  55.962  46.209  0.00  0.00    +0.000 HD
ENDBRANCH   3  26
BRANCH  10  28
ATOM     28  N   UNL     1     -10.242  52.505  43.208  0.00  0.00    +0.000 N 
ATOM     29  H   UNL     1     -10.841  52.961  42.573  0.00  0.00    +0.000 HD
BRANCH  28  30
ATOM     30  C   UNL     1      -9.873  51.101  43.009  0.00  0.00    +0.000 C 
BRANCH  30  31
ATOM     31  C   UNL     1     -10.324  50.288  44.214  0.00  0.00    +0.000 C 
ATOM     32  O   UNL     1      -9.609  49.508  44.834  0.00  0.00    +0.000 OA
BRANCH  31  33
ATOM     33  O   UNL     1     -11.645  50.514  44.456  0.00  0.00    +0.000 OA
BRANCH  33  34
ATOM     34  C   UNL     1     -12.103  50.035  45.725  0.00  0.00    +0.000 C 
ATOM     35  C   UNL     1     -12.549  51.242  46.531  0.00  0.00    +0.000 C 
ENDBRANCH  33  34
ENDBRANCH  31  33
ENDBRANCH  30  31
ENDBRANCH  28  30
ENDBRANCH  10  28
BRANCH   5  36
ATOM     36  C   UNL     1      -6.981  55.024  48.299  0.00  0.00    +0.000 C 
BRANCH  36  37
ATOM     37  C   UNL     1      -6.531  53.734  49.009  0.00  0.00    +0.000 C 
BRANCH  37  38
ATOM     38  C   UNL     1      -5.024  53.437  49.006  0.00  0.00    +0.000 C 
ATOM     39  C   UNL     1      -4.662  52.241  49.884  0.00  0.00    +0.000 C 
ATOM     40  C   UNL     1      -4.579  53.171  47.562  0.00  0.00    +0.000 C 
ENDBRANCH  37  38
ENDBRANCH  36  37
ENDBRANCH   5  36
TORSDOF 10
ENDMDL
MODEL 9
REMARK VINA RESULT:      -7.5      3.065      7.795
REMARK  Name = 338396
REMARK  13 active torsions:
REMARK  status: ('A' for Active; 'I' for Inactive)
REMARK    1  A    between atoms: C_6  and  C_10
REMARK    2  A    between atoms: C_14  and  O_18
REMARK    3  A    between atoms: N_17  and  C_21
REMARK    4  A    between atoms: C_21  and  C_24
REMARK    5  A    between atoms: C_24  and  C_27
REMARK    6  A    between atoms: C_25  and  N_28
REMARK    7  A    between atoms: C_27  and  C_29
REMARK    8  A    between atoms: C_27  and  C_30
REMARK    9  A    between atoms: N_28  and  C_31
REMARK   10  A    between atoms: C_31  and  C_32
REMARK   11  A    between atoms: C_32  and  O_34
REMARK   12  A    between atoms: O_34  and  C_35
REMARK   13  A    between atoms: C_35  and  C_36
REMARK                            x       y       z     vdW  Elec       q    Type
REMARK                         _______ _______ _______ _____ _____    ______ ____
ROOT
ATOM      1  C   UNL     1     -12.646  54.393  49.731  0.00  0.00    +0.000 A 
ATOM      2  C   UNL     1     -12.145  54.343  48.320  0.00  0.00    +0.000 A 
ATOM      3  C   UNL     1     -12.344  53.400  50.582  0.00  0.00    +0.000 A 
ATOM      4  O   UNL     1     -12.336  55.330  47.602  0.00  0.00    +0.000 OA
ATOM      5  N   UNL     1     -11.473  53.208  47.884  0.00  0.00    +0.000 N 
ATOM      6  C   UNL     1     -11.507  52.275  50.142  0.00  0.00    +0.000 A 
ATOM      7  C   UNL     1     -11.075  52.196  48.810  0.00  0.00    +0.000 A 
ATOM      8  C   UNL     1     -11.101  51.291  51.060  0.00  0.00    +0.000 A 
ATOM      9  C   UNL     1     -10.223  51.147  48.447  0.00  0.00    +0.000 A 
ATOM     10  C   UNL     1     -10.291  50.218  50.683  0.00  0.00    +0.000 A 
ATOM     11  C   UNL     1      -9.842  50.169  49.367  0.00  0.00    +0.000 A 
ENDROOT
BRANCH   1  17
ATOM     12  S   UNL     1     -15.398  56.604  51.463  0.00  0.00    +0.000 S 
ATOM     13  O   UNL     1     -15.173  56.783  52.884  0.00  0.00    +0.000 OA
ATOM     14  O   UNL     1     -16.738  56.361  50.958  0.00  0.00    +0.000 OA
ATOM     15  N   UNL     1     -14.451  55.387  50.960  0.00  0.00    +0.000 N 
ATOM     16  C   UNL     1     -14.854  58.084  50.690  0.00  0.00    +0.000 A 
ATOM     17  C   UNL     1     -13.420  55.610  50.198  0.00  0.00    +0.000 C 
ATOM     18  C   UNL     1     -13.704  58.026  49.922  0.00  0.00    +0.000 A 
ATOM     19  C   UNL     1     -15.583  59.266  50.848  0.00  0.00    +0.000 A 
ATOM     20  N   UNL     1     -12.984  56.847  49.779  0.00  0.00    +0.000 N 
ATOM     21  C   UNL     1     -13.232  59.216  49.350  0.00  0.00    +0.000 A 
ATOM     22  C   UNL     1     -15.123  60.433  50.242  0.00  0.00    +0.000 A 
ATOM     23  C   UNL     1     -13.942  60.410  49.501  0.00  0.00    +0.000 A 
ATOM     24  H   UNL     1     -14.660  54.466  51.236  0.00  0.00    +0.000 HD
ATOM     25  H   UNL     1     -12.101  56.899  49.347  0.00  0.00    +0.000 HD
ENDBRANCH   1  17
BRANCH   3  26
ATOM     26  O   UNL     1     -12.726  53.363  51.913  0.00  0.00    +0.000 OA
ATOM     27  H   UNL     1     -12.306  53.922  52.536  0.00  0.00    +0.000 HD
ENDBRANCH   3  26
BRANCH  10  28
ATOM     28  N   UNL     1      -9.856  49.326  51.657  0.00  0.00    +0.000 N 
ATOM     29  H   UNL     1     -10.100  48.374  51.607  0.00  0.00    +0.000 HD
BRANCH  28  30
ATOM     30  C   UNL     1      -9.031  49.829  52.758  0.00  0.00    +0.000 C 
BRANCH  30  31
ATOM     31  C   UNL     1      -7.826  50.563  52.188  0.00  0.00    +0.000 C 
ATOM     32  O   UNL     1      -6.908  50.025  51.580  0.00  0.00    +0.000 OA
BRANCH  31  33
ATOM     33  O   UNL     1      -7.897  51.886  52.506  0.00  0.00    +0.000 OA
BRANCH  33  34
ATOM     34  C   UNL     1      -7.027  52.726  51.738  0.00  0.00    +0.000 C 
ATOM     35  C   UNL     1      -7.823  53.233  50.549  0.00  0.00    +0.000 C 
ENDBRANCH  33  34
ENDBRANCH  31  33
ENDBRANCH  30  31
ENDBRANCH  28  30
ENDBRANCH  10  28
BRANCH   5  36
ATOM     36  C   UNL     1     -11.046  53.161  46.481  0.00  0.00    +0.000 C 
BRANCH  36  37
ATOM     37  C   UNL     1     -10.030  54.233  46.050  0.00  0.00    +0.000 C 
BRANCH  37  38
ATOM     38  C   UNL     1      -8.676  54.229  46.776  0.00  0.00    +0.000 C 
ATOM     39  C   UNL     1      -7.495  54.169  45.809  0.00  0.00    +0.000 C 
ATOM     40  C   UNL     1      -8.576  55.495  47.636  0.00  0.00    +0.000 C 
ENDBRANCH  37  38
ENDBRANCH  36  37
ENDBRANCH   5  36
TORSDOF 10
ENDMDL
