MODEL 1
REMARK VINA RESULT:      -8.6      0.000      0.000
REMARK  Name = 338063
REMARK  8 active torsions:
REMARK  status: ('A' for Active; 'I' for Inactive)
REMARK    1  A    between atoms: C_6  and  C_10
REMARK    2  A    between atoms: C_14  and  O_18
REMARK    3  A    between atoms: N_17  and  C_21
REMARK    4  A    between atoms: C_21  and  C_24
REMARK    5  A    between atoms: C_24  and  C_27
REMARK    6  A    between atoms: C_25  and  C_28
REMARK    7  A    between atoms: C_27  and  C_29
REMARK    8  A    between atoms: C_27  and  C_30
REMARK                            x       y       z     vdW  Elec       q    Type
REMARK                         _______ _______ _______ _____ _____    ______ ____
ROOT
ATOM      1  C   UNL     1     -10.152  54.432  52.218  0.00  0.00    +0.000 A 
ATOM      2  C   UNL     1      -8.762  54.975  52.108  0.00  0.00    +0.000 A 
ATOM      3  C   UNL     1     -10.391  53.334  52.955  0.00  0.00    +0.000 A 
ATOM      4  O   UNL     1      -8.598  56.048  51.516  0.00  0.00    +0.000 OA
ATOM      5  N   UNL     1      -7.720  54.266  52.693  0.00  0.00    +0.000 N 
ATOM      6  C   UNL     1      -9.295  52.665  53.670  0.00  0.00    +0.000 A 
ATOM      7  C   UNL     1      -7.982  53.152  53.553  0.00  0.00    +0.000 A 
ATOM      8  C   UNL     1      -9.553  51.552  54.492  0.00  0.00    +0.000 A 
ATOM      9  C   UNL     1      -6.971  52.542  54.309  0.00  0.00    +0.000 A 
ATOM     10  C   UNL     1      -8.529  50.923  55.205  0.00  0.00    +0.000 A 
ATOM     11  C   UNL     1      -7.238  51.434  55.115  0.00  0.00    +0.000 A 
ATOM     12  C   UNL     1      -8.808  49.747  56.091  0.00  0.00    +0.000 C 
ENDROOT
BRANCH   1  18
ATOM     13  S   UNL     1     -12.406  56.008  49.406  0.00  0.00    +0.000 S 
ATOM     14  O   UNL     1     -13.286  55.040  48.783  0.00  0.00    +0.000 OA
ATOM     15  O   UNL     1     -11.720  57.001  48.601  0.00  0.00    +0.000 OA
ATOM     16  N   UNL     1     -11.285  55.187  50.243  0.00  0.00    +0.000 N 
ATOM     17  C   UNL     1     -13.395  56.908  50.543  0.00  0.00    +0.000 A 
ATOM     18  C   UNL     1     -11.290  55.178  51.544  0.00  0.00    +0.000 C 
ATOM     19  C   UNL     1     -13.178  56.699  51.895  0.00  0.00    +0.000 A 
ATOM     20  C   UNL     1     -14.352  57.811  50.075  0.00  0.00    +0.000 A 
ATOM     21  N   UNL     1     -12.225  55.790  52.348  0.00  0.00    +0.000 N 
ATOM     22  C   UNL     1     -14.001  57.370  52.806  0.00  0.00    +0.000 A 
ATOM     23  C   UNL     1     -15.139  58.500  50.995  0.00  0.00    +0.000 A 
ATOM     24  C   UNL     1     -14.970  58.272  52.360  0.00  0.00    +0.000 A 
ATOM     25  H   UNL     1     -10.589  54.687  49.758  0.00  0.00    +0.000 HD
ATOM     26  H   UNL     1     -12.221  55.569  53.307  0.00  0.00    +0.000 HD
ENDBRANCH   1  18
BRANCH   3  27
ATOM     27  O   UNL     1     -11.645  52.779  53.150  0.00  0.00    +0.000 OA
ATOM     28  H   UNL     1     -12.387  53.335  53.288  0.00  0.00    +0.000 HD
ENDBRANCH   3  27
BRANCH   5  29
ATOM     29  C   UNL     1      -6.357  54.777  52.509  0.00  0.00    +0.000 C 
BRANCH  29  30
ATOM     30  C   UNL     1      -5.532  54.121  51.387  0.00  0.00    +0.000 C 
BRANCH  30  31
ATOM     31  C   UNL     1      -4.223  53.431  51.803  0.00  0.00    +0.000 C 
ATOM     32  C   UNL     1      -3.849  53.715  53.256  0.00  0.00    +0.000 C 
ATOM     33  C   UNL     1      -4.378  51.919  51.594  0.00  0.00    +0.000 C 
ENDBRANCH  30  31
ENDBRANCH  29  30
ENDBRANCH   5  29
TORSDOF 5
ENDMDL
MODEL 2
REMARK VINA RESULT:      -8.2      3.655      5.387
REMARK  Name = 338063
REMARK  8 active torsions:
REMARK  status: ('A' for Active; 'I' for Inactive)
REMARK    1  A    between atoms: C_6  and  C_10
REMARK    2  A    between atoms: C_14  and  O_18
REMARK    3  A    between atoms: N_17  and  C_21
REMARK    4  A    between atoms: C_21  and  C_24
REMARK    5  A    between atoms: C_24  and  C_27
REMARK    6  A    between atoms: C_25  and  C_28
REMARK    7  A    between atoms: C_27  and  C_29
REMARK    8  A    between atoms: C_27  and  C_30
REMARK                            x       y       z     vdW  Elec       q    Type
REMARK                         _______ _______ _______ _____ _____    ______ ____
ROOT
ATOM      1  C   UNL     1     -11.352  56.135  48.748  0.00  0.00    +0.000 A 
ATOM      2  C   UNL     1     -10.164  55.706  49.551  0.00  0.00    +0.000 A 
ATOM      3  C   UNL     1     -11.524  55.674  47.498  0.00  0.00    +0.000 A 
ATOM      4  O   UNL     1     -10.098  56.061  50.733  0.00  0.00    +0.000 OA
ATOM      5  N   UNL     1      -9.200  54.912  48.942  0.00  0.00    +0.000 N 
ATOM      6  C   UNL     1     -10.557  54.735  46.912  0.00  0.00    +0.000 A 
ATOM      7  C   UNL     1      -9.424  54.346  47.647  0.00  0.00    +0.000 A 
ATOM      8  C   UNL     1     -10.768  54.203  45.626  0.00  0.00    +0.000 A 
ATOM      9  C   UNL     1      -8.563  53.389  47.093  0.00  0.00    +0.000 A 
ATOM     10  C   UNL     1      -9.876  53.284  45.066  0.00  0.00    +0.000 A 
ATOM     11  C   UNL     1      -8.778  52.874  45.814  0.00  0.00    +0.000 A 
ATOM     12  C   UNL     1     -10.111  52.707  43.702  0.00  0.00    +0.000 C 
ENDROOT
BRANCH   1  18
ATOM     13  S   UNL     1     -13.597  59.284  49.468  0.00  0.00    +0.000 S 
ATOM     14  O   UNL     1     -14.745  59.369  48.589  0.00  0.00    +0.000 OA
ATOM     15  O   UNL     1     -12.837  60.475  49.800  0.00  0.00    +0.000 OA
ATOM     16  N   UNL     1     -12.570  58.200  48.835  0.00  0.00    +0.000 N 
ATOM     17  C   UNL     1     -14.195  58.653  50.993  0.00  0.00    +0.000 A 
ATOM     18  C   UNL     1     -12.388  57.040  49.392  0.00  0.00    +0.000 C 
ATOM     19  C   UNL     1     -13.834  57.362  51.343  0.00  0.00    +0.000 A 
ATOM     20  C   UNL     1     -14.992  59.450  51.817  0.00  0.00    +0.000 A 
ATOM     21  N   UNL     1     -13.044  56.574  50.510  0.00  0.00    +0.000 N 
ATOM     22  C   UNL     1     -14.353  56.832  52.531  0.00  0.00    +0.000 A 
ATOM     23  C   UNL     1     -15.472  58.922  53.012  0.00  0.00    +0.000 A 
ATOM     24  C   UNL     1     -15.160  57.610  53.365  0.00  0.00    +0.000 A 
ATOM     25  H   UNL     1     -12.075  58.425  48.013  0.00  0.00    +0.000 HD
ATOM     26  H   UNL     1     -12.948  55.620  50.735  0.00  0.00    +0.000 HD
ENDBRANCH   1  18
BRANCH   3  27
ATOM     27  O   UNL     1     -12.609  55.980  46.693  0.00  0.00    +0.000 OA
ATOM     28  H   UNL     1     -13.287  56.542  47.013  0.00  0.00    +0.000 HD
ENDBRANCH   3  27
BRANCH   5  29
ATOM     29  C   UNL     1      -8.006  54.566  49.724  0.00  0.00    +0.000 C 
BRANCH  29  30
ATOM     30  C   UNL     1      -6.828  55.553  49.637  0.00  0.00    +0.000 C 
BRANCH  30  31
ATOM     31  C   UNL     1      -5.415  54.952  49.709  0.00  0.00    +0.000 C 
ATOM     32  C   UNL     1      -5.166  54.202  51.015  0.00  0.00    +0.000 C 
ATOM     33  C   UNL     1      -5.226  54.000  48.521  0.00  0.00    +0.000 C 
ENDBRANCH  30  31
ENDBRANCH  29  30
ENDBRANCH   5  29
TORSDOF 5
ENDMDL
MODEL 3
REMARK VINA RESULT:      -8.2      1.542      2.226
REMARK  Name = 338063
REMARK  8 active torsions:
REMARK  status: ('A' for Active; 'I' for Inactive)
REMARK    1  A    between atoms: C_6  and  C_10
REMARK    2  A    between atoms: C_14  and  O_18
REMARK    3  A    between atoms: N_17  and  C_21
REMARK    4  A    between atoms: C_21  and  C_24
REMARK    5  A    between atoms: C_24  and  C_27
REMARK    6  A    between atoms: C_25  and  C_28
REMARK    7  A    between atoms: C_27  and  C_29
REMARK    8  A    between atoms: C_27  and  C_30
REMARK                            x       y       z     vdW  Elec       q    Type
REMARK                         _______ _______ _______ _____ _____    ______ ____
ROOT
ATOM      1  C   UNL     1     -10.123  54.581  52.116  0.00  0.00    +0.000 A 
ATOM      2  C   UNL     1      -8.721  55.100  52.052  0.00  0.00    +0.000 A 
ATOM      3  C   UNL     1     -10.401  53.476  52.828  0.00  0.00    +0.000 A 
ATOM      4  O   UNL     1      -8.522  56.179  51.481  0.00  0.00    +0.000 OA
ATOM      5  N   UNL     1      -7.708  54.362  52.652  0.00  0.00    +0.000 N 
ATOM      6  C   UNL     1      -9.337  52.776  53.560  0.00  0.00    +0.000 A 
ATOM      7  C   UNL     1      -8.013  53.239  53.486  0.00  0.00    +0.000 A 
ATOM      8  C   UNL     1      -9.638  51.654  54.357  0.00  0.00    +0.000 A 
ATOM      9  C   UNL     1      -7.034  52.598  54.258  0.00  0.00    +0.000 A 
ATOM     10  C   UNL     1      -8.644  50.995  55.086  0.00  0.00    +0.000 A 
ATOM     11  C   UNL     1      -7.342  51.483  55.039  0.00  0.00    +0.000 A 
ATOM     12  C   UNL     1      -8.969  49.810  55.945  0.00  0.00    +0.000 C 
ENDROOT
BRANCH   1  18
ATOM     13  S   UNL     1     -13.502  56.508  51.536  0.00  0.00    +0.000 S 
ATOM     14  O   UNL     1     -13.449  57.884  51.988  0.00  0.00    +0.000 OA
ATOM     15  O   UNL     1     -14.682  55.700  51.784  0.00  0.00    +0.000 OA
ATOM     16  N   UNL     1     -12.226  55.732  52.170  0.00  0.00    +0.000 N 
ATOM     17  C   UNL     1     -13.309  56.558  49.792  0.00  0.00    +0.000 A 
ATOM     18  C   UNL     1     -11.229  55.359  51.424  0.00  0.00    +0.000 C 
ATOM     19  C   UNL     1     -12.121  56.082  49.261  0.00  0.00    +0.000 A 
ATOM     20  C   UNL     1     -14.338  57.050  48.987  0.00  0.00    +0.000 A 
ATOM     21  N   UNL     1     -11.099  55.600  50.074  0.00  0.00    +0.000 N 
ATOM     22  C   UNL     1     -11.937  56.171  47.876  0.00  0.00    +0.000 A 
ATOM     23  C   UNL     1     -14.156  57.098  47.608  0.00  0.00    +0.000 A 
ATOM     24  C   UNL     1     -12.951  56.667  47.053  0.00  0.00    +0.000 A 
ATOM     25  H   UNL     1     -12.207  55.541  53.136  0.00  0.00    +0.000 HD
ATOM     26  H   UNL     1     -10.226  55.421  49.657  0.00  0.00    +0.000 HD
ENDBRANCH   1  18
BRANCH   3  27
ATOM     27  O   UNL     1     -11.670  52.943  52.981  0.00  0.00    +0.000 OA
ATOM     28  H   UNL     1     -11.775  52.055  53.263  0.00  0.00    +0.000 HD
ENDBRANCH   3  27
BRANCH   5  29
ATOM     29  C   UNL     1      -6.331  54.851  52.512  0.00  0.00    +0.000 C 
BRANCH  29  30
ATOM     30  C   UNL     1      -5.598  54.451  51.218  0.00  0.00    +0.000 C 
BRANCH  30  31
ATOM     31  C   UNL     1      -4.530  53.351  51.339  0.00  0.00    +0.000 C 
ATOM     32  C   UNL     1      -3.848  53.347  52.705  0.00  0.00    +0.000 C 
ATOM     33  C   UNL     1      -5.196  51.992  51.090  0.00  0.00    +0.000 C 
ENDBRANCH  30  31
ENDBRANCH  29  30
ENDBRANCH   5  29
TORSDOF 5
ENDMDL
MODEL 4
REMARK VINA RESULT:      -8.1      3.657      4.699
REMARK  Name = 338063
REMARK  8 active torsions:
REMARK  status: ('A' for Active; 'I' for Inactive)
REMARK    1  A    between atoms: C_6  and  C_10
REMARK    2  A    between atoms: C_14  and  O_18
REMARK    3  A    between atoms: N_17  and  C_21
REMARK    4  A    between atoms: C_21  and  C_24
REMARK    5  A    between atoms: C_24  and  C_27
REMARK    6  A    between atoms: C_25  and  C_28
REMARK    7  A    between atoms: C_27  and  C_29
REMARK    8  A    between atoms: C_27  and  C_30
REMARK                            x       y       z     vdW  Elec       q    Type
REMARK                         _______ _______ _______ _____ _____    ______ ____
ROOT
ATOM      1  C   UNL     1     -12.330  54.315  49.891  0.00  0.00    +0.000 A 
ATOM      2  C   UNL     1     -11.877  54.155  48.474  0.00  0.00    +0.000 A 
ATOM      3  C   UNL     1     -11.941  53.433  50.827  0.00  0.00    +0.000 A 
ATOM      4  O   UNL     1     -12.161  55.045  47.664  0.00  0.00    +0.000 OA
ATOM      5  N   UNL     1     -11.141  53.026  48.132  0.00  0.00    +0.000 N 
ATOM      6  C   UNL     1     -11.060  52.312  50.473  0.00  0.00    +0.000 A 
ATOM      7  C   UNL     1     -10.650  52.137  49.140  0.00  0.00    +0.000 A 
ATOM      8  C   UNL     1     -10.602  51.423  51.463  0.00  0.00    +0.000 A 
ATOM      9  C   UNL     1      -9.745  51.107  48.847  0.00  0.00    +0.000 A 
ATOM     10  C   UNL     1      -9.737  50.371  51.151  0.00  0.00    +0.000 A 
ATOM     11  C   UNL     1      -9.304  50.226  49.836  0.00  0.00    +0.000 A 
ATOM     12  C   UNL     1      -9.239  49.434  52.209  0.00  0.00    +0.000 C 
ENDROOT
BRANCH   1  18
ATOM     13  S   UNL     1     -15.319  56.478  51.253  0.00  0.00    +0.000 S 
ATOM     14  O   UNL     1     -15.288  56.636  52.693  0.00  0.00    +0.000 OA
ATOM     15  O   UNL     1     -16.574  56.230  50.569  0.00  0.00    +0.000 OA
ATOM     16  N   UNL     1     -14.297  55.279  50.867  0.00  0.00    +0.000 N 
ATOM     17  C   UNL     1     -14.692  57.975  50.584  0.00  0.00    +0.000 A 
ATOM     18  C   UNL     1     -13.172  55.523  50.263  0.00  0.00    +0.000 C 
ATOM     19  C   UNL     1     -13.444  57.941  49.984  0.00  0.00    +0.000 A 
ATOM     20  C   UNL     1     -15.452  59.145  50.652  0.00  0.00    +0.000 A 
ATOM     21  N   UNL     1     -12.693  56.770  49.928  0.00  0.00    +0.000 N 
ATOM     22  C   UNL     1     -12.913  59.142  49.498  0.00  0.00    +0.000 A 
ATOM     23  C   UNL     1     -14.926  60.325  50.132  0.00  0.00    +0.000 A 
ATOM     24  C   UNL     1     -13.653  60.326  49.564  0.00  0.00    +0.000 A 
ATOM     25  H   UNL     1     -14.533  54.351  51.094  0.00  0.00    +0.000 HD
ATOM     26  H   UNL     1     -11.757  56.838  49.631  0.00  0.00    +0.000 HD
ENDBRANCH   1  18
BRANCH   3  27
ATOM     27  O   UNL     1     -12.273  53.519  52.169  0.00  0.00    +0.000 OA
ATOM     28  H   UNL     1     -11.730  53.111  52.814  0.00  0.00    +0.000 HD
ENDBRANCH   3  27
BRANCH   5  29
ATOM     29  C   UNL     1     -10.772  52.852  46.722  0.00  0.00    +0.000 C 
BRANCH  29  30
ATOM     30  C   UNL     1      -9.317  53.191  46.354  0.00  0.00    +0.000 C 
BRANCH  30  31
ATOM     31  C   UNL     1      -8.965  54.682  46.218  0.00  0.00    +0.000 C 
ATOM     32  C   UNL     1      -8.551  55.307  47.548  0.00  0.00    +0.000 C 
ATOM     33  C   UNL     1      -7.826  54.826  45.202  0.00  0.00    +0.000 C 
ENDBRANCH  30  31
ENDBRANCH  29  30
ENDBRANCH   5  29
TORSDOF 5
ENDMDL
MODEL 5
REMARK VINA RESULT:      -8.0      3.822      5.520
REMARK  Name = 338063
REMARK  8 active torsions:
REMARK  status: ('A' for Active; 'I' for Inactive)
REMARK    1  A    between atoms: C_6  and  C_10
REMARK    2  A    between atoms: C_14  and  O_18
REMARK    3  A    between atoms: N_17  and  C_21
REMARK    4  A    between atoms: C_21  and  C_24
REMARK    5  A    between atoms: C_24  and  C_27
REMARK    6  A    between atoms: C_25  and  C_28
REMARK    7  A    between atoms: C_27  and  C_29
REMARK    8  A    between atoms: C_27  and  C_30
REMARK                            x       y       z     vdW  Elec       q    Type
REMARK                         _______ _______ _______ _____ _____    ______ ____
ROOT
ATOM      1  C   UNL     1     -10.915  55.531  48.759  0.00  0.00    +0.000 A 
ATOM      2  C   UNL     1      -9.652  55.076  49.418  0.00  0.00    +0.000 A 
ATOM      3  C   UNL     1     -11.169  55.196  47.482  0.00  0.00    +0.000 A 
ATOM      4  O   UNL     1      -9.505  55.307  50.624  0.00  0.00    +0.000 OA
ATOM      5  N   UNL     1      -8.709  54.396  48.657  0.00  0.00    +0.000 N 
ATOM      6  C   UNL     1     -10.216  54.371  46.727  0.00  0.00    +0.000 A 
ATOM      7  C   UNL     1      -9.015  53.959  47.329  0.00  0.00    +0.000 A 
ATOM      8  C   UNL     1     -10.509  53.967  45.410  0.00  0.00    +0.000 A 
ATOM      9  C   UNL     1      -8.164  53.106  46.611  0.00  0.00    +0.000 A 
ATOM     10  C   UNL     1      -9.630  53.155  44.688  0.00  0.00    +0.000 A 
ATOM     11  C   UNL     1      -8.461  52.719  45.303  0.00  0.00    +0.000 A 
ATOM     12  C   UNL     1      -9.950  52.715  43.292  0.00  0.00    +0.000 C 
ENDROOT
BRANCH   1  18
ATOM     13  S   UNL     1     -13.596  56.401  51.502  0.00  0.00    +0.000 S 
ATOM     14  O   UNL     1     -13.003  56.733  52.782  0.00  0.00    +0.000 OA
ATOM     15  O   UNL     1     -14.784  55.571  51.437  0.00  0.00    +0.000 OA
ATOM     16  N   UNL     1     -12.449  55.699  50.595  0.00  0.00    +0.000 N 
ATOM     17  C   UNL     1     -14.033  57.929  50.756  0.00  0.00    +0.000 A 
ATOM     18  C   UNL     1     -11.931  56.314  49.573  0.00  0.00    +0.000 C 
ATOM     19  C   UNL     1     -13.298  58.345  49.658  0.00  0.00    +0.000 A 
ATOM     20  C   UNL     1     -15.101  58.674  51.260  0.00  0.00    +0.000 A 
ATOM     21  N   UNL     1     -12.230  57.596  49.169  0.00  0.00    +0.000 N 
ATOM     22  C   UNL     1     -13.604  59.588  49.092  0.00  0.00    +0.000 A 
ATOM     23  C   UNL     1     -15.418  59.893  50.665  0.00  0.00    +0.000 A 
ATOM     24  C   UNL     1     -14.663  60.354  49.587  0.00  0.00    +0.000 A 
ATOM     25  H   UNL     1     -12.140  54.792  50.823  0.00  0.00    +0.000 HD
ATOM     26  H   UNL     1     -11.651  58.011  48.490  0.00  0.00    +0.000 HD
ENDBRANCH   1  18
BRANCH   3  27
ATOM     27  O   UNL     1     -12.325  55.535  46.799  0.00  0.00    +0.000 OA
ATOM     28  H   UNL     1     -12.413  56.388  46.420  0.00  0.00    +0.000 HD
ENDBRANCH   3  27
BRANCH   5  29
ATOM     29  C   UNL     1      -7.445  54.025  49.305  0.00  0.00    +0.000 C 
BRANCH  29  30
ATOM     30  C   UNL     1      -6.332  55.087  49.277  0.00  0.00    +0.000 C 
BRANCH  30  31
ATOM     31  C   UNL     1      -4.883  54.573  49.314  0.00  0.00    +0.000 C 
ATOM     32  C   UNL     1      -4.523  53.937  50.655  0.00  0.00    +0.000 C 
ATOM     33  C   UNL     1      -4.698  53.546  48.190  0.00  0.00    +0.000 C 
ENDBRANCH  30  31
ENDBRANCH  29  30
ENDBRANCH   5  29
TORSDOF 5
ENDMDL
MODEL 6
REMARK VINA RESULT:      -7.8      3.207      7.495
REMARK  Name = 338063
REMARK  8 active torsions:
REMARK  status: ('A' for Active; 'I' for Inactive)
REMARK    1  A    between atoms: C_6  and  C_10
REMARK    2  A    between atoms: C_14  and  O_18
REMARK    3  A    between atoms: N_17  and  C_21
REMARK    4  A    between atoms: C_21  and  C_24
REMARK    5  A    between atoms: C_24  and  C_27
REMARK    6  A    between atoms: C_25  and  C_28
REMARK    7  A    between atoms: C_27  and  C_29
REMARK    8  A    between atoms: C_27  and  C_30
REMARK                            x       y       z     vdW  Elec       q    Type
REMARK                         _______ _______ _______ _____ _____    ______ ____
ROOT
ATOM      1  C   UNL     1     -10.058  55.130  51.045  0.00  0.00    +0.000 A 
ATOM      2  C   UNL     1      -9.757  55.131  49.579  0.00  0.00    +0.000 A 
ATOM      3  C   UNL     1     -11.274  55.493  51.485  0.00  0.00    +0.000 A 
ATOM      4  O   UNL     1      -8.667  54.684  49.205  0.00  0.00    +0.000 OA
ATOM      5  N   UNL     1     -10.721  55.612  48.701  0.00  0.00    +0.000 N 
ATOM      6  C   UNL     1     -12.323  55.882  50.533  0.00  0.00    +0.000 A 
ATOM      7  C   UNL     1     -12.045  55.912  49.156  0.00  0.00    +0.000 A 
ATOM      8  C   UNL     1     -13.617  56.204  50.987  0.00  0.00    +0.000 A 
ATOM      9  C   UNL     1     -13.087  56.209  48.267  0.00  0.00    +0.000 A 
ATOM     10  C   UNL     1     -14.637  56.544  50.094  0.00  0.00    +0.000 A 
ATOM     11  C   UNL     1     -14.363  56.534  48.730  0.00  0.00    +0.000 A 
ATOM     12  C   UNL     1     -16.016  56.872  50.579  0.00  0.00    +0.000 C 
ENDROOT
BRANCH   1  18
ATOM     13  S   UNL     1      -6.608  54.795  52.905  0.00  0.00    +0.000 S 
ATOM     14  O   UNL     1      -6.417  55.809  53.922  0.00  0.00    +0.000 OA
ATOM     15  O   UNL     1      -5.512  54.416  52.032  0.00  0.00    +0.000 OA
ATOM     16  N   UNL     1      -7.849  55.262  51.970  0.00  0.00    +0.000 N 
ATOM     17  C   UNL     1      -7.077  53.332  53.755  0.00  0.00    +0.000 A 
ATOM     18  C   UNL     1      -8.993  54.647  52.015  0.00  0.00    +0.000 C 
ATOM     19  C   UNL     1      -8.385  52.897  53.617  0.00  0.00    +0.000 A 
ATOM     20  C   UNL     1      -6.140  52.639  54.525  0.00  0.00    +0.000 A 
ATOM     21  N   UNL     1      -9.311  53.601  52.852  0.00  0.00    +0.000 N 
ATOM     22  C   UNL     1      -8.781  51.763  54.337  0.00  0.00    +0.000 A 
ATOM     23  C   UNL     1      -6.539  51.492  55.206  0.00  0.00    +0.000 A 
ATOM     24  C   UNL     1      -7.862  51.060  55.120  0.00  0.00    +0.000 A 
ATOM     25  H   UNL     1      -7.733  56.025  51.358  0.00  0.00    +0.000 HD
ATOM     26  H   UNL     1     -10.257  53.334  52.915  0.00  0.00    +0.000 HD
ENDBRANCH   1  18
BRANCH   3  27
ATOM     27  O   UNL     1     -11.660  55.487  52.815  0.00  0.00    +0.000 OA
ATOM     28  H   UNL     1     -11.086  55.828  53.472  0.00  0.00    +0.000 HD
ENDBRANCH   3  27
BRANCH   5  29
ATOM     29  C   UNL     1     -10.376  55.675  47.276  0.00  0.00    +0.000 C 
BRANCH  29  30
ATOM     30  C   UNL     1     -10.644  54.399  46.457  0.00  0.00    +0.000 C 
BRANCH  30  31
ATOM     31  C   UNL     1      -9.423  53.723  45.810  0.00  0.00    +0.000 C 
ATOM     32  C   UNL     1      -9.737  53.151  44.430  0.00  0.00    +0.000 C 
ATOM     33  C   UNL     1      -8.293  54.753  45.699  0.00  0.00    +0.000 C 
ENDBRANCH  30  31
ENDBRANCH  29  30
ENDBRANCH   5  29
TORSDOF 5
ENDMDL
MODEL 7
REMARK VINA RESULT:      -7.7      4.522      7.144
REMARK  Name = 338063
REMARK  8 active torsions:
REMARK  status: ('A' for Active; 'I' for Inactive)
REMARK    1  A    between atoms: C_6  and  C_10
REMARK    2  A    between atoms: C_14  and  O_18
REMARK    3  A    between atoms: N_17  and  C_21
REMARK    4  A    between atoms: C_21  and  C_24
REMARK    5  A    between atoms: C_24  and  C_27
REMARK    6  A    between atoms: C_25  and  C_28
REMARK    7  A    between atoms: C_27  and  C_29
REMARK    8  A    between atoms: C_27  and  C_30
REMARK                            x       y       z     vdW  Elec       q    Type
REMARK                         _______ _______ _______ _____ _____    ______ ____
ROOT
ATOM      1  C   UNL     1     -10.794  54.464  48.692  0.00  0.00    +0.000 A 
ATOM      2  C   UNL     1     -10.309  54.019  50.037  0.00  0.00    +0.000 A 
ATOM      3  C   UNL     1     -11.799  55.350  48.597  0.00  0.00    +0.000 A 
ATOM      4  O   UNL     1      -9.311  53.291  50.088  0.00  0.00    +0.000 OA
ATOM      5  N   UNL     1     -10.986  54.459  51.168  0.00  0.00    +0.000 N 
ATOM      6  C   UNL     1     -12.423  55.900  49.808  0.00  0.00    +0.000 A 
ATOM      7  C   UNL     1     -11.994  55.470  51.075  0.00  0.00    +0.000 A 
ATOM      8  C   UNL     1     -13.435  56.874  49.710  0.00  0.00    +0.000 A 
ATOM      9  C   UNL     1     -12.553  56.072  52.212  0.00  0.00    +0.000 A 
ATOM     10  C   UNL     1     -14.017  57.433  50.851  0.00  0.00    +0.000 A 
ATOM     11  C   UNL     1     -13.560  57.031  52.102  0.00  0.00    +0.000 A 
ATOM     12  C   UNL     1     -15.083  58.481  50.745  0.00  0.00    +0.000 C 
ENDROOT
BRANCH   1  18
ATOM     13  S   UNL     1      -8.040  53.966  45.928  0.00  0.00    +0.000 S 
ATOM     14  O   UNL     1      -6.993  53.053  46.336  0.00  0.00    +0.000 OA
ATOM     15  O   UNL     1      -7.713  55.183  45.209  0.00  0.00    +0.000 OA
ATOM     16  N   UNL     1      -8.875  54.383  47.255  0.00  0.00    +0.000 N 
ATOM     17  C   UNL     1      -9.102  53.051  44.871  0.00  0.00    +0.000 A 
ATOM     18  C   UNL     1     -10.087  53.952  47.449  0.00  0.00    +0.000 C 
ATOM     19  C   UNL     1     -10.363  52.727  45.346  0.00  0.00    +0.000 A 
ATOM     20  C   UNL     1      -8.674  52.687  43.593  0.00  0.00    +0.000 A 
ATOM     21  N   UNL     1     -10.776  53.090  46.625  0.00  0.00    +0.000 N 
ATOM     22  C   UNL     1     -11.194  51.950  44.531  0.00  0.00    +0.000 A 
ATOM     23  C   UNL     1      -9.526  51.944  42.779  0.00  0.00    +0.000 A 
ATOM     24  C   UNL     1     -10.782  51.568  43.252  0.00  0.00    +0.000 A 
ATOM     25  H   UNL     1      -8.457  54.971  47.924  0.00  0.00    +0.000 HD
ATOM     26  H   UNL     1     -11.615  52.703  46.964  0.00  0.00    +0.000 HD
ENDBRANCH   1  18
BRANCH   3  27
ATOM     27  O   UNL     1     -12.290  55.851  47.402  0.00  0.00    +0.000 OA
ATOM     28  H   UNL     1     -12.600  55.265  46.741  0.00  0.00    +0.000 HD
ENDBRANCH   3  27
BRANCH   5  29
ATOM     29  C   UNL     1     -10.540  53.950  52.471  0.00  0.00    +0.000 C 
BRANCH  29  30
ATOM     30  C   UNL     1      -9.655  54.896  53.302  0.00  0.00    +0.000 C 
BRANCH  30  31
ATOM     31  C   UNL     1      -8.153  54.905  52.975  0.00  0.00    +0.000 C 
ATOM     32  C   UNL     1      -7.793  55.942  51.914  0.00  0.00    +0.000 C 
ATOM     33  C   UNL     1      -7.371  55.190  54.263  0.00  0.00    +0.000 C 
ENDBRANCH  30  31
ENDBRANCH  29  30
ENDBRANCH   5  29
TORSDOF 5
ENDMDL
MODEL 8
REMARK VINA RESULT:      -7.7      3.077      7.679
REMARK  Name = 338063
REMARK  8 active torsions:
REMARK  status: ('A' for Active; 'I' for Inactive)
REMARK    1  A    between atoms: C_6  and  C_10
REMARK    2  A    between atoms: C_14  and  O_18
REMARK    3  A    between atoms: N_17  and  C_21
REMARK    4  A    between atoms: C_21  and  C_24
REMARK    5  A    between atoms: C_24  and  C_27
REMARK    6  A    between atoms: C_25  and  C_28
REMARK    7  A    between atoms: C_27  and  C_29
REMARK    8  A    between atoms: C_27  and  C_30
REMARK                            x       y       z     vdW  Elec       q    Type
REMARK                         _______ _______ _______ _____ _____    ______ ____
ROOT
ATOM      1  C   UNL     1     -10.114  54.138  51.162  0.00  0.00    +0.000 A 
ATOM      2  C   UNL     1     -10.600  53.856  49.775  0.00  0.00    +0.000 A 
ATOM      3  C   UNL     1     -10.820  54.943  51.974  0.00  0.00    +0.000 A 
ATOM      4  O   UNL     1      -9.987  53.024  49.098  0.00  0.00    +0.000 OA
ATOM      5  N   UNL     1     -11.730  54.523  49.316  0.00  0.00    +0.000 N 
ATOM      6  C   UNL     1     -12.079  55.544  51.514  0.00  0.00    +0.000 A 
ATOM      7  C   UNL     1     -12.532  55.307  50.205  0.00  0.00    +0.000 A 
ATOM      8  C   UNL     1     -12.851  56.338  52.383  0.00  0.00    +0.000 A 
ATOM      9  C   UNL     1     -13.776  55.828  49.821  0.00  0.00    +0.000 A 
ATOM     10  C   UNL     1     -14.068  56.891  51.974  0.00  0.00    +0.000 A 
ATOM     11  C   UNL     1     -14.529  56.620  50.689  0.00  0.00    +0.000 A 
ATOM     12  C   UNL     1     -14.895  57.724  52.905  0.00  0.00    +0.000 C 
ENDROOT
BRANCH   1  18
ATOM     13  S   UNL     1      -7.756  51.704  53.158  0.00  0.00    +0.000 S 
ATOM     14  O   UNL     1      -7.705  50.374  52.585  0.00  0.00    +0.000 OA
ATOM     15  O   UNL     1      -7.823  51.880  54.597  0.00  0.00    +0.000 OA
ATOM     16  N   UNL     1      -9.024  52.475  52.503  0.00  0.00    +0.000 N 
ATOM     17  C   UNL     1      -6.288  52.516  52.641  0.00  0.00    +0.000 A 
ATOM     18  C   UNL     1      -8.855  53.447  51.656  0.00  0.00    +0.000 C 
ATOM     19  C   UNL     1      -6.408  53.537  51.712  0.00  0.00    +0.000 A 
ATOM     20  C   UNL     1      -5.054  52.138  53.174  0.00  0.00    +0.000 A 
ATOM     21  N   UNL     1      -7.644  53.900  51.183  0.00  0.00    +0.000 N 
ATOM     22  C   UNL     1      -5.237  54.151  51.253  0.00  0.00    +0.000 A 
ATOM     23  C   UNL     1      -3.900  52.782  52.734  0.00  0.00    +0.000 A 
ATOM     24  C   UNL     1      -3.991  53.782  51.767  0.00  0.00    +0.000 A 
ATOM     25  H   UNL     1      -9.937  52.202  52.752  0.00  0.00    +0.000 HD
ATOM     26  H   UNL     1      -7.652  54.521  50.419  0.00  0.00    +0.000 HD
ENDBRANCH   1  18
BRANCH   3  27
ATOM     27  O   UNL     1     -10.474  55.232  53.283  0.00  0.00    +0.000 OA
ATOM     28  H   UNL     1     -11.012  55.804  53.795  0.00  0.00    +0.000 HD
ENDBRANCH   3  27
BRANCH   5  29
ATOM     29  C   UNL     1     -12.144  54.288  47.927  0.00  0.00    +0.000 C 
BRANCH  29  30
ATOM     30  C   UNL     1     -11.674  55.328  46.894  0.00  0.00    +0.000 C 
BRANCH  30  31
ATOM     31  C   UNL     1     -10.503  54.920  45.985  0.00  0.00    +0.000 C 
ATOM     32  C   UNL     1      -9.144  55.228  46.609  0.00  0.00    +0.000 C 
ATOM     33  C   UNL     1     -10.608  53.417  45.694  0.00  0.00    +0.000 C 
ENDBRANCH  30  31
ENDBRANCH  29  30
ENDBRANCH   5  29
TORSDOF 5
ENDMDL
MODEL 9
REMARK VINA RESULT:      -7.6      3.567      4.949
REMARK  Name = 338063
REMARK  8 active torsions:
REMARK  status: ('A' for Active; 'I' for Inactive)
REMARK    1  A    between atoms: C_6  and  C_10
REMARK    2  A    between atoms: C_14  and  O_18
REMARK    3  A    between atoms: N_17  and  C_21
REMARK    4  A    between atoms: C_21  and  C_24
REMARK    5  A    between atoms: C_24  and  C_27
REMARK    6  A    between atoms: C_25  and  C_28
REMARK    7  A    between atoms: C_27  and  C_29
REMARK    8  A    between atoms: C_27  and  C_30
REMARK                            x       y       z     vdW  Elec       q    Type
REMARK                         _______ _______ _______ _____ _____    ______ ____
ROOT
ATOM      1  C   UNL     1     -11.332  55.319  49.532  0.00  0.00    +0.000 A 
ATOM      2  C   UNL     1     -11.418  54.662  48.190  0.00  0.00    +0.000 A 
ATOM      3  C   UNL     1     -10.346  54.987  50.383  0.00  0.00    +0.000 A 
ATOM      4  O   UNL     1     -12.268  55.072  47.392  0.00  0.00    +0.000 OA
ATOM      5  N   UNL     1     -10.527  53.638  47.890  0.00  0.00    +0.000 N 
ATOM      6  C   UNL     1      -9.338  53.989  50.001  0.00  0.00    +0.000 A 
ATOM      7  C   UNL     1      -9.424  53.347  48.754  0.00  0.00    +0.000 A 
ATOM      8  C   UNL     1      -8.270  53.685  50.867  0.00  0.00    +0.000 A 
ATOM      9  C   UNL     1      -8.404  52.459  48.385  0.00  0.00    +0.000 A 
ATOM     10  C   UNL     1      -7.283  52.763  50.507  0.00  0.00    +0.000 A 
ATOM     11  C   UNL     1      -7.354  52.160  49.254  0.00  0.00    +0.000 A 
ATOM     12  C   UNL     1      -6.139  52.452  51.423  0.00  0.00    +0.000 C 
ENDROOT
BRANCH   1  18
ATOM     13  S   UNL     1     -13.334  58.702  49.400  0.00  0.00    +0.000 S 
ATOM     14  O   UNL     1     -14.398  58.686  48.418  0.00  0.00    +0.000 OA
ATOM     15  O   UNL     1     -12.498  59.877  49.558  0.00  0.00    +0.000 OA
ATOM     16  N   UNL     1     -12.362  57.439  49.093  0.00  0.00    +0.000 N 
ATOM     17  C   UNL     1     -14.101  58.442  50.958  0.00  0.00    +0.000 A 
ATOM     18  C   UNL     1     -12.329  56.408  49.884  0.00  0.00    +0.000 C 
ATOM     19  C   UNL     1     -13.886  57.227  51.589  0.00  0.00    +0.000 A 
ATOM     20  C   UNL     1     -14.885  59.447  51.528  0.00  0.00    +0.000 A 
ATOM     21  N   UNL     1     -13.108  56.230  51.006  0.00  0.00    +0.000 N 
ATOM     22  C   UNL     1     -14.540  56.991  52.804  0.00  0.00    +0.000 A 
ATOM     23  C   UNL     1     -15.501  59.212  52.755  0.00  0.00    +0.000 A 
ATOM     24  C   UNL     1     -15.336  57.980  53.388  0.00  0.00    +0.000 A 
ATOM     25  H   UNL     1     -11.787  57.455  48.293  0.00  0.00    +0.000 HD
ATOM     26  H   UNL     1     -13.116  55.339  51.424  0.00  0.00    +0.000 HD
ENDBRANCH   1  18
BRANCH   3  27
ATOM     27  O   UNL     1     -10.159  55.565  51.628  0.00  0.00    +0.000 OA
ATOM     28  H   UNL     1      -9.545  55.194  52.230  0.00  0.00    +0.000 HD
ENDBRANCH   3  27
BRANCH   5  29
ATOM     29  C   UNL     1     -10.679  52.958  46.598  0.00  0.00    +0.000 C 
BRANCH  29  30
ATOM     30  C   UNL     1     -10.165  53.722  45.365  0.00  0.00    +0.000 C 
BRANCH  30  31
ATOM     31  C   UNL     1      -8.708  53.461  44.946  0.00  0.00    +0.000 C 
ATOM     32  C   UNL     1      -8.581  53.103  43.467  0.00  0.00    +0.000 C 
ATOM     33  C   UNL     1      -7.879  54.716  45.248  0.00  0.00    +0.000 C 
ENDBRANCH  30  31
ENDBRANCH  29  30
ENDBRANCH   5  29
TORSDOF 5
ENDMDL
