MODEL 1
REMARK VINA RESULT:      -8.6      0.000      0.000
REMARK  Name = 338168
REMARK  5 active torsions:
REMARK  status: ('A' for Active; 'I' for Inactive)
REMARK    1  A    between atoms: C_6  and  C_10
REMARK    2  A    between atoms: C_14  and  O_18
REMARK    3  A    between atoms: N_17  and  C_21
REMARK    4  A    between atoms: C_21  and  C_24
REMARK    5  A    between atoms: C_24  and  C_27
REMARK                            x       y       z     vdW  Elec       q    Type
REMARK                         _______ _______ _______ _____ _____    ______ ____
ROOT
ATOM      1  C   UNL     1      -9.988  54.549  52.373  0.00  0.00    +0.000 A 
ATOM      2  C   UNL     1      -8.592  55.051  52.256  0.00  0.00    +0.000 A 
ATOM      3  C   UNL     1     -10.243  53.422  53.058  0.00  0.00    +0.000 A 
ATOM      4  O   UNL     1      -8.388  55.987  51.481  0.00  0.00    +0.000 OA
ATOM      5  N   UNL     1      -7.597  54.470  53.046  0.00  0.00    +0.000 N 
ATOM      6  C   UNL     1      -9.163  52.708  53.747  0.00  0.00    +0.000 A 
ATOM      7  C   UNL     1      -7.859  53.245  53.758  0.00  0.00    +0.000 A 
ATOM      8  C   UNL     1      -9.443  51.513  54.435  0.00  0.00    +0.000 A 
ATOM      9  C   UNL     1      -6.865  52.547  54.471  0.00  0.00    +0.000 A 
ATOM     10  C   UNL     1      -8.449  50.866  55.147  0.00  0.00    +0.000 A 
ATOM     11  C   UNL     1      -7.162  51.374  55.173  0.00  0.00    +0.000 A 
ATOM     12  F   UNL     1      -8.735  49.747  55.823  0.00  0.00    +0.000 F 
ENDROOT
BRANCH   1  18
ATOM     13  S   UNL     1     -12.370  55.791  49.433  0.00  0.00    +0.000 S 
ATOM     14  O   UNL     1     -13.042  54.544  49.141  0.00  0.00    +0.000 OA
ATOM     15  O   UNL     1     -11.932  56.687  48.385  0.00  0.00    +0.000 OA
ATOM     16  N   UNL     1     -11.049  55.462  50.363  0.00  0.00    +0.000 N 
ATOM     17  C   UNL     1     -13.366  56.693  50.539  0.00  0.00    +0.000 A 
ATOM     18  C   UNL     1     -11.126  55.279  51.740  0.00  0.00    +0.000 C 
ATOM     19  C   UNL     1     -13.105  56.551  51.897  0.00  0.00    +0.000 A 
ATOM     20  C   UNL     1     -14.357  57.549  50.053  0.00  0.00    +0.000 A 
ATOM     21  N   UNL     1     -12.117  55.722  52.451  0.00  0.00    +0.000 N 
ATOM     22  C   UNL     1     -13.867  57.315  52.787  0.00  0.00    +0.000 A 
ATOM     23  C   UNL     1     -15.112  58.292  50.957  0.00  0.00    +0.000 A 
ATOM     24  C   UNL     1     -14.862  58.180  52.324  0.00  0.00    +0.000 A 
ATOM     25  H   UNL     1     -10.170  55.391  49.926  0.00  0.00    +0.000 HD
ATOM     26  H   UNL     1     -12.177  55.469  53.401  0.00  0.00    +0.000 HD
ENDBRANCH   1  18
BRANCH   3  27
ATOM     27  O   UNL     1     -11.500  52.853  53.199  0.00  0.00    +0.000 OA
ATOM     28  H   UNL     1     -12.152  52.986  52.539  0.00  0.00    +0.000 HD
ENDBRANCH   3  27
BRANCH   5  29
ATOM     29  C   UNL     1      -6.219  55.008  52.971  0.00  0.00    +0.000 C 
BRANCH  29  30
ATOM     30  C   UNL     1      -5.216  54.213  52.114  0.00  0.00    +0.000 C 
BRANCH  30  31
ATOM     31  C   UNL     1      -5.322  54.515  50.646  0.00  0.00    +0.000 C 
ATOM     32  C   UNL     1      -6.138  53.687  49.687  0.00  0.00    +0.000 C 
ATOM     33  C   UNL     1      -4.640  53.585  49.673  0.00  0.00    +0.000 C 
ENDBRANCH  30  31
ENDBRANCH  29  30
ENDBRANCH   5  29
TORSDOF 5
ENDMDL
MODEL 2
REMARK VINA RESULT:      -8.3      3.827      5.411
REMARK  Name = 338168
REMARK  5 active torsions:
REMARK  status: ('A' for Active; 'I' for Inactive)
REMARK    1  A    between atoms: C_6  and  C_10
REMARK    2  A    between atoms: C_14  and  O_18
REMARK    3  A    between atoms: N_17  and  C_21
REMARK    4  A    between atoms: C_21  and  C_24
REMARK    5  A    between atoms: C_24  and  C_27
REMARK                            x       y       z     vdW  Elec       q    Type
REMARK                         _______ _______ _______ _____ _____    ______ ____
ROOT
ATOM      1  C   UNL     1     -11.482  55.798  48.970  0.00  0.00    +0.000 A 
ATOM      2  C   UNL     1     -10.386  55.134  49.726  0.00  0.00    +0.000 A 
ATOM      3  C   UNL     1     -11.661  55.530  47.666  0.00  0.00    +0.000 A 
ATOM      4  O   UNL     1     -10.156  55.538  50.866  0.00  0.00    +0.000 OA
ATOM      5  N   UNL     1      -9.701  54.073  49.128  0.00  0.00    +0.000 N 
ATOM      6  C   UNL     1     -10.822  54.536  46.988  0.00  0.00    +0.000 A 
ATOM      7  C   UNL     1      -9.869  53.800  47.723  0.00  0.00    +0.000 A 
ATOM      8  C   UNL     1     -11.004  54.288  45.616  0.00  0.00    +0.000 A 
ATOM      9  C   UNL     1      -9.118  52.826  47.038  0.00  0.00    +0.000 A 
ATOM     10  C   UNL     1     -10.267  53.306  44.978  0.00  0.00    +0.000 A 
ATOM     11  C   UNL     1      -9.327  52.571  45.678  0.00  0.00    +0.000 A 
ATOM     12  F   UNL     1     -10.471  53.058  43.678  0.00  0.00    +0.000 F 
ENDROOT
BRANCH   1  18
ATOM     13  S   UNL     1     -13.540  59.176  49.439  0.00  0.00    +0.000 S 
ATOM     14  O   UNL     1     -14.536  58.981  48.408  0.00  0.00    +0.000 OA
ATOM     15  O   UNL     1     -12.912  60.459  49.663  0.00  0.00    +0.000 OA
ATOM     16  N   UNL     1     -12.326  58.087  49.198  0.00  0.00    +0.000 N 
ATOM     17  C   UNL     1     -14.212  58.628  50.947  0.00  0.00    +0.000 A 
ATOM     18  C   UNL     1     -12.401  56.768  49.637  0.00  0.00    +0.000 C 
ATOM     19  C   UNL     1     -13.952  57.316  51.326  0.00  0.00    +0.000 A 
ATOM     20  C   UNL     1     -14.950  59.505  51.747  0.00  0.00    +0.000 A 
ATOM     21  N   UNL     1     -13.208  56.389  50.580  0.00  0.00    +0.000 N 
ATOM     22  C   UNL     1     -14.444  56.888  52.563  0.00  0.00    +0.000 A 
ATOM     23  C   UNL     1     -15.441  59.055  52.969  0.00  0.00    +0.000 A 
ATOM     24  C   UNL     1     -15.183  57.748  53.381  0.00  0.00    +0.000 A 
ATOM     25  H   UNL     1     -11.516  58.381  48.723  0.00  0.00    +0.000 HD
ATOM     26  H   UNL     1     -13.300  55.428  50.775  0.00  0.00    +0.000 HD
ENDBRANCH   1  18
BRANCH   3  27
ATOM     27  O   UNL     1     -12.629  56.117  46.866  0.00  0.00    +0.000 OA
ATOM     28  H   UNL     1     -12.815  55.764  46.018  0.00  0.00    +0.000 HD
ENDBRANCH   3  27
BRANCH   5  29
ATOM     29  C   UNL     1      -8.648  53.374  49.901  0.00  0.00    +0.000 C 
BRANCH  29  30
ATOM     30  C   UNL     1      -7.454  54.229  50.365  0.00  0.00    +0.000 C 
BRANCH  30  31
ATOM     31  C   UNL     1      -6.746  54.921  49.235  0.00  0.00    +0.000 C 
ATOM     32  C   UNL     1      -5.828  54.210  48.275  0.00  0.00    +0.000 C 
ATOM     33  C   UNL     1      -5.252  55.107  49.333  0.00  0.00    +0.000 C 
ENDBRANCH  30  31
ENDBRANCH  29  30
ENDBRANCH   5  29
TORSDOF 5
ENDMDL
MODEL 3
REMARK VINA RESULT:      -8.2      3.669      7.277
REMARK  Name = 338168
REMARK  5 active torsions:
REMARK  status: ('A' for Active; 'I' for Inactive)
REMARK    1  A    between atoms: C_6  and  C_10
REMARK    2  A    between atoms: C_14  and  O_18
REMARK    3  A    between atoms: N_17  and  C_21
REMARK    4  A    between atoms: C_21  and  C_24
REMARK    5  A    between atoms: C_24  and  C_27
REMARK                            x       y       z     vdW  Elec       q    Type
REMARK                         _______ _______ _______ _____ _____    ______ ____
ROOT
ATOM      1  C   UNL     1     -10.149  55.443  50.477  0.00  0.00    +0.000 A 
ATOM      2  C   UNL     1     -10.322  55.699  49.021  0.00  0.00    +0.000 A 
ATOM      3  C   UNL     1     -11.182  55.613  51.318  0.00  0.00    +0.000 A 
ATOM      4  O   UNL     1      -9.309  55.695  48.320  0.00  0.00    +0.000 OA
ATOM      5  N   UNL     1     -11.610  55.892  48.519  0.00  0.00    +0.000 N 
ATOM      6  C   UNL     1     -12.504  55.990  50.808  0.00  0.00    +0.000 A 
ATOM      7  C   UNL     1     -12.716  56.104  49.417  0.00  0.00    +0.000 A 
ATOM      8  C   UNL     1     -13.568  56.192  51.705  0.00  0.00    +0.000 A 
ATOM      9  C   UNL     1     -14.014  56.425  48.973  0.00  0.00    +0.000 A 
ATOM     10  C   UNL     1     -14.837  56.480  51.234  0.00  0.00    +0.000 A 
ATOM     11  C   UNL     1     -15.069  56.597  49.875  0.00  0.00    +0.000 A 
ATOM     12  F   UNL     1     -15.848  56.640  52.097  0.00  0.00    +0.000 F 
ENDROOT
BRANCH   1  18
ATOM     13  S   UNL     1      -6.541  53.756  50.458  0.00  0.00    +0.000 S 
ATOM     14  O   UNL     1      -5.839  54.729  49.649  0.00  0.00    +0.000 OA
ATOM     15  O   UNL     1      -6.334  52.334  50.296  0.00  0.00    +0.000 OA
ATOM     16  N   UNL     1      -8.160  54.024  50.299  0.00  0.00    +0.000 N 
ATOM     17  C   UNL     1      -6.278  54.157  52.131  0.00  0.00    +0.000 A 
ATOM     18  C   UNL     1      -8.837  54.995  51.031  0.00  0.00    +0.000 C 
ATOM     19  C   UNL     1      -7.229  54.957  52.755  0.00  0.00    +0.000 A 
ATOM     20  C   UNL     1      -5.166  53.650  52.808  0.00  0.00    +0.000 A 
ATOM     21  N   UNL     1      -8.374  55.487  52.139  0.00  0.00    +0.000 N 
ATOM     22  C   UNL     1      -7.050  55.237  54.113  0.00  0.00    +0.000 A 
ATOM     23  C   UNL     1      -5.001  53.951  54.157  0.00  0.00    +0.000 A 
ATOM     24  C   UNL     1      -5.947  54.739  54.812  0.00  0.00    +0.000 A 
ATOM     25  H   UNL     1      -8.669  53.475  49.661  0.00  0.00    +0.000 HD
ATOM     26  H   UNL     1      -8.837  56.249  52.556  0.00  0.00    +0.000 HD
ENDBRANCH   1  18
BRANCH   3  27
ATOM     27  O   UNL     1     -11.118  55.433  52.691  0.00  0.00    +0.000 OA
ATOM     28  H   UNL     1     -10.288  55.318  53.111  0.00  0.00    +0.000 HD
ENDBRANCH   3  27
BRANCH   5  29
ATOM     29  C   UNL     1     -11.788  56.090  47.061  0.00  0.00    +0.000 C 
BRANCH  29  30
ATOM     30  C   UNL     1     -12.083  54.828  46.227  0.00  0.00    +0.000 C 
BRANCH  30  31
ATOM     31  C   UNL     1     -10.852  54.226  45.608  0.00  0.00    +0.000 C 
ATOM     32  C   UNL     1     -10.896  53.117  44.591  0.00  0.00    +0.000 C 
ATOM     33  C   UNL     1     -10.469  52.821  46.000  0.00  0.00    +0.000 C 
ENDBRANCH  30  31
ENDBRANCH  29  30
ENDBRANCH   5  29
TORSDOF 5
ENDMDL
MODEL 4
REMARK VINA RESULT:      -8.2      4.024      5.834
REMARK  Name = 338168
REMARK  5 active torsions:
REMARK  status: ('A' for Active; 'I' for Inactive)
REMARK    1  A    between atoms: C_6  and  C_10
REMARK    2  A    between atoms: C_14  and  O_18
REMARK    3  A    between atoms: N_17  and  C_21
REMARK    4  A    between atoms: C_21  and  C_24
REMARK    5  A    between atoms: C_24  and  C_27
REMARK                            x       y       z     vdW  Elec       q    Type
REMARK                         _______ _______ _______ _____ _____    ______ ____
ROOT
ATOM      1  C   UNL     1     -11.503  55.834  48.867  0.00  0.00    +0.000 A 
ATOM      2  C   UNL     1     -10.351  55.209  49.571  0.00  0.00    +0.000 A 
ATOM      3  C   UNL     1     -11.746  55.540  47.579  0.00  0.00    +0.000 A 
ATOM      4  O   UNL     1     -10.070  55.638  50.691  0.00  0.00    +0.000 OA
ATOM      5  N   UNL     1      -9.675  54.155  48.953  0.00  0.00    +0.000 N 
ATOM      6  C   UNL     1     -10.921  54.555  46.872  0.00  0.00    +0.000 A 
ATOM      7  C   UNL     1      -9.911  53.855  47.564  0.00  0.00    +0.000 A 
ATOM      8  C   UNL     1     -11.171  54.280  45.515  0.00  0.00    +0.000 A 
ATOM      9  C   UNL     1      -9.175  52.887  46.854  0.00  0.00    +0.000 A 
ATOM     10  C   UNL     1     -10.446  53.305  44.853  0.00  0.00    +0.000 A 
ATOM     11  C   UNL     1      -9.451  52.605  45.512  0.00  0.00    +0.000 A 
ATOM     12  F   UNL     1     -10.715  53.031  43.571  0.00  0.00    +0.000 F 
ENDROOT
BRANCH   1  18
ATOM     13  S   UNL     1     -13.518  59.220  49.451  0.00  0.00    +0.000 S 
ATOM     14  O   UNL     1     -14.520  59.070  48.419  0.00  0.00    +0.000 OA
ATOM     15  O   UNL     1     -12.874  60.488  49.714  0.00  0.00    +0.000 OA
ATOM     16  N   UNL     1     -12.319  58.124  49.171  0.00  0.00    +0.000 N 
ATOM     17  C   UNL     1     -14.192  58.632  50.944  0.00  0.00    +0.000 A 
ATOM     18  C   UNL     1     -12.407  56.794  49.568  0.00  0.00    +0.000 C 
ATOM     19  C   UNL     1     -13.946  57.305  51.280  0.00  0.00    +0.000 A 
ATOM     20  C   UNL     1     -14.916  59.492  51.775  0.00  0.00    +0.000 A 
ATOM     21  N   UNL     1     -13.216  56.394  50.501  0.00  0.00    +0.000 N 
ATOM     22  C   UNL     1     -14.440  56.844  52.504  0.00  0.00    +0.000 A 
ATOM     23  C   UNL     1     -15.409  59.008  52.983  0.00  0.00    +0.000 A 
ATOM     24  C   UNL     1     -15.165  57.686  53.352  0.00  0.00    +0.000 A 
ATOM     25  H   UNL     1     -11.506  58.424  48.702  0.00  0.00    +0.000 HD
ATOM     26  H   UNL     1     -13.319  55.428  50.665  0.00  0.00    +0.000 HD
ENDBRANCH   1  18
BRANCH   3  27
ATOM     27  O   UNL     1     -12.771  56.091  46.825  0.00  0.00    +0.000 OA
ATOM     28  H   UNL     1     -13.329  56.744  47.198  0.00  0.00    +0.000 HD
ENDBRANCH   3  27
BRANCH   5  29
ATOM     29  C   UNL     1      -8.564  53.494  49.679  0.00  0.00    +0.000 C 
BRANCH  29  30
ATOM     30  C   UNL     1      -8.960  52.426  50.716  0.00  0.00    +0.000 C 
BRANCH  30  31
ATOM     31  C   UNL     1     -10.067  51.525  50.246  0.00  0.00    +0.000 C 
ATOM     32  C   UNL     1     -11.510  51.716  50.631  0.00  0.00    +0.000 C 
ATOM     33  C   UNL     1     -10.714  50.603  51.249  0.00  0.00    +0.000 C 
ENDBRANCH  30  31
ENDBRANCH  29  30
ENDBRANCH   5  29
TORSDOF 5
ENDMDL
MODEL 5
REMARK VINA RESULT:      -8.2      3.608      7.237
REMARK  Name = 338168
REMARK  5 active torsions:
REMARK  status: ('A' for Active; 'I' for Inactive)
REMARK    1  A    between atoms: C_6  and  C_10
REMARK    2  A    between atoms: C_14  and  O_18
REMARK    3  A    between atoms: N_17  and  C_21
REMARK    4  A    between atoms: C_21  and  C_24
REMARK    5  A    between atoms: C_24  and  C_27
REMARK                            x       y       z     vdW  Elec       q    Type
REMARK                         _______ _______ _______ _____ _____    ______ ____
ROOT
ATOM      1  C   UNL     1     -10.177  55.105  50.796  0.00  0.00    +0.000 A 
ATOM      2  C   UNL     1      -9.809  55.191  49.357  0.00  0.00    +0.000 A 
ATOM      3  C   UNL     1     -11.378  55.540  51.212  0.00  0.00    +0.000 A 
ATOM      4  O   UNL     1      -8.642  54.940  49.054  0.00  0.00    +0.000 OA
ATOM      5  N   UNL     1     -10.799  55.513  48.426  0.00  0.00    +0.000 N 
ATOM      6  C   UNL     1     -12.362  56.046  50.249  0.00  0.00    +0.000 A 
ATOM      7  C   UNL     1     -12.079  56.008  48.867  0.00  0.00    +0.000 A 
ATOM      8  C   UNL     1     -13.604  56.524  50.704  0.00  0.00    +0.000 A 
ATOM      9  C   UNL     1     -13.071  56.463  47.979  0.00  0.00    +0.000 A 
ATOM     10  C   UNL     1     -14.567  56.940  49.803  0.00  0.00    +0.000 A 
ATOM     11  C   UNL     1     -14.312  56.912  48.443  0.00  0.00    +0.000 A 
ATOM     12  F   UNL     1     -15.756  57.365  50.247  0.00  0.00    +0.000 F 
ENDROOT
BRANCH   1  18
ATOM     13  S   UNL     1      -6.887  54.899  53.031  0.00  0.00    +0.000 S 
ATOM     14  O   UNL     1      -7.162  55.989  53.942  0.00  0.00    +0.000 OA
ATOM     15  O   UNL     1      -5.569  54.678  52.479  0.00  0.00    +0.000 OA
ATOM     16  N   UNL     1      -7.925  55.017  51.756  0.00  0.00    +0.000 N 
ATOM     17  C   UNL     1      -7.417  53.422  53.783  0.00  0.00    +0.000 A 
ATOM     18  C   UNL     1      -9.231  54.538  51.802  0.00  0.00    +0.000 C 
ATOM     19  C   UNL     1      -8.703  52.980  53.492  0.00  0.00    +0.000 A 
ATOM     20  C   UNL     1      -6.551  52.707  54.614  0.00  0.00    +0.000 A 
ATOM     21  N   UNL     1      -9.618  53.641  52.656  0.00  0.00    +0.000 N 
ATOM     22  C   UNL     1      -9.114  51.766  54.051  0.00  0.00    +0.000 A 
ATOM     23  C   UNL     1      -6.984  51.506  55.169  0.00  0.00    +0.000 A 
ATOM     24  C   UNL     1      -8.264  51.032  54.883  0.00  0.00    +0.000 A 
ATOM     25  H   UNL     1      -7.608  55.445  50.928  0.00  0.00    +0.000 HD
ATOM     26  H   UNL     1     -10.575  53.419  52.719  0.00  0.00    +0.000 HD
ENDBRANCH   1  18
BRANCH   3  27
ATOM     27  O   UNL     1     -11.805  55.534  52.531  0.00  0.00    +0.000 OA
ATOM     28  H   UNL     1     -11.633  54.792  53.077  0.00  0.00    +0.000 HD
ENDBRANCH   3  27
BRANCH   5  29
ATOM     29  C   UNL     1     -10.446  55.543  46.987  0.00  0.00    +0.000 C 
BRANCH  29  30
ATOM     30  C   UNL     1     -10.585  54.216  46.218  0.00  0.00    +0.000 C 
BRANCH  30  31
ATOM     31  C   UNL     1      -9.264  53.576  45.895  0.00  0.00    +0.000 C 
ATOM     32  C   UNL     1      -8.072  54.348  45.391  0.00  0.00    +0.000 C 
ATOM     33  C   UNL     1      -8.851  53.477  44.448  0.00  0.00    +0.000 C 
ENDBRANCH  30  31
ENDBRANCH  29  30
ENDBRANCH   5  29
TORSDOF 5
ENDMDL
MODEL 6
REMARK VINA RESULT:      -8.0      3.495      7.962
REMARK  Name = 338168
REMARK  5 active torsions:
REMARK  status: ('A' for Active; 'I' for Inactive)
REMARK    1  A    between atoms: C_6  and  C_10
REMARK    2  A    between atoms: C_14  and  O_18
REMARK    3  A    between atoms: N_17  and  C_21
REMARK    4  A    between atoms: C_21  and  C_24
REMARK    5  A    between atoms: C_24  and  C_27
REMARK                            x       y       z     vdW  Elec       q    Type
REMARK                         _______ _______ _______ _____ _____    ______ ____
ROOT
ATOM      1  C   UNL     1      -9.987  54.488  50.756  0.00  0.00    +0.000 A 
ATOM      2  C   UNL     1     -11.133  55.392  51.043  0.00  0.00    +0.000 A 
ATOM      3  C   UNL     1      -9.767  54.054  49.503  0.00  0.00    +0.000 A 
ATOM      4  O   UNL     1     -11.392  55.623  52.224  0.00  0.00    +0.000 OA
ATOM      5  N   UNL     1     -11.830  55.958  49.973  0.00  0.00    +0.000 N 
ATOM      6  C   UNL     1     -10.614  54.513  48.397  0.00  0.00    +0.000 A 
ATOM      7  C   UNL     1     -11.619  55.475  48.631  0.00  0.00    +0.000 A 
ATOM      8  C   UNL     1     -10.388  54.027  47.096  0.00  0.00    +0.000 A 
ATOM      9  C   UNL     1     -12.376  55.918  47.530  0.00  0.00    +0.000 A 
ATOM     10  C   UNL     1     -11.134  54.503  46.032  0.00  0.00    +0.000 A 
ATOM     11  C   UNL     1     -12.124  55.446  46.238  0.00  0.00    +0.000 A 
ATOM     12  F   UNL     1     -10.888  54.054  44.795  0.00  0.00    +0.000 F 
ENDROOT
BRANCH   1  18
ATOM     13  S   UNL     1      -6.779  54.599  53.114  0.00  0.00    +0.000 S 
ATOM     14  O   UNL     1      -7.122  55.756  53.911  0.00  0.00    +0.000 OA
ATOM     15  O   UNL     1      -5.435  54.374  52.631  0.00  0.00    +0.000 OA
ATOM     16  N   UNL     1      -7.771  54.565  51.798  0.00  0.00    +0.000 N 
ATOM     17  C   UNL     1      -7.291  53.178  53.979  0.00  0.00    +0.000 A 
ATOM     18  C   UNL     1      -9.062  54.047  51.842  0.00  0.00    +0.000 C 
ATOM     19  C   UNL     1      -8.550  52.668  53.684  0.00  0.00    +0.000 A 
ATOM     20  C   UNL     1      -6.435  52.571  54.902  0.00  0.00    +0.000 A 
ATOM     21  N   UNL     1      -9.453  53.218  52.760  0.00  0.00    +0.000 N 
ATOM     22  C   UNL     1      -8.944  51.496  54.337  0.00  0.00    +0.000 A 
ATOM     23  C   UNL     1      -6.851  51.411  55.549  0.00  0.00    +0.000 A 
ATOM     24  C   UNL     1      -8.104  50.869  55.262  0.00  0.00    +0.000 A 
ATOM     25  H   UNL     1      -7.437  54.927  50.946  0.00  0.00    +0.000 HD
ATOM     26  H   UNL     1     -10.404  52.970  52.809  0.00  0.00    +0.000 HD
ENDBRANCH   1  18
BRANCH   3  27
ATOM     27  O   UNL     1      -8.750  53.187  49.136  0.00  0.00    +0.000 OA
ATOM     28  H   UNL     1      -7.988  53.515  48.700  0.00  0.00    +0.000 HD
ENDBRANCH   3  27
BRANCH   5  29
ATOM     29  C   UNL     1     -12.935  56.903  50.258  0.00  0.00    +0.000 C 
BRANCH  29  30
ATOM     30  C   UNL     1     -14.293  56.280  50.635  0.00  0.00    +0.000 C 
BRANCH  30  31
ATOM     31  C   UNL     1     -15.227  57.253  51.298  0.00  0.00    +0.000 C 
ATOM     32  C   UNL     1     -14.789  58.232  52.356  0.00  0.00    +0.000 C 
ATOM     33  C   UNL     1     -15.591  57.023  52.744  0.00  0.00    +0.000 C 
ENDBRANCH  30  31
ENDBRANCH  29  30
ENDBRANCH   5  29
TORSDOF 5
ENDMDL
MODEL 7
REMARK VINA RESULT:      -8.0      4.900      7.774
REMARK  Name = 338168
REMARK  5 active torsions:
REMARK  status: ('A' for Active; 'I' for Inactive)
REMARK    1  A    between atoms: C_6  and  C_10
REMARK    2  A    between atoms: C_14  and  O_18
REMARK    3  A    between atoms: N_17  and  C_21
REMARK    4  A    between atoms: C_21  and  C_24
REMARK    5  A    between atoms: C_24  and  C_27
REMARK                            x       y       z     vdW  Elec       q    Type
REMARK                         _______ _______ _______ _____ _____    ______ ____
ROOT
ATOM      1  C   UNL     1     -11.394  54.281  47.936  0.00  0.00    +0.000 A 
ATOM      2  C   UNL     1     -11.490  53.443  49.161  0.00  0.00    +0.000 A 
ATOM      3  C   UNL     1     -12.045  55.454  47.868  0.00  0.00    +0.000 A 
ATOM      4  O   UNL     1     -11.018  52.306  49.111  0.00  0.00    +0.000 OA
ATOM      5  N   UNL     1     -12.071  53.989  50.308  0.00  0.00    +0.000 N 
ATOM      6  C   UNL     1     -12.806  55.950  49.020  0.00  0.00    +0.000 A 
ATOM      7  C   UNL     1     -12.796  55.232  50.234  0.00  0.00    +0.000 A 
ATOM      8  C   UNL     1     -13.507  57.167  48.922  0.00  0.00    +0.000 A 
ATOM      9  C   UNL     1     -13.505  55.771  51.324  0.00  0.00    +0.000 A 
ATOM     10  C   UNL     1     -14.172  57.681  50.021  0.00  0.00    +0.000 A 
ATOM     11  C   UNL     1     -14.176  56.995  51.222  0.00  0.00    +0.000 A 
ATOM     12  F   UNL     1     -14.809  58.855  49.923  0.00  0.00    +0.000 F 
ENDROOT
BRANCH   1  18
ATOM     13  S   UNL     1      -8.197  54.051  45.571  0.00  0.00    +0.000 S 
ATOM     14  O   UNL     1      -7.332  53.273  46.432  0.00  0.00    +0.000 OA
ATOM     15  O   UNL     1      -7.703  55.170  44.799  0.00  0.00    +0.000 OA
ATOM     16  N   UNL     1      -9.456  54.614  46.475  0.00  0.00    +0.000 N 
ATOM     17  C   UNL     1      -9.003  52.956  44.486  0.00  0.00    +0.000 A 
ATOM     18  C   UNL     1     -10.578  53.844  46.765  0.00  0.00    +0.000 C 
ATOM     19  C   UNL     1     -10.256  52.486  44.864  0.00  0.00    +0.000 A 
ATOM     20  C   UNL     1      -8.409  52.607  43.270  0.00  0.00    +0.000 A 
ATOM     21  N   UNL     1     -10.916  52.808  46.060  0.00  0.00    +0.000 N 
ATOM     22  C   UNL     1     -10.932  51.649  43.971  0.00  0.00    +0.000 A 
ATOM     23  C   UNL     1      -9.093  51.762  42.401  0.00  0.00    +0.000 A 
ATOM     24  C   UNL     1     -10.358  51.288  42.748  0.00  0.00    +0.000 A 
ATOM     25  H   UNL     1      -9.411  55.533  46.825  0.00  0.00    +0.000 HD
ATOM     26  H   UNL     1     -11.653  52.234  46.374  0.00  0.00    +0.000 HD
ENDBRANCH   1  18
BRANCH   3  27
ATOM     27  O   UNL     1     -12.047  56.292  46.764  0.00  0.00    +0.000 OA
ATOM     28  H   UNL     1     -11.395  56.193  46.099  0.00  0.00    +0.000 HD
ENDBRANCH   3  27
BRANCH   5  29
ATOM     29  C   UNL     1     -12.116  53.175  51.546  0.00  0.00    +0.000 C 
BRANCH  29  30
ATOM     30  C   UNL     1     -10.871  53.232  52.451  0.00  0.00    +0.000 C 
BRANCH  30  31
ATOM     31  C   UNL     1     -10.405  54.633  52.731  0.00  0.00    +0.000 C 
ATOM     32  C   UNL     1      -9.228  55.268  52.038  0.00  0.00    +0.000 C 
ATOM     33  C   UNL     1      -9.101  54.820  53.466  0.00  0.00    +0.000 C 
ENDBRANCH  30  31
ENDBRANCH  29  30
ENDBRANCH   5  29
TORSDOF 5
ENDMDL
MODEL 8
REMARK VINA RESULT:      -8.0      3.210      4.342
REMARK  Name = 338168
REMARK  5 active torsions:
REMARK  status: ('A' for Active; 'I' for Inactive)
REMARK    1  A    between atoms: C_6  and  C_10
REMARK    2  A    between atoms: C_14  and  O_18
REMARK    3  A    between atoms: N_17  and  C_21
REMARK    4  A    between atoms: C_21  and  C_24
REMARK    5  A    between atoms: C_24  and  C_27
REMARK                            x       y       z     vdW  Elec       q    Type
REMARK                         _______ _______ _______ _____ _____    ______ ____
ROOT
ATOM      1  C   UNL     1     -12.159  54.402  50.244  0.00  0.00    +0.000 A 
ATOM      2  C   UNL     1     -11.978  53.912  48.851  0.00  0.00    +0.000 A 
ATOM      3  C   UNL     1     -11.643  53.710  51.275  0.00  0.00    +0.000 A 
ATOM      4  O   UNL     1     -12.609  54.483  47.962  0.00  0.00    +0.000 OA
ATOM      5  N   UNL     1     -11.084  52.864  48.616  0.00  0.00    +0.000 N 
ATOM      6  C   UNL     1     -10.846  52.503  51.036  0.00  0.00    +0.000 A 
ATOM      7  C   UNL     1     -10.552  52.101  49.716  0.00  0.00    +0.000 A 
ATOM      8  C   UNL     1     -10.338  51.774  52.128  0.00  0.00    +0.000 A 
ATOM      9  C   UNL     1      -9.746  50.961  49.538  0.00  0.00    +0.000 A 
ATOM     10  C   UNL     1      -9.528  50.673  51.918  0.00  0.00    +0.000 A 
ATOM     11  C   UNL     1      -9.226  50.261  50.632  0.00  0.00    +0.000 A 
ATOM     12  F   UNL     1      -9.026  50.007  52.965  0.00  0.00    +0.000 F 
ENDROOT
BRANCH   1  18
ATOM     13  S   UNL     1     -14.451  56.923  52.306  0.00  0.00    +0.000 S 
ATOM     14  O   UNL     1     -13.520  57.272  53.356  0.00  0.00    +0.000 OA
ATOM     15  O   UNL     1     -15.851  56.678  52.576  0.00  0.00    +0.000 OA
ATOM     16  N   UNL     1     -13.876  55.590  51.526  0.00  0.00    +0.000 N 
ATOM     17  C   UNL     1     -14.340  58.136  51.063  0.00  0.00    +0.000 A 
ATOM     18  C   UNL     1     -12.909  55.661  50.528  0.00  0.00    +0.000 C 
ATOM     19  C   UNL     1     -13.476  57.889  50.003  0.00  0.00    +0.000 A 
ATOM     20  C   UNL     1     -15.130  59.287  51.132  0.00  0.00    +0.000 A 
ATOM     21  N   UNL     1     -12.667  56.750  49.863  0.00  0.00    +0.000 N 
ATOM     22  C   UNL     1     -13.424  58.835  48.975  0.00  0.00    +0.000 A 
ATOM     23  C   UNL     1     -15.054  60.222  50.104  0.00  0.00    +0.000 A 
ATOM     24  C   UNL     1     -14.206  59.993  49.021  0.00  0.00    +0.000 A 
ATOM     25  H   UNL     1     -14.230  54.706  51.777  0.00  0.00    +0.000 HD
ATOM     26  H   UNL     1     -11.899  56.776  49.248  0.00  0.00    +0.000 HD
ENDBRANCH   1  18
BRANCH   3  27
ATOM     27  O   UNL     1     -11.782  54.062  52.608  0.00  0.00    +0.000 OA
ATOM     28  H   UNL     1     -11.571  54.931  52.889  0.00  0.00    +0.000 HD
ENDBRANCH   3  27
BRANCH   5  29
ATOM     29  C   UNL     1     -10.861  52.414  47.222  0.00  0.00    +0.000 C 
BRANCH  29  30
ATOM     30  C   UNL     1      -9.532  52.837  46.567  0.00  0.00    +0.000 C 
BRANCH  30  31
ATOM     31  C   UNL     1      -9.411  54.323  46.380  0.00  0.00    +0.000 C 
ATOM     32  C   UNL     1      -8.190  54.988  45.800  0.00  0.00    +0.000 C 
ATOM     33  C   UNL     1      -8.462  55.083  47.273  0.00  0.00    +0.000 C 
ENDBRANCH  30  31
ENDBRANCH  29  30
ENDBRANCH   5  29
TORSDOF 5
ENDMDL
MODEL 9
REMARK VINA RESULT:      -7.9      3.658      4.310
REMARK  Name = 338168
REMARK  5 active torsions:
REMARK  status: ('A' for Active; 'I' for Inactive)
REMARK    1  A    between atoms: C_6  and  C_10
REMARK    2  A    between atoms: C_14  and  O_18
REMARK    3  A    between atoms: N_17  and  C_21
REMARK    4  A    between atoms: C_21  and  C_24
REMARK    5  A    between atoms: C_24  and  C_27
REMARK                            x       y       z     vdW  Elec       q    Type
REMARK                         _______ _______ _______ _____ _____    ______ ____
ROOT
ATOM      1  C   UNL     1     -12.207  54.222  49.781  0.00  0.00    +0.000 A 
ATOM      2  C   UNL     1     -11.930  53.832  48.372  0.00  0.00    +0.000 A 
ATOM      3  C   UNL     1     -11.866  53.400  50.788  0.00  0.00    +0.000 A 
ATOM      4  O   UNL     1     -12.412  54.536  47.484  0.00  0.00    +0.000 OA
ATOM      5  N   UNL     1     -11.118  52.723  48.127  0.00  0.00    +0.000 N 
ATOM      6  C   UNL     1     -11.163  52.142  50.516  0.00  0.00    +0.000 A 
ATOM      7  C   UNL     1     -10.774  51.823  49.198  0.00  0.00    +0.000 A 
ATOM      8  C   UNL     1     -10.839  51.279  51.579  0.00  0.00    +0.000 A 
ATOM      9  C   UNL     1     -10.062  50.625  48.993  0.00  0.00    +0.000 A 
ATOM     10  C   UNL     1     -10.117  50.122  51.346  0.00  0.00    +0.000 A 
ATOM     11  C   UNL     1      -9.723  49.789  50.063  0.00  0.00    +0.000 A 
ATOM     12  F   UNL     1      -9.788  49.325  52.371  0.00  0.00    +0.000 F 
ENDROOT
BRANCH   1  18
ATOM     13  S   UNL     1     -13.308  58.012  49.245  0.00  0.00    +0.000 S 
ATOM     14  O   UNL     1     -14.271  57.821  48.183  0.00  0.00    +0.000 OA
ATOM     15  O   UNL     1     -12.371  59.114  49.240  0.00  0.00    +0.000 OA
ATOM     16  N   UNL     1     -12.419  56.631  49.391  0.00  0.00    +0.000 N 
ATOM     17  C   UNL     1     -14.171  58.039  50.756  0.00  0.00    +0.000 A 
ATOM     18  C   UNL     1     -12.863  55.524  50.107  0.00  0.00    +0.000 C 
ATOM     19  C   UNL     1     -14.288  56.838  51.448  0.00  0.00    +0.000 A 
ATOM     20  C   UNL     1     -14.684  59.241  51.251  0.00  0.00    +0.000 A 
ATOM     21  N   UNL     1     -13.785  55.601  51.017  0.00  0.00    +0.000 N 
ATOM     22  C   UNL     1     -14.933  56.865  52.688  0.00  0.00    +0.000 A 
ATOM     23  C   UNL     1     -15.333  59.243  52.482  0.00  0.00    +0.000 A 
ATOM     24  C   UNL     1     -15.452  58.056  53.205  0.00  0.00    +0.000 A 
ATOM     25  H   UNL     1     -11.539  56.588  48.953  0.00  0.00    +0.000 HD
ATOM     26  H   UNL     1     -14.139  54.772  51.413  0.00  0.00    +0.000 HD
ENDBRANCH   1  18
BRANCH   3  27
ATOM     27  O   UNL     1     -12.108  53.654  52.129  0.00  0.00    +0.000 OA
ATOM     28  H   UNL     1     -11.844  54.470  52.508  0.00  0.00    +0.000 HD
ENDBRANCH   3  27
BRANCH   5  29
ATOM     29  C   UNL     1     -10.795  52.368  46.725  0.00  0.00    +0.000 C 
BRANCH  29  30
ATOM     30  C   UNL     1      -9.383  52.737  46.230  0.00  0.00    +0.000 C 
BRANCH  30  31
ATOM     31  C   UNL     1      -9.283  54.148  45.722  0.00  0.00    +0.000 C 
ATOM     32  C   UNL     1      -7.973  54.865  45.524  0.00  0.00    +0.000 C 
ATOM     33  C   UNL     1      -8.854  55.226  46.686  0.00  0.00    +0.000 C 
ENDBRANCH  30  31
ENDBRANCH  29  30
ENDBRANCH   5  29
TORSDOF 5
ENDMDL
