MODEL 1
REMARK VINA RESULT:      -8.2      0.000      0.000
REMARK  Name = 338298
REMARK  5 active torsions:
REMARK  status: ('A' for Active; 'I' for Inactive)
REMARK    1  A    between atoms: C_6  and  C_10
REMARK    2  A    between atoms: C_14  and  O_18
REMARK    3  A    between atoms: N_17  and  C_21
REMARK    4  A    between atoms: C_21  and  C_24
REMARK    5  A    between atoms: C_24  and  C_27
REMARK                            x       y       z     vdW  Elec       q    Type
REMARK                         _______ _______ _______ _____ _____    ______ ____
ROOT
ATOM      1  C   UNL     1     -10.100  54.389  52.293  0.00  0.00    +0.000 A 
ATOM      2  C   UNL     1      -8.721  54.932  52.143  0.00  0.00    +0.000 A 
ATOM      3  C   UNL     1     -10.317  53.296  53.039  0.00  0.00    +0.000 A 
ATOM      4  O   UNL     1      -8.605  55.941  51.444  0.00  0.00    +0.000 OA
ATOM      5  N   UNL     1      -7.662  54.318  52.800  0.00  0.00    +0.000 N 
ATOM      6  C   UNL     1      -9.201  52.644  53.737  0.00  0.00    +0.000 A 
ATOM      7  C   UNL     1      -7.887  53.140  53.598  0.00  0.00    +0.000 A 
ATOM      8  C   UNL     1      -9.446  51.530  54.562  0.00  0.00    +0.000 A 
ATOM      9  C   UNL     1      -6.854  52.472  54.277  0.00  0.00    +0.000 A 
ATOM     10  C   UNL     1      -8.413  50.912  55.260  0.00  0.00    +0.000 A 
ATOM     11  C   UNL     1      -7.117  51.382  55.114  0.00  0.00    +0.000 A 
ENDROOT
BRANCH   1  17
ATOM     12  S   UNL     1     -12.399  55.964  49.519  0.00  0.00    +0.000 S 
ATOM     13  O   UNL     1     -13.309  55.001  48.926  0.00  0.00    +0.000 OA
ATOM     14  O   UNL     1     -11.727  56.942  48.689  0.00  0.00    +0.000 OA
ATOM     15  N   UNL     1     -11.267  55.133  50.332  0.00  0.00    +0.000 N 
ATOM     16  C   UNL     1     -13.353  56.883  50.674  0.00  0.00    +0.000 A 
ATOM     17  C   UNL     1     -11.243  55.136  51.631  0.00  0.00    +0.000 C 
ATOM     18  C   UNL     1     -13.100  56.686  52.022  0.00  0.00    +0.000 A 
ATOM     19  C   UNL     1     -14.320  57.786  50.226  0.00  0.00    +0.000 A 
ATOM     20  N   UNL     1     -12.155  55.763  52.455  0.00  0.00    +0.000 N 
ATOM     21  C   UNL     1     -13.889  57.377  52.949  0.00  0.00    +0.000 A 
ATOM     22  C   UNL     1     -15.076  58.489  51.160  0.00  0.00    +0.000 A 
ATOM     23  C   UNL     1     -14.865  58.279  52.525  0.00  0.00    +0.000 A 
ATOM     24  H   UNL     1     -10.590  54.620  49.835  0.00  0.00    +0.000 HD
ATOM     25  H   UNL     1     -12.134  55.543  53.414  0.00  0.00    +0.000 HD
ENDBRANCH   1  17
BRANCH   3  26
ATOM     26  O   UNL     1     -11.563  52.725  53.238  0.00  0.00    +0.000 OA
ATOM     27  H   UNL     1     -12.000  52.829  54.060  0.00  0.00    +0.000 HD
ENDBRANCH   3  26
BRANCH   5  28
ATOM     28  C   UNL     1      -6.286  54.809  52.550  0.00  0.00    +0.000 C 
BRANCH  28  29
ATOM     29  C   UNL     1      -5.516  54.135  51.400  0.00  0.00    +0.000 C 
BRANCH  29  30
ATOM     30  C   UNL     1      -5.494  54.942  50.134  0.00  0.00    +0.000 C 
ATOM     31  C   UNL     1      -6.377  54.652  48.950  0.00  0.00    +0.000 C 
ATOM     32  C   UNL     1      -4.917  54.301  48.897  0.00  0.00    +0.000 C 
ENDBRANCH  29  30
ENDBRANCH  28  29
ENDBRANCH   5  28
TORSDOF 5
ENDMDL
MODEL 2
REMARK VINA RESULT:      -8.0      2.577      7.812
REMARK  Name = 338298
REMARK  5 active torsions:
REMARK  status: ('A' for Active; 'I' for Inactive)
REMARK    1  A    between atoms: C_6  and  C_10
REMARK    2  A    between atoms: C_14  and  O_18
REMARK    3  A    between atoms: N_17  and  C_21
REMARK    4  A    between atoms: C_21  and  C_24
REMARK    5  A    between atoms: C_24  and  C_27
REMARK                            x       y       z     vdW  Elec       q    Type
REMARK                         _______ _______ _______ _____ _____    ______ ____
ROOT
ATOM      1  C   UNL     1     -10.061  54.814  50.902  0.00  0.00    +0.000 A 
ATOM      2  C   UNL     1     -11.380  55.348  51.341  0.00  0.00    +0.000 A 
ATOM      3  C   UNL     1      -9.764  54.736  49.597  0.00  0.00    +0.000 A 
ATOM      4  O   UNL     1     -11.576  55.391  52.558  0.00  0.00    +0.000 OA
ATOM      5  N   UNL     1     -12.296  55.791  50.393  0.00  0.00    +0.000 N 
ATOM      6  C   UNL     1     -10.728  55.204  48.591  0.00  0.00    +0.000 A 
ATOM      7  C   UNL     1     -11.986  55.704  48.989  0.00  0.00    +0.000 A 
ATOM      8  C   UNL     1     -10.388  55.169  47.226  0.00  0.00    +0.000 A 
ATOM      9  C   UNL     1     -12.876  56.128  47.987  0.00  0.00    +0.000 A 
ATOM     10  C   UNL     1     -11.267  55.636  46.254  0.00  0.00    +0.000 A 
ATOM     11  C   UNL     1     -12.512  56.111  46.636  0.00  0.00    +0.000 A 
ENDROOT
BRANCH   1  17
ATOM     12  S   UNL     1      -6.770  54.718  53.052  0.00  0.00    +0.000 S 
ATOM     13  O   UNL     1      -6.726  55.759  54.064  0.00  0.00    +0.000 OA
ATOM     14  O   UNL     1      -5.584  54.390  52.290  0.00  0.00    +0.000 OA
ATOM     15  N   UNL     1      -7.949  55.103  52.005  0.00  0.00    +0.000 N 
ATOM     16  C   UNL     1      -7.229  53.246  53.893  0.00  0.00    +0.000 A 
ATOM     17  C   UNL     1      -9.054  54.421  51.968  0.00  0.00    +0.000 C 
ATOM     18  C   UNL     1      -8.492  52.729  53.648  0.00  0.00    +0.000 A 
ATOM     19  C   UNL     1      -6.331  52.625  54.765  0.00  0.00    +0.000 A 
ATOM     20  N   UNL     1      -9.386  53.372  52.800  0.00  0.00    +0.000 N 
ATOM     21  C   UNL     1      -8.883  51.583  54.351  0.00  0.00    +0.000 A 
ATOM     22  C   UNL     1      -6.724  51.468  55.433  0.00  0.00    +0.000 A 
ATOM     23  C   UNL     1      -8.006  50.950  55.231  0.00  0.00    +0.000 A 
ATOM     24  H   UNL     1      -7.824  55.861  51.391  0.00  0.00    +0.000 HD
ATOM     25  H   UNL     1     -10.318  53.057  52.792  0.00  0.00    +0.000 HD
ENDBRANCH   1  17
BRANCH   3  26
ATOM     26  O   UNL     1      -8.564  54.258  49.099  0.00  0.00    +0.000 OA
ATOM     27  H   UNL     1      -8.065  53.639  49.595  0.00  0.00    +0.000 HD
ENDBRANCH   3  26
BRANCH   5  28
ATOM     28  C   UNL     1     -13.641  56.217  50.845  0.00  0.00    +0.000 C 
BRANCH  28  29
ATOM     29  C   UNL     1     -13.844  57.727  51.064  0.00  0.00    +0.000 C 
BRANCH  29  30
ATOM     30  C   UNL     1     -14.079  58.103  52.499  0.00  0.00    +0.000 C 
ATOM     31  C   UNL     1     -15.324  57.734  53.260  0.00  0.00    +0.000 C 
ATOM     32  C   UNL     1     -15.126  59.147  52.794  0.00  0.00    +0.000 C 
ENDBRANCH  29  30
ENDBRANCH  28  29
ENDBRANCH   5  28
TORSDOF 5
ENDMDL
MODEL 3
REMARK VINA RESULT:      -7.9      3.189      7.124
REMARK  Name = 338298
REMARK  5 active torsions:
REMARK  status: ('A' for Active; 'I' for Inactive)
REMARK    1  A    between atoms: C_6  and  C_10
REMARK    2  A    between atoms: C_14  and  O_18
REMARK    3  A    between atoms: N_17  and  C_21
REMARK    4  A    between atoms: C_21  and  C_24
REMARK    5  A    between atoms: C_24  and  C_27
REMARK                            x       y       z     vdW  Elec       q    Type
REMARK                         _______ _______ _______ _____ _____    ______ ____
ROOT
ATOM      1  C   UNL     1     -10.201  55.163  50.849  0.00  0.00    +0.000 A 
ATOM      2  C   UNL     1      -9.746  55.121  49.431  0.00  0.00    +0.000 A 
ATOM      3  C   UNL     1     -11.425  55.618  51.152  0.00  0.00    +0.000 A 
ATOM      4  O   UNL     1      -8.609  54.687  49.234  0.00  0.00    +0.000 OA
ATOM      5  N   UNL     1     -10.606  55.530  48.418  0.00  0.00    +0.000 N 
ATOM      6  C   UNL     1     -12.338  56.050  50.085  0.00  0.00    +0.000 A 
ATOM      7  C   UNL     1     -11.920  56.025  48.738  0.00  0.00    +0.000 A 
ATOM      8  C   UNL     1     -13.641  56.474  50.407  0.00  0.00    +0.000 A 
ATOM      9  C   UNL     1     -12.828  56.460  47.757  0.00  0.00    +0.000 A 
ATOM     10  C   UNL     1     -14.537  56.858  49.415  0.00  0.00    +0.000 A 
ATOM     11  C   UNL     1     -14.128  56.854  48.090  0.00  0.00    +0.000 A 
ENDROOT
BRANCH   1  17
ATOM     12  S   UNL     1      -7.008  54.678  53.093  0.00  0.00    +0.000 S 
ATOM     13  O   UNL     1      -6.921  55.649  54.169  0.00  0.00    +0.000 OA
ATOM     14  O   UNL     1      -5.823  54.303  52.350  0.00  0.00    +0.000 OA
ATOM     15  N   UNL     1      -8.114  55.217  52.035  0.00  0.00    +0.000 N 
ATOM     16  C   UNL     1      -7.610  53.198  53.824  0.00  0.00    +0.000 A 
ATOM     17  C   UNL     1      -9.267  54.628  51.920  0.00  0.00    +0.000 C 
ATOM     18  C   UNL     1      -8.898  52.799  53.507  0.00  0.00    +0.000 A 
ATOM     19  C   UNL     1      -6.795  52.457  54.683  0.00  0.00    +0.000 A 
ATOM     20  N   UNL     1      -9.709  53.561  52.673  0.00  0.00    +0.000 N 
ATOM     21  C   UNL     1      -9.403  51.648  54.123  0.00  0.00    +0.000 A 
ATOM     22  C   UNL     1      -7.300  51.297  55.264  0.00  0.00    +0.000 A 
ATOM     23  C   UNL     1      -8.609  50.895  54.989  0.00  0.00    +0.000 A 
ATOM     24  H   UNL     1      -7.909  55.999  51.474  0.00  0.00    +0.000 HD
ATOM     25  H   UNL     1     -10.662  53.321  52.615  0.00  0.00    +0.000 HD
ENDBRANCH   1  17
BRANCH   3  26
ATOM     26  O   UNL     1     -11.931  55.689  52.439  0.00  0.00    +0.000 OA
ATOM     27  H   UNL     1     -11.538  55.187  53.125  0.00  0.00    +0.000 HD
ENDBRANCH   3  26
BRANCH   5  28
ATOM     28  C   UNL     1     -10.096  55.581  47.028  0.00  0.00    +0.000 C 
BRANCH  28  29
ATOM     29  C   UNL     1     -10.044  54.244  46.267  0.00  0.00    +0.000 C 
BRANCH  29  30
ATOM     30  C   UNL     1     -11.256  53.985  45.418  0.00  0.00    +0.000 C 
ATOM     31  C   UNL     1     -12.034  52.698  45.454  0.00  0.00    +0.000 C 
ATOM     32  C   UNL     1     -11.129  52.991  44.292  0.00  0.00    +0.000 C 
ENDBRANCH  29  30
ENDBRANCH  28  29
ENDBRANCH   5  28
TORSDOF 5
ENDMDL
MODEL 4
REMARK VINA RESULT:      -7.8      4.105      5.091
REMARK  Name = 338298
REMARK  5 active torsions:
REMARK  status: ('A' for Active; 'I' for Inactive)
REMARK    1  A    between atoms: C_6  and  C_10
REMARK    2  A    between atoms: C_14  and  O_18
REMARK    3  A    between atoms: N_17  and  C_21
REMARK    4  A    between atoms: C_21  and  C_24
REMARK    5  A    between atoms: C_24  and  C_27
REMARK                            x       y       z     vdW  Elec       q    Type
REMARK                         _______ _______ _______ _____ _____    ______ ____
ROOT
ATOM      1  C   UNL     1     -12.435  54.337  49.546  0.00  0.00    +0.000 A 
ATOM      2  C   UNL     1     -11.834  54.403  48.185  0.00  0.00    +0.000 A 
ATOM      3  C   UNL     1     -12.207  53.278  50.335  0.00  0.00    +0.000 A 
ATOM      4  O   UNL     1     -12.089  55.411  47.523  0.00  0.00    +0.000 OA
ATOM      5  N   UNL     1     -11.013  53.372  47.743  0.00  0.00    +0.000 N 
ATOM      6  C   UNL     1     -11.338  52.187  49.873  0.00  0.00    +0.000 A 
ATOM      7  C   UNL     1     -10.768  52.228  48.583  0.00  0.00    +0.000 A 
ATOM      8  C   UNL     1     -11.059  51.104  50.728  0.00  0.00    +0.000 A 
ATOM      9  C   UNL     1      -9.954  51.153  48.185  0.00  0.00    +0.000 A 
ATOM     10  C   UNL     1     -10.214  50.073  50.329  0.00  0.00    +0.000 A 
ATOM     11  C   UNL     1      -9.665  50.097  49.056  0.00  0.00    +0.000 A 
ENDROOT
BRANCH   1  17
ATOM     12  S   UNL     1     -15.352  56.432  51.149  0.00  0.00    +0.000 S 
ATOM     13  O   UNL     1     -15.263  56.508  52.596  0.00  0.00    +0.000 OA
ATOM     14  O   UNL     1     -16.633  56.237  50.505  0.00  0.00    +0.000 OA
ATOM     15  N   UNL     1     -14.358  55.247  50.659  0.00  0.00    +0.000 N 
ATOM     16  C   UNL     1     -14.734  57.962  50.546  0.00  0.00    +0.000 A 
ATOM     17  C   UNL     1     -13.256  55.520  50.027  0.00  0.00    +0.000 C 
ATOM     18  C   UNL     1     -13.513  57.953  49.891  0.00  0.00    +0.000 A 
ATOM     19  C   UNL     1     -15.472  59.136  50.720  0.00  0.00    +0.000 A 
ATOM     20  N   UNL     1     -12.776  56.783  49.750  0.00  0.00    +0.000 N 
ATOM     21  C   UNL     1     -12.990  59.175  49.451  0.00  0.00    +0.000 A 
ATOM     22  C   UNL     1     -14.953  60.339  50.249  0.00  0.00    +0.000 A 
ATOM     23  C   UNL     1     -13.707  60.360  49.619  0.00  0.00    +0.000 A 
ATOM     24  H   UNL     1     -14.594  54.309  50.842  0.00  0.00    +0.000 HD
ATOM     25  H   UNL     1     -11.848  56.861  49.428  0.00  0.00    +0.000 HD
ENDBRANCH   1  17
BRANCH   3  26
ATOM     26  O   UNL     1     -12.719  53.135  51.613  0.00  0.00    +0.000 OA
ATOM     27  H   UNL     1     -12.270  53.514  52.343  0.00  0.00    +0.000 HD
ENDBRANCH   3  26
BRANCH   5  28
ATOM     28  C   UNL     1     -10.514  53.405  46.348  0.00  0.00    +0.000 C 
BRANCH  28  29
ATOM     29  C   UNL     1     -11.464  52.858  45.267  0.00  0.00    +0.000 C 
BRANCH  29  30
ATOM     30  C   UNL     1     -10.809  51.896  44.318  0.00  0.00    +0.000 C 
ATOM     31  C   UNL     1      -9.317  51.755  44.179  0.00  0.00    +0.000 C 
ATOM     32  C   UNL     1     -10.102  52.464  43.113  0.00  0.00    +0.000 C 
ENDBRANCH  29  30
ENDBRANCH  28  29
ENDBRANCH   5  28
TORSDOF 5
ENDMDL
MODEL 5
REMARK VINA RESULT:      -7.7      1.962      2.507
REMARK  Name = 338298
REMARK  5 active torsions:
REMARK  status: ('A' for Active; 'I' for Inactive)
REMARK    1  A    between atoms: C_6  and  C_10
REMARK    2  A    between atoms: C_14  and  O_18
REMARK    3  A    between atoms: N_17  and  C_21
REMARK    4  A    between atoms: C_21  and  C_24
REMARK    5  A    between atoms: C_24  and  C_27
REMARK                            x       y       z     vdW  Elec       q    Type
REMARK                         _______ _______ _______ _____ _____    ______ ____
ROOT
ATOM      1  C   UNL     1     -11.213  54.560  50.891  0.00  0.00    +0.000 A 
ATOM      2  C   UNL     1      -9.798  54.955  50.642  0.00  0.00    +0.000 A 
ATOM      3  C   UNL     1     -11.508  53.306  51.259  0.00  0.00    +0.000 A 
ATOM      4  O   UNL     1      -9.608  56.127  50.310  0.00  0.00    +0.000 OA
ATOM      5  N   UNL     1      -8.781  54.025  50.817  0.00  0.00    +0.000 N 
ATOM      6  C   UNL     1     -10.436  52.319  51.448  0.00  0.00    +0.000 A 
ATOM      7  C   UNL     1      -9.092  52.673  51.206  0.00  0.00    +0.000 A 
ATOM      8  C   UNL     1     -10.750  51.019  51.886  0.00  0.00    +0.000 A 
ATOM      9  C   UNL     1      -8.106  51.688  51.390  0.00  0.00    +0.000 A 
ATOM     10  C   UNL     1      -9.753  50.074  52.104  0.00  0.00    +0.000 A 
ATOM     11  C   UNL     1      -8.431  50.409  51.852  0.00  0.00    +0.000 A 
ENDROOT
BRANCH   1  17
ATOM     12  S   UNL     1     -13.579  57.300  49.355  0.00  0.00    +0.000 S 
ATOM     13  O   UNL     1     -14.728  56.734  48.670  0.00  0.00    +0.000 OA
ATOM     14  O   UNL     1     -12.874  58.429  48.787  0.00  0.00    +0.000 OA
ATOM     15  N   UNL     1     -12.507  56.103  49.585  0.00  0.00    +0.000 N 
ATOM     16  C   UNL     1     -14.165  57.832  50.923  0.00  0.00    +0.000 A 
ATOM     17  C   UNL     1     -12.288  55.625  50.773  0.00  0.00    +0.000 C 
ATOM     18  C   UNL     1     -13.752  57.126  52.041  0.00  0.00    +0.000 A 
ATOM     19  C   UNL     1     -15.008  58.942  51.018  0.00  0.00    +0.000 A 
ATOM     20  N   UNL     1     -12.935  56.006  51.930  0.00  0.00    +0.000 N 
ATOM     21  C   UNL     1     -14.253  57.514  53.289  0.00  0.00    +0.000 A 
ATOM     22  C   UNL     1     -15.474  59.335  52.270  0.00  0.00    +0.000 A 
ATOM     23  C   UNL     1     -15.101  58.615  53.407  0.00  0.00    +0.000 A 
ATOM     24  H   UNL     1     -12.018  55.735  48.814  0.00  0.00    +0.000 HD
ATOM     25  H   UNL     1     -12.810  55.448  52.731  0.00  0.00    +0.000 HD
ENDBRANCH   1  17
BRANCH   3  26
ATOM     26  O   UNL     1     -12.791  52.852  51.515  0.00  0.00    +0.000 OA
ATOM     27  H   UNL     1     -12.995  52.467  52.345  0.00  0.00    +0.000 HD
ENDBRANCH   3  26
BRANCH   5  28
ATOM     28  C   UNL     1      -7.394  54.408  50.460  0.00  0.00    +0.000 C 
BRANCH  28  29
ATOM     29  C   UNL     1      -6.614  55.216  51.513  0.00  0.00    +0.000 C 
BRANCH  29  30
ATOM     30  C   UNL     1      -6.741  54.672  52.907  0.00  0.00    +0.000 C 
ATOM     31  C   UNL     1      -7.550  55.339  53.987  0.00  0.00    +0.000 C 
ATOM     32  C   UNL     1      -6.051  55.417  54.021  0.00  0.00    +0.000 C 
ENDBRANCH  29  30
ENDBRANCH  28  29
ENDBRANCH   5  28
TORSDOF 5
ENDMDL
MODEL 6
REMARK VINA RESULT:      -7.6      2.278      2.576
REMARK  Name = 338298
REMARK  5 active torsions:
REMARK  status: ('A' for Active; 'I' for Inactive)
REMARK    1  A    between atoms: C_6  and  C_10
REMARK    2  A    between atoms: C_14  and  O_18
REMARK    3  A    between atoms: N_17  and  C_21
REMARK    4  A    between atoms: C_21  and  C_24
REMARK    5  A    between atoms: C_24  and  C_27
REMARK                            x       y       z     vdW  Elec       q    Type
REMARK                         _______ _______ _______ _____ _____    ______ ____
ROOT
ATOM      1  C   UNL     1     -11.278  54.491  50.662  0.00  0.00    +0.000 A 
ATOM      2  C   UNL     1      -9.912  54.852  50.189  0.00  0.00    +0.000 A 
ATOM      3  C   UNL     1     -11.519  53.269  51.158  0.00  0.00    +0.000 A 
ATOM      4  O   UNL     1      -9.771  55.996  49.750  0.00  0.00    +0.000 OA
ATOM      5  N   UNL     1      -8.880  53.927  50.287  0.00  0.00    +0.000 N 
ATOM      6  C   UNL     1     -10.431  52.287  51.266  0.00  0.00    +0.000 A 
ATOM      7  C   UNL     1      -9.134  52.610  50.814  0.00  0.00    +0.000 A 
ATOM      8  C   UNL     1     -10.680  51.026  51.838  0.00  0.00    +0.000 A 
ATOM      9  C   UNL     1      -8.132  51.631  50.928  0.00  0.00    +0.000 A 
ATOM     10  C   UNL     1      -9.662  50.089  51.982  0.00  0.00    +0.000 A 
ATOM     11  C   UNL     1      -8.389  50.391  51.523  0.00  0.00    +0.000 A 
ENDROOT
BRANCH   1  17
ATOM     12  S   UNL     1     -13.742  57.233  49.294  0.00  0.00    +0.000 S 
ATOM     13  O   UNL     1     -14.934  56.668  48.686  0.00  0.00    +0.000 OA
ATOM     14  O   UNL     1     -13.076  58.364  48.684  0.00  0.00    +0.000 OA
ATOM     15  N   UNL     1     -12.657  56.036  49.449  0.00  0.00    +0.000 N 
ATOM     16  C   UNL     1     -14.223  57.761  50.899  0.00  0.00    +0.000 A 
ATOM     17  C   UNL     1     -12.359  55.555  50.619  0.00  0.00    +0.000 C 
ATOM     18  C   UNL     1     -13.736  57.052  51.986  0.00  0.00    +0.000 A 
ATOM     19  C   UNL     1     -15.058  58.870  51.054  0.00  0.00    +0.000 A 
ATOM     20  N   UNL     1     -12.928  55.933  51.817  0.00  0.00    +0.000 N 
ATOM     21  C   UNL     1     -14.153  57.435  53.265  0.00  0.00    +0.000 A 
ATOM     22  C   UNL     1     -15.440  59.259  52.335  0.00  0.00    +0.000 A 
ATOM     23  C   UNL     1     -14.992  58.536  53.443  0.00  0.00    +0.000 A 
ATOM     24  H   UNL     1     -12.219  55.670  48.647  0.00  0.00    +0.000 HD
ATOM     25  H   UNL     1     -12.750  55.373  52.607  0.00  0.00    +0.000 HD
ENDBRANCH   1  17
BRANCH   3  26
ATOM     26  O   UNL     1     -12.753  52.848  51.624  0.00  0.00    +0.000 OA
ATOM     27  H   UNL     1     -13.484  53.434  51.609  0.00  0.00    +0.000 HD
ENDBRANCH   3  26
BRANCH   5  28
ATOM     28  C   UNL     1      -7.558  54.269  49.712  0.00  0.00    +0.000 C 
BRANCH  28  29
ATOM     29  C   UNL     1      -7.316  53.849  48.251  0.00  0.00    +0.000 C 
BRANCH  29  30
ATOM     30  C   UNL     1      -7.616  54.931  47.254  0.00  0.00    +0.000 C 
ATOM     31  C   UNL     1      -8.908  55.020  46.489  0.00  0.00    +0.000 C 
ATOM     32  C   UNL     1      -7.661  54.555  45.795  0.00  0.00    +0.000 C 
ENDBRANCH  29  30
ENDBRANCH  28  29
ENDBRANCH   5  28
TORSDOF 5
ENDMDL
MODEL 7
REMARK VINA RESULT:      -7.6      2.895      4.807
REMARK  Name = 338298
REMARK  5 active torsions:
REMARK  status: ('A' for Active; 'I' for Inactive)
REMARK    1  A    between atoms: C_6  and  C_10
REMARK    2  A    between atoms: C_14  and  O_18
REMARK    3  A    between atoms: N_17  and  C_21
REMARK    4  A    between atoms: C_21  and  C_24
REMARK    5  A    between atoms: C_24  and  C_27
REMARK                            x       y       z     vdW  Elec       q    Type
REMARK                         _______ _______ _______ _____ _____    ______ ____
ROOT
ATOM      1  C   UNL     1     -11.502  55.812  48.867  0.00  0.00    +0.000 A 
ATOM      2  C   UNL     1     -10.541  55.140  49.785  0.00  0.00    +0.000 A 
ATOM      3  C   UNL     1     -11.533  55.488  47.566  0.00  0.00    +0.000 A 
ATOM      4  O   UNL     1     -10.577  55.491  50.966  0.00  0.00    +0.000 OA
ATOM      5  N   UNL     1      -9.691  54.156  49.295  0.00  0.00    +0.000 N 
ATOM      6  C   UNL     1     -10.637  54.446  47.044  0.00  0.00    +0.000 A 
ATOM      7  C   UNL     1      -9.714  53.807  47.897  0.00  0.00    +0.000 A 
ATOM      8  C   UNL     1     -10.713  54.074  45.688  0.00  0.00    +0.000 A 
ATOM      9  C   UNL     1      -8.872  52.826  47.345  0.00  0.00    +0.000 A 
ATOM     10  C   UNL     1      -9.901  53.068  45.174  0.00  0.00    +0.000 A 
ATOM     11  C   UNL     1      -8.978  52.448  46.002  0.00  0.00    +0.000 A 
ENDROOT
BRANCH   1  17
ATOM     12  S   UNL     1     -13.503  59.148  49.440  0.00  0.00    +0.000 S 
ATOM     13  O   UNL     1     -14.635  59.290  48.541  0.00  0.00    +0.000 OA
ATOM     14  O   UNL     1     -12.664  60.288  49.743  0.00  0.00    +0.000 OA
ATOM     15  N   UNL     1     -12.556  57.969  48.853  0.00  0.00    +0.000 N 
ATOM     16  C   UNL     1     -14.169  58.616  50.976  0.00  0.00    +0.000 A 
ATOM     17  C   UNL     1     -12.473  56.820  49.454  0.00  0.00    +0.000 C 
ATOM     18  C   UNL     1     -13.908  57.315  51.378  0.00  0.00    +0.000 A 
ATOM     19  C   UNL     1     -14.923  59.494  51.758  0.00  0.00    +0.000 A 
ATOM     20  N   UNL     1     -13.179  56.443  50.577  0.00  0.00    +0.000 N 
ATOM     21  C   UNL     1     -14.475  56.868  52.576  0.00  0.00    +0.000 A 
ATOM     22  C   UNL     1     -15.456  59.044  52.963  0.00  0.00    +0.000 A 
ATOM     23  C   UNL     1     -15.237  57.726  53.370  0.00  0.00    +0.000 A 
ATOM     24  H   UNL     1     -12.036  58.126  48.032  0.00  0.00    +0.000 HD
ATOM     25  H   UNL     1     -13.166  55.491  50.830  0.00  0.00    +0.000 HD
ENDBRANCH   1  17
BRANCH   3  26
ATOM     26  O   UNL     1     -12.393  56.056  46.643  0.00  0.00    +0.000 OA
ATOM     27  H   UNL     1     -13.067  56.640  46.929  0.00  0.00    +0.000 HD
ENDBRANCH   3  26
BRANCH   5  28
ATOM     28  C   UNL     1      -8.670  53.578  50.201  0.00  0.00    +0.000 C 
BRANCH  28  29
ATOM     29  C   UNL     1      -7.424  54.442  50.468  0.00  0.00    +0.000 C 
BRANCH  29  30
ATOM     30  C   UNL     1      -6.254  54.099  49.590  0.00  0.00    +0.000 C 
ATOM     31  C   UNL     1      -4.860  53.880  50.114  0.00  0.00    +0.000 C 
ATOM     32  C   UNL     1      -5.193  55.151  49.386  0.00  0.00    +0.000 C 
ENDBRANCH  29  30
ENDBRANCH  28  29
ENDBRANCH   5  28
TORSDOF 5
ENDMDL
MODEL 8
REMARK VINA RESULT:      -7.6      1.606      2.305
REMARK  Name = 338298
REMARK  5 active torsions:
REMARK  status: ('A' for Active; 'I' for Inactive)
REMARK    1  A    between atoms: C_6  and  C_10
REMARK    2  A    between atoms: C_14  and  O_18
REMARK    3  A    between atoms: N_17  and  C_21
REMARK    4  A    between atoms: C_21  and  C_24
REMARK    5  A    between atoms: C_24  and  C_27
REMARK                            x       y       z     vdW  Elec       q    Type
REMARK                         _______ _______ _______ _____ _____    ______ ____
ROOT
ATOM      1  C   UNL     1     -10.172  54.574  52.193  0.00  0.00    +0.000 A 
ATOM      2  C   UNL     1      -8.783  55.112  52.166  0.00  0.00    +0.000 A 
ATOM      3  C   UNL     1     -10.447  53.450  52.870  0.00  0.00    +0.000 A 
ATOM      4  O   UNL     1      -8.612  56.151  51.524  0.00  0.00    +0.000 OA
ATOM      5  N   UNL     1      -7.776  54.459  52.866  0.00  0.00    +0.000 N 
ATOM      6  C   UNL     1      -9.386  52.757  53.613  0.00  0.00    +0.000 A 
ATOM      7  C   UNL     1      -8.063  53.247  53.590  0.00  0.00    +0.000 A 
ATOM      8  C   UNL     1      -9.694  51.608  54.365  0.00  0.00    +0.000 A 
ATOM      9  C   UNL     1      -7.083  52.540  54.308  0.00  0.00    +0.000 A 
ATOM     10  C   UNL     1      -8.716  50.950  55.105  0.00  0.00    +0.000 A 
ATOM     11  C   UNL     1      -7.411  51.415  55.072  0.00  0.00    +0.000 A 
ENDROOT
BRANCH   1  17
ATOM     12  S   UNL     1     -13.514  56.545  51.558  0.00  0.00    +0.000 S 
ATOM     13  O   UNL     1     -13.441  57.932  51.981  0.00  0.00    +0.000 OA
ATOM     14  O   UNL     1     -14.709  55.767  51.810  0.00  0.00    +0.000 OA
ATOM     15  N   UNL     1     -12.257  55.764  52.221  0.00  0.00    +0.000 N 
ATOM     16  C   UNL     1     -13.305  56.560  49.814  0.00  0.00    +0.000 A 
ATOM     17  C   UNL     1     -11.262  55.361  51.488  0.00  0.00    +0.000 C 
ATOM     18  C   UNL     1     -12.124  56.048  49.300  0.00  0.00    +0.000 A 
ATOM     19  C   UNL     1     -14.314  57.064  48.989  0.00  0.00    +0.000 A 
ATOM     20  N   UNL     1     -11.116  55.576  50.134  0.00  0.00    +0.000 N 
ATOM     21  C   UNL     1     -11.928  56.101  47.915  0.00  0.00    +0.000 A 
ATOM     22  C   UNL     1     -14.117  57.081  47.611  0.00  0.00    +0.000 A 
ATOM     23  C   UNL     1     -12.919  56.605  47.073  0.00  0.00    +0.000 A 
ATOM     24  H   UNL     1     -12.247  55.592  53.190  0.00  0.00    +0.000 HD
ATOM     25  H   UNL     1     -10.240  55.381  49.729  0.00  0.00    +0.000 HD
ENDBRANCH   1  17
BRANCH   3  26
ATOM     26  O   UNL     1     -11.706  52.881  52.953  0.00  0.00    +0.000 OA
ATOM     27  H   UNL     1     -11.825  51.974  52.749  0.00  0.00    +0.000 HD
ENDBRANCH   3  26
BRANCH   5  28
ATOM     28  C   UNL     1      -6.383  54.950  52.737  0.00  0.00    +0.000 C 
BRANCH  28  29
ATOM     29  C   UNL     1      -5.479  54.194  51.746  0.00  0.00    +0.000 C 
BRANCH  29  30
ATOM     30  C   UNL     1      -5.922  54.311  50.316  0.00  0.00    +0.000 C 
ATOM     31  C   UNL     1      -5.418  53.416  49.216  0.00  0.00    +0.000 C 
ATOM     32  C   UNL     1      -4.928  54.832  49.309  0.00  0.00    +0.000 C 
ENDBRANCH  29  30
ENDBRANCH  28  29
ENDBRANCH   5  28
TORSDOF 5
ENDMDL
MODEL 9
REMARK VINA RESULT:      -7.6      3.355      7.221
REMARK  Name = 338298
REMARK  5 active torsions:
REMARK  status: ('A' for Active; 'I' for Inactive)
REMARK    1  A    between atoms: C_6  and  C_10
REMARK    2  A    between atoms: C_14  and  O_18
REMARK    3  A    between atoms: N_17  and  C_21
REMARK    4  A    between atoms: C_21  and  C_24
REMARK    5  A    between atoms: C_24  and  C_27
REMARK                            x       y       z     vdW  Elec       q    Type
REMARK                         _______ _______ _______ _____ _____    ______ ____
ROOT
ATOM      1  C   UNL     1     -10.459  54.932  50.441  0.00  0.00    +0.000 A 
ATOM      2  C   UNL     1     -10.176  54.802  48.985  0.00  0.00    +0.000 A 
ATOM      3  C   UNL     1     -11.535  55.611  50.862  0.00  0.00    +0.000 A 
ATOM      4  O   UNL     1      -9.169  54.160  48.678  0.00  0.00    +0.000 OA
ATOM      5  N   UNL     1     -11.046  55.367  48.059  0.00  0.00    +0.000 N 
ATOM      6  C   UNL     1     -12.459  56.208  49.888  0.00  0.00    +0.000 A 
ATOM      7  C   UNL     1     -12.201  56.104  48.505  0.00  0.00    +0.000 A 
ATOM      8  C   UNL     1     -13.616  56.873  50.336  0.00  0.00    +0.000 A 
ATOM      9  C   UNL     1     -13.110  56.703  47.615  0.00  0.00    +0.000 A 
ATOM     10  C   UNL     1     -14.524  57.420  49.436  0.00  0.00    +0.000 A 
ATOM     11  C   UNL     1     -14.268  57.337  48.076  0.00  0.00    +0.000 A 
ENDROOT
BRANCH   1  17
ATOM     12  S   UNL     1      -9.012  52.225  52.899  0.00  0.00    +0.000 S 
ATOM     13  O   UNL     1      -8.337  51.140  52.211  0.00  0.00    +0.000 OA
ATOM     14  O   UNL     1      -9.867  51.950  54.034  0.00  0.00    +0.000 OA
ATOM     15  N   UNL     1      -9.885  53.037  51.798  0.00  0.00    +0.000 N 
ATOM     16  C   UNL     1      -7.742  53.283  53.495  0.00  0.00    +0.000 A 
ATOM     17  C   UNL     1      -9.534  54.229  51.418  0.00  0.00    +0.000 C 
ATOM     18  C   UNL     1      -7.602  54.525  52.896  0.00  0.00    +0.000 A 
ATOM     19  C   UNL     1      -6.920  52.872  54.547  0.00  0.00    +0.000 A 
ATOM     20  N   UNL     1      -8.408  54.910  51.830  0.00  0.00    +0.000 N 
ATOM     21  C   UNL     1      -6.562  55.354  53.331  0.00  0.00    +0.000 A 
ATOM     22  C   UNL     1      -5.910  53.721  54.990  0.00  0.00    +0.000 A 
ATOM     23  C   UNL     1      -5.725  54.962  54.376  0.00  0.00    +0.000 A 
ATOM     24  H   UNL     1     -10.690  52.621  51.414  0.00  0.00    +0.000 HD
ATOM     25  H   UNL     1      -8.158  55.726  51.338  0.00  0.00    +0.000 HD
ENDBRANCH   1  17
BRANCH   3  26
ATOM     26  O   UNL     1     -11.878  55.779  52.193  0.00  0.00    +0.000 OA
ATOM     27  H   UNL     1     -12.221  56.599  52.488  0.00  0.00    +0.000 HD
ENDBRANCH   3  26
BRANCH   5  28
ATOM     28  C   UNL     1     -10.688  55.319  46.622  0.00  0.00    +0.000 C 
BRANCH  28  29
ATOM     29  C   UNL     1     -11.486  54.334  45.749  0.00  0.00    +0.000 C 
BRANCH  29  30
ATOM     30  C   UNL     1     -10.701  53.123  45.333  0.00  0.00    +0.000 C 
ATOM     31  C   UNL     1     -10.402  52.781  43.898  0.00  0.00    +0.000 C 
ATOM     32  C   UNL     1     -11.441  52.001  44.651  0.00  0.00    +0.000 C 
ENDBRANCH  29  30
ENDBRANCH  28  29
ENDBRANCH   5  28
TORSDOF 5
ENDMDL
