MODEL 1
REMARK VINA RESULT:      -8.1      0.000      0.000
REMARK  Name = 338073
REMARK  6 active torsions:
REMARK  status: ('A' for Active; 'I' for Inactive)
REMARK    1  A    between atoms: C_6  and  C_10
REMARK    2  A    between atoms: C_14  and  O_18
REMARK    3  A    between atoms: N_17  and  C_21
REMARK    4  A    between atoms: C_21  and  C_24
REMARK    5  A    between atoms: C_24  and  C_27
REMARK    6  A    between atoms: C_27  and  C_28
REMARK                            x       y       z     vdW  Elec       q    Type
REMARK                         _______ _______ _______ _____ _____    ______ ____
ROOT
ATOM      1  C   UNL     1     -10.839  55.264  51.010  0.00  0.00    +0.000 A 
ATOM      2  C   UNL     1     -12.063  55.907  51.576  0.00  0.00    +0.000 A 
ATOM      3  C   UNL     1     -10.674  55.194  49.675  0.00  0.00    +0.000 A 
ATOM      4  O   UNL     1     -12.151  56.026  52.803  0.00  0.00    +0.000 OA
ATOM      5  N   UNL     1     -13.044  56.364  50.708  0.00  0.00    +0.000 N 
ATOM      6  C   UNL     1     -11.685  55.756  48.768  0.00  0.00    +0.000 A 
ATOM      7  C   UNL     1     -12.869  56.310  49.289  0.00  0.00    +0.000 A 
ATOM      8  C   UNL     1     -11.470  55.756  47.378  0.00  0.00    +0.000 A 
ATOM      9  C   UNL     1     -13.820  56.827  48.394  0.00  0.00    +0.000 A 
ATOM     10  C   UNL     1     -12.405  56.310  46.508  0.00  0.00    +0.000 A 
ATOM     11  C   UNL     1     -13.582  56.842  47.017  0.00  0.00    +0.000 A 
ENDROOT
BRANCH   1  17
ATOM     12  S   UNL     1      -7.405  54.949  52.901  0.00  0.00    +0.000 S 
ATOM     13  O   UNL     1      -7.273  55.910  53.977  0.00  0.00    +0.000 OA
ATOM     14  O   UNL     1      -6.280  54.662  52.032  0.00  0.00    +0.000 OA
ATOM     15  N   UNL     1      -8.646  55.419  51.971  0.00  0.00    +0.000 N 
ATOM     16  C   UNL     1      -7.832  53.422  53.657  0.00  0.00    +0.000 A 
ATOM     17  C   UNL     1      -9.766  54.760  51.954  0.00  0.00    +0.000 C 
ATOM     18  C   UNL     1      -9.118  52.944  53.469  0.00  0.00    +0.000 A 
ATOM     19  C   UNL     1      -6.884  52.726  54.413  0.00  0.00    +0.000 A 
ATOM     20  N   UNL     1     -10.053  53.649  52.718  0.00  0.00    +0.000 N 
ATOM     21  C   UNL     1      -9.484  51.764  54.125  0.00  0.00    +0.000 A 
ATOM     22  C   UNL     1      -7.252  51.533  55.028  0.00  0.00    +0.000 A 
ATOM     23  C   UNL     1      -8.556  51.058  54.894  0.00  0.00    +0.000 A 
ATOM     24  H   UNL     1      -8.550  56.221  51.407  0.00  0.00    +0.000 HD
ATOM     25  H   UNL     1     -10.985  53.332  52.732  0.00  0.00    +0.000 HD
ENDBRANCH   1  17
BRANCH   3  26
ATOM     26  O   UNL     1      -9.569  54.639  49.055  0.00  0.00    +0.000 OA
ATOM     27  H   UNL     1      -8.800  54.445  49.553  0.00  0.00    +0.000 HD
ENDBRANCH   3  26
BRANCH   5  28
ATOM     28  C   UNL     1     -14.248  56.950  51.303  0.00  0.00    +0.000 C 
BRANCH  28  29
ATOM     29  C   UNL     1     -14.085  58.449  51.597  0.00  0.00    +0.000 C 
BRANCH  29  30
ATOM     30  C   UNL     1     -15.039  59.311  50.768  0.00  0.00    +0.000 C 
BRANCH  30  31
ATOM     31  C   UNL     1     -14.306  60.144  49.740  0.00  0.00    +0.000 C 
ATOM     32  O   UNL     1     -14.852  60.857  48.912  0.00  0.00    +0.000 OA
ATOM     33  O   UNL     1     -12.964  60.030  49.822  0.00  0.00    +0.000 OA
ENDBRANCH  30  31
ENDBRANCH  29  30
ENDBRANCH  28  29
ENDBRANCH   5  28
TORSDOF 6
ENDMDL
MODEL 2
REMARK VINA RESULT:      -8.0      2.578      7.757
REMARK  Name = 338073
REMARK  6 active torsions:
REMARK  status: ('A' for Active; 'I' for Inactive)
REMARK    1  A    between atoms: C_6  and  C_10
REMARK    2  A    between atoms: C_14  and  O_18
REMARK    3  A    between atoms: N_17  and  C_21
REMARK    4  A    between atoms: C_21  and  C_24
REMARK    5  A    between atoms: C_24  and  C_27
REMARK    6  A    between atoms: C_27  and  C_28
REMARK                            x       y       z     vdW  Elec       q    Type
REMARK                         _______ _______ _______ _____ _____    ______ ____
ROOT
ATOM      1  C   UNL     1     -10.085  54.424  52.256  0.00  0.00    +0.000 A 
ATOM      2  C   UNL     1      -8.700  54.963  52.106  0.00  0.00    +0.000 A 
ATOM      3  C   UNL     1     -10.302  53.330  53.011  0.00  0.00    +0.000 A 
ATOM      4  O   UNL     1      -8.542  56.012  51.471  0.00  0.00    +0.000 OA
ATOM      5  N   UNL     1      -7.647  54.281  52.698  0.00  0.00    +0.000 N 
ATOM      6  C   UNL     1      -9.185  52.665  53.699  0.00  0.00    +0.000 A 
ATOM      7  C   UNL     1      -7.870  53.129  53.515  0.00  0.00    +0.000 A 
ATOM      8  C   UNL     1      -9.427  51.574  54.552  0.00  0.00    +0.000 A 
ATOM      9  C   UNL     1      -6.824  52.463  54.178  0.00  0.00    +0.000 A 
ATOM     10  C   UNL     1      -8.383  50.952  55.232  0.00  0.00    +0.000 A 
ATOM     11  C   UNL     1      -7.082  51.396  55.042  0.00  0.00    +0.000 A 
ENDROOT
BRANCH   1  17
ATOM     12  S   UNL     1     -12.452  55.930  49.500  0.00  0.00    +0.000 S 
ATOM     13  O   UNL     1     -13.353  54.942  48.940  0.00  0.00    +0.000 OA
ATOM     14  O   UNL     1     -11.808  56.905  48.640  0.00  0.00    +0.000 OA
ATOM     15  N   UNL     1     -11.294  55.138  50.310  0.00  0.00    +0.000 N 
ATOM     16  C   UNL     1     -13.396  56.856  50.654  0.00  0.00    +0.000 A 
ATOM     17  C   UNL     1     -11.240  55.163  51.608  0.00  0.00    +0.000 C 
ATOM     18  C   UNL     1     -13.122  56.685  52.001  0.00  0.00    +0.000 A 
ATOM     19  C   UNL     1     -14.384  57.738  50.204  0.00  0.00    +0.000 A 
ATOM     20  N   UNL     1     -12.139  55.801  52.436  0.00  0.00    +0.000 N 
ATOM     21  C   UNL     1     -13.916  57.368  52.928  0.00  0.00    +0.000 A 
ATOM     22  C   UNL     1     -15.141  58.440  51.138  0.00  0.00    +0.000 A 
ATOM     23  C   UNL     1     -14.916  58.246  52.500  0.00  0.00    +0.000 A 
ATOM     24  H   UNL     1     -10.618  54.626  49.809  0.00  0.00    +0.000 HD
ATOM     25  H   UNL     1     -12.081  55.618  53.401  0.00  0.00    +0.000 HD
ENDBRANCH   1  17
BRANCH   3  26
ATOM     26  O   UNL     1     -11.547  52.768  53.229  0.00  0.00    +0.000 OA
ATOM     27  H   UNL     1     -11.782  51.968  52.802  0.00  0.00    +0.000 HD
ENDBRANCH   3  26
BRANCH   5  28
ATOM     28  C   UNL     1      -6.299  54.818  52.492  0.00  0.00    +0.000 C 
BRANCH  28  29
ATOM     29  C   UNL     1      -5.553  54.105  51.355  0.00  0.00    +0.000 C 
BRANCH  29  30
ATOM     30  C   UNL     1      -5.558  54.917  50.058  0.00  0.00    +0.000 C 
BRANCH  30  31
ATOM     31  C   UNL     1      -6.561  54.385  49.057  0.00  0.00    +0.000 C 
ATOM     32  O   UNL     1      -6.865  54.949  48.018  0.00  0.00    +0.000 OA
ATOM     33  O   UNL     1      -7.102  53.203  49.422  0.00  0.00    +0.000 OA
ENDBRANCH  30  31
ENDBRANCH  29  30
ENDBRANCH  28  29
ENDBRANCH   5  28
TORSDOF 6
ENDMDL
MODEL 3
REMARK VINA RESULT:      -7.8      2.806      6.896
REMARK  Name = 338073
REMARK  6 active torsions:
REMARK  status: ('A' for Active; 'I' for Inactive)
REMARK    1  A    between atoms: C_6  and  C_10
REMARK    2  A    between atoms: C_14  and  O_18
REMARK    3  A    between atoms: N_17  and  C_21
REMARK    4  A    between atoms: C_21  and  C_24
REMARK    5  A    between atoms: C_24  and  C_27
REMARK    6  A    between atoms: C_27  and  C_28
REMARK                            x       y       z     vdW  Elec       q    Type
REMARK                         _______ _______ _______ _____ _____    ______ ____
ROOT
ATOM      1  C   UNL     1     -11.491  55.860  48.852  0.00  0.00    +0.000 A 
ATOM      2  C   UNL     1     -10.505  55.169  49.735  0.00  0.00    +0.000 A 
ATOM      3  C   UNL     1     -11.555  55.547  47.543  0.00  0.00    +0.000 A 
ATOM      4  O   UNL     1     -10.522  55.420  50.945  0.00  0.00    +0.000 OA
ATOM      5  N   UNL     1      -9.621  54.260  49.172  0.00  0.00    +0.000 N 
ATOM      6  C   UNL     1     -10.665  54.523  46.977  0.00  0.00    +0.000 A 
ATOM      7  C   UNL     1      -9.692  53.910  47.788  0.00  0.00    +0.000 A 
ATOM      8  C   UNL     1     -10.791  54.140  45.630  0.00  0.00    +0.000 A 
ATOM      9  C   UNL     1      -8.851  52.942  47.212  0.00  0.00    +0.000 A 
ATOM     10  C   UNL     1      -9.976  53.151  45.087  0.00  0.00    +0.000 A 
ATOM     11  C   UNL     1      -9.003  52.555  45.878  0.00  0.00    +0.000 A 
ENDROOT
BRANCH   1  17
ATOM     12  S   UNL     1     -13.529  59.172  49.442  0.00  0.00    +0.000 S 
ATOM     13  O   UNL     1     -14.663  59.294  48.549  0.00  0.00    +0.000 OA
ATOM     14  O   UNL     1     -12.702  60.326  49.738  0.00  0.00    +0.000 OA
ATOM     15  N   UNL     1     -12.566  58.005  48.860  0.00  0.00    +0.000 N 
ATOM     16  C   UNL     1     -14.175  58.634  50.984  0.00  0.00    +0.000 A 
ATOM     17  C   UNL     1     -12.457  56.857  49.460  0.00  0.00    +0.000 C 
ATOM     18  C   UNL     1     -13.897  57.338  51.386  0.00  0.00    +0.000 A 
ATOM     19  C   UNL     1     -14.936  59.507  51.767  0.00  0.00    +0.000 A 
ATOM     20  N   UNL     1     -13.142  56.478  50.595  0.00  0.00    +0.000 N 
ATOM     21  C   UNL     1     -14.466  56.882  52.580  0.00  0.00    +0.000 A 
ATOM     22  C   UNL     1     -15.464  59.050  52.972  0.00  0.00    +0.000 A 
ATOM     23  C   UNL     1     -15.239  57.735  53.372  0.00  0.00    +0.000 A 
ATOM     24  H   UNL     1     -12.055  58.168  48.035  0.00  0.00    +0.000 HD
ATOM     25  H   UNL     1     -13.092  55.532  50.864  0.00  0.00    +0.000 HD
ENDBRANCH   1  17
BRANCH   3  26
ATOM     26  O   UNL     1     -12.445  56.114  46.649  0.00  0.00    +0.000 OA
ATOM     27  H   UNL     1     -13.203  56.566  46.964  0.00  0.00    +0.000 HD
ENDBRANCH   3  26
BRANCH   5  28
ATOM     28  C   UNL     1      -8.640  53.635  50.065  0.00  0.00    +0.000 C 
BRANCH  28  29
ATOM     29  C   UNL     1      -7.361  54.473  50.206  0.00  0.00    +0.000 C 
BRANCH  29  30
ATOM     30  C   UNL     1      -6.897  54.585  51.660  0.00  0.00    +0.000 C 
BRANCH  30  31
ATOM     31  C   UNL     1      -7.222  55.935  52.259  0.00  0.00    +0.000 C 
ATOM     32  O   UNL     1      -7.198  56.184  53.455  0.00  0.00    +0.000 OA
ATOM     33  O   UNL     1      -7.545  56.864  51.334  0.00  0.00    +0.000 OA
ENDBRANCH  30  31
ENDBRANCH  29  30
ENDBRANCH  28  29
ENDBRANCH   5  28
TORSDOF 6
ENDMDL
MODEL 4
REMARK VINA RESULT:      -7.8      3.869      7.979
REMARK  Name = 338073
REMARK  6 active torsions:
REMARK  status: ('A' for Active; 'I' for Inactive)
REMARK    1  A    between atoms: C_6  and  C_10
REMARK    2  A    between atoms: C_14  and  O_18
REMARK    3  A    between atoms: N_17  and  C_21
REMARK    4  A    between atoms: C_21  and  C_24
REMARK    5  A    between atoms: C_24  and  C_27
REMARK    6  A    between atoms: C_27  and  C_28
REMARK                            x       y       z     vdW  Elec       q    Type
REMARK                         _______ _______ _______ _____ _____    ______ ____
ROOT
ATOM      1  C   UNL     1     -12.409  54.230  49.767  0.00  0.00    +0.000 A 
ATOM      2  C   UNL     1     -11.765  54.188  48.420  0.00  0.00    +0.000 A 
ATOM      3  C   UNL     1     -12.201  53.229  50.643  0.00  0.00    +0.000 A 
ATOM      4  O   UNL     1     -11.912  55.157  47.667  0.00  0.00    +0.000 OA
ATOM      5  N   UNL     1     -11.013  53.076  48.071  0.00  0.00    +0.000 N 
ATOM      6  C   UNL     1     -11.334  52.095  50.287  0.00  0.00    +0.000 A 
ATOM      7  C   UNL     1     -10.772  52.016  49.000  0.00  0.00    +0.000 A 
ATOM      8  C   UNL     1     -11.052  51.094  51.233  0.00  0.00    +0.000 A 
ATOM      9  C   UNL     1      -9.958  50.913  48.689  0.00  0.00    +0.000 A 
ATOM     10  C   UNL     1     -10.211  50.030  50.921  0.00  0.00    +0.000 A 
ATOM     11  C   UNL     1      -9.667  49.938  49.647  0.00  0.00    +0.000 A 
ENDROOT
BRANCH   1  17
ATOM     12  S   UNL     1     -15.364  56.418  51.164  0.00  0.00    +0.000 S 
ATOM     13  O   UNL     1     -15.337  56.532  52.609  0.00  0.00    +0.000 OA
ATOM     14  O   UNL     1     -16.621  56.221  50.469  0.00  0.00    +0.000 OA
ATOM     15  N   UNL     1     -14.369  55.209  50.747  0.00  0.00    +0.000 N 
ATOM     16  C   UNL     1     -14.699  57.918  50.541  0.00  0.00    +0.000 A 
ATOM     17  C   UNL     1     -13.236  55.441  50.153  0.00  0.00    +0.000 C 
ATOM     18  C   UNL     1     -13.449  57.875  49.945  0.00  0.00    +0.000 A 
ATOM     19  C   UNL     1     -15.429  59.106  50.648  0.00  0.00    +0.000 A 
ATOM     20  N   UNL     1     -12.731  56.687  49.848  0.00  0.00    +0.000 N 
ATOM     21  C   UNL     1     -12.885  59.078  49.508  0.00  0.00    +0.000 A 
ATOM     22  C   UNL     1     -14.870  60.290  50.174  0.00  0.00    +0.000 A 
ATOM     23  C   UNL     1     -13.593  60.278  49.615  0.00  0.00    +0.000 A 
ATOM     24  H   UNL     1     -14.626  54.280  50.948  0.00  0.00    +0.000 HD
ATOM     25  H   UNL     1     -11.798  56.739  49.541  0.00  0.00    +0.000 HD
ENDBRANCH   1  17
BRANCH   3  26
ATOM     26  O   UNL     1     -12.734  53.186  51.919  0.00  0.00    +0.000 OA
ATOM     27  H   UNL     1     -13.065  52.380  52.262  0.00  0.00    +0.000 HD
ENDBRANCH   3  26
BRANCH   5  28
ATOM     28  C   UNL     1     -10.433  53.053  46.725  0.00  0.00    +0.000 C 
BRANCH  28  29
ATOM     29  C   UNL     1     -11.412  52.510  45.674  0.00  0.00    +0.000 C 
BRANCH  29  30
ATOM     30  C   UNL     1     -11.213  53.159  44.303  0.00  0.00    +0.000 C 
BRANCH  30  31
ATOM     31  C   UNL     1     -10.046  52.556  43.552  0.00  0.00    +0.000 C 
ATOM     32  O   UNL     1      -8.930  53.049  43.498  0.00  0.00    +0.000 OA
ATOM     33  O   UNL     1     -10.353  51.396  42.934  0.00  0.00    +0.000 OA
ENDBRANCH  30  31
ENDBRANCH  29  30
ENDBRANCH  28  29
ENDBRANCH   5  28
TORSDOF 6
ENDMDL
MODEL 5
REMARK VINA RESULT:      -7.7      1.979      4.085
REMARK  Name = 338073
REMARK  6 active torsions:
REMARK  status: ('A' for Active; 'I' for Inactive)
REMARK    1  A    between atoms: C_6  and  C_10
REMARK    2  A    between atoms: C_14  and  O_18
REMARK    3  A    between atoms: N_17  and  C_21
REMARK    4  A    between atoms: C_21  and  C_24
REMARK    5  A    between atoms: C_24  and  C_27
REMARK    6  A    between atoms: C_27  and  C_28
REMARK                            x       y       z     vdW  Elec       q    Type
REMARK                         _______ _______ _______ _____ _____    ______ ____
ROOT
ATOM      1  C   UNL     1     -10.298  55.171  50.783  0.00  0.00    +0.000 A 
ATOM      2  C   UNL     1      -9.925  55.082  49.340  0.00  0.00    +0.000 A 
ATOM      3  C   UNL     1     -11.500  55.665  51.137  0.00  0.00    +0.000 A 
ATOM      4  O   UNL     1      -8.848  54.554  49.041  0.00  0.00    +0.000 OA
ATOM      5  N   UNL     1     -10.805  55.577  48.388  0.00  0.00    +0.000 N 
ATOM      6  C   UNL     1     -12.455  56.110  50.112  0.00  0.00    +0.000 A 
ATOM      7  C   UNL     1     -12.090  56.087  48.753  0.00  0.00    +0.000 A 
ATOM      8  C   UNL     1     -13.739  56.547  50.480  0.00  0.00    +0.000 A 
ATOM      9  C   UNL     1     -13.022  56.530  47.799  0.00  0.00    +0.000 A 
ATOM     10  C   UNL     1     -14.664  56.945  49.519  0.00  0.00    +0.000 A 
ATOM     11  C   UNL     1     -14.304  56.939  48.178  0.00  0.00    +0.000 A 
ENDROOT
BRANCH   1  17
ATOM     12  S   UNL     1      -7.061  54.725  52.972  0.00  0.00    +0.000 S 
ATOM     13  O   UNL     1      -6.967  55.708  54.033  0.00  0.00    +0.000 OA
ATOM     14  O   UNL     1      -5.883  54.354  52.211  0.00  0.00    +0.000 OA
ATOM     15  N   UNL     1      -8.189  55.235  51.927  0.00  0.00    +0.000 N 
ATOM     16  C   UNL     1      -7.635  53.246  53.724  0.00  0.00    +0.000 A 
ATOM     17  C   UNL     1      -9.339  54.636  51.828  0.00  0.00    +0.000 C 
ATOM     18  C   UNL     1      -8.925  52.832  53.437  0.00  0.00    +0.000 A 
ATOM     19  C   UNL     1      -6.795  52.522  54.576  0.00  0.00    +0.000 A 
ATOM     20  N   UNL     1      -9.752  53.565  52.591  0.00  0.00    +0.000 N 
ATOM     21  C   UNL     1      -9.412  51.693  54.086  0.00  0.00    +0.000 A 
ATOM     22  C   UNL     1      -7.281  51.368  55.184  0.00  0.00    +0.000 A 
ATOM     23  C   UNL     1      -8.593  50.960  54.949  0.00  0.00    +0.000 A 
ATOM     24  H   UNL     1      -8.001  56.014  51.355  0.00  0.00    +0.000 HD
ATOM     25  H   UNL     1     -10.698  53.299  52.532  0.00  0.00    +0.000 HD
ENDBRANCH   1  17
BRANCH   3  26
ATOM     26  O   UNL     1     -11.946  55.769  52.442  0.00  0.00    +0.000 OA
ATOM     27  H   UNL     1     -11.415  55.453  53.146  0.00  0.00    +0.000 HD
ENDBRANCH   3  26
BRANCH   5  28
ATOM     28  C   UNL     1     -10.384  55.510  46.985  0.00  0.00    +0.000 C 
BRANCH  28  29
ATOM     29  C   UNL     1     -11.215  54.507  46.172  0.00  0.00    +0.000 C 
BRANCH  29  30
ATOM     30  C   UNL     1     -10.914  53.056  46.556  0.00  0.00    +0.000 C 
BRANCH  30  31
ATOM     31  C   UNL     1     -12.093  52.389  47.230  0.00  0.00    +0.000 C 
ATOM     32  O   UNL     1     -12.418  52.571  48.393  0.00  0.00    +0.000 OA
ATOM     33  O   UNL     1     -12.772  51.557  46.411  0.00  0.00    +0.000 OA
ENDBRANCH  30  31
ENDBRANCH  29  30
ENDBRANCH  28  29
ENDBRANCH   5  28
TORSDOF 6
ENDMDL
MODEL 6
REMARK VINA RESULT:      -7.5      2.279      7.854
REMARK  Name = 338073
REMARK  6 active torsions:
REMARK  status: ('A' for Active; 'I' for Inactive)
REMARK    1  A    between atoms: C_6  and  C_10
REMARK    2  A    between atoms: C_14  and  O_18
REMARK    3  A    between atoms: N_17  and  C_21
REMARK    4  A    between atoms: C_21  and  C_24
REMARK    5  A    between atoms: C_24  and  C_27
REMARK    6  A    between atoms: C_27  and  C_28
REMARK                            x       y       z     vdW  Elec       q    Type
REMARK                         _______ _______ _______ _____ _____    ______ ____
ROOT
ATOM      1  C   UNL     1     -10.185  54.548  52.162  0.00  0.00    +0.000 A 
ATOM      2  C   UNL     1      -8.785  55.067  52.127  0.00  0.00    +0.000 A 
ATOM      3  C   UNL     1     -10.472  53.437  52.868  0.00  0.00    +0.000 A 
ATOM      4  O   UNL     1      -8.565  56.129  51.536  0.00  0.00    +0.000 OA
ATOM      5  N   UNL     1      -7.788  54.350  52.773  0.00  0.00    +0.000 N 
ATOM      6  C   UNL     1      -9.418  52.734  53.614  0.00  0.00    +0.000 A 
ATOM      7  C   UNL     1      -8.086  53.180  53.539  0.00  0.00    +0.000 A 
ATOM      8  C   UNL     1      -9.737  51.624  54.416  0.00  0.00    +0.000 A 
ATOM      9  C   UNL     1      -7.101  52.478  54.255  0.00  0.00    +0.000 A 
ATOM     10  C   UNL     1      -8.755  50.966  55.151  0.00  0.00    +0.000 A 
ATOM     11  C   UNL     1      -7.437  51.391  55.067  0.00  0.00    +0.000 A 
ENDROOT
BRANCH   1  17
ATOM     12  S   UNL     1     -13.524  56.530  51.539  0.00  0.00    +0.000 S 
ATOM     13  O   UNL     1     -13.441  57.910  51.973  0.00  0.00    +0.000 OA
ATOM     14  O   UNL     1     -14.724  55.754  51.789  0.00  0.00    +0.000 OA
ATOM     15  N   UNL     1     -12.271  55.733  52.188  0.00  0.00    +0.000 N 
ATOM     16  C   UNL     1     -13.319  56.552  49.795  0.00  0.00    +0.000 A 
ATOM     17  C   UNL     1     -11.278  55.324  51.455  0.00  0.00    +0.000 C 
ATOM     18  C   UNL     1     -12.141  56.042  49.275  0.00  0.00    +0.000 A 
ATOM     19  C   UNL     1     -14.330  57.066  48.978  0.00  0.00    +0.000 A 
ATOM     20  N   UNL     1     -11.141  55.537  50.100  0.00  0.00    +0.000 N 
ATOM     21  C   UNL     1     -11.943  56.119  47.892  0.00  0.00    +0.000 A 
ATOM     22  C   UNL     1     -14.134  57.101  47.600  0.00  0.00    +0.000 A 
ATOM     23  C   UNL     1     -12.937  56.639  47.058  0.00  0.00    +0.000 A 
ATOM     24  H   UNL     1     -12.261  55.556  53.156  0.00  0.00    +0.000 HD
ATOM     25  H   UNL     1     -10.275  55.316  49.688  0.00  0.00    +0.000 HD
ENDBRANCH   1  17
BRANCH   3  26
ATOM     26  O   UNL     1     -11.738  52.891  52.979  0.00  0.00    +0.000 OA
ATOM     27  H   UNL     1     -12.136  52.475  52.241  0.00  0.00    +0.000 HD
ENDBRANCH   3  26
BRANCH   5  28
ATOM     28  C   UNL     1      -6.420  54.869  52.680  0.00  0.00    +0.000 C 
BRANCH  28  29
ATOM     29  C   UNL     1      -5.535  54.023  51.752  0.00  0.00    +0.000 C 
BRANCH  29  30
ATOM     30  C   UNL     1      -6.221  53.712  50.419  0.00  0.00    +0.000 C 
BRANCH  30  31
ATOM     31  C   UNL     1      -6.044  54.828  49.413  0.00  0.00    +0.000 C 
ATOM     32  O   UNL     1      -5.007  55.452  49.249  0.00  0.00    +0.000 OA
ATOM     33  O   UNL     1      -7.158  55.076  48.692  0.00  0.00    +0.000 OA
ENDBRANCH  30  31
ENDBRANCH  29  30
ENDBRANCH  28  29
ENDBRANCH   5  28
TORSDOF 6
ENDMDL
MODEL 7
REMARK VINA RESULT:      -7.5      2.645      7.731
REMARK  Name = 338073
REMARK  6 active torsions:
REMARK  status: ('A' for Active; 'I' for Inactive)
REMARK    1  A    between atoms: C_6  and  C_10
REMARK    2  A    between atoms: C_14  and  O_18
REMARK    3  A    between atoms: N_17  and  C_21
REMARK    4  A    between atoms: C_21  and  C_24
REMARK    5  A    between atoms: C_24  and  C_27
REMARK    6  A    between atoms: C_27  and  C_28
REMARK                            x       y       z     vdW  Elec       q    Type
REMARK                         _______ _______ _______ _____ _____    ______ ____
ROOT
ATOM      1  C   UNL     1     -11.418  54.059  51.368  0.00  0.00    +0.000 A 
ATOM      2  C   UNL     1     -10.423  54.189  52.475  0.00  0.00    +0.000 A 
ATOM      3  C   UNL     1     -11.560  52.883  50.727  0.00  0.00    +0.000 A 
ATOM      4  O   UNL     1     -10.368  55.255  53.096  0.00  0.00    +0.000 OA
ATOM      5  N   UNL     1      -9.611  53.105  52.777  0.00  0.00    +0.000 N 
ATOM      6  C   UNL     1     -10.749  51.720  51.114  0.00  0.00    +0.000 A 
ATOM      7  C   UNL     1      -9.767  51.848  52.114  0.00  0.00    +0.000 A 
ATOM      8  C   UNL     1     -10.958  50.473  50.499  0.00  0.00    +0.000 A 
ATOM      9  C   UNL     1      -9.001  50.719  52.451  0.00  0.00    +0.000 A 
ATOM     10  C   UNL     1     -10.218  49.356  50.874  0.00  0.00    +0.000 A 
ATOM     11  C   UNL     1      -9.237  49.480  51.849  0.00  0.00    +0.000 A 
ENDROOT
BRANCH   1  17
ATOM     12  S   UNL     1     -13.142  56.944  49.326  0.00  0.00    +0.000 S 
ATOM     13  O   UNL     1     -14.223  56.464  48.488  0.00  0.00    +0.000 OA
ATOM     14  O   UNL     1     -12.218  57.946  48.828  0.00  0.00    +0.000 OA
ATOM     15  N   UNL     1     -12.276  55.659  49.799  0.00  0.00    +0.000 N 
ATOM     16  C   UNL     1     -13.899  57.651  50.744  0.00  0.00    +0.000 A 
ATOM     17  C   UNL     1     -12.304  55.241  51.030  0.00  0.00    +0.000 C 
ATOM     18  C   UNL     1     -13.766  56.982  51.950  0.00  0.00    +0.000 A 
ATOM     19  C   UNL     1     -14.601  58.855  50.637  0.00  0.00    +0.000 A 
ATOM     20  N   UNL     1     -13.067  55.782  52.043  0.00  0.00    +0.000 N 
ATOM     21  C   UNL     1     -14.423  57.504  53.069  0.00  0.00    +0.000 A 
ATOM     22  C   UNL     1     -15.218  59.382  51.768  0.00  0.00    +0.000 A 
ATOM     23  C   UNL     1     -15.139  58.700  52.981  0.00  0.00    +0.000 A 
ATOM     24  H   UNL     1     -11.719  55.183  49.141  0.00  0.00    +0.000 HD
ATOM     25  H   UNL     1     -13.122  55.284  52.890  0.00  0.00    +0.000 HD
ENDBRANCH   1  17
BRANCH   3  26
ATOM     26  O   UNL     1     -12.466  52.658  49.706  0.00  0.00    +0.000 OA
ATOM     27  H   UNL     1     -13.115  51.989  49.794  0.00  0.00    +0.000 HD
ENDBRANCH   3  26
BRANCH   5  28
ATOM     28  C   UNL     1      -8.618  53.285  53.840  0.00  0.00    +0.000 C 
BRANCH  28  29
ATOM     29  C   UNL     1      -7.352  53.998  53.344  0.00  0.00    +0.000 C 
BRANCH  29  30
ATOM     30  C   UNL     1      -6.399  54.352  54.488  0.00  0.00    +0.000 C 
BRANCH  30  31
ATOM     31  C   UNL     1      -5.020  54.720  53.987  0.00  0.00    +0.000 C 
ATOM     32  O   UNL     1      -4.207  55.376  54.619  0.00  0.00    +0.000 OA
ATOM     33  O   UNL     1      -4.759  54.245  52.750  0.00  0.00    +0.000 OA
ENDBRANCH  30  31
ENDBRANCH  29  30
ENDBRANCH  28  29
ENDBRANCH   5  28
TORSDOF 6
ENDMDL
MODEL 8
REMARK VINA RESULT:      -7.5      1.589      2.028
REMARK  Name = 338073
REMARK  6 active torsions:
REMARK  status: ('A' for Active; 'I' for Inactive)
REMARK    1  A    between atoms: C_6  and  C_10
REMARK    2  A    between atoms: C_14  and  O_18
REMARK    3  A    between atoms: N_17  and  C_21
REMARK    4  A    between atoms: C_21  and  C_24
REMARK    5  A    between atoms: C_24  and  C_27
REMARK    6  A    between atoms: C_27  and  C_28
REMARK                            x       y       z     vdW  Elec       q    Type
REMARK                         _______ _______ _______ _____ _____    ______ ____
ROOT
ATOM      1  C   UNL     1      -9.781  54.243  51.105  0.00  0.00    +0.000 A 
ATOM      2  C   UNL     1     -10.920  55.149  51.438  0.00  0.00    +0.000 A 
ATOM      3  C   UNL     1      -9.496  53.967  49.818  0.00  0.00    +0.000 A 
ATOM      4  O   UNL     1     -11.110  55.445  52.623  0.00  0.00    +0.000 OA
ATOM      5  N   UNL     1     -11.710  55.640  50.409  0.00  0.00    +0.000 N 
ATOM      6  C   UNL     1     -10.293  54.561  48.734  0.00  0.00    +0.000 A 
ATOM      7  C   UNL     1     -11.405  55.367  49.039  0.00  0.00    +0.000 A 
ATOM      8  C   UNL     1      -9.941  54.338  47.391  0.00  0.00    +0.000 A 
ATOM      9  C   UNL     1     -12.152  55.909  47.979  0.00  0.00    +0.000 A 
ATOM     10  C   UNL     1     -10.669  54.916  46.355  0.00  0.00    +0.000 A 
ATOM     11  C   UNL     1     -11.776  55.699  46.650  0.00  0.00    +0.000 A 
ENDROOT
BRANCH   1  17
ATOM     12  S   UNL     1      -6.645  53.554  53.377  0.00  0.00    +0.000 S 
ATOM     13  O   UNL     1      -6.375  54.641  54.297  0.00  0.00    +0.000 OA
ATOM     14  O   UNL     1      -5.555  52.888  52.690  0.00  0.00    +0.000 OA
ATOM     15  N   UNL     1      -7.681  54.102  52.258  0.00  0.00    +0.000 N 
ATOM     16  C   UNL     1      -7.455  52.310  54.314  0.00  0.00    +0.000 A 
ATOM     17  C   UNL     1      -8.916  53.699  52.226  0.00  0.00    +0.000 C 
ATOM     18  C   UNL     1      -8.800  52.086  54.069  0.00  0.00    +0.000 A 
ATOM     19  C   UNL     1      -6.743  51.576  55.268  0.00  0.00    +0.000 A 
ATOM     20  N   UNL     1      -9.498  52.827  53.120  0.00  0.00    +0.000 N 
ATOM     21  C   UNL     1      -9.467  51.144  54.859  0.00  0.00    +0.000 A 
ATOM     22  C   UNL     1      -7.412  50.614  56.020  0.00  0.00    +0.000 A 
ATOM     23  C   UNL     1      -8.776  50.407  55.824  0.00  0.00    +0.000 A 
ATOM     24  H   UNL     1      -7.368  54.753  51.588  0.00  0.00    +0.000 HD
ATOM     25  H   UNL     1     -10.476  52.721  53.085  0.00  0.00    +0.000 HD
ENDBRANCH   1  17
BRANCH   3  26
ATOM     26  O   UNL     1      -8.452  53.159  49.407  0.00  0.00    +0.000 OA
ATOM     27  H   UNL     1      -7.573  53.363  49.658  0.00  0.00    +0.000 HD
ENDBRANCH   3  26
BRANCH   5  28
ATOM     28  C   UNL     1     -12.844  56.492  50.780  0.00  0.00    +0.000 C 
BRANCH  28  29
ATOM     29  C   UNL     1     -14.154  55.700  50.907  0.00  0.00    +0.000 C 
BRANCH  29  30
ATOM     30  C   UNL     1     -15.388  56.599  50.809  0.00  0.00    +0.000 C 
BRANCH  30  31
ATOM     31  C   UNL     1     -15.285  57.810  51.710  0.00  0.00    +0.000 C 
ATOM     32  O   UNL     1     -15.109  58.952  51.315  0.00  0.00    +0.000 OA
ATOM     33  O   UNL     1     -15.411  57.510  53.020  0.00  0.00    +0.000 OA
ENDBRANCH  30  31
ENDBRANCH  29  30
ENDBRANCH  28  29
ENDBRANCH   5  28
TORSDOF 6
ENDMDL
MODEL 9
REMARK VINA RESULT:      -7.5      3.538      6.881
REMARK  Name = 338073
REMARK  6 active torsions:
REMARK  status: ('A' for Active; 'I' for Inactive)
REMARK    1  A    between atoms: C_6  and  C_10
REMARK    2  A    between atoms: C_14  and  O_18
REMARK    3  A    between atoms: N_17  and  C_21
REMARK    4  A    between atoms: C_21  and  C_24
REMARK    5  A    between atoms: C_24  and  C_27
REMARK    6  A    between atoms: C_27  and  C_28
REMARK                            x       y       z     vdW  Elec       q    Type
REMARK                         _______ _______ _______ _____ _____    ______ ____
ROOT
ATOM      1  C   UNL     1     -11.079  54.598  48.256  0.00  0.00    +0.000 A 
ATOM      2  C   UNL     1     -10.810  54.142  49.653  0.00  0.00    +0.000 A 
ATOM      3  C   UNL     1     -12.005  55.549  48.027  0.00  0.00    +0.000 A 
ATOM      4  O   UNL     1      -9.903  53.324  49.841  0.00  0.00    +0.000 OA
ATOM      5  N   UNL     1     -11.572  54.664  50.687  0.00  0.00    +0.000 N 
ATOM      6  C   UNL     1     -12.747  56.152  49.143  0.00  0.00    +0.000 A 
ATOM      7  C   UNL     1     -12.544  55.687  50.456  0.00  0.00    +0.000 A 
ATOM      8  C   UNL     1     -13.652  57.203  48.908  0.00  0.00    +0.000 A 
ATOM      9  C   UNL     1     -13.279  56.277  51.498  0.00  0.00    +0.000 A 
ATOM     10  C   UNL     1     -14.341  57.803  49.959  0.00  0.00    +0.000 A 
ATOM     11  C   UNL     1     -14.157  57.337  51.253  0.00  0.00    +0.000 A 
ENDROOT
BRANCH   1  17
ATOM     12  S   UNL     1      -8.055  53.940  45.830  0.00  0.00    +0.000 S 
ATOM     13  O   UNL     1      -7.064  53.051  46.404  0.00  0.00    +0.000 OA
ATOM     14  O   UNL     1      -7.641  55.107  45.075  0.00  0.00    +0.000 OA
ATOM     15  N   UNL     1      -9.023  54.439  47.030  0.00  0.00    +0.000 N 
ATOM     16  C   UNL     1      -9.006  52.963  44.724  0.00  0.00    +0.000 A 
ATOM     17  C   UNL     1     -10.253  54.028  47.121  0.00  0.00    +0.000 C 
ATOM     18  C   UNL     1     -10.313  52.672  45.078  0.00  0.00    +0.000 A 
ATOM     19  C   UNL     1      -8.444  52.512  43.526  0.00  0.00    +0.000 A 
ATOM     20  N   UNL     1     -10.860  53.124  46.275  0.00  0.00    +0.000 N 
ATOM     21  C   UNL     1     -11.055  51.838  44.234  0.00  0.00    +0.000 A 
ATOM     22  C   UNL     1      -9.207  51.714  42.678  0.00  0.00    +0.000 A 
ATOM     23  C   UNL     1     -10.508  51.368  43.037  0.00  0.00    +0.000 A 
ATOM     24  H   UNL     1      -8.673  55.065  47.704  0.00  0.00    +0.000 HD
ATOM     25  H   UNL     1     -11.742  52.774  46.537  0.00  0.00    +0.000 HD
ENDBRANCH   1  17
BRANCH   3  26
ATOM     26  O   UNL     1     -12.311  56.052  46.775  0.00  0.00    +0.000 OA
ATOM     27  H   UNL     1     -13.202  56.224  46.543  0.00  0.00    +0.000 HD
ENDBRANCH   3  26
BRANCH   5  28
ATOM     28  C   UNL     1     -11.307  54.161  52.038  0.00  0.00    +0.000 C 
BRANCH  28  29
ATOM     29  C   UNL     1     -10.326  55.052  52.813  0.00  0.00    +0.000 C 
BRANCH  29  30
ATOM     30  C   UNL     1      -9.106  54.275  53.314  0.00  0.00    +0.000 C 
BRANCH  30  31
ATOM     31  C   UNL     1      -7.896  55.166  53.489  0.00  0.00    +0.000 C 
ATOM     32  O   UNL     1      -7.266  55.278  54.529  0.00  0.00    +0.000 OA
ATOM     33  O   UNL     1      -7.563  55.839  52.367  0.00  0.00    +0.000 OA
ENDBRANCH  30  31
ENDBRANCH  29  30
ENDBRANCH  28  29
ENDBRANCH   5  28
TORSDOF 6
ENDMDL
