MODEL 1
REMARK VINA RESULT:      -8.4      0.000      0.000
REMARK  Name = 338257
REMARK  6 active torsions:
REMARK  status: ('A' for Active; 'I' for Inactive)
REMARK    1  A    between atoms: C_6  and  C_10
REMARK    2  A    between atoms: C_14  and  O_18
REMARK    3  A    between atoms: N_17  and  C_21
REMARK    4  A    between atoms: C_21  and  C_24
REMARK    5  A    between atoms: C_24  and  C_27
REMARK    6  A    between atoms: C_25  and  N_28
REMARK                            x       y       z     vdW  Elec       q    Type
REMARK                         _______ _______ _______ _____ _____    ______ ____
ROOT
ATOM      1  C   UNL     1     -10.086  54.404  52.284  0.00  0.00    +0.000 A 
ATOM      2  C   UNL     1      -8.711  54.951  52.123  0.00  0.00    +0.000 A 
ATOM      3  C   UNL     1     -10.297  53.311  53.033  0.00  0.00    +0.000 A 
ATOM      4  O   UNL     1      -8.598  55.950  51.409  0.00  0.00    +0.000 OA
ATOM      5  N   UNL     1      -7.648  54.350  52.788  0.00  0.00    +0.000 N 
ATOM      6  C   UNL     1      -9.172  52.663  53.723  0.00  0.00    +0.000 A 
ATOM      7  C   UNL     1      -7.865  53.171  53.586  0.00  0.00    +0.000 A 
ATOM      8  C   UNL     1      -9.411  51.547  54.550  0.00  0.00    +0.000 A 
ATOM      9  C   UNL     1      -6.835  52.518  54.279  0.00  0.00    +0.000 A 
ATOM     10  C   UNL     1      -8.379  50.902  55.228  0.00  0.00    +0.000 A 
ATOM     11  C   UNL     1      -7.099  51.425  55.117  0.00  0.00    +0.000 A 
ENDROOT
BRANCH   1  17
ATOM     12  S   UNL     1     -12.411  55.933  49.507  0.00  0.00    +0.000 S 
ATOM     13  O   UNL     1     -13.315  54.959  48.928  0.00  0.00    +0.000 OA
ATOM     14  O   UNL     1     -11.745  56.903  48.663  0.00  0.00    +0.000 OA
ATOM     15  N   UNL     1     -11.272  55.118  50.325  0.00  0.00    +0.000 N 
ATOM     16  C   UNL     1     -13.362  56.861  50.654  0.00  0.00    +0.000 A 
ATOM     17  C   UNL     1     -11.239  55.138  51.623  0.00  0.00    +0.000 C 
ATOM     18  C   UNL     1     -13.107  56.683  52.004  0.00  0.00    +0.000 A 
ATOM     19  C   UNL     1     -14.329  57.758  50.195  0.00  0.00    +0.000 A 
ATOM     20  N   UNL     1     -12.148  55.774  52.445  0.00  0.00    +0.000 N 
ATOM     21  C   UNL     1     -13.894  57.379  52.924  0.00  0.00    +0.000 A 
ATOM     22  C   UNL     1     -15.086  58.470  51.123  0.00  0.00    +0.000 A 
ATOM     23  C   UNL     1     -14.875  58.275  52.487  0.00  0.00    +0.000 A 
ATOM     24  H   UNL     1     -10.596  54.600  49.831  0.00  0.00    +0.000 HD
ATOM     25  H   UNL     1     -12.115  55.571  53.408  0.00  0.00    +0.000 HD
ENDBRANCH   1  17
BRANCH  10  26
ATOM     26  N   UNL     1      -8.667  49.919  56.179  0.00  0.00    +0.000 N 
ATOM     27  H   UNL     1      -8.276  49.020  56.092  0.00  0.00    +0.000 HD
ATOM     28  H   UNL     1      -9.261  50.125  56.936  0.00  0.00    +0.000 HD
ENDBRANCH  10  26
BRANCH   3  29
ATOM     29  O   UNL     1     -11.536  52.731  53.235  0.00  0.00    +0.000 OA
ATOM     30  H   UNL     1     -11.866  52.104  52.623  0.00  0.00    +0.000 HD
ENDBRANCH   3  29
BRANCH   5  31
ATOM     31  C   UNL     1      -6.275  54.851  52.538  0.00  0.00    +0.000 C 
BRANCH  31  32
ATOM     32  C   UNL     1      -5.492  54.165  51.404  0.00  0.00    +0.000 C 
BRANCH  32  33
ATOM     33  C   UNL     1      -5.485  54.943  50.120  0.00  0.00    +0.000 C 
ATOM     34  C   UNL     1      -6.345  54.596  48.934  0.00  0.00    +0.000 C 
ATOM     35  C   UNL     1      -4.874  54.296  48.903  0.00  0.00    +0.000 C 
ENDBRANCH  32  33
ENDBRANCH  31  32
ENDBRANCH   5  31
TORSDOF 6
ENDMDL
MODEL 2
REMARK VINA RESULT:      -8.0      3.525      5.484
REMARK  Name = 338257
REMARK  6 active torsions:
REMARK  status: ('A' for Active; 'I' for Inactive)
REMARK    1  A    between atoms: C_6  and  C_10
REMARK    2  A    between atoms: C_14  and  O_18
REMARK    3  A    between atoms: N_17  and  C_21
REMARK    4  A    between atoms: C_21  and  C_24
REMARK    5  A    between atoms: C_24  and  C_27
REMARK    6  A    between atoms: C_25  and  N_28
REMARK                            x       y       z     vdW  Elec       q    Type
REMARK                         _______ _______ _______ _____ _____    ______ ____
ROOT
ATOM      1  C   UNL     1     -11.655  56.020  48.700  0.00  0.00    +0.000 A 
ATOM      2  C   UNL     1     -10.557  55.429  49.513  0.00  0.00    +0.000 A 
ATOM      3  C   UNL     1     -11.823  55.654  47.421  0.00  0.00    +0.000 A 
ATOM      4  O   UNL     1     -10.461  55.826  50.676  0.00  0.00    +0.000 OA
ATOM      5  N   UNL     1      -9.730  54.462  48.954  0.00  0.00    +0.000 N 
ATOM      6  C   UNL     1     -10.939  54.643  46.822  0.00  0.00    +0.000 A 
ATOM      7  C   UNL     1      -9.898  54.071  47.579  0.00  0.00    +0.000 A 
ATOM      8  C   UNL     1     -11.156  54.227  45.492  0.00  0.00    +0.000 A 
ATOM      9  C   UNL     1      -9.096  53.102  46.957  0.00  0.00    +0.000 A 
ATOM     10  C   UNL     1     -10.348  53.270  44.883  0.00  0.00    +0.000 A 
ATOM     11  C   UNL     1      -9.344  52.683  45.641  0.00  0.00    +0.000 A 
ENDROOT
BRANCH   1  17
ATOM     12  S   UNL     1     -13.609  59.338  49.494  0.00  0.00    +0.000 S 
ATOM     13  O   UNL     1     -14.758  59.537  48.635  0.00  0.00    +0.000 OA
ATOM     14  O   UNL     1     -12.745  60.452  49.828  0.00  0.00    +0.000 OA
ATOM     15  N   UNL     1     -12.690  58.180  48.826  0.00  0.00    +0.000 N 
ATOM     16  C   UNL     1     -14.235  58.738  51.020  0.00  0.00    +0.000 A 
ATOM     17  C   UNL     1     -12.601  57.003  49.366  0.00  0.00    +0.000 C 
ATOM     18  C   UNL     1     -13.982  57.417  51.352  0.00  0.00    +0.000 A 
ATOM     19  C   UNL     1     -14.952  59.589  51.865  0.00  0.00    +0.000 A 
ATOM     20  N   UNL     1     -13.277  56.577  50.492  0.00  0.00    +0.000 N 
ATOM     21  C   UNL     1     -14.522  56.917  52.540  0.00  0.00    +0.000 A 
ATOM     22  C   UNL     1     -15.458  59.086  53.061  0.00  0.00    +0.000 A 
ATOM     23  C   UNL     1     -15.250  57.748  53.395  0.00  0.00    +0.000 A 
ATOM     24  H   UNL     1     -12.194  58.372  47.997  0.00  0.00    +0.000 HD
ATOM     25  H   UNL     1     -13.260  55.615  50.701  0.00  0.00    +0.000 HD
ENDBRANCH   1  17
BRANCH  10  26
ATOM     26  N   UNL     1     -10.695  52.745  43.635  0.00  0.00    +0.000 N 
ATOM     27  H   UNL     1     -10.066  52.809  42.881  0.00  0.00    +0.000 HD
ATOM     28  H   UNL     1     -11.571  52.311  43.510  0.00  0.00    +0.000 HD
ENDBRANCH  10  26
BRANCH   3  29
ATOM     29  O   UNL     1     -12.810  56.151  46.590  0.00  0.00    +0.000 OA
ATOM     30  H   UNL     1     -13.446  55.571  46.218  0.00  0.00    +0.000 HD
ENDBRANCH   3  29
BRANCH   5  31
ATOM     31  C   UNL     1      -8.584  53.957  49.749  0.00  0.00    +0.000 C 
BRANCH  31  32
ATOM     32  C   UNL     1      -7.409  54.932  49.950  0.00  0.00    +0.000 C 
BRANCH  32  33
ATOM     33  C   UNL     1      -6.415  54.916  48.825  0.00  0.00    +0.000 C 
ATOM     34  C   UNL     1      -5.667  53.682  48.396  0.00  0.00    +0.000 C 
ATOM     35  C   UNL     1      -4.956  54.756  49.171  0.00  0.00    +0.000 C 
ENDBRANCH  32  33
ENDBRANCH  31  32
ENDBRANCH   5  31
TORSDOF 6
ENDMDL
MODEL 3
REMARK VINA RESULT:      -8.0      3.231      7.334
REMARK  Name = 338257
REMARK  6 active torsions:
REMARK  status: ('A' for Active; 'I' for Inactive)
REMARK    1  A    between atoms: C_6  and  C_10
REMARK    2  A    between atoms: C_14  and  O_18
REMARK    3  A    between atoms: N_17  and  C_21
REMARK    4  A    between atoms: C_21  and  C_24
REMARK    5  A    between atoms: C_24  and  C_27
REMARK    6  A    between atoms: C_25  and  N_28
REMARK                            x       y       z     vdW  Elec       q    Type
REMARK                         _______ _______ _______ _____ _____    ______ ____
ROOT
ATOM      1  C   UNL     1     -10.146  55.197  50.915  0.00  0.00    +0.000 A 
ATOM      2  C   UNL     1      -9.774  55.206  49.473  0.00  0.00    +0.000 A 
ATOM      3  C   UNL     1     -11.376  55.567  51.298  0.00  0.00    +0.000 A 
ATOM      4  O   UNL     1      -8.620  54.865  49.202  0.00  0.00    +0.000 OA
ATOM      5  N   UNL     1     -10.722  55.558  48.519  0.00  0.00    +0.000 N 
ATOM      6  C   UNL     1     -12.376  55.956  50.293  0.00  0.00    +0.000 A 
ATOM      7  C   UNL     1     -12.042  55.965  48.925  0.00  0.00    +0.000 A 
ATOM      8  C   UNL     1     -13.682  56.293  50.703  0.00  0.00    +0.000 A 
ATOM      9  C   UNL     1     -13.041  56.333  48.012  0.00  0.00    +0.000 A 
ATOM     10  C   UNL     1     -14.664  56.664  49.788  0.00  0.00    +0.000 A 
ATOM     11  C   UNL     1     -14.342  56.640  48.438  0.00  0.00    +0.000 A 
ENDROOT
BRANCH   1  17
ATOM     12  S   UNL     1      -6.782  54.873  52.924  0.00  0.00    +0.000 S 
ATOM     13  O   UNL     1      -6.649  55.870  53.967  0.00  0.00    +0.000 OA
ATOM     14  O   UNL     1      -5.645  54.524  52.097  0.00  0.00    +0.000 OA
ATOM     15  N   UNL     1      -7.984  55.347  51.943  0.00  0.00    +0.000 N 
ATOM     16  C   UNL     1      -7.271  53.390  53.725  0.00  0.00    +0.000 A 
ATOM     17  C   UNL     1      -9.119  54.716  51.924  0.00  0.00    +0.000 C 
ATOM     18  C   UNL     1      -8.564  52.936  53.520  0.00  0.00    +0.000 A 
ATOM     19  C   UNL     1      -6.363  52.696  54.527  0.00  0.00    +0.000 A 
ATOM     20  N   UNL     1      -9.463  53.647  52.727  0.00  0.00    +0.000 N 
ATOM     21  C   UNL     1      -8.977  51.785  54.194  0.00  0.00    +0.000 A 
ATOM     22  C   UNL     1      -6.777  51.532  55.170  0.00  0.00    +0.000 A 
ATOM     23  C   UNL     1      -8.087  51.081  55.010  0.00  0.00    +0.000 A 
ATOM     24  H   UNL     1      -7.852  56.125  51.354  0.00  0.00    +0.000 HD
ATOM     25  H   UNL     1     -10.407  53.369  52.740  0.00  0.00    +0.000 HD
ENDBRANCH   1  17
BRANCH  10  26
ATOM     26  N   UNL     1     -15.992  56.813  50.199  0.00  0.00    +0.000 N 
ATOM     27  H   UNL     1     -16.349  56.250  50.923  0.00  0.00    +0.000 HD
ATOM     28  H   UNL     1     -16.570  57.482  49.765  0.00  0.00    +0.000 HD
ENDBRANCH  10  26
BRANCH   3  29
ATOM     29  O   UNL     1     -11.809  55.593  52.612  0.00  0.00    +0.000 OA
ATOM     30  H   UNL     1     -12.725  55.620  52.803  0.00  0.00    +0.000 HD
ENDBRANCH   3  29
BRANCH   5  31
ATOM     31  C   UNL     1     -10.304  55.653  47.099  0.00  0.00    +0.000 C 
BRANCH  31  32
ATOM     32  C   UNL     1     -10.157  54.320  46.340  0.00  0.00    +0.000 C 
BRANCH  32  33
ATOM     33  C   UNL     1     -11.322  54.005  45.447  0.00  0.00    +0.000 C 
ATOM     34  C   UNL     1     -12.018  52.670  45.432  0.00  0.00    +0.000 C 
ATOM     35  C   UNL     1     -11.099  53.046  44.305  0.00  0.00    +0.000 C 
ENDBRANCH  32  33
ENDBRANCH  31  32
ENDBRANCH   5  31
TORSDOF 6
ENDMDL
MODEL 4
REMARK VINA RESULT:      -7.8      3.498      4.544
REMARK  Name = 338257
REMARK  6 active torsions:
REMARK  status: ('A' for Active; 'I' for Inactive)
REMARK    1  A    between atoms: C_6  and  C_10
REMARK    2  A    between atoms: C_14  and  O_18
REMARK    3  A    between atoms: N_17  and  C_21
REMARK    4  A    between atoms: C_21  and  C_24
REMARK    5  A    between atoms: C_24  and  C_27
REMARK    6  A    between atoms: C_25  and  N_28
REMARK                            x       y       z     vdW  Elec       q    Type
REMARK                         _______ _______ _______ _____ _____    ______ ____
ROOT
ATOM      1  C   UNL     1     -12.428  54.344  49.722  0.00  0.00    +0.000 A 
ATOM      2  C   UNL     1     -12.096  54.194  48.278  0.00  0.00    +0.000 A 
ATOM      3  C   UNL     1     -11.971  53.457  50.617  0.00  0.00    +0.000 A 
ATOM      4  O   UNL     1     -12.565  55.044  47.517  0.00  0.00    +0.000 OA
ATOM      5  N   UNL     1     -11.273  53.153  47.865  0.00  0.00    +0.000 N 
ATOM      6  C   UNL     1     -11.114  52.345  50.181  0.00  0.00    +0.000 A 
ATOM      7  C   UNL     1     -10.786  52.192  48.820  0.00  0.00    +0.000 A 
ATOM      8  C   UNL     1     -10.595  51.447  51.137  0.00  0.00    +0.000 A 
ATOM      9  C   UNL     1      -9.954  51.119  48.466  0.00  0.00    +0.000 A 
ATOM     10  C   UNL     1      -9.776  50.381  50.773  0.00  0.00    +0.000 A 
ATOM     11  C   UNL     1      -9.428  50.253  49.435  0.00  0.00    +0.000 A 
ENDROOT
BRANCH   1  17
ATOM     12  S   UNL     1     -15.354  56.492  51.233  0.00  0.00    +0.000 S 
ATOM     13  O   UNL     1     -15.278  56.616  52.674  0.00  0.00    +0.000 OA
ATOM     14  O   UNL     1     -16.630  56.270  50.585  0.00  0.00    +0.000 OA
ATOM     15  N   UNL     1     -14.355  55.294  50.790  0.00  0.00    +0.000 N 
ATOM     16  C   UNL     1     -14.736  57.999  50.580  0.00  0.00    +0.000 A 
ATOM     17  C   UNL     1     -13.250  55.545  50.155  0.00  0.00    +0.000 C 
ATOM     18  C   UNL     1     -13.510  57.975  49.935  0.00  0.00    +0.000 A 
ATOM     19  C   UNL     1     -15.483  59.173  50.703  0.00  0.00    +0.000 A 
ATOM     20  N   UNL     1     -12.771  56.799  49.832  0.00  0.00    +0.000 N 
ATOM     21  C   UNL     1     -12.988  59.180  49.458  0.00  0.00    +0.000 A 
ATOM     22  C   UNL     1     -14.966  60.363  50.196  0.00  0.00    +0.000 A 
ATOM     23  C   UNL     1     -13.714  60.368  49.580  0.00  0.00    +0.000 A 
ATOM     24  H   UNL     1     -14.588  54.362  51.007  0.00  0.00    +0.000 HD
ATOM     25  H   UNL     1     -11.844  56.865  49.507  0.00  0.00    +0.000 HD
ENDBRANCH   1  17
BRANCH  10  26
ATOM     26  N   UNL     1      -9.130  49.622  51.752  0.00  0.00    +0.000 N 
ATOM     27  H   UNL     1      -8.644  48.804  51.500  0.00  0.00    +0.000 HD
ATOM     28  H   UNL     1      -9.162  49.904  52.695  0.00  0.00    +0.000 HD
ENDBRANCH  10  26
BRANCH   3  29
ATOM     29  O   UNL     1     -12.230  53.513  51.975  0.00  0.00    +0.000 OA
ATOM     30  H   UNL     1     -13.071  53.791  52.280  0.00  0.00    +0.000 HD
ENDBRANCH   3  29
BRANCH   5  31
ATOM     31  C   UNL     1     -11.033  52.966  46.414  0.00  0.00    +0.000 C 
BRANCH  31  32
ATOM     32  C   UNL     1     -10.152  54.025  45.725  0.00  0.00    +0.000 C 
BRANCH  32  33
ATOM     33  C   UNL     1      -8.727  53.593  45.536  0.00  0.00    +0.000 C 
ATOM     34  C   UNL     1      -7.710  53.582  46.646  0.00  0.00    +0.000 C 
ATOM     35  C   UNL     1      -7.653  54.650  45.592  0.00  0.00    +0.000 C 
ENDBRANCH  32  33
ENDBRANCH  31  32
ENDBRANCH   5  31
TORSDOF 6
ENDMDL
MODEL 5
REMARK VINA RESULT:      -7.7      3.320      5.781
REMARK  Name = 338257
REMARK  6 active torsions:
REMARK  status: ('A' for Active; 'I' for Inactive)
REMARK    1  A    between atoms: C_6  and  C_10
REMARK    2  A    between atoms: C_14  and  O_18
REMARK    3  A    between atoms: N_17  and  C_21
REMARK    4  A    between atoms: C_21  and  C_24
REMARK    5  A    between atoms: C_24  and  C_27
REMARK    6  A    between atoms: C_25  and  N_28
REMARK                            x       y       z     vdW  Elec       q    Type
REMARK                         _______ _______ _______ _____ _____    ______ ____
ROOT
ATOM      1  C   UNL     1     -10.793  55.631  48.283  0.00  0.00    +0.000 A 
ATOM      2  C   UNL     1      -9.359  55.534  48.671  0.00  0.00    +0.000 A 
ATOM      3  C   UNL     1     -11.218  55.109  47.123  0.00  0.00    +0.000 A 
ATOM      4  O   UNL     1      -9.045  56.050  49.746  0.00  0.00    +0.000 OA
ATOM      5  N   UNL     1      -8.466  54.860  47.845  0.00  0.00    +0.000 N 
ATOM      6  C   UNL     1     -10.273  54.411  46.240  0.00  0.00    +0.000 A 
ATOM      7  C   UNL     1      -8.913  54.305  46.594  0.00  0.00    +0.000 A 
ATOM      8  C   UNL     1     -10.739  53.819  45.048  0.00  0.00    +0.000 A 
ATOM      9  C   UNL     1      -8.062  53.616  45.717  0.00  0.00    +0.000 A 
ATOM     10  C   UNL     1      -9.883  53.145  44.181  0.00  0.00    +0.000 A 
ATOM     11  C   UNL     1      -8.551  53.013  44.549  0.00  0.00    +0.000 A 
ENDROOT
BRANCH   1  17
ATOM     12  S   UNL     1     -13.244  56.139  51.315  0.00  0.00    +0.000 S 
ATOM     13  O   UNL     1     -12.554  56.401  52.562  0.00  0.00    +0.000 OA
ATOM     14  O   UNL     1     -14.390  55.254  51.287  0.00  0.00    +0.000 OA
ATOM     15  N   UNL     1     -12.151  55.571  50.259  0.00  0.00    +0.000 N 
ATOM     16  C   UNL     1     -13.818  57.693  50.737  0.00  0.00    +0.000 A 
ATOM     17  C   UNL     1     -11.761  56.289  49.250  0.00  0.00    +0.000 C 
ATOM     18  C   UNL     1     -13.213  58.234  49.615  0.00  0.00    +0.000 A 
ATOM     19  C   UNL     1     -14.867  58.339  51.396  0.00  0.00    +0.000 A 
ATOM     20  N   UNL     1     -12.158  57.583  48.977  0.00  0.00    +0.000 N 
ATOM     21  C   UNL     1     -13.629  59.494  49.180  0.00  0.00    +0.000 A 
ATOM     22  C   UNL     1     -15.295  59.582  50.932  0.00  0.00    +0.000 A 
ATOM     23  C   UNL     1     -14.670  60.163  49.829  0.00  0.00    +0.000 A 
ATOM     24  H   UNL     1     -11.777  54.669  50.386  0.00  0.00    +0.000 HD
ATOM     25  H   UNL     1     -11.663  58.078  48.286  0.00  0.00    +0.000 HD
ENDBRANCH   1  17
BRANCH  10  26
ATOM     26  N   UNL     1     -10.400  52.415  43.107  0.00  0.00    +0.000 N 
ATOM     27  H   UNL     1     -10.949  52.863  42.425  0.00  0.00    +0.000 HD
ATOM     28  H   UNL     1     -10.214  51.450  43.032  0.00  0.00    +0.000 HD
ENDBRANCH  10  26
BRANCH   3  29
ATOM     29  O   UNL     1     -12.527  55.155  46.680  0.00  0.00    +0.000 OA
ATOM     30  H   UNL     1     -12.778  54.683  45.911  0.00  0.00    +0.000 HD
ENDBRANCH   3  29
BRANCH   5  31
ATOM     31  C   UNL     1      -7.027  54.857  48.202  0.00  0.00    +0.000 C 
BRANCH  31  32
ATOM     32  C   UNL     1      -6.565  53.752  49.170  0.00  0.00    +0.000 C 
BRANCH  32  33
ATOM     33  C   UNL     1      -5.966  54.277  50.442  0.00  0.00    +0.000 C 
ATOM     34  C   UNL     1      -4.558  53.976  50.882  0.00  0.00    +0.000 C 
ATOM     35  C   UNL     1      -5.714  53.300  51.563  0.00  0.00    +0.000 C 
ENDBRANCH  32  33
ENDBRANCH  31  32
ENDBRANCH   5  31
TORSDOF 6
ENDMDL
MODEL 6
REMARK VINA RESULT:      -7.7      3.241      7.259
REMARK  Name = 338257
REMARK  6 active torsions:
REMARK  status: ('A' for Active; 'I' for Inactive)
REMARK    1  A    between atoms: C_6  and  C_10
REMARK    2  A    between atoms: C_14  and  O_18
REMARK    3  A    between atoms: N_17  and  C_21
REMARK    4  A    between atoms: C_21  and  C_24
REMARK    5  A    between atoms: C_24  and  C_27
REMARK    6  A    between atoms: C_25  and  N_28
REMARK                            x       y       z     vdW  Elec       q    Type
REMARK                         _______ _______ _______ _____ _____    ______ ____
ROOT
ATOM      1  C   UNL     1     -10.096  55.180  50.529  0.00  0.00    +0.000 A 
ATOM      2  C   UNL     1     -10.299  55.345  49.064  0.00  0.00    +0.000 A 
ATOM      3  C   UNL     1     -11.087  55.467  51.386  0.00  0.00    +0.000 A 
ATOM      4  O   UNL     1      -9.337  55.072  48.342  0.00  0.00    +0.000 OA
ATOM      5  N   UNL     1     -11.536  55.759  48.582  0.00  0.00    +0.000 N 
ATOM      6  C   UNL     1     -12.390  55.921  50.881  0.00  0.00    +0.000 A 
ATOM      7  C   UNL     1     -12.601  56.078  49.497  0.00  0.00    +0.000 A 
ATOM      8  C   UNL     1     -13.442  56.170  51.786  0.00  0.00    +0.000 A 
ATOM      9  C   UNL     1     -13.869  56.501  49.073  0.00  0.00    +0.000 A 
ATOM     10  C   UNL     1     -14.695  56.598  51.355  0.00  0.00    +0.000 A 
ATOM     11  C   UNL     1     -14.909  56.719  49.989  0.00  0.00    +0.000 A 
ENDROOT
BRANCH   1  17
ATOM     12  S   UNL     1      -7.004  52.798  50.997  0.00  0.00    +0.000 S 
ATOM     13  O   UNL     1      -6.026  52.926  49.935  0.00  0.00    +0.000 OA
ATOM     14  O   UNL     1      -7.352  51.491  51.515  0.00  0.00    +0.000 OA
ATOM     15  N   UNL     1      -8.369  53.515  50.496  0.00  0.00    +0.000 N 
ATOM     16  C   UNL     1      -6.368  53.704  52.359  0.00  0.00    +0.000 A 
ATOM     17  C   UNL     1      -8.766  54.636  51.019  0.00  0.00    +0.000 C 
ATOM     18  C   UNL     1      -7.002  54.885  52.707  0.00  0.00    +0.000 A 
ATOM     19  C   UNL     1      -5.264  53.221  53.066  0.00  0.00    +0.000 A 
ATOM     20  N   UNL     1      -8.094  55.360  51.983  0.00  0.00    +0.000 N 
ATOM     21  C   UNL     1      -6.471  55.638  53.757  0.00  0.00    +0.000 A 
ATOM     22  C   UNL     1      -4.763  53.966  54.131  0.00  0.00    +0.000 A 
ATOM     23  C   UNL     1      -5.361  55.179  54.471  0.00  0.00    +0.000 A 
ATOM     24  H   UNL     1      -8.905  53.096  49.783  0.00  0.00    +0.000 HD
ATOM     25  H   UNL     1      -8.408  56.274  52.172  0.00  0.00    +0.000 HD
ENDBRANCH   1  17
BRANCH  10  26
ATOM     26  N   UNL     1     -15.766  56.660  52.251  0.00  0.00    +0.000 N 
ATOM     27  H   UNL     1     -15.612  56.523  53.213  0.00  0.00    +0.000 HD
ATOM     28  H   UNL     1     -16.676  56.839  51.919  0.00  0.00    +0.000 HD
ENDBRANCH  10  26
BRANCH   3  29
ATOM     29  O   UNL     1     -10.988  55.348  52.761  0.00  0.00    +0.000 OA
ATOM     30  H   UNL     1     -11.763  55.263  53.281  0.00  0.00    +0.000 HD
ENDBRANCH   3  29
BRANCH   5  31
ATOM     31  C   UNL     1     -11.687  56.009  47.128  0.00  0.00    +0.000 C 
BRANCH  31  32
ATOM     32  C   UNL     1     -12.104  54.801  46.267  0.00  0.00    +0.000 C 
BRANCH  32  33
ATOM     33  C   UNL     1     -10.962  54.163  45.531  0.00  0.00    +0.000 C 
ATOM     34  C   UNL     1     -11.143  53.121  44.461  0.00  0.00    +0.000 C 
ATOM     35  C   UNL     1     -10.652  52.717  45.821  0.00  0.00    +0.000 C 
ENDBRANCH  32  33
ENDBRANCH  31  32
ENDBRANCH   5  31
TORSDOF 6
ENDMDL
MODEL 7
REMARK VINA RESULT:      -7.5      4.028      7.317
REMARK  Name = 338257
REMARK  6 active torsions:
REMARK  status: ('A' for Active; 'I' for Inactive)
REMARK    1  A    between atoms: C_6  and  C_10
REMARK    2  A    between atoms: C_14  and  O_18
REMARK    3  A    between atoms: N_17  and  C_21
REMARK    4  A    between atoms: C_21  and  C_24
REMARK    5  A    between atoms: C_24  and  C_27
REMARK    6  A    between atoms: C_25  and  N_28
REMARK                            x       y       z     vdW  Elec       q    Type
REMARK                         _______ _______ _______ _____ _____    ______ ____
ROOT
ATOM      1  C   UNL     1     -10.889  54.589  48.598  0.00  0.00    +0.000 A 
ATOM      2  C   UNL     1     -10.509  54.095  49.950  0.00  0.00    +0.000 A 
ATOM      3  C   UNL     1     -11.847  55.517  48.461  0.00  0.00    +0.000 A 
ATOM      4  O   UNL     1      -9.628  53.232  49.992  0.00  0.00    +0.000 OA
ATOM      5  N   UNL     1     -11.122  54.631  51.077  0.00  0.00    +0.000 N 
ATOM      6  C   UNL     1     -12.509  56.073  49.650  0.00  0.00    +0.000 A 
ATOM      7  C   UNL     1     -12.158  55.621  50.937  0.00  0.00    +0.000 A 
ATOM      8  C   UNL     1     -13.478  57.086  49.499  0.00  0.00    +0.000 A 
ATOM      9  C   UNL     1     -12.814  56.198  52.034  0.00  0.00    +0.000 A 
ATOM     10  C   UNL     1     -14.129  57.647  50.595  0.00  0.00    +0.000 A 
ATOM     11  C   UNL     1     -13.757  57.223  51.863  0.00  0.00    +0.000 A 
ENDROOT
BRANCH   1  17
ATOM     12  S   UNL     1      -8.049  54.049  45.934  0.00  0.00    +0.000 S 
ATOM     13  O   UNL     1      -7.005  53.157  46.394  0.00  0.00    +0.000 OA
ATOM     14  O   UNL     1      -7.712  55.249  45.196  0.00  0.00    +0.000 OA
ATOM     15  N   UNL     1      -8.924  54.489  47.227  0.00  0.00    +0.000 N 
ATOM     16  C   UNL     1      -9.071  53.099  44.870  0.00  0.00    +0.000 A 
ATOM     17  C   UNL     1     -10.135  54.054  47.394  0.00  0.00    +0.000 C 
ATOM     18  C   UNL     1     -10.345  52.775  45.309  0.00  0.00    +0.000 A 
ATOM     19  C   UNL     1      -8.600  52.705  43.616  0.00  0.00    +0.000 A 
ATOM     20  N   UNL     1     -10.795  53.164  46.569  0.00  0.00    +0.000 N 
ATOM     21  C   UNL     1     -11.145  51.975  44.491  0.00  0.00    +0.000 A 
ATOM     22  C   UNL     1      -9.420  51.934  42.795  0.00  0.00    +0.000 A 
ATOM     23  C   UNL     1     -10.689  51.562  43.236  0.00  0.00    +0.000 A 
ATOM     24  H   UNL     1      -8.529  55.095  47.896  0.00  0.00    +0.000 HD
ATOM     25  H   UNL     1     -11.641  52.779  46.894  0.00  0.00    +0.000 HD
ENDBRANCH   1  17
BRANCH  10  26
ATOM     26  N   UNL     1     -14.946  58.770  50.432  0.00  0.00    +0.000 N 
ATOM     27  H   UNL     1     -14.735  59.435  49.739  0.00  0.00    +0.000 HD
ATOM     28  H   UNL     1     -15.732  58.895  51.012  0.00  0.00    +0.000 HD
ENDBRANCH  10  26
BRANCH   3  29
ATOM     29  O   UNL     1     -12.268  56.031  47.248  0.00  0.00    +0.000 OA
ATOM     30  H   UNL     1     -12.097  55.562  46.456  0.00  0.00    +0.000 HD
ENDBRANCH   3  29
BRANCH   5  31
ATOM     31  C   UNL     1     -10.798  54.058  52.406  0.00  0.00    +0.000 C 
BRANCH  31  32
ATOM     32  C   UNL     1      -9.909  54.919  53.323  0.00  0.00    +0.000 C 
BRANCH  32  33
ATOM     33  C   UNL     1      -8.446  54.599  53.218  0.00  0.00    +0.000 C 
ATOM     34  C   UNL     1      -7.396  55.217  54.103  0.00  0.00    +0.000 C 
ATOM     35  C   UNL     1      -7.526  55.662  52.674  0.00  0.00    +0.000 C 
ENDBRANCH  32  33
ENDBRANCH  31  32
ENDBRANCH   5  31
TORSDOF 6
ENDMDL
MODEL 8
REMARK VINA RESULT:      -7.4      3.176      7.838
REMARK  Name = 338257
REMARK  6 active torsions:
REMARK  status: ('A' for Active; 'I' for Inactive)
REMARK    1  A    between atoms: C_6  and  C_10
REMARK    2  A    between atoms: C_14  and  O_18
REMARK    3  A    between atoms: N_17  and  C_21
REMARK    4  A    between atoms: C_21  and  C_24
REMARK    5  A    between atoms: C_24  and  C_27
REMARK    6  A    between atoms: C_25  and  N_28
REMARK                            x       y       z     vdW  Elec       q    Type
REMARK                         _______ _______ _______ _____ _____    ______ ____
ROOT
ATOM      1  C   UNL     1      -9.793  53.958  50.543  0.00  0.00    +0.000 A 
ATOM      2  C   UNL     1     -10.703  55.120  50.738  0.00  0.00    +0.000 A 
ATOM      3  C   UNL     1      -9.689  53.375  49.339  0.00  0.00    +0.000 A 
ATOM      4  O   UNL     1     -10.754  55.592  51.876  0.00  0.00    +0.000 OA
ATOM      5  N   UNL     1     -11.414  55.628  49.656  0.00  0.00    +0.000 N 
ATOM      6  C   UNL     1     -10.452  53.899  48.198  0.00  0.00    +0.000 A 
ATOM      7  C   UNL     1     -11.313  55.001  48.364  0.00  0.00    +0.000 A 
ATOM      8  C   UNL     1     -10.295  53.313  46.925  0.00  0.00    +0.000 A 
ATOM      9  C   UNL     1     -12.005  55.465  47.235  0.00  0.00    +0.000 A 
ATOM     10  C   UNL     1     -10.993  53.777  45.813  0.00  0.00    +0.000 A 
ATOM     11  C   UNL     1     -11.815  54.883  45.973  0.00  0.00    +0.000 A 
ENDROOT
BRANCH   1  17
ATOM     12  S   UNL     1      -6.682  53.209  52.826  0.00  0.00    +0.000 S 
ATOM     13  O   UNL     1      -6.245  54.365  53.582  0.00  0.00    +0.000 OA
ATOM     14  O   UNL     1      -5.710  52.330  52.210  0.00  0.00    +0.000 OA
ATOM     15  N   UNL     1      -7.685  53.734  51.664  0.00  0.00    +0.000 N 
ATOM     16  C   UNL     1      -7.598  52.212  53.942  0.00  0.00    +0.000 A 
ATOM     17  C   UNL     1      -8.959  53.486  51.720  0.00  0.00    +0.000 C 
ATOM     18  C   UNL     1      -8.968  52.123  53.760  0.00  0.00    +0.000 A 
ATOM     19  C   UNL     1      -6.942  51.524  54.966  0.00  0.00    +0.000 A 
ATOM     20  N   UNL     1      -9.610  52.826  52.742  0.00  0.00    +0.000 N 
ATOM     21  C   UNL     1      -9.711  51.373  54.675  0.00  0.00    +0.000 A 
ATOM     22  C   UNL     1      -7.690  50.754  55.853  0.00  0.00    +0.000 A 
ATOM     23  C   UNL     1      -9.076  50.685  55.713  0.00  0.00    +0.000 A 
ATOM     24  H   UNL     1      -7.324  54.248  50.907  0.00  0.00    +0.000 HD
ATOM     25  H   UNL     1     -10.594  52.854  52.752  0.00  0.00    +0.000 HD
ENDBRANCH   1  17
BRANCH  10  26
ATOM     26  N   UNL     1     -10.683  53.300  44.536  0.00  0.00    +0.000 N 
ATOM     27  H   UNL     1     -10.814  52.349  44.320  0.00  0.00    +0.000 HD
ATOM     28  H   UNL     1     -10.332  53.916  43.853  0.00  0.00    +0.000 HD
ENDBRANCH  10  26
BRANCH   3  29
ATOM     29  O   UNL     1      -8.874  52.292  49.066  0.00  0.00    +0.000 OA
ATOM     30  H   UNL     1      -9.098  51.443  49.392  0.00  0.00    +0.000 HD
ENDBRANCH   3  29
BRANCH   5  31
ATOM     31  C   UNL     1     -12.386  56.723  49.892  0.00  0.00    +0.000 C 
BRANCH  31  32
ATOM     32  C   UNL     1     -13.749  56.312  50.482  0.00  0.00    +0.000 C 
BRANCH  32  33
ATOM     33  C   UNL     1     -14.363  57.360  51.364  0.00  0.00    +0.000 C 
ATOM     34  C   UNL     1     -13.992  57.548  52.811  0.00  0.00    +0.000 C 
ATOM     35  C   UNL     1     -15.302  56.906  52.453  0.00  0.00    +0.000 C 
ENDBRANCH  32  33
ENDBRANCH  31  32
ENDBRANCH   5  31
TORSDOF 6
ENDMDL
MODEL 9
REMARK VINA RESULT:      -7.3      3.158      7.529
REMARK  Name = 338257
REMARK  6 active torsions:
REMARK  status: ('A' for Active; 'I' for Inactive)
REMARK    1  A    between atoms: C_6  and  C_10
REMARK    2  A    between atoms: C_14  and  O_18
REMARK    3  A    between atoms: N_17  and  C_21
REMARK    4  A    between atoms: C_21  and  C_24
REMARK    5  A    between atoms: C_24  and  C_27
REMARK    6  A    between atoms: C_25  and  N_28
REMARK                            x       y       z     vdW  Elec       q    Type
REMARK                         _______ _______ _______ _____ _____    ______ ____
ROOT
ATOM      1  C   UNL     1     -10.044  55.277  50.594  0.00  0.00    +0.000 A 
ATOM      2  C   UNL     1     -10.138  55.405  49.113  0.00  0.00    +0.000 A 
ATOM      3  C   UNL     1     -11.113  55.530  51.364  0.00  0.00    +0.000 A 
ATOM      4  O   UNL     1      -9.109  55.167  48.476  0.00  0.00    +0.000 OA
ATOM      5  N   UNL     1     -11.351  55.747  48.527  0.00  0.00    +0.000 N 
ATOM      6  C   UNL     1     -12.393  55.908  50.748  0.00  0.00    +0.000 A 
ATOM      7  C   UNL     1     -12.500  56.029  49.348  0.00  0.00    +0.000 A 
ATOM      8  C   UNL     1     -13.524  56.121  51.562  0.00  0.00    +0.000 A 
ATOM      9  C   UNL     1     -13.750  56.380  48.817  0.00  0.00    +0.000 A 
ATOM     10  C   UNL     1     -14.758  56.477  51.024  0.00  0.00    +0.000 A 
ATOM     11  C   UNL     1     -14.869  56.562  49.643  0.00  0.00    +0.000 A 
ENDROOT
BRANCH   1  17
ATOM     12  S   UNL     1      -7.092  54.803  53.146  0.00  0.00    +0.000 S 
ATOM     13  O   UNL     1      -7.372  53.802  54.155  0.00  0.00    +0.000 OA
ATOM     14  O   UNL     1      -6.436  56.042  53.509  0.00  0.00    +0.000 OA
ATOM     15  N   UNL     1      -8.494  55.176  52.421  0.00  0.00    +0.000 N 
ATOM     16  C   UNL     1      -6.047  54.029  51.967  0.00  0.00    +0.000 A 
ATOM     17  C   UNL     1      -8.733  54.810  51.199  0.00  0.00    +0.000 C 
ATOM     18  C   UNL     1      -6.572  53.752  50.715  0.00  0.00    +0.000 A 
ATOM     19  C   UNL     1      -4.724  53.726  52.298  0.00  0.00    +0.000 A 
ATOM     20  N   UNL     1      -7.897  54.049  50.405  0.00  0.00    +0.000 N 
ATOM     21  C   UNL     1      -5.763  53.090  49.789  0.00  0.00    +0.000 A 
ATOM     22  C   UNL     1      -3.918  53.093  51.354  0.00  0.00    +0.000 A 
ATOM     23  C   UNL     1      -4.439  52.768  50.103  0.00  0.00    +0.000 A 
ATOM     24  H   UNL     1      -9.175  55.687  52.916  0.00  0.00    +0.000 HD
ATOM     25  H   UNL     1      -8.264  53.693  49.563  0.00  0.00    +0.000 HD
ENDBRANCH   1  17
BRANCH  10  26
ATOM     26  N   UNL     1     -15.898  56.502  51.832  0.00  0.00    +0.000 N 
ATOM     27  H   UNL     1     -16.087  57.287  52.394  0.00  0.00    +0.000 HD
ATOM     28  H   UNL     1     -16.513  55.733  51.839  0.00  0.00    +0.000 HD
ENDBRANCH  10  26
BRANCH   3  29
ATOM     29  O   UNL     1     -11.118  55.442  52.744  0.00  0.00    +0.000 OA
ATOM     30  H   UNL     1     -11.203  56.217  53.263  0.00  0.00    +0.000 HD
ENDBRANCH   3  29
BRANCH   5  31
ATOM     31  C   UNL     1     -11.399  55.962  47.060  0.00  0.00    +0.000 C 
BRANCH  31  32
ATOM     32  C   UNL     1     -11.855  54.762  46.208  0.00  0.00    +0.000 C 
BRANCH  32  33
ATOM     33  C   UNL     1     -10.724  54.025  45.552  0.00  0.00    +0.000 C 
ATOM     34  C   UNL     1     -10.914  53.052  44.419  0.00  0.00    +0.000 C 
ATOM     35  C   UNL     1     -10.608  52.542  45.798  0.00  0.00    +0.000 C 
ENDBRANCH  32  33
ENDBRANCH  31  32
ENDBRANCH   5  31
TORSDOF 6
ENDMDL
