MODEL 1
REMARK VINA RESULT:      -8.1      0.000      0.000
REMARK  Name = 298159
REMARK  7 active torsions:
REMARK  status: ('A' for Active; 'I' for Inactive)
REMARK    1  A    between atoms: C_6  and  C_10
REMARK    2  A    between atoms: C_14  and  O_18
REMARK    3  A    between atoms: N_17  and  C_21
REMARK    4  A    between atoms: C_21  and  C_24
REMARK    5  A    between atoms: C_24  and  C_27
REMARK    6  A    between atoms: C_27  and  C_28
REMARK    7  A    between atoms: C_27  and  C_29
REMARK                            x       y       z     vdW  Elec       q    Type
REMARK                         _______ _______ _______ _____ _____    ______ ____
ROOT
ATOM      1  C   UNL     1     -10.160  54.397  52.200  0.00  0.00    +0.000 A 
ATOM      2  C   UNL     1      -8.782  54.978  52.132  0.00  0.00    +0.000 A 
ATOM      3  C   UNL     1     -10.382  53.282  52.915  0.00  0.00    +0.000 A 
ATOM      4  O   UNL     1      -8.639  56.068  51.570  0.00  0.00    +0.000 OA
ATOM      5  N   UNL     1      -7.730  54.282  52.716  0.00  0.00    +0.000 N 
ATOM      6  C   UNL     1      -9.283  52.635  53.649  0.00  0.00    +0.000 A 
ATOM      7  C   UNL     1      -7.977  53.149  53.553  0.00  0.00    +0.000 A 
ATOM      8  C   UNL     1      -9.530  51.517  54.467  0.00  0.00    +0.000 A 
ATOM      9  C   UNL     1      -6.963  52.549  54.317  0.00  0.00    +0.000 A 
ATOM     10  C   UNL     1      -8.503  50.916  55.193  0.00  0.00    +0.000 A 
ATOM     11  C   UNL     1      -7.220  51.436  55.120  0.00  0.00    +0.000 A 
ENDROOT
BRANCH   1  17
ATOM     12  S   UNL     1     -12.400  55.965  49.374  0.00  0.00    +0.000 S 
ATOM     13  O   UNL     1     -13.251  54.993  48.718  0.00  0.00    +0.000 OA
ATOM     14  O   UNL     1     -11.721  56.986  48.598  0.00  0.00    +0.000 OA
ATOM     15  N   UNL     1     -11.279  55.151  50.216  0.00  0.00    +0.000 N 
ATOM     16  C   UNL     1     -13.427  56.829  50.506  0.00  0.00    +0.000 A 
ATOM     17  C   UNL     1     -11.300  55.130  51.516  0.00  0.00    +0.000 C 
ATOM     18  C   UNL     1     -13.224  56.609  51.858  0.00  0.00    +0.000 A 
ATOM     19  C   UNL     1     -14.402  57.713  50.035  0.00  0.00    +0.000 A 
ATOM     20  N   UNL     1     -12.257  55.719  52.314  0.00  0.00    +0.000 N 
ATOM     21  C   UNL     1     -14.077  57.249  52.766  0.00  0.00    +0.000 A 
ATOM     22  C   UNL     1     -15.218  58.371  50.952  0.00  0.00    +0.000 A 
ATOM     23  C   UNL     1     -15.061  58.132  52.317  0.00  0.00    +0.000 A 
ATOM     24  H   UNL     1     -10.571  54.665  49.735  0.00  0.00    +0.000 HD
ATOM     25  H   UNL     1     -12.256  55.494  53.273  0.00  0.00    +0.000 HD
ENDBRANCH   1  17
BRANCH   3  26
ATOM     26  O   UNL     1     -11.622  52.686  53.069  0.00  0.00    +0.000 OA
ATOM     27  H   UNL     1     -12.267  53.083  53.621  0.00  0.00    +0.000 HD
ENDBRANCH   3  26
BRANCH   5  28
ATOM     28  C   UNL     1      -6.381  54.843  52.573  0.00  0.00    +0.000 C 
BRANCH  28  29
ATOM     29  C   UNL     1      -5.481  54.180  51.516  0.00  0.00    +0.000 C 
BRANCH  29  30
ATOM     30  C   UNL     1      -4.089  53.718  51.979  0.00  0.00    +0.000 C 
ATOM     31  C   UNL     1      -3.848  53.978  53.465  0.00  0.00    +0.000 C 
ATOM     32  C   UNL     1      -3.948  52.218  51.690  0.00  0.00    +0.000 C 
ENDBRANCH  29  30
ENDBRANCH  28  29
ENDBRANCH   5  28
TORSDOF 5
ENDMDL
MODEL 2
REMARK VINA RESULT:      -8.1      4.064      4.927
REMARK  Name = 298159
REMARK  7 active torsions:
REMARK  status: ('A' for Active; 'I' for Inactive)
REMARK    1  A    between atoms: C_6  and  C_10
REMARK    2  A    between atoms: C_14  and  O_18
REMARK    3  A    between atoms: N_17  and  C_21
REMARK    4  A    between atoms: C_21  and  C_24
REMARK    5  A    between atoms: C_24  and  C_27
REMARK    6  A    between atoms: C_27  and  C_28
REMARK    7  A    between atoms: C_27  and  C_29
REMARK                            x       y       z     vdW  Elec       q    Type
REMARK                         _______ _______ _______ _____ _____    ______ ____
ROOT
ATOM      1  C   UNL     1     -12.530  54.219  49.729  0.00  0.00    +0.000 A 
ATOM      2  C   UNL     1     -11.992  54.143  48.335  0.00  0.00    +0.000 A 
ATOM      3  C   UNL     1     -12.260  53.240  50.607  0.00  0.00    +0.000 A 
ATOM      4  O   UNL     1     -12.156  55.118  47.594  0.00  0.00    +0.000 OA
ATOM      5  N   UNL     1     -11.316  52.995  47.938  0.00  0.00    +0.000 N 
ATOM      6  C   UNL     1     -11.420  52.098  50.214  0.00  0.00    +0.000 A 
ATOM      7  C   UNL     1     -10.947  51.996  48.893  0.00  0.00    +0.000 A 
ATOM      8  C   UNL     1     -11.063  51.115  51.155  0.00  0.00    +0.000 A 
ATOM      9  C   UNL     1     -10.093  50.930  48.567  0.00  0.00    +0.000 A 
ATOM     10  C   UNL     1     -10.241  50.046  50.804  0.00  0.00    +0.000 A 
ATOM     11  C   UNL     1      -9.753  49.957  49.509  0.00  0.00    +0.000 A 
ENDROOT
BRANCH   1  17
ATOM     12  S   UNL     1     -15.398  56.472  51.201  0.00  0.00    +0.000 S 
ATOM     13  O   UNL     1     -15.342  56.594  52.644  0.00  0.00    +0.000 OA
ATOM     14  O   UNL     1     -16.673  56.296  50.531  0.00  0.00    +0.000 OA
ATOM     15  N   UNL     1     -14.435  55.240  50.772  0.00  0.00    +0.000 N 
ATOM     16  C   UNL     1     -14.720  57.958  50.558  0.00  0.00    +0.000 A 
ATOM     17  C   UNL     1     -13.315  55.451  50.145  0.00  0.00    +0.000 C 
ATOM     18  C   UNL     1     -13.489  57.886  49.928  0.00  0.00    +0.000 A 
ATOM     19  C   UNL     1     -15.424  59.160  50.677  0.00  0.00    +0.000 A 
ATOM     20  N   UNL     1     -12.793  56.685  49.825  0.00  0.00    +0.000 N 
ATOM     21  C   UNL     1     -12.915  59.075  49.465  0.00  0.00    +0.000 A 
ATOM     22  C   UNL     1     -14.857  60.329  50.176  0.00  0.00    +0.000 A 
ATOM     23  C   UNL     1     -13.598  60.288  49.578  0.00  0.00    +0.000 A 
ATOM     24  H   UNL     1     -14.703  54.318  50.990  0.00  0.00    +0.000 HD
ATOM     25  H   UNL     1     -11.864  56.720  49.500  0.00  0.00    +0.000 HD
ENDBRANCH   1  17
BRANCH   3  26
ATOM     26  O   UNL     1     -12.681  53.234  51.925  0.00  0.00    +0.000 OA
ATOM     27  H   UNL     1     -12.722  52.426  52.400  0.00  0.00    +0.000 HD
ENDBRANCH   3  26
BRANCH   5  28
ATOM     28  C   UNL     1     -10.859  52.921  46.545  0.00  0.00    +0.000 C 
BRANCH  28  29
ATOM     29  C   UNL     1      -9.370  53.225  46.304  0.00  0.00    +0.000 C 
BRANCH  29  30
ATOM     30  C   UNL     1      -8.971  54.707  46.199  0.00  0.00    +0.000 C 
ATOM     31  C   UNL     1      -8.553  55.300  47.543  0.00  0.00    +0.000 C 
ATOM     32  C   UNL     1      -7.814  54.834  45.199  0.00  0.00    +0.000 C 
ENDBRANCH  29  30
ENDBRANCH  28  29
ENDBRANCH   5  28
TORSDOF 5
ENDMDL
MODEL 3
REMARK VINA RESULT:      -7.9      2.055      2.841
REMARK  Name = 298159
REMARK  7 active torsions:
REMARK  status: ('A' for Active; 'I' for Inactive)
REMARK    1  A    between atoms: C_6  and  C_10
REMARK    2  A    between atoms: C_14  and  O_18
REMARK    3  A    between atoms: N_17  and  C_21
REMARK    4  A    between atoms: C_21  and  C_24
REMARK    5  A    between atoms: C_24  and  C_27
REMARK    6  A    between atoms: C_27  and  C_28
REMARK    7  A    between atoms: C_27  and  C_29
REMARK                            x       y       z     vdW  Elec       q    Type
REMARK                         _______ _______ _______ _____ _____    ______ ____
ROOT
ATOM      1  C   UNL     1     -11.552  54.038  51.188  0.00  0.00    +0.000 A 
ATOM      2  C   UNL     1     -10.626  54.077  52.364  0.00  0.00    +0.000 A 
ATOM      3  C   UNL     1     -11.641  52.925  50.442  0.00  0.00    +0.000 A 
ATOM      4  O   UNL     1     -10.662  55.069  53.098  0.00  0.00    +0.000 OA
ATOM      5  N   UNL     1      -9.784  52.995  52.591  0.00  0.00    +0.000 N 
ATOM      6  C   UNL     1     -10.848  51.734  50.782  0.00  0.00    +0.000 A 
ATOM      7  C   UNL     1      -9.942  51.777  51.858  0.00  0.00    +0.000 A 
ATOM      8  C   UNL     1     -11.002  50.539  50.055  0.00  0.00    +0.000 A 
ATOM      9  C   UNL     1      -9.249  50.605  52.198  0.00  0.00    +0.000 A 
ATOM     10  C   UNL     1     -10.281  49.395  50.388  0.00  0.00    +0.000 A 
ATOM     11  C   UNL     1      -9.406  49.428  51.464  0.00  0.00    +0.000 A 
ENDROOT
BRANCH   1  17
ATOM     12  S   UNL     1     -13.253  57.033  49.291  0.00  0.00    +0.000 S 
ATOM     13  O   UNL     1     -14.352  56.619  48.443  0.00  0.00    +0.000 OA
ATOM     14  O   UNL     1     -12.310  58.035  48.831  0.00  0.00    +0.000 OA
ATOM     15  N   UNL     1     -12.413  55.706  49.694  0.00  0.00    +0.000 N 
ATOM     16  C   UNL     1     -13.982  57.693  50.746  0.00  0.00    +0.000 A 
ATOM     17  C   UNL     1     -12.434  55.242  50.908  0.00  0.00    +0.000 C 
ATOM     18  C   UNL     1     -13.845  56.972  51.920  0.00  0.00    +0.000 A 
ATOM     19  C   UNL     1     -14.660  58.915  50.699  0.00  0.00    +0.000 A 
ATOM     20  N   UNL     1     -13.175  55.753  51.952  0.00  0.00    +0.000 N 
ATOM     21  C   UNL     1     -14.472  57.462  53.072  0.00  0.00    +0.000 A 
ATOM     22  C   UNL     1     -15.246  59.408  51.862  0.00  0.00    +0.000 A 
ATOM     23  C   UNL     1     -15.160  58.677  53.046  0.00  0.00    +0.000 A 
ATOM     24  H   UNL     1     -11.878  55.246  49.008  0.00  0.00    +0.000 HD
ATOM     25  H   UNL     1     -13.236  55.218  52.777  0.00  0.00    +0.000 HD
ENDBRANCH   1  17
BRANCH   3  26
ATOM     26  O   UNL     1     -12.489  52.776  49.358  0.00  0.00    +0.000 OA
ATOM     27  H   UNL     1     -12.642  53.498  48.780  0.00  0.00    +0.000 HD
ENDBRANCH   3  26
BRANCH   5  28
ATOM     28  C   UNL     1      -8.840  53.092  53.711  0.00  0.00    +0.000 C 
BRANCH  28  29
ATOM     29  C   UNL     1      -7.451  53.666  53.378  0.00  0.00    +0.000 C 
BRANCH  29  30
ATOM     30  C   UNL     1      -6.964  54.846  54.236  0.00  0.00    +0.000 C 
ATOM     31  C   UNL     1      -5.519  54.677  54.702  0.00  0.00    +0.000 C 
ATOM     32  C   UNL     1      -7.091  56.136  53.413  0.00  0.00    +0.000 C 
ENDBRANCH  29  30
ENDBRANCH  28  29
ENDBRANCH   5  28
TORSDOF 5
ENDMDL
MODEL 4
REMARK VINA RESULT:      -7.9      2.568      8.036
REMARK  Name = 298159
REMARK  7 active torsions:
REMARK  status: ('A' for Active; 'I' for Inactive)
REMARK    1  A    between atoms: C_6  and  C_10
REMARK    2  A    between atoms: C_14  and  O_18
REMARK    3  A    between atoms: N_17  and  C_21
REMARK    4  A    between atoms: C_21  and  C_24
REMARK    5  A    between atoms: C_24  and  C_27
REMARK    6  A    between atoms: C_27  and  C_28
REMARK    7  A    between atoms: C_27  and  C_29
REMARK                            x       y       z     vdW  Elec       q    Type
REMARK                         _______ _______ _______ _____ _____    ______ ____
ROOT
ATOM      1  C   UNL     1     -10.083  54.716  50.938  0.00  0.00    +0.000 A 
ATOM      2  C   UNL     1     -11.406  55.266  51.369  0.00  0.00    +0.000 A 
ATOM      3  C   UNL     1      -9.779  54.649  49.631  0.00  0.00    +0.000 A 
ATOM      4  O   UNL     1     -11.602  55.429  52.577  0.00  0.00    +0.000 OA
ATOM      5  N   UNL     1     -12.348  55.588  50.398  0.00  0.00    +0.000 N 
ATOM      6  C   UNL     1     -10.731  55.129  48.618  0.00  0.00    +0.000 A 
ATOM      7  C   UNL     1     -11.994  55.605  49.012  0.00  0.00    +0.000 A 
ATOM      8  C   UNL     1     -10.381  55.139  47.255  0.00  0.00    +0.000 A 
ATOM      9  C   UNL     1     -12.854  56.118  48.028  0.00  0.00    +0.000 A 
ATOM     10  C   UNL     1     -11.262  55.622  46.290  0.00  0.00    +0.000 A 
ATOM     11  C   UNL     1     -12.498  56.116  46.678  0.00  0.00    +0.000 A 
ENDROOT
BRANCH   1  17
ATOM     12  S   UNL     1      -6.780  54.606  53.068  0.00  0.00    +0.000 S 
ATOM     13  O   UNL     1      -6.711  55.653  54.067  0.00  0.00    +0.000 OA
ATOM     14  O   UNL     1      -5.604  54.254  52.294  0.00  0.00    +0.000 OA
ATOM     15  N   UNL     1      -7.965  54.990  52.030  0.00  0.00    +0.000 N 
ATOM     16  C   UNL     1      -7.243  53.144  53.925  0.00  0.00    +0.000 A 
ATOM     17  C   UNL     1      -9.075  54.314  51.999  0.00  0.00    +0.000 C 
ATOM     18  C   UNL     1      -8.511  52.637  53.696  0.00  0.00    +0.000 A 
ATOM     19  C   UNL     1      -6.341  52.524  54.794  0.00  0.00    +0.000 A 
ATOM     20  N   UNL     1      -9.404  53.269  52.836  0.00  0.00    +0.000 N 
ATOM     21  C   UNL     1      -8.910  51.506  54.418  0.00  0.00    +0.000 A 
ATOM     22  C   UNL     1      -6.739  51.377  55.476  0.00  0.00    +0.000 A 
ATOM     23  C   UNL     1      -8.026  50.873  55.295  0.00  0.00    +0.000 A 
ATOM     24  H   UNL     1      -7.840  55.747  51.414  0.00  0.00    +0.000 HD
ATOM     25  H   UNL     1     -10.335  52.948  52.824  0.00  0.00    +0.000 HD
ENDBRANCH   1  17
BRANCH   3  26
ATOM     26  O   UNL     1      -8.572  54.189  49.132  0.00  0.00    +0.000 OA
ATOM     27  H   UNL     1      -7.914  54.800  48.862  0.00  0.00    +0.000 HD
ENDBRANCH   3  26
BRANCH   5  28
ATOM     28  C   UNL     1     -13.661  56.061  50.854  0.00  0.00    +0.000 C 
BRANCH  28  29
ATOM     29  C   UNL     1     -13.736  57.535  51.290  0.00  0.00    +0.000 C 
BRANCH  29  30
ATOM     30  C   UNL     1     -14.544  57.843  52.561  0.00  0.00    +0.000 C 
ATOM     31  C   UNL     1     -15.077  59.275  52.586  0.00  0.00    +0.000 C 
ATOM     32  C   UNL     1     -15.717  56.857  52.649  0.00  0.00    +0.000 C 
ENDBRANCH  29  30
ENDBRANCH  28  29
ENDBRANCH   5  28
TORSDOF 5
ENDMDL
MODEL 5
REMARK VINA RESULT:      -7.9      4.416      6.313
REMARK  Name = 298159
REMARK  7 active torsions:
REMARK  status: ('A' for Active; 'I' for Inactive)
REMARK    1  A    between atoms: C_6  and  C_10
REMARK    2  A    between atoms: C_14  and  O_18
REMARK    3  A    between atoms: N_17  and  C_21
REMARK    4  A    between atoms: C_21  and  C_24
REMARK    5  A    between atoms: C_24  and  C_27
REMARK    6  A    between atoms: C_27  and  C_28
REMARK    7  A    between atoms: C_27  and  C_29
REMARK                            x       y       z     vdW  Elec       q    Type
REMARK                         _______ _______ _______ _____ _____    ______ ____
ROOT
ATOM      1  C   UNL     1     -11.428  56.293  48.532  0.00  0.00    +0.000 A 
ATOM      2  C   UNL     1     -11.819  55.661  47.233  0.00  0.00    +0.000 A 
ATOM      3  C   UNL     1     -10.181  56.137  49.005  0.00  0.00    +0.000 A 
ATOM      4  O   UNL     1     -12.932  55.927  46.769  0.00  0.00    +0.000 OA
ATOM      5  N   UNL     1     -10.913  54.822  46.595  0.00  0.00    +0.000 N 
ATOM      6  C   UNL     1      -9.187  55.364  48.245  0.00  0.00    +0.000 A 
ATOM      7  C   UNL     1      -9.558  54.729  47.045  0.00  0.00    +0.000 A 
ATOM      8  C   UNL     1      -7.857  55.270  48.694  0.00  0.00    +0.000 A 
ATOM      9  C   UNL     1      -8.571  54.054  46.310  0.00  0.00    +0.000 A 
ATOM     10  C   UNL     1      -6.898  54.569  47.966  0.00  0.00    +0.000 A 
ATOM     11  C   UNL     1      -7.256  53.963  46.770  0.00  0.00    +0.000 A 
ENDROOT
BRANCH   1  17
ATOM     12  S   UNL     1     -13.627  59.407  49.494  0.00  0.00    +0.000 S 
ATOM     13  O   UNL     1     -14.800  59.557  48.657  0.00  0.00    +0.000 OA
ATOM     14  O   UNL     1     -12.847  60.569  49.876  0.00  0.00    +0.000 OA
ATOM     15  N   UNL     1     -12.631  58.355  48.767  0.00  0.00    +0.000 N 
ATOM     16  C   UNL     1     -14.189  58.693  50.997  0.00  0.00    +0.000 A 
ATOM     17  C   UNL     1     -12.437  57.166  49.256  0.00  0.00    +0.000 C 
ATOM     18  C   UNL     1     -13.824  57.384  51.265  0.00  0.00    +0.000 A 
ATOM     19  C   UNL     1     -14.965  59.444  51.885  0.00  0.00    +0.000 A 
ATOM     20  N   UNL     1     -13.059  56.643  50.369  0.00  0.00    +0.000 N 
ATOM     21  C   UNL     1     -14.315  56.788  52.433  0.00  0.00    +0.000 A 
ATOM     22  C   UNL     1     -15.414  58.849  53.061  0.00  0.00    +0.000 A 
ATOM     23  C   UNL     1     -15.097  57.519  53.330  0.00  0.00    +0.000 A 
ATOM     24  H   UNL     1     -12.166  58.622  47.941  0.00  0.00    +0.000 HD
ATOM     25  H   UNL     1     -12.954  55.680  50.543  0.00  0.00    +0.000 HD
ENDBRANCH   1  17
BRANCH   3  26
ATOM     26  O   UNL     1      -9.711  56.707  50.176  0.00  0.00    +0.000 OA
ATOM     27  H   UNL     1     -10.224  57.353  50.621  0.00  0.00    +0.000 HD
ENDBRANCH   3  26
BRANCH   5  28
ATOM     28  C   UNL     1     -11.350  54.163  45.358  0.00  0.00    +0.000 C 
BRANCH  28  29
ATOM     29  C   UNL     1     -11.842  52.712  45.501  0.00  0.00    +0.000 C 
BRANCH  29  30
ATOM     30  C   UNL     1     -11.454  51.733  44.380  0.00  0.00    +0.000 C 
ATOM     31  C   UNL     1     -10.272  52.230  43.550  0.00  0.00    +0.000 C 
ATOM     32  C   UNL     1     -11.106  50.378  45.011  0.00  0.00    +0.000 C 
ENDBRANCH  29  30
ENDBRANCH  28  29
ENDBRANCH   5  28
TORSDOF 5
ENDMDL
MODEL 6
REMARK VINA RESULT:      -7.8      3.324      7.340
REMARK  Name = 298159
REMARK  7 active torsions:
REMARK  status: ('A' for Active; 'I' for Inactive)
REMARK    1  A    between atoms: C_6  and  C_10
REMARK    2  A    between atoms: C_14  and  O_18
REMARK    3  A    between atoms: N_17  and  C_21
REMARK    4  A    between atoms: C_21  and  C_24
REMARK    5  A    between atoms: C_24  and  C_27
REMARK    6  A    between atoms: C_27  and  C_28
REMARK    7  A    between atoms: C_27  and  C_29
REMARK                            x       y       z     vdW  Elec       q    Type
REMARK                         _______ _______ _______ _____ _____    ______ ____
ROOT
ATOM      1  C   UNL     1     -10.239  55.186  50.807  0.00  0.00    +0.000 A 
ATOM      2  C   UNL     1      -9.822  55.110  49.371  0.00  0.00    +0.000 A 
ATOM      3  C   UNL     1     -11.451  55.666  51.129  0.00  0.00    +0.000 A 
ATOM      4  O   UNL     1      -8.755  54.549  49.105  0.00  0.00    +0.000 OA
ATOM      5  N   UNL     1     -10.656  55.653  48.401  0.00  0.00    +0.000 N 
ATOM      6  C   UNL     1     -12.382  56.104  50.078  0.00  0.00    +0.000 A 
ATOM      7  C   UNL     1     -11.982  56.079  48.729  0.00  0.00    +0.000 A 
ATOM      8  C   UNL     1     -13.684  56.527  50.405  0.00  0.00    +0.000 A 
ATOM      9  C   UNL     1     -12.916  56.440  47.745  0.00  0.00    +0.000 A 
ATOM     10  C   UNL     1     -14.586  56.912  49.416  0.00  0.00    +0.000 A 
ATOM     11  C   UNL     1     -14.202  56.865  48.084  0.00  0.00    +0.000 A 
ENDROOT
BRANCH   1  17
ATOM     12  S   UNL     1      -7.035  54.691  53.033  0.00  0.00    +0.000 S 
ATOM     13  O   UNL     1      -6.927  55.664  54.100  0.00  0.00    +0.000 OA
ATOM     14  O   UNL     1      -5.860  54.301  52.276  0.00  0.00    +0.000 OA
ATOM     15  N   UNL     1      -8.149  55.228  51.984  0.00  0.00    +0.000 N 
ATOM     16  C   UNL     1      -7.636  53.217  53.775  0.00  0.00    +0.000 A 
ATOM     17  C   UNL     1      -9.303  54.642  51.872  0.00  0.00    +0.000 C 
ATOM     18  C   UNL     1      -8.928  52.822  53.471  0.00  0.00    +0.000 A 
ATOM     19  C   UNL     1      -6.815  52.476  54.630  0.00  0.00    +0.000 A 
ATOM     20  N   UNL     1      -9.739  53.574  52.626  0.00  0.00    +0.000 N 
ATOM     21  C   UNL     1      -9.435  51.681  54.104  0.00  0.00    +0.000 A 
ATOM     22  C   UNL     1      -7.321  51.322  55.222  0.00  0.00    +0.000 A 
ATOM     23  C   UNL     1      -8.633  50.929  54.965  0.00  0.00    +0.000 A 
ATOM     24  H   UNL     1      -7.946  56.011  51.423  0.00  0.00    +0.000 HD
ATOM     25  H   UNL     1     -10.690  53.325  52.563  0.00  0.00    +0.000 HD
ENDBRANCH   1  17
BRANCH   3  26
ATOM     26  O   UNL     1     -11.943  55.746  52.420  0.00  0.00    +0.000 OA
ATOM     27  H   UNL     1     -12.102  54.963  52.910  0.00  0.00    +0.000 HD
ENDBRANCH   3  26
BRANCH   5  28
ATOM     28  C   UNL     1     -10.189  55.625  47.009  0.00  0.00    +0.000 C 
BRANCH  28  29
ATOM     29  C   UNL     1     -10.454  54.323  46.233  0.00  0.00    +0.000 C 
BRANCH  29  30
ATOM     30  C   UNL     1      -9.231  53.616  45.624  0.00  0.00    +0.000 C 
ATOM     31  C   UNL     1      -9.524  53.013  44.251  0.00  0.00    +0.000 C 
ATOM     32  C   UNL     1      -8.086  54.631  45.506  0.00  0.00    +0.000 C 
ENDBRANCH  29  30
ENDBRANCH  28  29
ENDBRANCH   5  28
TORSDOF 5
ENDMDL
MODEL 7
REMARK VINA RESULT:      -7.8      3.387      5.117
REMARK  Name = 298159
REMARK  7 active torsions:
REMARK  status: ('A' for Active; 'I' for Inactive)
REMARK    1  A    between atoms: C_6  and  C_10
REMARK    2  A    between atoms: C_14  and  O_18
REMARK    3  A    between atoms: N_17  and  C_21
REMARK    4  A    between atoms: C_21  and  C_24
REMARK    5  A    between atoms: C_24  and  C_27
REMARK    6  A    between atoms: C_27  and  C_28
REMARK    7  A    between atoms: C_27  and  C_29
REMARK                            x       y       z     vdW  Elec       q    Type
REMARK                         _______ _______ _______ _____ _____    ______ ____
ROOT
ATOM      1  C   UNL     1     -11.621  55.901  48.742  0.00  0.00    +0.000 A 
ATOM      2  C   UNL     1     -10.577  55.236  49.583  0.00  0.00    +0.000 A 
ATOM      3  C   UNL     1     -11.746  55.574  47.446  0.00  0.00    +0.000 A 
ATOM      4  O   UNL     1     -10.572  55.469  50.796  0.00  0.00    +0.000 OA
ATOM      5  N   UNL     1      -9.674  54.373  48.974  0.00  0.00    +0.000 N 
ATOM      6  C   UNL     1     -10.876  54.550  46.848  0.00  0.00    +0.000 A 
ATOM      7  C   UNL     1      -9.863  53.952  47.619  0.00  0.00    +0.000 A 
ATOM      8  C   UNL     1     -11.061  54.144  45.514  0.00  0.00    +0.000 A 
ATOM      9  C   UNL     1      -9.092  52.931  47.040  0.00  0.00    +0.000 A 
ATOM     10  C   UNL     1     -10.265  53.151  44.946  0.00  0.00    +0.000 A 
ATOM     11  C   UNL     1      -9.282  52.542  45.712  0.00  0.00    +0.000 A 
ENDROOT
BRANCH   1  17
ATOM     12  S   UNL     1     -13.597  59.217  49.491  0.00  0.00    +0.000 S 
ATOM     13  O   UNL     1     -14.742  59.406  48.624  0.00  0.00    +0.000 OA
ATOM     14  O   UNL     1     -12.739  60.339  49.823  0.00  0.00    +0.000 OA
ATOM     15  N   UNL     1     -12.671  58.057  48.841  0.00  0.00    +0.000 N 
ATOM     16  C   UNL     1     -14.232  58.632  51.019  0.00  0.00    +0.000 A 
ATOM     17  C   UNL     1     -12.573  56.886  49.398  0.00  0.00    +0.000 C 
ATOM     18  C   UNL     1     -13.970  57.317  51.365  0.00  0.00    +0.000 A 
ATOM     19  C   UNL     1     -14.964  59.487  51.849  0.00  0.00    +0.000 A 
ATOM     20  N   UNL     1     -13.248  56.473  50.526  0.00  0.00    +0.000 N 
ATOM     21  C   UNL     1     -14.522  56.825  52.554  0.00  0.00    +0.000 A 
ATOM     22  C   UNL     1     -15.474  58.993  53.047  0.00  0.00    +0.000 A 
ATOM     23  C   UNL     1     -15.260  57.660  53.395  0.00  0.00    +0.000 A 
ATOM     24  H   UNL     1     -12.175  58.242  48.011  0.00  0.00    +0.000 HD
ATOM     25  H   UNL     1     -13.218  55.515  50.754  0.00  0.00    +0.000 HD
ENDBRANCH   1  17
BRANCH   3  26
ATOM     26  O   UNL     1     -12.699  56.106  46.594  0.00  0.00    +0.000 OA
ATOM     27  H   UNL     1     -12.786  55.772  45.722  0.00  0.00    +0.000 HD
ENDBRANCH   3  26
BRANCH   5  28
ATOM     28  C   UNL     1      -8.620  53.788  49.812  0.00  0.00    +0.000 C 
BRANCH  28  29
ATOM     29  C   UNL     1      -7.254  54.496  49.774  0.00  0.00    +0.000 C 
BRANCH  29  30
ATOM     30  C   UNL     1      -6.929  55.441  50.943  0.00  0.00    +0.000 C 
ATOM     31  C   UNL     1      -7.553  56.825  50.770  0.00  0.00    +0.000 C 
ATOM     32  C   UNL     1      -7.439  54.806  52.244  0.00  0.00    +0.000 C 
ENDBRANCH  29  30
ENDBRANCH  28  29
ENDBRANCH   5  28
TORSDOF 5
ENDMDL
MODEL 8
REMARK VINA RESULT:      -7.7      3.583      5.082
REMARK  Name = 298159
REMARK  7 active torsions:
REMARK  status: ('A' for Active; 'I' for Inactive)
REMARK    1  A    between atoms: C_6  and  C_10
REMARK    2  A    between atoms: C_14  and  O_18
REMARK    3  A    between atoms: N_17  and  C_21
REMARK    4  A    between atoms: C_21  and  C_24
REMARK    5  A    between atoms: C_24  and  C_27
REMARK    6  A    between atoms: C_27  and  C_28
REMARK    7  A    between atoms: C_27  and  C_29
REMARK                            x       y       z     vdW  Elec       q    Type
REMARK                         _______ _______ _______ _____ _____    ______ ____
ROOT
ATOM      1  C   UNL     1     -10.848  55.540  48.705  0.00  0.00    +0.000 A 
ATOM      2  C   UNL     1      -9.585  55.087  49.368  0.00  0.00    +0.000 A 
ATOM      3  C   UNL     1     -11.086  55.215  47.424  0.00  0.00    +0.000 A 
ATOM      4  O   UNL     1      -9.456  55.297  50.578  0.00  0.00    +0.000 OA
ATOM      5  N   UNL     1      -8.622  54.437  48.605  0.00  0.00    +0.000 N 
ATOM      6  C   UNL     1     -10.122  54.401  46.670  0.00  0.00    +0.000 A 
ATOM      7  C   UNL     1      -8.911  54.009  47.271  0.00  0.00    +0.000 A 
ATOM      8  C   UNL     1     -10.407  53.987  45.356  0.00  0.00    +0.000 A 
ATOM      9  C   UNL     1      -8.042  53.177  46.548  0.00  0.00    +0.000 A 
ATOM     10  C   UNL     1      -9.517  53.187  44.643  0.00  0.00    +0.000 A 
ATOM     11  C   UNL     1      -8.334  52.779  45.242  0.00  0.00    +0.000 A 
ENDROOT
BRANCH   1  17
ATOM     12  S   UNL     1     -13.554  56.342  51.443  0.00  0.00    +0.000 S 
ATOM     13  O   UNL     1     -12.981  56.652  52.737  0.00  0.00    +0.000 OA
ATOM     14  O   UNL     1     -14.737  55.507  51.348  0.00  0.00    +0.000 OA
ATOM     15  N   UNL     1     -12.392  55.665  50.537  0.00  0.00    +0.000 N 
ATOM     16  C   UNL     1     -13.996  57.881  50.723  0.00  0.00    +0.000 A 
ATOM     17  C   UNL     1     -11.876  56.298  49.526  0.00  0.00    +0.000 C 
ATOM     18  C   UNL     1     -13.259  58.319  49.635  0.00  0.00    +0.000 A 
ATOM     19  C   UNL     1     -15.068  58.615  51.238  0.00  0.00    +0.000 A 
ATOM     20  N   UNL     1     -12.187  57.584  49.138  0.00  0.00    +0.000 N 
ATOM     21  C   UNL     1     -13.567  59.572  49.092  0.00  0.00    +0.000 A 
ATOM     22  C   UNL     1     -15.386  59.842  50.662  0.00  0.00    +0.000 A 
ATOM     23  C   UNL     1     -14.630  60.325  49.594  0.00  0.00    +0.000 A 
ATOM     24  H   UNL     1     -12.074  54.760  50.757  0.00  0.00    +0.000 HD
ATOM     25  H   UNL     1     -11.612  58.011  48.462  0.00  0.00    +0.000 HD
ENDBRANCH   1  17
BRANCH   3  26
ATOM     26  O   UNL     1     -12.236  55.556  46.732  0.00  0.00    +0.000 OA
ATOM     27  H   UNL     1     -12.658  56.375  46.900  0.00  0.00    +0.000 HD
ENDBRANCH   3  26
BRANCH   5  28
ATOM     28  C   UNL     1      -7.366  54.065  49.267  0.00  0.00    +0.000 C 
BRANCH  28  29
ATOM     29  C   UNL     1      -6.262  55.137  49.274  0.00  0.00    +0.000 C 
BRANCH  29  30
ATOM     30  C   UNL     1      -4.811  54.639  49.380  0.00  0.00    +0.000 C 
ATOM     31  C   UNL     1      -4.525  53.939  50.708  0.00  0.00    +0.000 C 
ATOM     32  C   UNL     1      -4.537  53.672  48.220  0.00  0.00    +0.000 C 
ENDBRANCH  29  30
ENDBRANCH  28  29
ENDBRANCH   5  28
TORSDOF 5
ENDMDL
MODEL 9
REMARK VINA RESULT:      -7.7      1.680      2.493
REMARK  Name = 298159
REMARK  7 active torsions:
REMARK  status: ('A' for Active; 'I' for Inactive)
REMARK    1  A    between atoms: C_6  and  C_10
REMARK    2  A    between atoms: C_14  and  O_18
REMARK    3  A    between atoms: N_17  and  C_21
REMARK    4  A    between atoms: C_21  and  C_24
REMARK    5  A    between atoms: C_24  and  C_27
REMARK    6  A    between atoms: C_27  and  C_28
REMARK    7  A    between atoms: C_27  and  C_29
REMARK                            x       y       z     vdW  Elec       q    Type
REMARK                         _______ _______ _______ _____ _____    ______ ____
ROOT
ATOM      1  C   UNL     1     -10.108  54.525  52.154  0.00  0.00    +0.000 A 
ATOM      2  C   UNL     1      -8.710  55.059  52.138  0.00  0.00    +0.000 A 
ATOM      3  C   UNL     1     -10.390  53.406  52.843  0.00  0.00    +0.000 A 
ATOM      4  O   UNL     1      -8.513  56.152  51.600  0.00  0.00    +0.000 OA
ATOM      5  N   UNL     1      -7.701  54.317  52.741  0.00  0.00    +0.000 N 
ATOM      6  C   UNL     1      -9.338  52.710  53.598  0.00  0.00    +0.000 A 
ATOM      7  C   UNL     1      -8.012  53.180  53.551  0.00  0.00    +0.000 A 
ATOM      8  C   UNL     1      -9.647  51.588  54.389  0.00  0.00    +0.000 A 
ATOM      9  C   UNL     1      -7.044  52.533  54.336  0.00  0.00    +0.000 A 
ATOM     10  C   UNL     1      -8.665  50.941  55.135  0.00  0.00    +0.000 A 
ATOM     11  C   UNL     1      -7.362  51.417  55.111  0.00  0.00    +0.000 A 
ENDROOT
BRANCH   1  17
ATOM     12  S   UNL     1     -13.459  56.485  51.532  0.00  0.00    +0.000 S 
ATOM     13  O   UNL     1     -13.401  57.865  51.969  0.00  0.00    +0.000 OA
ATOM     14  O   UNL     1     -14.648  55.690  51.774  0.00  0.00    +0.000 OA
ATOM     15  N   UNL     1     -12.196  55.707  52.184  0.00  0.00    +0.000 N 
ATOM     16  C   UNL     1     -13.253  56.517  49.788  0.00  0.00    +0.000 A 
ATOM     17  C   UNL     1     -11.201  55.307  51.449  0.00  0.00    +0.000 C 
ATOM     18  C   UNL     1     -12.070  56.018  49.269  0.00  0.00    +0.000 A 
ATOM     19  C   UNL     1     -14.268  57.022  48.970  0.00  0.00    +0.000 A 
ATOM     20  N   UNL     1     -11.063  55.527  50.095  0.00  0.00    +0.000 N 
ATOM     21  C   UNL     1     -11.873  56.093  47.886  0.00  0.00    +0.000 A 
ATOM     22  C   UNL     1     -14.073  57.055  47.592  0.00  0.00    +0.000 A 
ATOM     23  C   UNL     1     -12.872  56.598  47.050  0.00  0.00    +0.000 A 
ATOM     24  H   UNL     1     -12.183  55.533  53.153  0.00  0.00    +0.000 HD
ATOM     25  H   UNL     1     -10.191  55.322  49.683  0.00  0.00    +0.000 HD
ENDBRANCH   1  17
BRANCH   3  26
ATOM     26  O   UNL     1     -11.654  52.851  52.948  0.00  0.00    +0.000 OA
ATOM     27  H   UNL     1     -12.176  53.016  53.709  0.00  0.00    +0.000 HD
ENDBRANCH   3  26
BRANCH   5  28
ATOM     28  C   UNL     1      -6.330  54.833  52.650  0.00  0.00    +0.000 C 
BRANCH  28  29
ATOM     29  C   UNL     1      -5.385  54.080  51.697  0.00  0.00    +0.000 C 
BRANCH  29  30
ATOM     30  C   UNL     1      -5.820  53.978  50.226  0.00  0.00    +0.000 C 
ATOM     31  C   UNL     1      -5.722  55.314  49.490  0.00  0.00    +0.000 C 
ATOM     32  C   UNL     1      -4.934  52.939  49.523  0.00  0.00    +0.000 C 
ENDBRANCH  29  30
ENDBRANCH  28  29
ENDBRANCH   5  28
TORSDOF 5
ENDMDL
