MODEL 1
REMARK VINA RESULT:      -9.2      0.000      0.000
REMARK  Name = 338125
REMARK  3 active torsions:
REMARK  status: ('A' for Active; 'I' for Inactive)
REMARK    1  A    between atoms: C_6  and  C_10
REMARK    2  A    between atoms: C_14  and  O_18
REMARK    3  A    between atoms: N_17  and  C_21
REMARK                            x       y       z     vdW  Elec       q    Type
REMARK                         _______ _______ _______ _____ _____    ______ ____
ROOT
ATOM      1  C   UNL     1     -12.446  54.323  49.548  0.00  0.00    +0.000 A 
ATOM      2  C   UNL     1     -11.842  54.339  48.184  0.00  0.00    +0.000 A 
ATOM      3  C   UNL     1     -12.220  53.289  50.376  0.00  0.00    +0.000 A 
ATOM      4  O   UNL     1     -12.014  55.348  47.492  0.00  0.00    +0.000 OA
ATOM      5  N   UNL     1     -11.140  53.214  47.766  0.00  0.00    +0.000 N 
ATOM      6  C   UNL     1     -11.369  52.168  49.957  0.00  0.00    +0.000 A 
ATOM      7  C   UNL     1     -10.838  52.135  48.653  0.00  0.00    +0.000 A 
ATOM      8  C   UNL     1     -11.048  51.147  50.870  0.00  0.00    +0.000 A 
ATOM      9  C   UNL     1      -9.962  51.090  48.313  0.00  0.00    +0.000 A 
ATOM     10  C   UNL     1     -10.178  50.122  50.517  0.00  0.00    +0.000 A 
ATOM     11  C   UNL     1      -9.629  50.098  49.241  0.00  0.00    +0.000 A 
ENDROOT
BRANCH   1  17
ATOM     12  S   UNL     1     -15.343  56.429  51.146  0.00  0.00    +0.000 S 
ATOM     13  O   UNL     1     -15.211  56.482  52.590  0.00  0.00    +0.000 OA
ATOM     14  O   UNL     1     -16.644  56.251  50.535  0.00  0.00    +0.000 OA
ATOM     15  N   UNL     1     -14.377  55.247  50.613  0.00  0.00    +0.000 N 
ATOM     16  C   UNL     1     -14.724  57.954  50.540  0.00  0.00    +0.000 A 
ATOM     17  C   UNL     1     -13.257  55.515  50.009  0.00  0.00    +0.000 C 
ATOM     18  C   UNL     1     -13.499  57.946  49.895  0.00  0.00    +0.000 A 
ATOM     19  C   UNL     1     -15.472  59.124  50.704  0.00  0.00    +0.000 A 
ATOM     20  N   UNL     1     -12.761  56.776  49.757  0.00  0.00    +0.000 N 
ATOM     21  C   UNL     1     -12.976  59.169  49.458  0.00  0.00    +0.000 A 
ATOM     22  C   UNL     1     -14.955  60.327  50.234  0.00  0.00    +0.000 A 
ATOM     23  C   UNL     1     -13.703  60.349  49.618  0.00  0.00    +0.000 A 
ATOM     24  H   UNL     1     -14.641  54.308  50.748  0.00  0.00    +0.000 HD
ATOM     25  H   UNL     1     -11.825  56.852  49.460  0.00  0.00    +0.000 HD
ENDBRANCH   1  17
BRANCH   5  26
ATOM     26  C   UNL     1     -10.645  53.194  46.432  0.00  0.00    +0.000 A 
ATOM     27  C   UNL     1     -11.388  52.564  45.424  0.00  0.00    +0.000 A 
ATOM     28  C   UNL     1      -9.358  53.666  46.141  0.00  0.00    +0.000 A 
ATOM     29  C   UNL     1     -10.858  52.411  44.143  0.00  0.00    +0.000 A 
ATOM     30  C   UNL     1      -8.824  53.500  44.859  0.00  0.00    +0.000 A 
ATOM     31  C   UNL     1      -9.574  52.873  43.863  0.00  0.00    +0.000 A 
ENDBRANCH   5  26
BRANCH   3  32
ATOM     32  O   UNL     1     -12.700  53.205  51.672  0.00  0.00    +0.000 OA
ATOM     33  H   UNL     1     -12.592  52.413  52.161  0.00  0.00    +0.000 HD
ENDBRANCH   3  32
TORSDOF 3
ENDMDL
MODEL 2
REMARK VINA RESULT:      -8.8      2.937      4.465
REMARK  Name = 338125
REMARK  3 active torsions:
REMARK  status: ('A' for Active; 'I' for Inactive)
REMARK    1  A    between atoms: C_6  and  C_10
REMARK    2  A    between atoms: C_14  and  O_18
REMARK    3  A    between atoms: N_17  and  C_21
REMARK                            x       y       z     vdW  Elec       q    Type
REMARK                         _______ _______ _______ _____ _____    ______ ____
ROOT
ATOM      1  C   UNL     1     -11.487  56.147  48.662  0.00  0.00    +0.000 A 
ATOM      2  C   UNL     1     -10.273  55.697  49.402  0.00  0.00    +0.000 A 
ATOM      3  C   UNL     1     -11.728  55.698  47.419  0.00  0.00    +0.000 A 
ATOM      4  O   UNL     1     -10.140  56.075  50.572  0.00  0.00    +0.000 OA
ATOM      5  N   UNL     1      -9.357  54.896  48.730  0.00  0.00    +0.000 N 
ATOM      6  C   UNL     1     -10.808  54.750  46.775  0.00  0.00    +0.000 A 
ATOM      7  C   UNL     1      -9.626  54.360  47.433  0.00  0.00    +0.000 A 
ATOM      8  C   UNL     1     -11.126  54.201  45.520  0.00  0.00    +0.000 A 
ATOM      9  C   UNL     1      -8.810  53.390  46.825  0.00  0.00    +0.000 A 
ATOM     10  C   UNL     1     -10.309  53.241  44.934  0.00  0.00    +0.000 A 
ATOM     11  C   UNL     1      -9.156  52.830  45.589  0.00  0.00    +0.000 A 
ENDROOT
BRANCH   1  17
ATOM     12  S   UNL     1     -13.606  59.335  49.516  0.00  0.00    +0.000 S 
ATOM     13  O   UNL     1     -14.749  59.453  48.629  0.00  0.00    +0.000 OA
ATOM     14  O   UNL     1     -12.837  60.507  49.880  0.00  0.00    +0.000 OA
ATOM     15  N   UNL     1     -12.593  58.257  48.863  0.00  0.00    +0.000 N 
ATOM     16  C   UNL     1     -14.218  58.667  51.018  0.00  0.00    +0.000 A 
ATOM     17  C   UNL     1     -12.477  57.060  49.355  0.00  0.00    +0.000 C 
ATOM     18  C   UNL     1     -13.911  57.351  51.315  0.00  0.00    +0.000 A 
ATOM     19  C   UNL     1     -14.979  59.467  51.877  0.00  0.00    +0.000 A 
ATOM     20  N   UNL     1     -13.167  56.566  50.441  0.00  0.00    +0.000 N 
ATOM     21  C   UNL     1     -14.442  56.798  52.487  0.00  0.00    +0.000 A 
ATOM     22  C   UNL     1     -15.472  58.913  53.054  0.00  0.00    +0.000 A 
ATOM     23  C   UNL     1     -15.209  57.575  53.354  0.00  0.00    +0.000 A 
ATOM     24  H   UNL     1     -12.054  58.513  48.079  0.00  0.00    +0.000 HD
ATOM     25  H   UNL     1     -13.133  55.596  50.607  0.00  0.00    +0.000 HD
ENDBRANCH   1  17
BRANCH   5  26
ATOM     26  C   UNL     1      -8.155  54.544  49.407  0.00  0.00    +0.000 A 
ATOM     27  C   UNL     1      -8.165  53.503  50.345  0.00  0.00    +0.000 A 
ATOM     28  C   UNL     1      -6.998  55.320  49.256  0.00  0.00    +0.000 A 
ATOM     29  C   UNL     1      -7.036  53.235  51.119  0.00  0.00    +0.000 A 
ATOM     30  C   UNL     1      -5.871  55.057  50.042  0.00  0.00    +0.000 A 
ATOM     31  C   UNL     1      -5.892  54.017  50.973  0.00  0.00    +0.000 A 
ENDBRANCH   5  26
BRANCH   3  32
ATOM     32  O   UNL     1     -12.847  56.024  46.672  0.00  0.00    +0.000 OA
ATOM     33  H   UNL     1     -13.680  56.112  47.091  0.00  0.00    +0.000 HD
ENDBRANCH   3  32
TORSDOF 3
ENDMDL
MODEL 3
REMARK VINA RESULT:      -8.6      3.922      7.835
REMARK  Name = 338125
REMARK  3 active torsions:
REMARK  status: ('A' for Active; 'I' for Inactive)
REMARK    1  A    between atoms: C_6  and  C_10
REMARK    2  A    between atoms: C_14  and  O_18
REMARK    3  A    between atoms: N_17  and  C_21
REMARK                            x       y       z     vdW  Elec       q    Type
REMARK                         _______ _______ _______ _____ _____    ______ ____
ROOT
ATOM      1  C   UNL     1     -10.706  54.746  50.715  0.00  0.00    +0.000 A 
ATOM      2  C   UNL     1     -11.692  55.610  51.427  0.00  0.00    +0.000 A 
ATOM      3  C   UNL     1     -10.722  54.664  49.374  0.00  0.00    +0.000 A 
ATOM      4  O   UNL     1     -11.583  55.713  52.654  0.00  0.00    +0.000 OA
ATOM      5  N   UNL     1     -12.683  56.230  50.674  0.00  0.00    +0.000 N 
ATOM      6  C   UNL     1     -11.700  55.431  48.590  0.00  0.00    +0.000 A 
ATOM      7  C   UNL     1     -12.677  56.204  49.245  0.00  0.00    +0.000 A 
ATOM      8  C   UNL     1     -11.637  55.426  47.184  0.00  0.00    +0.000 A 
ATOM      9  C   UNL     1     -13.544  56.989  48.465  0.00  0.00    +0.000 A 
ATOM     10  C   UNL     1     -12.501  56.209  46.429  0.00  0.00    +0.000 A 
ATOM     11  C   UNL     1     -13.449  56.996  47.069  0.00  0.00    +0.000 A 
ENDROOT
BRANCH   1  17
ATOM     12  S   UNL     1      -8.639  51.825  52.320  0.00  0.00    +0.000 S 
ATOM     13  O   UNL     1      -7.714  51.254  51.358  0.00  0.00    +0.000 OA
ATOM     14  O   UNL     1      -9.380  50.969  53.223  0.00  0.00    +0.000 OA
ATOM     15  N   UNL     1      -9.703  52.721  51.496  0.00  0.00    +0.000 N 
ATOM     16  C   UNL     1      -7.691  52.899  53.333  0.00  0.00    +0.000 A 
ATOM     17  C   UNL     1      -9.647  54.020  51.517  0.00  0.00    +0.000 C 
ATOM     18  C   UNL     1      -7.856  54.262  53.165  0.00  0.00    +0.000 A 
ATOM     19  C   UNL     1      -6.815  52.366  54.284  0.00  0.00    +0.000 A 
ATOM     20  N   UNL     1      -8.719  54.774  52.202  0.00  0.00    +0.000 N 
ATOM     21  C   UNL     1      -7.062  55.123  53.933  0.00  0.00    +0.000 A 
ATOM     22  C   UNL     1      -6.057  53.234  55.064  0.00  0.00    +0.000 A 
ATOM     23  C   UNL     1      -6.176  54.612  54.883  0.00  0.00    +0.000 A 
ATOM     24  H   UNL     1     -10.407  52.276  50.971  0.00  0.00    +0.000 HD
ATOM     25  H   UNL     1      -8.664  55.736  51.997  0.00  0.00    +0.000 HD
ENDBRANCH   1  17
BRANCH   5  26
ATOM     26  C   UNL     1     -13.677  56.978  51.366  0.00  0.00    +0.000 A 
ATOM     27  C   UNL     1     -13.480  58.346  51.600  0.00  0.00    +0.000 A 
ATOM     28  C   UNL     1     -14.780  56.336  51.943  0.00  0.00    +0.000 A 
ATOM     29  C   UNL     1     -14.372  59.064  52.394  0.00  0.00    +0.000 A 
ATOM     30  C   UNL     1     -15.667  57.056  52.749  0.00  0.00    +0.000 A 
ATOM     31  C   UNL     1     -15.462  58.418  52.975  0.00  0.00    +0.000 A 
ENDBRANCH   5  26
BRANCH   3  32
ATOM     32  O   UNL     1      -9.822  53.926  48.624  0.00  0.00    +0.000 OA
ATOM     33  H   UNL     1      -8.953  54.248  48.486  0.00  0.00    +0.000 HD
ENDBRANCH   3  32
TORSDOF 3
ENDMDL
MODEL 4
REMARK VINA RESULT:      -8.5      3.974      7.742
REMARK  Name = 338125
REMARK  3 active torsions:
REMARK  status: ('A' for Active; 'I' for Inactive)
REMARK    1  A    between atoms: C_6  and  C_10
REMARK    2  A    between atoms: C_14  and  O_18
REMARK    3  A    between atoms: N_17  and  C_21
REMARK                            x       y       z     vdW  Elec       q    Type
REMARK                         _______ _______ _______ _____ _____    ______ ____
ROOT
ATOM      1  C   UNL     1     -10.008  54.510  50.766  0.00  0.00    +0.000 A 
ATOM      2  C   UNL     1     -11.182  55.378  51.070  0.00  0.00    +0.000 A 
ATOM      3  C   UNL     1      -9.740  54.153  49.499  0.00  0.00    +0.000 A 
ATOM      4  O   UNL     1     -11.339  55.744  52.240  0.00  0.00    +0.000 OA
ATOM      5  N   UNL     1     -12.038  55.710  50.025  0.00  0.00    +0.000 N 
ATOM      6  C   UNL     1     -10.588  54.621  48.395  0.00  0.00    +0.000 A 
ATOM      7  C   UNL     1     -11.734  55.392  48.666  0.00  0.00    +0.000 A 
ATOM      8  C   UNL     1     -10.234  54.335  47.063  0.00  0.00    +0.000 A 
ATOM      9  C   UNL     1     -12.477  55.892  47.582  0.00  0.00    +0.000 A 
ATOM     10  C   UNL     1     -10.978  54.839  46.004  0.00  0.00    +0.000 A 
ATOM     11  C   UNL     1     -12.095  55.624  46.263  0.00  0.00    +0.000 A 
ENDROOT
BRANCH   1  17
ATOM     12  S   UNL     1      -6.850  54.327  53.085  0.00  0.00    +0.000 S 
ATOM     13  O   UNL     1      -6.837  55.427  54.032  0.00  0.00    +0.000 OA
ATOM     14  O   UNL     1      -5.628  53.908  52.431  0.00  0.00    +0.000 OA
ATOM     15  N   UNL     1      -7.932  54.687  51.939  0.00  0.00    +0.000 N 
ATOM     16  C   UNL     1      -7.437  52.928  53.967  0.00  0.00    +0.000 A 
ATOM     17  C   UNL     1      -9.088  54.094  51.894  0.00  0.00    +0.000 C 
ATOM     18  C   UNL     1      -8.716  52.479  53.693  0.00  0.00    +0.000 A 
ATOM     19  C   UNL     1      -6.608  52.297  54.900  0.00  0.00    +0.000 A 
ATOM     20  N   UNL     1      -9.532  53.131  52.774  0.00  0.00    +0.000 N 
ATOM     21  C   UNL     1      -9.208  51.396  54.433  0.00  0.00    +0.000 A 
ATOM     22  C   UNL     1      -7.098  51.200  55.603  0.00  0.00    +0.000 A 
ATOM     23  C   UNL     1      -8.402  50.756  55.374  0.00  0.00    +0.000 A 
ATOM     24  H   UNL     1      -7.711  55.367  51.261  0.00  0.00    +0.000 HD
ATOM     25  H   UNL     1     -10.486  52.889  52.751  0.00  0.00    +0.000 HD
ENDBRANCH   1  17
BRANCH   5  26
ATOM     26  C   UNL     1     -13.208  56.461  50.333  0.00  0.00    +0.000 A 
ATOM     27  C   UNL     1     -13.173  57.861  50.263  0.00  0.00    +0.000 A 
ATOM     28  C   UNL     1     -14.347  55.829  50.847  0.00  0.00    +0.000 A 
ATOM     29  C   UNL     1     -14.261  58.619  50.694  0.00  0.00    +0.000 A 
ATOM     30  C   UNL     1     -15.432  56.592  51.291  0.00  0.00    +0.000 A 
ATOM     31  C   UNL     1     -15.387  57.985  51.215  0.00  0.00    +0.000 A 
ENDBRANCH   5  26
BRANCH   3  32
ATOM     32  O   UNL     1      -8.651  53.388  49.116  0.00  0.00    +0.000 OA
ATOM     33  H   UNL     1      -8.778  52.626  48.584  0.00  0.00    +0.000 HD
ENDBRANCH   3  32
TORSDOF 3
ENDMDL
MODEL 5
REMARK VINA RESULT:      -8.5      2.582      4.072
REMARK  Name = 338125
REMARK  3 active torsions:
REMARK  status: ('A' for Active; 'I' for Inactive)
REMARK    1  A    between atoms: C_6  and  C_10
REMARK    2  A    between atoms: C_14  and  O_18
REMARK    3  A    between atoms: N_17  and  C_21
REMARK                            x       y       z     vdW  Elec       q    Type
REMARK                         _______ _______ _______ _____ _____    ______ ____
ROOT
ATOM      1  C   UNL     1     -10.832  55.512  48.594  0.00  0.00    +0.000 A 
ATOM      2  C   UNL     1      -9.537  55.107  49.214  0.00  0.00    +0.000 A 
ATOM      3  C   UNL     1     -11.112  55.169  47.326  0.00  0.00    +0.000 A 
ATOM      4  O   UNL     1      -9.362  55.377  50.407  0.00  0.00    +0.000 OA
ATOM      5  N   UNL     1      -8.599  54.467  48.411  0.00  0.00    +0.000 N 
ATOM      6  C   UNL     1     -10.156  54.382  46.535  0.00  0.00    +0.000 A 
ATOM      7  C   UNL     1      -8.904  54.040  47.082  0.00  0.00    +0.000 A 
ATOM      8  C   UNL     1     -10.506  53.932  45.249  0.00  0.00    +0.000 A 
ATOM      9  C   UNL     1      -8.047  53.218  46.330  0.00  0.00    +0.000 A 
ATOM     10  C   UNL     1      -9.647  53.118  44.521  0.00  0.00    +0.000 A 
ATOM     11  C   UNL     1      -8.422  52.754  45.064  0.00  0.00    +0.000 A 
ENDROOT
BRANCH   1  17
ATOM     12  S   UNL     1     -13.498  56.252  51.374  0.00  0.00    +0.000 S 
ATOM     13  O   UNL     1     -12.858  56.531  52.646  0.00  0.00    +0.000 OA
ATOM     14  O   UNL     1     -14.692  55.433  51.317  0.00  0.00    +0.000 OA
ATOM     15  N   UNL     1     -12.387  55.582  50.409  0.00  0.00    +0.000 N 
ATOM     16  C   UNL     1     -13.941  57.808  50.696  0.00  0.00    +0.000 A 
ATOM     17  C   UNL     1     -11.851  56.254  49.434  0.00  0.00    +0.000 C 
ATOM     18  C   UNL     1     -13.210  58.279  49.620  0.00  0.00    +0.000 A 
ATOM     19  C   UNL     1     -15.015  58.522  51.237  0.00  0.00    +0.000 A 
ATOM     20  N   UNL     1     -12.134  57.562  49.107  0.00  0.00    +0.000 N 
ATOM     21  C   UNL     1     -13.525  59.544  49.111  0.00  0.00    +0.000 A 
ATOM     22  C   UNL     1     -15.339  59.764  50.698  0.00  0.00    +0.000 A 
ATOM     23  C   UNL     1     -14.587  60.277  49.640  0.00  0.00    +0.000 A 
ATOM     24  H   UNL     1     -12.113  54.649  50.562  0.00  0.00    +0.000 HD
ATOM     25  H   UNL     1     -11.537  58.018  48.470  0.00  0.00    +0.000 HD
ENDBRANCH   1  17
BRANCH   5  26
ATOM     26  C   UNL     1      -7.329  54.165  48.979  0.00  0.00    +0.000 A 
ATOM     27  C   UNL     1      -7.165  52.990  49.726  0.00  0.00    +0.000 A 
ATOM     28  C   UNL     1      -6.284  55.096  48.926  0.00  0.00    +0.000 A 
ATOM     29  C   UNL     1      -5.972  52.744  50.406  0.00  0.00    +0.000 A 
ATOM     30  C   UNL     1      -5.094  54.853  49.619  0.00  0.00    +0.000 A 
ATOM     31  C   UNL     1      -4.940  53.679  50.358  0.00  0.00    +0.000 A 
ENDBRANCH   5  26
BRANCH   3  32
ATOM     32  O   UNL     1     -12.302  55.461  46.681  0.00  0.00    +0.000 OA
ATOM     33  H   UNL     1     -12.930  54.783  46.527  0.00  0.00    +0.000 HD
ENDBRANCH   3  32
TORSDOF 3
ENDMDL
MODEL 6
REMARK VINA RESULT:      -8.4      4.008      6.849
REMARK  Name = 338125
REMARK  3 active torsions:
REMARK  status: ('A' for Active; 'I' for Inactive)
REMARK    1  A    between atoms: C_6  and  C_10
REMARK    2  A    between atoms: C_14  and  O_18
REMARK    3  A    between atoms: N_17  and  C_21
REMARK                            x       y       z     vdW  Elec       q    Type
REMARK                         _______ _______ _______ _____ _____    ______ ____
ROOT
ATOM      1  C   UNL     1      -9.677  54.565  50.712  0.00  0.00    +0.000 A 
ATOM      2  C   UNL     1      -9.272  54.186  49.328  0.00  0.00    +0.000 A 
ATOM      3  C   UNL     1     -10.761  55.334  50.913  0.00  0.00    +0.000 A 
ATOM      4  O   UNL     1      -8.316  53.412  49.201  0.00  0.00    +0.000 OA
ATOM      5  N   UNL     1      -9.978  54.737  48.264  0.00  0.00    +0.000 N 
ATOM      6  C   UNL     1     -11.567  55.802  49.777  0.00  0.00    +0.000 A 
ATOM      7  C   UNL     1     -11.167  55.504  48.460  0.00  0.00    +0.000 A 
ATOM      8  C   UNL     1     -12.761  56.510  50.004  0.00  0.00    +0.000 A 
ATOM      9  C   UNL     1     -12.005  55.896  47.401  0.00  0.00    +0.000 A 
ATOM     10  C   UNL     1     -13.578  56.888  48.945  0.00  0.00    +0.000 A 
ATOM     11  C   UNL     1     -13.204  56.575  47.645  0.00  0.00    +0.000 A 
ENDROOT
BRANCH   1  17
ATOM     12  S   UNL     1      -6.725  53.934  53.216  0.00  0.00    +0.000 S 
ATOM     13  O   UNL     1      -6.623  55.013  54.181  0.00  0.00    +0.000 OA
ATOM     14  O   UNL     1      -5.532  53.358  52.630  0.00  0.00    +0.000 OA
ATOM     15  N   UNL     1      -7.674  54.448  52.012  0.00  0.00    +0.000 N 
ATOM     16  C   UNL     1      -7.550  52.619  54.035  0.00  0.00    +0.000 A 
ATOM     17  C   UNL     1      -8.894  54.018  51.887  0.00  0.00    +0.000 C 
ATOM     18  C   UNL     1      -8.859  52.351  53.676  0.00  0.00    +0.000 A 
ATOM     19  C   UNL     1      -6.875  51.872  55.006  0.00  0.00    +0.000 A 
ATOM     20  N   UNL     1      -9.519  53.116  52.720  0.00  0.00    +0.000 N 
ATOM     21  C   UNL     1      -9.537  51.339  54.365  0.00  0.00    +0.000 A 
ATOM     22  C   UNL     1      -7.552  50.847  55.659  0.00  0.00    +0.000 A 
ATOM     23  C   UNL     1      -8.886  50.586  55.342  0.00  0.00    +0.000 A 
ATOM     24  H   UNL     1      -7.321  55.098  51.361  0.00  0.00    +0.000 HD
ATOM     25  H   UNL     1     -10.494  53.007  52.634  0.00  0.00    +0.000 HD
ENDBRANCH   1  17
BRANCH   5  26
ATOM     26  C   UNL     1      -9.530  54.447  46.944  0.00  0.00    +0.000 A 
ATOM     27  C   UNL     1     -10.055  53.342  46.260  0.00  0.00    +0.000 A 
ATOM     28  C   UNL     1      -8.469  55.164  46.377  0.00  0.00    +0.000 A 
ATOM     29  C   UNL     1      -9.531  52.959  45.026  0.00  0.00    +0.000 A 
ATOM     30  C   UNL     1      -7.937  54.770  45.145  0.00  0.00    +0.000 A 
ATOM     31  C   UNL     1      -8.468  53.669  44.472  0.00  0.00    +0.000 A 
ENDBRANCH   5  26
BRANCH   3  32
ATOM     32  O   UNL     1     -11.240  55.702  52.159  0.00  0.00    +0.000 OA
ATOM     33  H   UNL     1     -10.710  56.225  52.728  0.00  0.00    +0.000 HD
ENDBRANCH   3  32
TORSDOF 3
ENDMDL
MODEL 7
REMARK VINA RESULT:      -8.4      2.335      2.803
REMARK  Name = 338125
REMARK  3 active torsions:
REMARK  status: ('A' for Active; 'I' for Inactive)
REMARK    1  A    between atoms: C_6  and  C_10
REMARK    2  A    between atoms: C_14  and  O_18
REMARK    3  A    between atoms: N_17  and  C_21
REMARK                            x       y       z     vdW  Elec       q    Type
REMARK                         _______ _______ _______ _____ _____    ______ ____
ROOT
ATOM      1  C   UNL     1     -11.343  55.453  49.308  0.00  0.00    +0.000 A 
ATOM      2  C   UNL     1     -11.500  54.825  47.965  0.00  0.00    +0.000 A 
ATOM      3  C   UNL     1     -10.308  55.117  50.096  0.00  0.00    +0.000 A 
ATOM      4  O   UNL     1     -12.422  55.228  47.247  0.00  0.00    +0.000 OA
ATOM      5  N   UNL     1     -10.613  53.815  47.607  0.00  0.00    +0.000 N 
ATOM      6  C   UNL     1      -9.311  54.138  49.643  0.00  0.00    +0.000 A 
ATOM      7  C   UNL     1      -9.473  53.490  48.404  0.00  0.00    +0.000 A 
ATOM      8  C   UNL     1      -8.172  53.877  50.427  0.00  0.00    +0.000 A 
ATOM      9  C   UNL     1      -8.459  52.620  47.965  0.00  0.00    +0.000 A 
ATOM     10  C   UNL     1      -7.178  53.016  49.977  0.00  0.00    +0.000 A 
ATOM     11  C   UNL     1      -7.318  52.394  48.743  0.00  0.00    +0.000 A 
ENDROOT
BRANCH   1  17
ATOM     12  S   UNL     1     -13.340  58.828  49.386  0.00  0.00    +0.000 S 
ATOM     13  O   UNL     1     -14.416  58.817  48.413  0.00  0.00    +0.000 OA
ATOM     14  O   UNL     1     -12.535  60.017  49.576  0.00  0.00    +0.000 OA
ATOM     15  N   UNL     1     -12.346  57.605  49.025  0.00  0.00    +0.000 N 
ATOM     16  C   UNL     1     -14.080  58.487  50.940  0.00  0.00    +0.000 A 
ATOM     17  C   UNL     1     -12.325  56.521  49.742  0.00  0.00    +0.000 C 
ATOM     18  C   UNL     1     -13.862  57.242  51.503  0.00  0.00    +0.000 A 
ATOM     19  C   UNL     1     -14.850  59.468  51.574  0.00  0.00    +0.000 A 
ATOM     20  N   UNL     1     -13.107  56.274  50.849  0.00  0.00    +0.000 N 
ATOM     21  C   UNL     1     -14.494  56.947  52.716  0.00  0.00    +0.000 A 
ATOM     22  C   UNL     1     -15.445  59.171  52.797  0.00  0.00    +0.000 A 
ATOM     23  C   UNL     1     -15.273  57.907  53.363  0.00  0.00    +0.000 A 
ATOM     24  H   UNL     1     -11.746  57.682  48.247  0.00  0.00    +0.000 HD
ATOM     25  H   UNL     1     -13.135  55.354  51.198  0.00  0.00    +0.000 HD
ENDBRANCH   1  17
BRANCH   5  26
ATOM     26  C   UNL     1     -10.822  53.154  46.364  0.00  0.00    +0.000 A 
ATOM     27  C   UNL     1     -11.564  51.966  46.325  0.00  0.00    +0.000 A 
ATOM     28  C   UNL     1     -10.172  53.594  45.204  0.00  0.00    +0.000 A 
ATOM     29  C   UNL     1     -11.662  51.230  45.144  0.00  0.00    +0.000 A 
ATOM     30  C   UNL     1     -10.261  52.848  44.024  0.00  0.00    +0.000 A 
ATOM     31  C   UNL     1     -11.005  51.667  43.996  0.00  0.00    +0.000 A 
ENDBRANCH   5  26
BRANCH   3  32
ATOM     32  O   UNL     1     -10.055  55.676  51.338  0.00  0.00    +0.000 OA
ATOM     33  H   UNL     1      -9.259  56.149  51.484  0.00  0.00    +0.000 HD
ENDBRANCH   3  32
TORSDOF 3
ENDMDL
MODEL 8
REMARK VINA RESULT:      -8.3      1.508      1.665
REMARK  Name = 338125
REMARK  3 active torsions:
REMARK  status: ('A' for Active; 'I' for Inactive)
REMARK    1  A    between atoms: C_6  and  C_10
REMARK    2  A    between atoms: C_14  and  O_18
REMARK    3  A    between atoms: N_17  and  C_21
REMARK                            x       y       z     vdW  Elec       q    Type
REMARK                         _______ _______ _______ _____ _____    ______ ____
ROOT
ATOM      1  C   UNL     1     -11.596  54.952  50.010  0.00  0.00    +0.000 A 
ATOM      2  C   UNL     1     -11.741  54.469  48.607  0.00  0.00    +0.000 A 
ATOM      3  C   UNL     1     -10.635  54.449  50.803  0.00  0.00    +0.000 A 
ATOM      4  O   UNL     1     -12.588  55.020  47.894  0.00  0.00    +0.000 OA
ATOM      5  N   UNL     1     -10.933  53.417  48.189  0.00  0.00    +0.000 N 
ATOM      6  C   UNL     1      -9.708  53.427  50.299  0.00  0.00    +0.000 A 
ATOM      7  C   UNL     1      -9.866  52.914  48.997  0.00  0.00    +0.000 A 
ATOM      8  C   UNL     1      -8.637  52.989  51.099  0.00  0.00    +0.000 A 
ATOM      9  C   UNL     1      -8.914  51.998  48.517  0.00  0.00    +0.000 A 
ATOM     10  C   UNL     1      -7.703  52.084  50.608  0.00  0.00    +0.000 A 
ATOM     11  C   UNL     1      -7.838  51.595  49.315  0.00  0.00    +0.000 A 
ENDROOT
BRANCH   1  17
ATOM     12  S   UNL     1     -14.180  56.910  52.217  0.00  0.00    +0.000 S 
ATOM     13  O   UNL     1     -13.542  57.464  53.397  0.00  0.00    +0.000 OA
ATOM     14  O   UNL     1     -15.494  56.307  52.309  0.00  0.00    +0.000 OA
ATOM     15  N   UNL     1     -13.171  55.814  51.588  0.00  0.00    +0.000 N 
ATOM     16  C   UNL     1     -14.329  58.232  51.073  0.00  0.00    +0.000 A 
ATOM     17  C   UNL     1     -12.498  56.063  50.505  0.00  0.00    +0.000 C 
ATOM     18  C   UNL     1     -13.494  58.231  49.969  0.00  0.00    +0.000 A 
ATOM     19  C   UNL     1     -15.280  59.234  51.288  0.00  0.00    +0.000 A 
ATOM     20  N   UNL     1     -12.542  57.235  49.782  0.00  0.00    +0.000 N 
ATOM     21  C   UNL     1     -13.572  59.312  49.083  0.00  0.00    +0.000 A 
ATOM     22  C   UNL     1     -15.369  60.285  50.380  0.00  0.00    +0.000 A 
ATOM     23  C   UNL     1     -14.509  60.327  49.282  0.00  0.00    +0.000 A 
ATOM     24  H   UNL     1     -13.066  54.942  52.034  0.00  0.00    +0.000 HD
ATOM     25  H   UNL     1     -11.856  57.376  49.090  0.00  0.00    +0.000 HD
ENDBRANCH   1  17
BRANCH   5  26
ATOM     26  C   UNL     1     -11.138  52.896  46.881  0.00  0.00    +0.000 A 
ATOM     27  C   UNL     1     -11.933  51.755  46.704  0.00  0.00    +0.000 A 
ATOM     28  C   UNL     1     -10.438  53.420  45.786  0.00  0.00    +0.000 A 
ATOM     29  C   UNL     1     -12.033  51.149  45.453  0.00  0.00    +0.000 A 
ATOM     30  C   UNL     1     -10.530  52.802  44.535  0.00  0.00    +0.000 A 
ATOM     31  C   UNL     1     -11.326  51.668  44.370  0.00  0.00    +0.000 A 
ENDBRANCH   5  26
BRANCH   3  32
ATOM     32  O   UNL     1     -10.394  54.865  52.102  0.00  0.00    +0.000 OA
ATOM     33  H   UNL     1     -10.503  55.767  52.332  0.00  0.00    +0.000 HD
ENDBRANCH   3  32
TORSDOF 3
ENDMDL
MODEL 9
REMARK VINA RESULT:      -8.1      3.185      4.693
REMARK  Name = 338125
REMARK  3 active torsions:
REMARK  status: ('A' for Active; 'I' for Inactive)
REMARK    1  A    between atoms: C_6  and  C_10
REMARK    2  A    between atoms: C_14  and  O_18
REMARK    3  A    between atoms: N_17  and  C_21
REMARK                            x       y       z     vdW  Elec       q    Type
REMARK                         _______ _______ _______ _____ _____    ______ ____
ROOT
ATOM      1  C   UNL     1     -11.296  54.221  50.681  0.00  0.00    +0.000 A 
ATOM      2  C   UNL     1     -10.077  54.384  51.524  0.00  0.00    +0.000 A 
ATOM      3  C   UNL     1     -11.527  53.061  50.043  0.00  0.00    +0.000 A 
ATOM      4  O   UNL     1      -9.951  55.441  52.154  0.00  0.00    +0.000 OA
ATOM      5  N   UNL     1      -9.147  53.351  51.538  0.00  0.00    +0.000 N 
ATOM      6  C   UNL     1     -10.592  51.936  50.175  0.00  0.00    +0.000 A 
ATOM      7  C   UNL     1      -9.405  52.090  50.917  0.00  0.00    +0.000 A 
ATOM      8  C   UNL     1     -10.899  50.691  49.595  0.00  0.00    +0.000 A 
ATOM      9  C   UNL     1      -8.574  50.970  51.091  0.00  0.00    +0.000 A 
ATOM     10  C   UNL     1     -10.067  49.594  49.779  0.00  0.00    +0.000 A 
ATOM     11  C   UNL     1      -8.908  49.731  50.533  0.00  0.00    +0.000 A 
ENDROOT
BRANCH   1  17
ATOM     12  S   UNL     1     -13.550  57.078  49.217  0.00  0.00    +0.000 S 
ATOM     13  O   UNL     1     -14.740  56.531  48.592  0.00  0.00    +0.000 OA
ATOM     14  O   UNL     1     -12.833  58.172  48.597  0.00  0.00    +0.000 OA
ATOM     15  N   UNL     1     -12.511  55.857  49.431  0.00  0.00    +0.000 N 
ATOM     16  C   UNL     1     -14.046  57.653  50.799  0.00  0.00    +0.000 A 
ATOM     17  C   UNL     1     -12.301  55.351  50.610  0.00  0.00    +0.000 C 
ATOM     18  C   UNL     1     -13.649  56.926  51.907  0.00  0.00    +0.000 A 
ATOM     19  C   UNL     1     -14.808  58.821  50.907  0.00  0.00    +0.000 A 
ATOM     20  N   UNL     1     -12.906  55.757  51.779  0.00  0.00    +0.000 N 
ATOM     21  C   UNL     1     -14.088  57.352  53.167  0.00  0.00    +0.000 A 
ATOM     22  C   UNL     1     -15.208  59.250  52.168  0.00  0.00    +0.000 A 
ATOM     23  C   UNL     1     -14.854  58.510  53.297  0.00  0.00    +0.000 A 
ATOM     24  H   UNL     1     -12.027  55.492  48.654  0.00  0.00    +0.000 HD
ATOM     25  H   UNL     1     -12.807  55.184  52.573  0.00  0.00    +0.000 HD
ENDBRANCH   1  17
BRANCH   5  26
ATOM     26  C   UNL     1      -7.941  53.547  52.268  0.00  0.00    +0.000 A 
ATOM     27  C   UNL     1      -7.915  53.293  53.647  0.00  0.00    +0.000 A 
ATOM     28  C   UNL     1      -6.823  54.130  51.657  0.00  0.00    +0.000 A 
ATOM     29  C   UNL     1      -6.788  53.611  54.404  0.00  0.00    +0.000 A 
ATOM     30  C   UNL     1      -5.699  54.460  52.422  0.00  0.00    +0.000 A 
ATOM     31  C   UNL     1      -5.683  54.201  53.793  0.00  0.00    +0.000 A 
ENDBRANCH   5  26
BRANCH   3  32
ATOM     32  O   UNL     1     -12.650  52.800  49.275  0.00  0.00    +0.000 OA
ATOM     33  H   UNL     1     -13.410  53.342  49.360  0.00  0.00    +0.000 HD
ENDBRANCH   3  32
TORSDOF 3
ENDMDL
