MODEL 1
REMARK VINA RESULT:      -8.2      0.000      0.000
REMARK  Name = 338454
REMARK  12 active torsions:
REMARK  status: ('A' for Active; 'I' for Inactive)
REMARK    1  A    between atoms: C_6  and  C_10
REMARK    2  A    between atoms: C_14  and  O_18
REMARK    3  A    between atoms: N_17  and  C_21
REMARK    4  A    between atoms: C_21  and  C_24
REMARK    5  A    between atoms: C_24  and  C_27
REMARK    6  A    between atoms: C_25  and  N_28
REMARK    7  A    between atoms: C_27  and  C_29
REMARK    8  A    between atoms: C_27  and  C_30
REMARK    9  A    between atoms: C_31  and  C_33
REMARK   10  A    between atoms: C_33  and  C_34
REMARK   11  A    between atoms: C_34  and  C_35
REMARK   12  A    between atoms: C_34  and  C_36
REMARK                            x       y       z     vdW  Elec       q    Type
REMARK                         _______ _______ _______ _____ _____    ______ ____
ROOT
ATOM      1  C   UNL     1      -9.597  53.816  51.251  0.00  0.00    +0.000 A 
ATOM      2  C   UNL     1     -10.647  54.859  51.455  0.00  0.00    +0.000 A 
ATOM      3  C   UNL     1      -9.332  53.366  50.013  0.00  0.00    +0.000 A 
ATOM      4  O   UNL     1     -10.790  55.327  52.591  0.00  0.00    +0.000 OA
ATOM      5  N   UNL     1     -11.404  55.277  50.368  0.00  0.00    +0.000 N 
ATOM      6  C   UNL     1     -10.052  53.917  48.857  0.00  0.00    +0.000 A 
ATOM      7  C   UNL     1     -11.059  54.875  49.041  0.00  0.00    +0.000 A 
ATOM      8  C   UNL     1      -9.713  53.514  47.555  0.00  0.00    +0.000 A 
ATOM      9  C   UNL     1     -11.678  55.426  47.911  0.00  0.00    +0.000 A 
ATOM     10  C   UNL     1     -10.337  54.062  46.436  0.00  0.00    +0.000 A 
ATOM     11  C   UNL     1     -11.341  55.007  46.622  0.00  0.00    +0.000 A 
ENDROOT
BRANCH   1  17
ATOM     12  S   UNL     1      -6.586  53.233  53.710  0.00  0.00    +0.000 S 
ATOM     13  O   UNL     1      -6.361  54.338  54.620  0.00  0.00    +0.000 OA
ATOM     14  O   UNL     1      -5.463  52.554  53.091  0.00  0.00    +0.000 OA
ATOM     15  N   UNL     1      -7.567  53.751  52.524  0.00  0.00    +0.000 N 
ATOM     16  C   UNL     1      -7.435  52.006  54.635  0.00  0.00    +0.000 A 
ATOM     17  C   UNL     1      -8.794  53.332  52.442  0.00  0.00    +0.000 C 
ATOM     18  C   UNL     1      -8.764  51.765  54.325  0.00  0.00    +0.000 A 
ATOM     19  C   UNL     1      -6.767  51.291  55.632  0.00  0.00    +0.000 A 
ATOM     20  N   UNL     1      -9.418  52.485  53.331  0.00  0.00    +0.000 N 
ATOM     21  C   UNL     1      -9.463  50.829  55.092  0.00  0.00    +0.000 A 
ATOM     22  C   UNL     1      -7.467  50.333  56.364  0.00  0.00    +0.000 A 
ATOM     23  C   UNL     1      -8.817  50.110  56.100  0.00  0.00    +0.000 A 
ATOM     24  H   UNL     1      -7.228  54.391  51.858  0.00  0.00    +0.000 HD
ATOM     25  H   UNL     1     -10.395  52.382  53.258  0.00  0.00    +0.000 HD
ENDBRANCH   1  17
BRANCH  10  26
ATOM     26  N   UNL     1      -9.999  53.712  45.115  0.00  0.00    +0.000 N 
ATOM     27  C   UNL     1      -8.723  53.742  44.579  0.00  0.00    +0.000 C 
ATOM     28  O   UNL     1      -7.713  54.168  45.130  0.00  0.00    +0.000 OA
ATOM     29  H   UNL     1     -10.730  53.423  44.524  0.00  0.00    +0.000 HD
BRANCH  27  30
ATOM     30  C   UNL     1      -8.652  53.187  43.173  0.00  0.00    +0.000 C 
BRANCH  30  31
ATOM     31  C   UNL     1      -8.791  51.660  43.195  0.00  0.00    +0.000 C 
ATOM     32  C   UNL     1     -10.147  51.212  42.645  0.00  0.00    +0.000 C 
ATOM     33  C   UNL     1      -7.659  51.020  42.394  0.00  0.00    +0.000 C 
ENDBRANCH  30  31
ENDBRANCH  27  30
ENDBRANCH  10  26
BRANCH   3  34
ATOM     34  O   UNL     1      -8.358  52.431  49.712  0.00  0.00    +0.000 OA
ATOM     35  H   UNL     1      -7.455  52.680  49.713  0.00  0.00    +0.000 HD
ENDBRANCH   3  34
BRANCH   5  36
ATOM     36  C   UNL     1     -12.480  56.242  50.614  0.00  0.00    +0.000 C 
BRANCH  36  37
ATOM     37  C   UNL     1     -13.791  55.651  51.160  0.00  0.00    +0.000 C 
BRANCH  37  38
ATOM     38  C   UNL     1     -14.720  56.613  51.918  0.00  0.00    +0.000 C 
ATOM     39  C   UNL     1     -13.962  57.505  52.899  0.00  0.00    +0.000 C 
ATOM     40  C   UNL     1     -15.464  57.481  50.896  0.00  0.00    +0.000 C 
ENDBRANCH  37  38
ENDBRANCH  36  37
ENDBRANCH   5  36
TORSDOF 8
ENDMDL
MODEL 2
REMARK VINA RESULT:      -8.2      3.598      6.775
REMARK  Name = 338454
REMARK  12 active torsions:
REMARK  status: ('A' for Active; 'I' for Inactive)
REMARK    1  A    between atoms: C_6  and  C_10
REMARK    2  A    between atoms: C_14  and  O_18
REMARK    3  A    between atoms: N_17  and  C_21
REMARK    4  A    between atoms: C_21  and  C_24
REMARK    5  A    between atoms: C_24  and  C_27
REMARK    6  A    between atoms: C_25  and  N_28
REMARK    7  A    between atoms: C_27  and  C_29
REMARK    8  A    between atoms: C_27  and  C_30
REMARK    9  A    between atoms: C_31  and  C_33
REMARK   10  A    between atoms: C_33  and  C_34
REMARK   11  A    between atoms: C_34  and  C_35
REMARK   12  A    between atoms: C_34  and  C_36
REMARK                            x       y       z     vdW  Elec       q    Type
REMARK                         _______ _______ _______ _____ _____    ______ ____
ROOT
ATOM      1  C   UNL     1     -11.191  55.910  49.151  0.00  0.00    +0.000 A 
ATOM      2  C   UNL     1     -10.241  55.334  50.148  0.00  0.00    +0.000 A 
ATOM      3  C   UNL     1     -11.128  55.527  47.866  0.00  0.00    +0.000 A 
ATOM      4  O   UNL     1     -10.396  55.627  51.340  0.00  0.00    +0.000 OA
ATOM      5  N   UNL     1      -9.237  54.479  49.708  0.00  0.00    +0.000 N 
ATOM      6  C   UNL     1     -10.144  54.521  47.442  0.00  0.00    +0.000 A 
ATOM      7  C   UNL     1      -9.228  53.995  48.365  0.00  0.00    +0.000 A 
ATOM      8  C   UNL     1     -10.137  54.052  46.118  0.00  0.00    +0.000 A 
ATOM      9  C   UNL     1      -8.349  52.989  47.940  0.00  0.00    +0.000 A 
ATOM     10  C   UNL     1      -9.255  53.056  45.702  0.00  0.00    +0.000 A 
ATOM     11  C   UNL     1      -8.342  52.542  46.617  0.00  0.00    +0.000 A 
ENDROOT
BRANCH   1  17
ATOM     12  S   UNL     1     -13.478  59.099  49.391  0.00  0.00    +0.000 S 
ATOM     13  O   UNL     1     -14.579  59.093  48.449  0.00  0.00    +0.000 OA
ATOM     14  O   UNL     1     -12.736  60.320  49.642  0.00  0.00    +0.000 OA
ATOM     15  N   UNL     1     -12.418  57.959  48.932  0.00  0.00    +0.000 N 
ATOM     16  C   UNL     1     -14.160  58.629  50.939  0.00  0.00    +0.000 A 
ATOM     17  C   UNL     1     -12.266  56.871  49.624  0.00  0.00    +0.000 C 
ATOM     18  C   UNL     1     -13.819  57.386  51.447  0.00  0.00    +0.000 A 
ATOM     19  C   UNL     1     -15.001  59.505  51.631  0.00  0.00    +0.000 A 
ATOM     20  N   UNL     1     -12.983  56.523  50.748  0.00  0.00    +0.000 N 
ATOM     21  C   UNL     1     -14.400  56.981  52.653  0.00  0.00    +0.000 A 
ATOM     22  C   UNL     1     -15.543  59.103  52.850  0.00  0.00    +0.000 A 
ATOM     23  C   UNL     1     -15.251  57.837  53.355  0.00  0.00    +0.000 A 
ATOM     24  H   UNL     1     -11.882  58.094  48.117  0.00  0.00    +0.000 HD
ATOM     25  H   UNL     1     -12.898  55.599  51.079  0.00  0.00    +0.000 HD
ENDBRANCH   1  17
BRANCH  10  26
ATOM     26  N   UNL     1      -9.243  52.534  44.395  0.00  0.00    +0.000 N 
ATOM     27  C   UNL     1     -10.249  51.773  43.826  0.00  0.00    +0.000 C 
ATOM     28  O   UNL     1     -11.251  51.352  44.394  0.00  0.00    +0.000 OA
ATOM     29  H   UNL     1      -8.454  52.727  43.840  0.00  0.00    +0.000 HD
BRANCH  27  30
ATOM     30  C   UNL     1     -10.011  51.464  42.364  0.00  0.00    +0.000 C 
BRANCH  30  31
ATOM     31  C   UNL     1      -9.006  50.314  42.218  0.00  0.00    +0.000 C 
ATOM     32  C   UNL     1      -7.568  50.833  42.150  0.00  0.00    +0.000 C 
ATOM     33  C   UNL     1      -9.161  49.334  43.379  0.00  0.00    +0.000 C 
ENDBRANCH  30  31
ENDBRANCH  27  30
ENDBRANCH  10  26
BRANCH   3  34
ATOM     34  O   UNL     1     -11.983  55.972  46.874  0.00  0.00    +0.000 OA
ATOM     35  H   UNL     1     -11.929  55.608  46.012  0.00  0.00    +0.000 HD
ENDBRANCH   3  34
BRANCH   5  36
ATOM     36  C   UNL     1      -8.270  53.993  50.698  0.00  0.00    +0.000 C 
BRANCH  36  37
ATOM     37  C   UNL     1      -7.107  54.949  51.016  0.00  0.00    +0.000 C 
BRANCH  37  38
ATOM     38  C   UNL     1      -5.703  54.497  50.581  0.00  0.00    +0.000 C 
ATOM     39  C   UNL     1      -5.606  52.984  50.402  0.00  0.00    +0.000 C 
ATOM     40  C   UNL     1      -5.351  55.198  49.263  0.00  0.00    +0.000 C 
ENDBRANCH  37  38
ENDBRANCH  36  37
ENDBRANCH   5  36
TORSDOF 8
ENDMDL
MODEL 3
REMARK VINA RESULT:      -8.0      2.937      6.776
REMARK  Name = 338454
REMARK  12 active torsions:
REMARK  status: ('A' for Active; 'I' for Inactive)
REMARK    1  A    between atoms: C_6  and  C_10
REMARK    2  A    between atoms: C_14  and  O_18
REMARK    3  A    between atoms: N_17  and  C_21
REMARK    4  A    between atoms: C_21  and  C_24
REMARK    5  A    between atoms: C_24  and  C_27
REMARK    6  A    between atoms: C_25  and  N_28
REMARK    7  A    between atoms: C_27  and  C_29
REMARK    8  A    between atoms: C_27  and  C_30
REMARK    9  A    between atoms: C_31  and  C_33
REMARK   10  A    between atoms: C_33  and  C_34
REMARK   11  A    between atoms: C_34  and  C_35
REMARK   12  A    between atoms: C_34  and  C_36
REMARK                            x       y       z     vdW  Elec       q    Type
REMARK                         _______ _______ _______ _____ _____    ______ ____
ROOT
ATOM      1  C   UNL     1      -8.662  53.825  49.036  0.00  0.00    +0.000 A 
ATOM      2  C   UNL     1      -8.875  53.516  47.591  0.00  0.00    +0.000 A 
ATOM      3  C   UNL     1      -9.457  54.712  49.656  0.00  0.00    +0.000 A 
ATOM      4  O   UNL     1      -8.196  52.617  47.080  0.00  0.00    +0.000 OA
ATOM      5  N   UNL     1      -9.835  54.228  46.882  0.00  0.00    +0.000 N 
ATOM      6  C   UNL     1     -10.554  55.359  48.923  0.00  0.00    +0.000 A 
ATOM      7  C   UNL     1     -10.744  55.098  47.558  0.00  0.00    +0.000 A 
ATOM      8  C   UNL     1     -11.442  56.218  49.592  0.00  0.00    +0.000 A 
ATOM      9  C   UNL     1     -11.841  55.682  46.908  0.00  0.00    +0.000 A 
ATOM     10  C   UNL     1     -12.527  56.799  48.937  0.00  0.00    +0.000 A 
ATOM     11  C   UNL     1     -12.708  56.544  47.582  0.00  0.00    +0.000 A 
ENDROOT
BRANCH   1  17
ATOM     12  S   UNL     1      -6.656  50.874  50.687  0.00  0.00    +0.000 S 
ATOM     13  O   UNL     1      -5.809  50.159  49.754  0.00  0.00    +0.000 OA
ATOM     14  O   UNL     1      -7.418  50.151  51.686  0.00  0.00    +0.000 OA
ATOM     15  N   UNL     1      -7.695  51.778  49.829  0.00  0.00    +0.000 N 
ATOM     16  C   UNL     1      -5.594  51.949  51.581  0.00  0.00    +0.000 A 
ATOM     17  C   UNL     1      -7.591  53.073  49.802  0.00  0.00    +0.000 C 
ATOM     18  C   UNL     1      -5.704  53.310  51.346  0.00  0.00    +0.000 A 
ATOM     19  C   UNL     1      -4.692  51.430  52.513  0.00  0.00    +0.000 A 
ATOM     20  N   UNL     1      -6.605  53.815  50.415  0.00  0.00    +0.000 N 
ATOM     21  C   UNL     1      -4.825  54.170  52.013  0.00  0.00    +0.000 A 
ATOM     22  C   UNL     1      -3.848  52.302  53.198  0.00  0.00    +0.000 A 
ATOM     23  C   UNL     1      -3.909  53.671  52.941  0.00  0.00    +0.000 A 
ATOM     24  H   UNL     1      -8.415  51.340  49.320  0.00  0.00    +0.000 HD
ATOM     25  H   UNL     1      -6.533  54.768  50.177  0.00  0.00    +0.000 HD
ENDBRANCH   1  17
BRANCH  10  26
ATOM     26  N   UNL     1     -13.459  57.633  49.581  0.00  0.00    +0.000 N 
ATOM     27  C   UNL     1     -14.605  57.205  50.229  0.00  0.00    +0.000 C 
ATOM     28  O   UNL     1     -15.039  56.058  50.257  0.00  0.00    +0.000 OA
ATOM     29  H   UNL     1     -13.282  58.600  49.571  0.00  0.00    +0.000 HD
BRANCH  27  30
ATOM     30  C   UNL     1     -15.344  58.319  50.937  0.00  0.00    +0.000 C 
BRANCH  30  31
ATOM     31  C   UNL     1     -14.593  58.731  52.210  0.00  0.00    +0.000 C 
ATOM     32  C   UNL     1     -15.511  59.468  53.189  0.00  0.00    +0.000 C 
ATOM     33  C   UNL     1     -13.986  57.501  52.881  0.00  0.00    +0.000 C 
ENDBRANCH  30  31
ENDBRANCH  27  30
ENDBRANCH  10  26
BRANCH   3  34
ATOM     34  O   UNL     1      -9.367  55.041  50.996  0.00  0.00    +0.000 OA
ATOM     35  H   UNL     1      -8.855  55.778  51.264  0.00  0.00    +0.000 HD
ENDBRANCH   3  34
BRANCH   5  36
ATOM     36  C   UNL     1      -9.965  53.960  45.447  0.00  0.00    +0.000 C 
BRANCH  36  37
ATOM     37  C   UNL     1     -11.187  53.120  45.036  0.00  0.00    +0.000 C 
BRANCH  37  38
ATOM     38  C   UNL     1     -11.329  51.738  45.695  0.00  0.00    +0.000 C 
ATOM     39  C   UNL     1     -12.435  51.704  46.747  0.00  0.00    +0.000 C 
ATOM     40  C   UNL     1     -11.622  50.704  44.601  0.00  0.00    +0.000 C 
ENDBRANCH  37  38
ENDBRANCH  36  37
ENDBRANCH   5  36
TORSDOF 8
ENDMDL
MODEL 4
REMARK VINA RESULT:      -7.9      2.926      7.179
REMARK  Name = 338454
REMARK  12 active torsions:
REMARK  status: ('A' for Active; 'I' for Inactive)
REMARK    1  A    between atoms: C_6  and  C_10
REMARK    2  A    between atoms: C_14  and  O_18
REMARK    3  A    between atoms: N_17  and  C_21
REMARK    4  A    between atoms: C_21  and  C_24
REMARK    5  A    between atoms: C_24  and  C_27
REMARK    6  A    between atoms: C_25  and  N_28
REMARK    7  A    between atoms: C_27  and  C_29
REMARK    8  A    between atoms: C_27  and  C_30
REMARK    9  A    between atoms: C_31  and  C_33
REMARK   10  A    between atoms: C_33  and  C_34
REMARK   11  A    between atoms: C_34  and  C_35
REMARK   12  A    between atoms: C_34  and  C_36
REMARK                            x       y       z     vdW  Elec       q    Type
REMARK                         _______ _______ _______ _____ _____    ______ ____
ROOT
ATOM      1  C   UNL     1      -8.651  54.326  48.252  0.00  0.00    +0.000 A 
ATOM      2  C   UNL     1      -9.199  53.818  46.959  0.00  0.00    +0.000 A 
ATOM      3  C   UNL     1      -9.338  55.237  48.960  0.00  0.00    +0.000 A 
ATOM      4  O   UNL     1      -8.595  52.902  46.388  0.00  0.00    +0.000 OA
ATOM      5  N   UNL     1     -10.371  54.372  46.459  0.00  0.00    +0.000 N 
ATOM      6  C   UNL     1     -10.641  55.715  48.479  0.00  0.00    +0.000 A 
ATOM      7  C   UNL     1     -11.152  55.267  47.253  0.00  0.00    +0.000 A 
ATOM      8  C   UNL     1     -11.403  56.599  49.261  0.00  0.00    +0.000 A 
ATOM      9  C   UNL     1     -12.428  55.693  46.858  0.00  0.00    +0.000 A 
ATOM     10  C   UNL     1     -12.669  57.024  48.860  0.00  0.00    +0.000 A 
ATOM     11  C   UNL     1     -13.168  56.583  47.639  0.00  0.00    +0.000 A 
ENDROOT
BRANCH   1  17
ATOM     12  S   UNL     1      -4.938  53.038  48.386  0.00  0.00    +0.000 S 
ATOM     13  O   UNL     1      -3.964  54.100  48.540  0.00  0.00    +0.000 OA
ATOM     14  O   UNL     1      -4.681  51.934  47.481  0.00  0.00    +0.000 OA
ATOM     15  N   UNL     1      -6.351  53.712  47.957  0.00  0.00    +0.000 N 
ATOM     16  C   UNL     1      -5.128  52.319  49.976  0.00  0.00    +0.000 A 
ATOM     17  C   UNL     1      -7.353  53.746  48.783  0.00  0.00    +0.000 C 
ATOM     18  C   UNL     1      -6.327  52.524  50.640  0.00  0.00    +0.000 A 
ATOM     19  C   UNL     1      -4.101  51.548  50.525  0.00  0.00    +0.000 A 
ATOM     20  N   UNL     1      -7.341  53.295  50.084  0.00  0.00    +0.000 N 
ATOM     21  C   UNL     1      -6.466  52.000  51.930  0.00  0.00    +0.000 A 
ATOM     22  C   UNL     1      -4.269  51.000  51.795  0.00  0.00    +0.000 A 
ATOM     23  C   UNL     1      -5.448  51.236  52.501  0.00  0.00    +0.000 A 
ATOM     24  H   UNL     1      -6.451  54.102  47.058  0.00  0.00    +0.000 HD
ATOM     25  H   UNL     1      -8.104  53.534  50.660  0.00  0.00    +0.000 HD
ENDBRANCH   1  17
BRANCH  10  26
ATOM     26  N   UNL     1     -13.477  57.878  49.633  0.00  0.00    +0.000 N 
ATOM     27  C   UNL     1     -14.659  57.517  50.256  0.00  0.00    +0.000 C 
ATOM     28  O   UNL     1     -15.236  56.439  50.152  0.00  0.00    +0.000 OA
ATOM     29  H   UNL     1     -13.176  58.808  49.740  0.00  0.00    +0.000 HD
BRANCH  27  30
ATOM     30  C   UNL     1     -15.237  58.614  51.123  0.00  0.00    +0.000 C 
BRANCH  30  31
ATOM     31  C   UNL     1     -15.226  58.189  52.597  0.00  0.00    +0.000 C 
ATOM     32  C   UNL     1     -13.875  57.592  52.998  0.00  0.00    +0.000 C 
ATOM     33  C   UNL     1     -15.561  59.384  53.488  0.00  0.00    +0.000 C 
ENDBRANCH  30  31
ENDBRANCH  27  30
ENDBRANCH  10  26
BRANCH   3  34
ATOM     34  O   UNL     1      -8.937  55.744  50.182  0.00  0.00    +0.000 OA
ATOM     35  H   UNL     1      -8.928  55.190  50.939  0.00  0.00    +0.000 HD
ENDBRANCH   3  34
BRANCH   5  36
ATOM     36  C   UNL     1     -10.841  53.910  45.149  0.00  0.00    +0.000 C 
BRANCH  36  37
ATOM     37  C   UNL     1     -11.741  52.662  45.168  0.00  0.00    +0.000 C 
BRANCH  37  38
ATOM     38  C   UNL     1     -11.302  51.480  44.289  0.00  0.00    +0.000 C 
ATOM     39  C   UNL     1     -10.206  51.865  43.298  0.00  0.00    +0.000 C 
ATOM     40  C   UNL     1     -10.803  50.353  45.201  0.00  0.00    +0.000 C 
ENDBRANCH  37  38
ENDBRANCH  36  37
ENDBRANCH   5  36
TORSDOF 8
ENDMDL
MODEL 5
REMARK VINA RESULT:      -7.7      1.820      6.038
REMARK  Name = 338454
REMARK  12 active torsions:
REMARK  status: ('A' for Active; 'I' for Inactive)
REMARK    1  A    between atoms: C_6  and  C_10
REMARK    2  A    between atoms: C_14  and  O_18
REMARK    3  A    between atoms: N_17  and  C_21
REMARK    4  A    between atoms: C_21  and  C_24
REMARK    5  A    between atoms: C_24  and  C_27
REMARK    6  A    between atoms: C_25  and  N_28
REMARK    7  A    between atoms: C_27  and  C_29
REMARK    8  A    between atoms: C_27  and  C_30
REMARK    9  A    between atoms: C_31  and  C_33
REMARK   10  A    between atoms: C_33  and  C_34
REMARK   11  A    between atoms: C_34  and  C_35
REMARK   12  A    between atoms: C_34  and  C_36
REMARK                            x       y       z     vdW  Elec       q    Type
REMARK                         _______ _______ _______ _____ _____    ______ ____
ROOT
ATOM      1  C   UNL     1      -9.139  53.403  51.276  0.00  0.00    +0.000 A 
ATOM      2  C   UNL     1      -8.993  52.653  49.992  0.00  0.00    +0.000 A 
ATOM      3  C   UNL     1      -9.982  54.446  51.350  0.00  0.00    +0.000 A 
ATOM      4  O   UNL     1      -8.291  51.635  49.988  0.00  0.00    +0.000 OA
ATOM      5  N   UNL     1      -9.662  53.110  48.864  0.00  0.00    +0.000 N 
ATOM      6  C   UNL     1     -10.782  54.834  50.180  0.00  0.00    +0.000 A 
ATOM      7  C   UNL     1     -10.631  54.155  48.963  0.00  0.00    +0.000 A 
ATOM      8  C   UNL     1     -11.730  55.865  50.282  0.00  0.00    +0.000 A 
ATOM      9  C   UNL     1     -11.459  54.509  47.888  0.00  0.00    +0.000 A 
ATOM     10  C   UNL     1     -12.545  56.216  49.207  0.00  0.00    +0.000 A 
ATOM     11  C   UNL     1     -12.388  55.546  47.999  0.00  0.00    +0.000 A 
ENDROOT
BRANCH   1  17
ATOM     12  S   UNL     1      -6.181  52.658  53.756  0.00  0.00    +0.000 S 
ATOM     13  O   UNL     1      -5.802  53.800  54.563  0.00  0.00    +0.000 OA
ATOM     14  O   UNL     1      -5.164  51.791  53.193  0.00  0.00    +0.000 OA
ATOM     15  N   UNL     1      -7.110  53.191  52.536  0.00  0.00    +0.000 N 
ATOM     16  C   UNL     1      -7.162  51.635  54.793  0.00  0.00    +0.000 A 
ATOM     17  C   UNL     1      -8.381  52.927  52.500  0.00  0.00    +0.000 C 
ATOM     18  C   UNL     1      -8.516  51.539  54.514  0.00  0.00    +0.000 A 
ATOM     19  C   UNL     1      -6.571  50.930  55.844  0.00  0.00    +0.000 A 
ATOM     20  N   UNL     1      -9.092  52.247  53.465  0.00  0.00    +0.000 N 
ATOM     21  C   UNL     1      -9.314  50.770  55.366  0.00  0.00    +0.000 A 
ATOM     22  C   UNL     1      -7.373  50.137  56.663  0.00  0.00    +0.000 A 
ATOM     23  C   UNL     1      -8.746  50.065  56.430  0.00  0.00    +0.000 A 
ATOM     24  H   UNL     1      -6.705  53.723  51.814  0.00  0.00    +0.000 HD
ATOM     25  H   UNL     1     -10.075  52.263  53.408  0.00  0.00    +0.000 HD
ENDBRANCH   1  17
BRANCH  10  26
ATOM     26  N   UNL     1     -13.532  57.217  49.282  0.00  0.00    +0.000 N 
ATOM     27  C   UNL     1     -14.653  57.179  50.092  0.00  0.00    +0.000 C 
ATOM     28  O   UNL     1     -15.015  56.236  50.789  0.00  0.00    +0.000 OA
ATOM     29  H   UNL     1     -13.414  58.009  48.711  0.00  0.00    +0.000 HD
BRANCH  27  30
ATOM     30  C   UNL     1     -15.464  58.456  50.052  0.00  0.00    +0.000 C 
BRANCH  30  31
ATOM     31  C   UNL     1     -14.797  59.538  50.912  0.00  0.00    +0.000 C 
ATOM     32  C   UNL     1     -14.322  58.973  52.253  0.00  0.00    +0.000 C 
ATOM     33  C   UNL     1     -13.625  60.159  50.155  0.00  0.00    +0.000 C 
ENDBRANCH  30  31
ENDBRANCH  27  30
ENDBRANCH  10  26
BRANCH   3  34
ATOM     34  O   UNL     1     -10.217  55.182  52.497  0.00  0.00    +0.000 OA
ATOM     35  H   UNL     1     -11.042  55.608  52.619  0.00  0.00    +0.000 HD
ENDBRANCH   3  34
BRANCH   5  36
ATOM     36  C   UNL     1      -9.436  52.401  47.600  0.00  0.00    +0.000 C 
BRANCH  36  37
ATOM     37  C   UNL     1      -8.174  52.812  46.824  0.00  0.00    +0.000 C 
BRANCH  37  38
ATOM     38  C   UNL     1      -8.384  53.684  45.575  0.00  0.00    +0.000 C 
ATOM     39  C   UNL     1      -9.705  53.385  44.870  0.00  0.00    +0.000 C 
ATOM     40  C   UNL     1      -8.345  55.158  45.997  0.00  0.00    +0.000 C 
ENDBRANCH  37  38
ENDBRANCH  36  37
ENDBRANCH   5  36
TORSDOF 8
ENDMDL
MODEL 6
REMARK VINA RESULT:      -7.6      3.016      8.796
REMARK  Name = 338454
REMARK  12 active torsions:
REMARK  status: ('A' for Active; 'I' for Inactive)
REMARK    1  A    between atoms: C_6  and  C_10
REMARK    2  A    between atoms: C_14  and  O_18
REMARK    3  A    between atoms: N_17  and  C_21
REMARK    4  A    between atoms: C_21  and  C_24
REMARK    5  A    between atoms: C_24  and  C_27
REMARK    6  A    between atoms: C_25  and  N_28
REMARK    7  A    between atoms: C_27  and  C_29
REMARK    8  A    between atoms: C_27  and  C_30
REMARK    9  A    between atoms: C_31  and  C_33
REMARK   10  A    between atoms: C_33  and  C_34
REMARK   11  A    between atoms: C_34  and  C_35
REMARK   12  A    between atoms: C_34  and  C_36
REMARK                            x       y       z     vdW  Elec       q    Type
REMARK                         _______ _______ _______ _____ _____    ______ ____
ROOT
ATOM      1  C   UNL     1      -9.402  52.694  48.511  0.00  0.00    +0.000 A 
ATOM      2  C   UNL     1      -8.281  52.626  49.497  0.00  0.00    +0.000 A 
ATOM      3  C   UNL     1     -10.541  53.327  48.835  0.00  0.00    +0.000 A 
ATOM      4  O   UNL     1      -7.209  52.131  49.128  0.00  0.00    +0.000 OA
ATOM      5  N   UNL     1      -8.474  53.136  50.775  0.00  0.00    +0.000 N 
ATOM      6  C   UNL     1     -10.679  53.976  50.147  0.00  0.00    +0.000 A 
ATOM      7  C   UNL     1      -9.644  53.893  51.089  0.00  0.00    +0.000 A 
ATOM      8  C   UNL     1     -11.833  54.715  50.453  0.00  0.00    +0.000 A 
ATOM      9  C   UNL     1      -9.783  54.580  52.303  0.00  0.00    +0.000 A 
ATOM     10  C   UNL     1     -11.967  55.391  51.664  0.00  0.00    +0.000 A 
ATOM     11  C   UNL     1     -10.942  55.300  52.601  0.00  0.00    +0.000 A 
ENDROOT
BRANCH   1  17
ATOM     12  S   UNL     1      -8.734  50.091  45.642  0.00  0.00    +0.000 S 
ATOM     13  O   UNL     1      -9.907  49.325  45.273  0.00  0.00    +0.000 OA
ATOM     14  O   UNL     1      -7.440  49.444  45.744  0.00  0.00    +0.000 OA
ATOM     15  N   UNL     1      -9.037  50.821  47.060  0.00  0.00    +0.000 N 
ATOM     16  C   UNL     1      -8.554  51.329  44.410  0.00  0.00    +0.000 A 
ATOM     17  C   UNL     1      -9.205  52.107  47.127  0.00  0.00    +0.000 C 
ATOM     18  C   UNL     1      -8.804  52.643  44.771  0.00  0.00    +0.000 A 
ATOM     19  C   UNL     1      -8.148  50.981  43.119  0.00  0.00    +0.000 A 
ATOM     20  N   UNL     1      -9.209  52.977  46.059  0.00  0.00    +0.000 N 
ATOM     21  C   UNL     1      -8.716  53.629  43.783  0.00  0.00    +0.000 A 
ATOM     22  C   UNL     1      -8.028  51.979  42.154  0.00  0.00    +0.000 A 
ATOM     23  C   UNL     1      -8.322  53.301  42.484  0.00  0.00    +0.000 A 
ATOM     24  H   UNL     1      -9.095  50.281  47.882  0.00  0.00    +0.000 HD
ATOM     25  H   UNL     1      -9.520  53.898  46.218  0.00  0.00    +0.000 HD
ENDBRANCH   1  17
BRANCH  10  26
ATOM     26  N   UNL     1     -13.091  56.172  51.992  0.00  0.00    +0.000 N 
ATOM     27  C   UNL     1     -14.273  56.216  51.274  0.00  0.00    +0.000 C 
ATOM     28  O   UNL     1     -14.491  55.669  50.198  0.00  0.00    +0.000 OA
ATOM     29  H   UNL     1     -13.031  56.732  52.798  0.00  0.00    +0.000 HD
BRANCH  27  30
ATOM     30  C   UNL     1     -15.348  57.047  51.941  0.00  0.00    +0.000 C 
BRANCH  30  31
ATOM     31  C   UNL     1     -14.825  58.460  52.230  0.00  0.00    +0.000 C 
ATOM     32  C   UNL     1     -15.084  59.406  51.055  0.00  0.00    +0.000 C 
ATOM     33  C   UNL     1     -15.472  59.008  53.501  0.00  0.00    +0.000 C 
ENDBRANCH  30  31
ENDBRANCH  27  30
ENDBRANCH  10  26
BRANCH   3  34
ATOM     34  O   UNL     1     -11.622  53.478  47.986  0.00  0.00    +0.000 OA
ATOM     35  H   UNL     1     -12.228  54.179  48.119  0.00  0.00    +0.000 HD
ENDBRANCH   3  34
BRANCH   5  36
ATOM     36  C   UNL     1      -7.384  52.983  51.744  0.00  0.00    +0.000 C 
BRANCH  36  37
ATOM     37  C   UNL     1      -6.302  54.075  51.706  0.00  0.00    +0.000 C 
BRANCH  37  38
ATOM     38  C   UNL     1      -5.781  54.579  53.061  0.00  0.00    +0.000 C 
ATOM     39  C   UNL     1      -6.677  55.659  53.665  0.00  0.00    +0.000 C 
ATOM     40  C   UNL     1      -5.686  53.388  54.022  0.00  0.00    +0.000 C 
ENDBRANCH  37  38
ENDBRANCH  36  37
ENDBRANCH   5  36
TORSDOF 8
ENDMDL
MODEL 7
REMARK VINA RESULT:      -7.6      2.644      8.677
REMARK  Name = 338454
REMARK  12 active torsions:
REMARK  status: ('A' for Active; 'I' for Inactive)
REMARK    1  A    between atoms: C_6  and  C_10
REMARK    2  A    between atoms: C_14  and  O_18
REMARK    3  A    between atoms: N_17  and  C_21
REMARK    4  A    between atoms: C_21  and  C_24
REMARK    5  A    between atoms: C_24  and  C_27
REMARK    6  A    between atoms: C_25  and  N_28
REMARK    7  A    between atoms: C_27  and  C_29
REMARK    8  A    between atoms: C_27  and  C_30
REMARK    9  A    between atoms: C_31  and  C_33
REMARK   10  A    between atoms: C_33  and  C_34
REMARK   11  A    between atoms: C_34  and  C_35
REMARK   12  A    between atoms: C_34  and  C_36
REMARK                            x       y       z     vdW  Elec       q    Type
REMARK                         _______ _______ _______ _____ _____    ______ ____
ROOT
ATOM      1  C   UNL     1      -9.137  53.259  48.321  0.00  0.00    +0.000 A 
ATOM      2  C   UNL     1      -8.111  52.979  49.369  0.00  0.00    +0.000 A 
ATOM      3  C   UNL     1     -10.285  53.871  48.653  0.00  0.00    +0.000 A 
ATOM      4  O   UNL     1      -7.023  52.513  49.011  0.00  0.00    +0.000 OA
ATOM      5  N   UNL     1      -8.405  53.268  50.696  0.00  0.00    +0.000 N 
ATOM      6  C   UNL     1     -10.524  54.290  50.041  0.00  0.00    +0.000 A 
ATOM      7  C   UNL     1      -9.580  54.006  51.039  0.00  0.00    +0.000 A 
ATOM      8  C   UNL     1     -11.683  55.010  50.374  0.00  0.00    +0.000 A 
ATOM      9  C   UNL     1      -9.810  54.479  52.338  0.00  0.00    +0.000 A 
ATOM     10  C   UNL     1     -11.908  55.473  51.669  0.00  0.00    +0.000 A 
ATOM     11  C   UNL     1     -10.974  55.182  52.658  0.00  0.00    +0.000 A 
ENDROOT
BRANCH   1  17
ATOM     12  S   UNL     1      -9.071  53.430  44.393  0.00  0.00    +0.000 S 
ATOM     13  O   UNL     1      -8.088  54.357  43.872  0.00  0.00    +0.000 OA
ATOM     14  O   UNL     1     -10.389  53.346  43.793  0.00  0.00    +0.000 OA
ATOM     15  N   UNL     1      -9.265  53.740  45.975  0.00  0.00    +0.000 N 
ATOM     16  C   UNL     1      -8.367  51.830  44.225  0.00  0.00    +0.000 A 
ATOM     17  C   UNL     1      -8.831  52.911  46.876  0.00  0.00    +0.000 C 
ATOM     18  C   UNL     1      -7.988  51.165  45.380  0.00  0.00    +0.000 A 
ATOM     19  C   UNL     1      -8.224  51.255  42.960  0.00  0.00    +0.000 A 
ATOM     20  N   UNL     1      -8.134  51.748  46.634  0.00  0.00    +0.000 N 
ATOM     21  C   UNL     1      -7.377  49.914  45.253  0.00  0.00    +0.000 A 
ATOM     22  C   UNL     1      -7.647  49.991  42.851  0.00  0.00    +0.000 A 
ATOM     23  C   UNL     1      -7.215  49.325  43.997  0.00  0.00    +0.000 A 
ATOM     24  H   UNL     1      -9.717  54.569  46.255  0.00  0.00    +0.000 HD
ATOM     25  H   UNL     1      -7.710  51.299  47.401  0.00  0.00    +0.000 HD
ENDBRANCH   1  17
BRANCH  10  26
ATOM     26  N   UNL     1     -13.038  56.229  52.032  0.00  0.00    +0.000 N 
ATOM     27  C   UNL     1     -14.250  56.231  51.365  0.00  0.00    +0.000 C 
ATOM     28  O   UNL     1     -14.499  55.661  50.307  0.00  0.00    +0.000 OA
ATOM     29  H   UNL     1     -12.959  56.804  52.826  0.00  0.00    +0.000 HD
BRANCH  27  30
ATOM     30  C   UNL     1     -15.317  57.045  52.064  0.00  0.00    +0.000 C 
BRANCH  30  31
ATOM     31  C   UNL     1     -14.853  58.497  52.235  0.00  0.00    +0.000 C 
ATOM     32  C   UNL     1     -15.082  59.313  50.960  0.00  0.00    +0.000 C 
ATOM     33  C   UNL     1     -15.579  59.144  53.413  0.00  0.00    +0.000 C 
ENDBRANCH  30  31
ENDBRANCH  27  30
ENDBRANCH  10  26
BRANCH   3  34
ATOM     34  O   UNL     1     -11.281  54.208  47.755  0.00  0.00    +0.000 OA
ATOM     35  H   UNL     1     -11.954  54.811  48.006  0.00  0.00    +0.000 HD
ENDBRANCH   3  34
BRANCH   5  36
ATOM     36  C   UNL     1      -7.411  52.908  51.712  0.00  0.00    +0.000 C 
BRANCH  36  37
ATOM     37  C   UNL     1      -7.559  51.502  52.317  0.00  0.00    +0.000 C 
BRANCH  37  38
ATOM     38  C   UNL     1      -7.721  51.420  53.844  0.00  0.00    +0.000 C 
ATOM     39  C   UNL     1      -6.976  52.538  54.570  0.00  0.00    +0.000 C 
ATOM     40  C   UNL     1      -9.215  51.490  54.181  0.00  0.00    +0.000 C 
ENDBRANCH  37  38
ENDBRANCH  36  37
ENDBRANCH   5  36
TORSDOF 8
ENDMDL
MODEL 8
REMARK VINA RESULT:      -7.6      2.875      6.980
REMARK  Name = 338454
REMARK  12 active torsions:
REMARK  status: ('A' for Active; 'I' for Inactive)
REMARK    1  A    between atoms: C_6  and  C_10
REMARK    2  A    between atoms: C_14  and  O_18
REMARK    3  A    between atoms: N_17  and  C_21
REMARK    4  A    between atoms: C_21  and  C_24
REMARK    5  A    between atoms: C_24  and  C_27
REMARK    6  A    between atoms: C_25  and  N_28
REMARK    7  A    between atoms: C_27  and  C_29
REMARK    8  A    between atoms: C_27  and  C_30
REMARK    9  A    between atoms: C_31  and  C_33
REMARK   10  A    between atoms: C_33  and  C_34
REMARK   11  A    between atoms: C_34  and  C_35
REMARK   12  A    between atoms: C_34  and  C_36
REMARK                            x       y       z     vdW  Elec       q    Type
REMARK                         _______ _______ _______ _____ _____    ______ ____
ROOT
ATOM      1  C   UNL     1     -11.672  54.637  50.064  0.00  0.00    +0.000 A 
ATOM      2  C   UNL     1     -11.087  53.857  51.195  0.00  0.00    +0.000 A 
ATOM      3  C   UNL     1     -11.351  54.324  48.798  0.00  0.00    +0.000 A 
ATOM      4  O   UNL     1     -11.487  54.102  52.340  0.00  0.00    +0.000 OA
ATOM      5  N   UNL     1     -10.139  52.879  50.923  0.00  0.00    +0.000 N 
ATOM      6  C   UNL     1     -10.446  53.199  48.522  0.00  0.00    +0.000 A 
ATOM      7  C   UNL     1      -9.869  52.479  49.578  0.00  0.00    +0.000 A 
ATOM      8  C   UNL     1     -10.180  52.813  47.198  0.00  0.00    +0.000 A 
ATOM      9  C   UNL     1      -9.065  51.371  49.277  0.00  0.00    +0.000 A 
ATOM     10  C   UNL     1      -9.375  51.713  46.906  0.00  0.00    +0.000 A 
ATOM     11  C   UNL     1      -8.798  51.006  47.956  0.00  0.00    +0.000 A 
ENDROOT
BRANCH   1  17
ATOM     12  S   UNL     1     -15.008  56.418  51.138  0.00  0.00    +0.000 S 
ATOM     13  O   UNL     1     -15.148  56.566  52.572  0.00  0.00    +0.000 OA
ATOM     14  O   UNL     1     -16.149  56.036  50.327  0.00  0.00    +0.000 OA
ATOM     15  N   UNL     1     -13.820  55.348  50.857  0.00  0.00    +0.000 N 
ATOM     16  C   UNL     1     -14.496  57.985  50.534  0.00  0.00    +0.000 A 
ATOM     17  C   UNL     1     -12.681  55.729  50.362  0.00  0.00    +0.000 C 
ATOM     18  C   UNL     1     -13.200  58.103  50.058  0.00  0.00    +0.000 A 
ATOM     19  C   UNL     1     -15.389  59.059  50.523  0.00  0.00    +0.000 A 
ATOM     20  N   UNL     1     -12.320  57.027  50.076  0.00  0.00    +0.000 N 
ATOM     21  C   UNL     1     -12.766  59.360  49.626  0.00  0.00    +0.000 A 
ATOM     22  C   UNL     1     -14.954  60.297  50.055  0.00  0.00    +0.000 A 
ATOM     23  C   UNL     1     -13.639  60.450  49.616  0.00  0.00    +0.000 A 
ATOM     24  H   UNL     1     -13.964  54.396  51.066  0.00  0.00    +0.000 HD
ATOM     25  H   UNL     1     -11.373  57.205  49.872  0.00  0.00    +0.000 HD
ENDBRANCH   1  17
BRANCH  10  26
ATOM     26  N   UNL     1      -9.117  51.273  45.595  0.00  0.00    +0.000 N 
ATOM     27  C   UNL     1      -9.972  50.505  44.823  0.00  0.00    +0.000 C 
ATOM     28  O   UNL     1     -11.032  50.008  45.189  0.00  0.00    +0.000 OA
ATOM     29  H   UNL     1      -8.257  51.533  45.193  0.00  0.00    +0.000 HD
BRANCH  27  30
ATOM     30  C   UNL     1      -9.477  50.297  43.408  0.00  0.00    +0.000 C 
BRANCH  30  31
ATOM     31  C   UNL     1      -8.441  51.368  43.043  0.00  0.00    +0.000 C 
ATOM     32  C   UNL     1      -7.332  50.796  42.156  0.00  0.00    +0.000 C 
ATOM     33  C   UNL     1      -9.124  52.541  42.344  0.00  0.00    +0.000 C 
ENDBRANCH  30  31
ENDBRANCH  27  30
ENDBRANCH  10  26
BRANCH   3  34
ATOM     34  O   UNL     1     -11.863  54.957  47.680  0.00  0.00    +0.000 OA
ATOM     35  H   UNL     1     -11.317  55.526  47.173  0.00  0.00    +0.000 HD
ENDBRANCH   3  34
BRANCH   5  36
ATOM     36  C   UNL     1      -9.524  52.187  52.060  0.00  0.00    +0.000 C 
BRANCH  36  37
ATOM     37  C   UNL     1      -8.245  52.834  52.620  0.00  0.00    +0.000 C 
BRANCH  37  38
ATOM     38  C   UNL     1      -7.825  52.418  54.039  0.00  0.00    +0.000 C 
ATOM     39  C   UNL     1      -8.365  51.044  54.428  0.00  0.00    +0.000 C 
ATOM     40  C   UNL     1      -6.294  52.413  54.113  0.00  0.00    +0.000 C 
ENDBRANCH  37  38
ENDBRANCH  36  37
ENDBRANCH   5  36
TORSDOF 8
ENDMDL
MODEL 9
REMARK VINA RESULT:      -7.6      2.064      6.574
REMARK  Name = 338454
REMARK  12 active torsions:
REMARK  status: ('A' for Active; 'I' for Inactive)
REMARK    1  A    between atoms: C_6  and  C_10
REMARK    2  A    between atoms: C_14  and  O_18
REMARK    3  A    between atoms: N_17  and  C_21
REMARK    4  A    between atoms: C_21  and  C_24
REMARK    5  A    between atoms: C_24  and  C_27
REMARK    6  A    between atoms: C_25  and  N_28
REMARK    7  A    between atoms: C_27  and  C_29
REMARK    8  A    between atoms: C_27  and  C_30
REMARK    9  A    between atoms: C_31  and  C_33
REMARK   10  A    between atoms: C_33  and  C_34
REMARK   11  A    between atoms: C_34  and  C_35
REMARK   12  A    between atoms: C_34  and  C_36
REMARK                            x       y       z     vdW  Elec       q    Type
REMARK                         _______ _______ _______ _____ _____    ______ ____
ROOT
ATOM      1  C   UNL     1      -8.612  54.081  49.475  0.00  0.00    +0.000 A 
ATOM      2  C   UNL     1      -8.757  53.361  48.175  0.00  0.00    +0.000 A 
ATOM      3  C   UNL     1      -9.481  55.050  49.805  0.00  0.00    +0.000 A 
ATOM      4  O   UNL     1      -8.007  52.403  47.950  0.00  0.00    +0.000 OA
ATOM      5  N   UNL     1      -9.736  53.775  47.279  0.00  0.00    +0.000 N 
ATOM      6  C   UNL     1     -10.591  55.386  48.902  0.00  0.00    +0.000 A 
ATOM      7  C   UNL     1     -10.719  54.736  47.666  0.00  0.00    +0.000 A 
ATOM      8  C   UNL     1     -11.552  56.335  49.286  0.00  0.00    +0.000 A 
ATOM      9  C   UNL     1     -11.828  55.034  46.862  0.00  0.00    +0.000 A 
ATOM     10  C   UNL     1     -12.649  56.631  48.478  0.00  0.00    +0.000 A 
ATOM     11  C   UNL     1     -12.769  55.991  47.249  0.00  0.00    +0.000 A 
ENDROOT
BRANCH   1  17
ATOM     12  S   UNL     1      -5.079  53.078  50.878  0.00  0.00    +0.000 S 
ATOM     13  O   UNL     1      -4.236  54.215  51.188  0.00  0.00    +0.000 OA
ATOM     14  O   UNL     1      -4.518  51.905  50.234  0.00  0.00    +0.000 OA
ATOM     15  N   UNL     1      -6.314  53.602  49.964  0.00  0.00    +0.000 N 
ATOM     16  C   UNL     1      -5.724  52.518  52.412  0.00  0.00    +0.000 A 
ATOM     17  C   UNL     1      -7.522  53.653  50.438  0.00  0.00    +0.000 C 
ATOM     18  C   UNL     1      -7.075  52.708  52.654  0.00  0.00    +0.000 A 
ATOM     19  C   UNL     1      -4.890  51.883  53.334  0.00  0.00    +0.000 A 
ATOM     20  N   UNL     1      -7.895  53.343  51.728  0.00  0.00    +0.000 N 
ATOM     21  C   UNL     1      -7.587  52.315  53.894  0.00  0.00    +0.000 A 
ATOM     22  C   UNL     1      -5.422  51.462  54.552  0.00  0.00    +0.000 A 
ATOM     23  C   UNL     1      -6.768  51.688  54.835  0.00  0.00    +0.000 A 
ATOM     24  H   UNL     1      -6.145  53.887  49.036  0.00  0.00    +0.000 HD
ATOM     25  H   UNL     1      -8.806  53.588  52.013  0.00  0.00    +0.000 HD
ENDBRANCH   1  17
BRANCH  10  26
ATOM     26  N   UNL     1     -13.652  57.547  48.844  0.00  0.00    +0.000 N 
ATOM     27  C   UNL     1     -14.588  57.354  49.846  0.00  0.00    +0.000 C 
ATOM     28  O   UNL     1     -14.754  56.327  50.497  0.00  0.00    +0.000 OA
ATOM     29  H   UNL     1     -13.692  58.395  48.348  0.00  0.00    +0.000 HD
BRANCH  27  30
ATOM     30  C   UNL     1     -15.456  58.568  50.096  0.00  0.00    +0.000 C 
BRANCH  30  31
ATOM     31  C   UNL     1     -14.693  59.606  50.928  0.00  0.00    +0.000 C 
ATOM     32  C   UNL     1     -14.166  59.002  52.232  0.00  0.00    +0.000 C 
ATOM     33  C   UNL     1     -13.541  60.188  50.112  0.00  0.00    +0.000 C 
ENDBRANCH  30  31
ENDBRANCH  27  30
ENDBRANCH  10  26
BRANCH   3  34
ATOM     34  O   UNL     1      -9.456  55.751  50.997  0.00  0.00    +0.000 OA
ATOM     35  H   UNL     1      -8.930  56.523  51.076  0.00  0.00    +0.000 HD
ENDBRANCH   3  34
BRANCH   5  36
ATOM     36  C   UNL     1      -9.802  53.102  45.978  0.00  0.00    +0.000 C 
BRANCH  36  37
ATOM     37  C   UNL     1      -8.826  53.623  44.910  0.00  0.00    +0.000 C 
BRANCH  37  38
ATOM     38  C   UNL     1      -8.644  52.752  43.655  0.00  0.00    +0.000 C 
ATOM     39  C   UNL     1      -8.100  51.364  43.983  0.00  0.00    +0.000 C 
ATOM     40  C   UNL     1     -10.000  52.624  42.950  0.00  0.00    +0.000 C 
ENDBRANCH  37  38
ENDBRANCH  36  37
ENDBRANCH   5  36
TORSDOF 8
ENDMDL
