MODEL 1
REMARK VINA RESULT:      -8.0      0.000      0.000
REMARK  Name = 338315
REMARK  6 active torsions:
REMARK  status: ('A' for Active; 'I' for Inactive)
REMARK    1  A    between atoms: C_6  and  C_10
REMARK    2  A    between atoms: C_14  and  O_18
REMARK    3  A    between atoms: N_17  and  C_21
REMARK    4  A    between atoms: C_21  and  C_24
REMARK    5  A    between atoms: C_24  and  S_27
REMARK    6  A    between atoms: S_27  and  C_28
REMARK                            x       y       z     vdW  Elec       q    Type
REMARK                         _______ _______ _______ _____ _____    ______ ____
ROOT
ATOM      1  C   UNL     1     -10.160  54.389  52.313  0.00  0.00    +0.000 A 
ATOM      2  C   UNL     1      -8.771  54.948  52.266  0.00  0.00    +0.000 A 
ATOM      3  C   UNL     1     -10.417  53.271  53.012  0.00  0.00    +0.000 A 
ATOM      4  O   UNL     1      -8.602  56.048  51.739  0.00  0.00    +0.000 OA
ATOM      5  N   UNL     1      -7.744  54.221  52.860  0.00  0.00    +0.000 N 
ATOM      6  C   UNL     1      -9.340  52.586  53.738  0.00  0.00    +0.000 A 
ATOM      7  C   UNL     1      -8.023  53.074  53.664  0.00  0.00    +0.000 A 
ATOM      8  C   UNL     1      -9.622  51.461  54.533  0.00  0.00    +0.000 A 
ATOM      9  C   UNL     1      -7.031  52.437  54.425  0.00  0.00    +0.000 A 
ATOM     10  C   UNL     1      -8.621  50.837  55.270  0.00  0.00    +0.000 A 
ATOM     11  C   UNL     1      -7.324  51.326  55.217  0.00  0.00    +0.000 A 
ENDROOT
BRANCH   1  17
ATOM     12  S   UNL     1     -12.390  56.009  49.519  0.00  0.00    +0.000 S 
ATOM     13  O   UNL     1     -13.279  55.042  48.907  0.00  0.00    +0.000 OA
ATOM     14  O   UNL     1     -11.713  56.999  48.707  0.00  0.00    +0.000 OA
ATOM     15  N   UNL     1     -11.266  55.188  50.348  0.00  0.00    +0.000 N 
ATOM     16  C   UNL     1     -13.364  56.910  50.666  0.00  0.00    +0.000 A 
ATOM     17  C   UNL     1     -11.285  55.152  51.648  0.00  0.00    +0.000 C 
ATOM     18  C   UNL     1     -13.158  56.681  52.017  0.00  0.00    +0.000 A 
ATOM     19  C   UNL     1     -14.302  57.836  50.203  0.00  0.00    +0.000 A 
ATOM     20  N   UNL     1     -12.229  55.742  52.459  0.00  0.00    +0.000 N 
ATOM     21  C   UNL     1     -13.966  57.359  52.932  0.00  0.00    +0.000 A 
ATOM     22  C   UNL     1     -15.080  58.527  51.128  0.00  0.00    +0.000 A 
ATOM     23  C   UNL     1     -14.916  58.283  52.492  0.00  0.00    +0.000 A 
ATOM     24  H   UNL     1     -10.557  54.711  49.861  0.00  0.00    +0.000 HD
ATOM     25  H   UNL     1     -12.248  55.486  53.409  0.00  0.00    +0.000 HD
ENDBRANCH   1  17
BRANCH   3  26
ATOM     26  O   UNL     1     -11.676  52.713  53.164  0.00  0.00    +0.000 OA
ATOM     27  H   UNL     1     -11.765  51.794  53.327  0.00  0.00    +0.000 HD
ENDBRANCH   3  26
BRANCH   5  28
ATOM     28  C   UNL     1      -6.381  54.764  52.753  0.00  0.00    +0.000 C 
BRANCH  28  29
ATOM     29  C   UNL     1      -5.515  54.229  51.600  0.00  0.00    +0.000 C 
BRANCH  29  30
ATOM     30  S   UNL     1      -3.851  53.682  52.082  0.00  0.00    +0.000 S 
ATOM     31  C   UNL     1      -3.847  54.388  53.752  0.00  0.00    +0.000 C 
ENDBRANCH  29  30
ENDBRANCH  28  29
ENDBRANCH   5  28
TORSDOF 5
ENDMDL
MODEL 2
REMARK VINA RESULT:      -7.6      3.498      5.100
REMARK  Name = 338315
REMARK  6 active torsions:
REMARK  status: ('A' for Active; 'I' for Inactive)
REMARK    1  A    between atoms: C_6  and  C_10
REMARK    2  A    between atoms: C_14  and  O_18
REMARK    3  A    between atoms: N_17  and  C_21
REMARK    4  A    between atoms: C_21  and  C_24
REMARK    5  A    between atoms: C_24  and  S_27
REMARK    6  A    between atoms: S_27  and  C_28
REMARK                            x       y       z     vdW  Elec       q    Type
REMARK                         _______ _______ _______ _____ _____    ______ ____
ROOT
ATOM      1  C   UNL     1     -11.556  55.843  48.827  0.00  0.00    +0.000 A 
ATOM      2  C   UNL     1     -10.597  55.117  49.719  0.00  0.00    +0.000 A 
ATOM      3  C   UNL     1     -11.622  55.545  47.518  0.00  0.00    +0.000 A 
ATOM      4  O   UNL     1     -10.667  55.314  50.933  0.00  0.00    +0.000 OA
ATOM      5  N   UNL     1      -9.703  54.221  49.142  0.00  0.00    +0.000 N 
ATOM      6  C   UNL     1     -10.754  54.505  46.950  0.00  0.00    +0.000 A 
ATOM      7  C   UNL     1      -9.818  53.848  47.768  0.00  0.00    +0.000 A 
ATOM      8  C   UNL     1     -10.876  54.138  45.598  0.00  0.00    +0.000 A 
ATOM      9  C   UNL     1      -9.054  52.812  47.210  0.00  0.00    +0.000 A 
ATOM     10  C   UNL     1     -10.100  53.115  45.062  0.00  0.00    +0.000 A 
ATOM     11  C   UNL     1      -9.189  52.451  45.869  0.00  0.00    +0.000 A 
ENDROOT
BRANCH   1  17
ATOM     12  S   UNL     1     -13.536  59.176  49.434  0.00  0.00    +0.000 S 
ATOM     13  O   UNL     1     -14.663  59.308  48.533  0.00  0.00    +0.000 OA
ATOM     14  O   UNL     1     -12.705  60.322  49.741  0.00  0.00    +0.000 OA
ATOM     15  N   UNL     1     -12.578  58.005  48.855  0.00  0.00    +0.000 N 
ATOM     16  C   UNL     1     -14.195  58.634  50.966  0.00  0.00    +0.000 A 
ATOM     17  C   UNL     1     -12.517  56.842  49.433  0.00  0.00    +0.000 C 
ATOM     18  C   UNL     1     -13.957  57.324  51.350  0.00  0.00    +0.000 A 
ATOM     19  C   UNL     1     -14.923  59.522  51.761  0.00  0.00    +0.000 A 
ATOM     20  N   UNL     1     -13.242  56.449  50.537  0.00  0.00    +0.000 N 
ATOM     21  C   UNL     1     -14.522  56.873  52.545  0.00  0.00    +0.000 A 
ATOM     22  C   UNL     1     -15.456  59.068  52.964  0.00  0.00    +0.000 A 
ATOM     23  C   UNL     1     -15.261  57.742  53.353  0.00  0.00    +0.000 A 
ATOM     24  H   UNL     1     -12.034  58.177  48.054  0.00  0.00    +0.000 HD
ATOM     25  H   UNL     1     -13.256  55.492  50.764  0.00  0.00    +0.000 HD
ENDBRANCH   1  17
BRANCH   3  26
ATOM     26  O   UNL     1     -12.515  56.117  46.626  0.00  0.00    +0.000 OA
ATOM     27  H   UNL     1     -12.211  56.437  45.799  0.00  0.00    +0.000 HD
ENDBRANCH   3  26
BRANCH   5  28
ATOM     28  C   UNL     1      -8.735  53.563  50.033  0.00  0.00    +0.000 C 
BRANCH  28  29
ATOM     29  C   UNL     1      -7.355  54.228  50.163  0.00  0.00    +0.000 C 
BRANCH  29  30
ATOM     30  S   UNL     1      -7.126  55.231  51.662  0.00  0.00    +0.000 S 
ATOM     31  C   UNL     1      -7.548  56.838  50.934  0.00  0.00    +0.000 C 
ENDBRANCH  29  30
ENDBRANCH  28  29
ENDBRANCH   5  28
TORSDOF 5
ENDMDL
MODEL 3
REMARK VINA RESULT:      -7.6      2.241      2.806
REMARK  Name = 338315
REMARK  6 active torsions:
REMARK  status: ('A' for Active; 'I' for Inactive)
REMARK    1  A    between atoms: C_6  and  C_10
REMARK    2  A    between atoms: C_14  and  O_18
REMARK    3  A    between atoms: N_17  and  C_21
REMARK    4  A    between atoms: C_21  and  C_24
REMARK    5  A    between atoms: C_24  and  S_27
REMARK    6  A    between atoms: S_27  and  C_28
REMARK                            x       y       z     vdW  Elec       q    Type
REMARK                         _______ _______ _______ _____ _____    ______ ____
ROOT
ATOM      1  C   UNL     1     -11.593  54.082  51.096  0.00  0.00    +0.000 A 
ATOM      2  C   UNL     1     -10.653  54.086  52.263  0.00  0.00    +0.000 A 
ATOM      3  C   UNL     1     -11.710  52.988  50.325  0.00  0.00    +0.000 A 
ATOM      4  O   UNL     1     -10.679  55.050  53.029  0.00  0.00    +0.000 OA
ATOM      5  N   UNL     1      -9.827  52.983  52.452  0.00  0.00    +0.000 N 
ATOM      6  C   UNL     1     -10.919  51.786  50.618  0.00  0.00    +0.000 A 
ATOM      7  C   UNL     1      -9.999  51.793  51.681  0.00  0.00    +0.000 A 
ATOM      8  C   UNL     1     -11.097  50.615  49.860  0.00  0.00    +0.000 A 
ATOM      9  C   UNL     1      -9.311  50.606  51.977  0.00  0.00    +0.000 A 
ATOM     10  C   UNL     1     -10.396  49.452  50.162  0.00  0.00    +0.000 A 
ATOM     11  C   UNL     1      -9.502  49.448  51.223  0.00  0.00    +0.000 A 
ENDROOT
BRANCH   1  17
ATOM     12  S   UNL     1     -13.308  57.118  49.296  0.00  0.00    +0.000 S 
ATOM     13  O   UNL     1     -14.409  56.696  48.453  0.00  0.00    +0.000 OA
ATOM     14  O   UNL     1     -12.392  58.146  48.846  0.00  0.00    +0.000 OA
ATOM     15  N   UNL     1     -12.439  55.801  49.665  0.00  0.00    +0.000 N 
ATOM     16  C   UNL     1     -14.029  57.727  50.773  0.00  0.00    +0.000 A 
ATOM     17  C   UNL     1     -12.479  55.284  50.858  0.00  0.00    +0.000 C 
ATOM     18  C   UNL     1     -13.902  56.965  51.923  0.00  0.00    +0.000 A 
ATOM     19  C   UNL     1     -14.695  58.956  50.765  0.00  0.00    +0.000 A 
ATOM     20  N   UNL     1     -13.248  55.735  51.908  0.00  0.00    +0.000 N 
ATOM     21  C   UNL     1     -14.518  57.422  53.090  0.00  0.00    +0.000 A 
ATOM     22  C   UNL     1     -15.279  59.413  51.943  0.00  0.00    +0.000 A 
ATOM     23  C   UNL     1     -15.196  58.643  53.104  0.00  0.00    +0.000 A 
ATOM     24  H   UNL     1     -11.872  55.387  48.977  0.00  0.00    +0.000 HD
ATOM     25  H   UNL     1     -13.341  55.153  52.696  0.00  0.00    +0.000 HD
ENDBRANCH   1  17
BRANCH   3  26
ATOM     26  O   UNL     1     -12.593  52.866  49.264  0.00  0.00    +0.000 OA
ATOM     27  H   UNL     1     -13.291  53.483  49.162  0.00  0.00    +0.000 HD
ENDBRANCH   3  26
BRANCH   5  28
ATOM     28  C   UNL     1      -8.874  53.036  53.572  0.00  0.00    +0.000 C 
BRANCH  28  29
ATOM     29  C   UNL     1      -7.496  53.650  53.276  0.00  0.00    +0.000 C 
BRANCH  29  30
ATOM     30  S   UNL     1      -7.163  55.227  54.117  0.00  0.00    +0.000 S 
ATOM     31  C   UNL     1      -5.423  54.912  54.522  0.00  0.00    +0.000 C 
ENDBRANCH  29  30
ENDBRANCH  28  29
ENDBRANCH   5  28
TORSDOF 5
ENDMDL
MODEL 4
REMARK VINA RESULT:      -7.6      4.543      5.605
REMARK  Name = 338315
REMARK  6 active torsions:
REMARK  status: ('A' for Active; 'I' for Inactive)
REMARK    1  A    between atoms: C_6  and  C_10
REMARK    2  A    between atoms: C_14  and  O_18
REMARK    3  A    between atoms: N_17  and  C_21
REMARK    4  A    between atoms: C_21  and  C_24
REMARK    5  A    between atoms: C_24  and  S_27
REMARK    6  A    between atoms: S_27  and  C_28
REMARK                            x       y       z     vdW  Elec       q    Type
REMARK                         _______ _______ _______ _____ _____    ______ ____
ROOT
ATOM      1  C   UNL     1     -12.557  54.299  49.516  0.00  0.00    +0.000 A 
ATOM      2  C   UNL     1     -12.022  54.287  48.116  0.00  0.00    +0.000 A 
ATOM      3  C   UNL     1     -12.277  53.289  50.356  0.00  0.00    +0.000 A 
ATOM      4  O   UNL     1     -12.177  55.295  47.425  0.00  0.00    +0.000 OA
ATOM      5  N   UNL     1     -11.336  53.160  47.678  0.00  0.00    +0.000 N 
ATOM      6  C   UNL     1     -11.444  52.164  49.911  0.00  0.00    +0.000 A 
ATOM      7  C   UNL     1     -10.974  52.118  48.587  0.00  0.00    +0.000 A 
ATOM      8  C   UNL     1     -11.086  51.145  50.812  0.00  0.00    +0.000 A 
ATOM      9  C   UNL     1     -10.124  51.066  48.215  0.00  0.00    +0.000 A 
ATOM     10  C   UNL     1     -10.251  50.103  50.420  0.00  0.00    +0.000 A 
ATOM     11  C   UNL     1      -9.769  50.065  49.120  0.00  0.00    +0.000 A 
ENDROOT
BRANCH   1  17
ATOM     12  S   UNL     1     -15.375  56.468  51.173  0.00  0.00    +0.000 S 
ATOM     13  O   UNL     1     -15.228  56.539  52.613  0.00  0.00    +0.000 OA
ATOM     14  O   UNL     1     -16.686  56.310  50.577  0.00  0.00    +0.000 OA
ATOM     15  N   UNL     1     -14.435  55.262  50.641  0.00  0.00    +0.000 N 
ATOM     16  C   UNL     1     -14.738  57.976  50.543  0.00  0.00    +0.000 A 
ATOM     17  C   UNL     1     -13.330  55.506  50.000  0.00  0.00    +0.000 C 
ATOM     18  C   UNL     1     -13.525  57.941  49.874  0.00  0.00    +0.000 A 
ATOM     19  C   UNL     1     -15.460  59.160  50.713  0.00  0.00    +0.000 A 
ATOM     20  N   UNL     1     -12.812  56.753  49.728  0.00  0.00    +0.000 N 
ATOM     21  C   UNL     1     -12.989  59.146  49.415  0.00  0.00    +0.000 A 
ATOM     22  C   UNL     1     -14.928  60.349  50.224  0.00  0.00    +0.000 A 
ATOM     23  C   UNL     1     -13.690  60.343  49.580  0.00  0.00    +0.000 A 
ATOM     24  H   UNL     1     -14.704  54.330  50.804  0.00  0.00    +0.000 HD
ATOM     25  H   UNL     1     -11.882  56.809  49.411  0.00  0.00    +0.000 HD
ENDBRANCH   1  17
BRANCH   3  26
ATOM     26  O   UNL     1     -12.674  53.238  51.682  0.00  0.00    +0.000 OA
ATOM     27  H   UNL     1     -13.376  53.782  51.983  0.00  0.00    +0.000 HD
ENDBRANCH   3  26
BRANCH   5  28
ATOM     28  C   UNL     1     -10.869  53.151  46.283  0.00  0.00    +0.000 C 
BRANCH  28  29
ATOM     29  C   UNL     1     -11.835  52.571  45.237  0.00  0.00    +0.000 C 
BRANCH  29  30
ATOM     30  S   UNL     1     -11.223  51.102  44.360  0.00  0.00    +0.000 S 
ATOM     31  C   UNL     1     -10.118  51.961  43.206  0.00  0.00    +0.000 C 
ENDBRANCH  29  30
ENDBRANCH  28  29
ENDBRANCH   5  28
TORSDOF 5
ENDMDL
MODEL 5
REMARK VINA RESULT:      -7.4      2.404      7.835
REMARK  Name = 338315
REMARK  6 active torsions:
REMARK  status: ('A' for Active; 'I' for Inactive)
REMARK    1  A    between atoms: C_6  and  C_10
REMARK    2  A    between atoms: C_14  and  O_18
REMARK    3  A    between atoms: N_17  and  C_21
REMARK    4  A    between atoms: C_21  and  C_24
REMARK    5  A    between atoms: C_24  and  S_27
REMARK    6  A    between atoms: S_27  and  C_28
REMARK                            x       y       z     vdW  Elec       q    Type
REMARK                         _______ _______ _______ _____ _____    ______ ____
ROOT
ATOM      1  C   UNL     1     -10.368  55.000  51.046  0.00  0.00    +0.000 A 
ATOM      2  C   UNL     1     -11.647  55.566  51.583  0.00  0.00    +0.000 A 
ATOM      3  C   UNL     1     -10.157  54.943  49.721  0.00  0.00    +0.000 A 
ATOM      4  O   UNL     1     -11.744  55.734  52.799  0.00  0.00    +0.000 OA
ATOM      5  N   UNL     1     -12.646  55.916  50.682  0.00  0.00    +0.000 N 
ATOM      6  C   UNL     1     -11.176  55.435  48.785  0.00  0.00    +0.000 A 
ATOM      7  C   UNL     1     -12.399  55.926  49.275  0.00  0.00    +0.000 A 
ATOM      8  C   UNL     1     -10.925  55.449  47.402  0.00  0.00    +0.000 A 
ATOM      9  C   UNL     1     -13.322  56.454  48.359  0.00  0.00    +0.000 A 
ATOM     10  C   UNL     1     -11.859  55.965  46.509  0.00  0.00    +0.000 A 
ATOM     11  C   UNL     1     -13.059  56.469  46.989  0.00  0.00    +0.000 A 
ENDROOT
BRANCH   1  17
ATOM     12  S   UNL     1      -6.914  54.889  52.906  0.00  0.00    +0.000 S 
ATOM     13  O   UNL     1      -6.815  55.914  53.926  0.00  0.00    +0.000 OA
ATOM     14  O   UNL     1      -5.781  54.590  52.054  0.00  0.00    +0.000 OA
ATOM     15  N   UNL     1      -8.171  55.262  51.954  0.00  0.00    +0.000 N 
ATOM     16  C   UNL     1      -7.292  53.397  53.747  0.00  0.00    +0.000 A 
ATOM     17  C   UNL     1      -9.280  54.586  52.012  0.00  0.00    +0.000 C 
ATOM     18  C   UNL     1      -8.571  52.882  53.617  0.00  0.00    +0.000 A 
ATOM     19  C   UNL     1      -6.307  52.761  54.508  0.00  0.00    +0.000 A 
ATOM     20  N   UNL     1      -9.543  53.538  52.867  0.00  0.00    +0.000 N 
ATOM     21  C   UNL     1      -8.891  51.721  54.326  0.00  0.00    +0.000 A 
ATOM     22  C   UNL     1      -6.631  51.589  55.185  0.00  0.00    +0.000 A 
ATOM     23  C   UNL     1      -7.925  51.073  55.099  0.00  0.00    +0.000 A 
ATOM     24  H   UNL     1      -8.093  56.011  51.321  0.00  0.00    +0.000 HD
ATOM     25  H   UNL     1     -10.476  53.234  52.953  0.00  0.00    +0.000 HD
ENDBRANCH   1  17
BRANCH   3  26
ATOM     26  O   UNL     1      -8.986  54.494  49.131  0.00  0.00    +0.000 OA
ATOM     27  H   UNL     1      -8.233  54.316  49.659  0.00  0.00    +0.000 HD
ENDBRANCH   3  26
BRANCH   5  28
ATOM     28  C   UNL     1     -13.913  56.418  51.238  0.00  0.00    +0.000 C 
BRANCH  28  29
ATOM     29  C   UNL     1     -13.918  57.873  51.735  0.00  0.00    +0.000 C 
BRANCH  29  30
ATOM     30  S   UNL     1     -14.979  59.003  50.788  0.00  0.00    +0.000 S 
ATOM     31  C   UNL     1     -13.656  59.937  49.970  0.00  0.00    +0.000 C 
ENDBRANCH  29  30
ENDBRANCH  28  29
ENDBRANCH   5  28
TORSDOF 5
ENDMDL
MODEL 6
REMARK VINA RESULT:      -7.4      2.938      7.267
REMARK  Name = 338315
REMARK  6 active torsions:
REMARK  status: ('A' for Active; 'I' for Inactive)
REMARK    1  A    between atoms: C_6  and  C_10
REMARK    2  A    between atoms: C_14  and  O_18
REMARK    3  A    between atoms: N_17  and  C_21
REMARK    4  A    between atoms: C_21  and  C_24
REMARK    5  A    between atoms: C_24  and  S_27
REMARK    6  A    between atoms: S_27  and  C_28
REMARK                            x       y       z     vdW  Elec       q    Type
REMARK                         _______ _______ _______ _____ _____    ______ ____
ROOT
ATOM      1  C   UNL     1     -10.149  55.198  50.659  0.00  0.00    +0.000 A 
ATOM      2  C   UNL     1      -9.727  55.044  49.230  0.00  0.00    +0.000 A 
ATOM      3  C   UNL     1     -11.348  55.727  50.957  0.00  0.00    +0.000 A 
ATOM      4  O   UNL     1      -8.688  54.426  48.993  0.00  0.00    +0.000 OA
ATOM      5  N   UNL     1     -10.547  55.566  48.236  0.00  0.00    +0.000 N 
ATOM      6  C   UNL     1     -12.255  56.158  49.886  0.00  0.00    +0.000 A 
ATOM      7  C   UNL     1     -11.852  56.061  48.542  0.00  0.00    +0.000 A 
ATOM      8  C   UNL     1     -13.540  56.640  50.193  0.00  0.00    +0.000 A 
ATOM      9  C   UNL     1     -12.770  56.416  47.542  0.00  0.00    +0.000 A 
ATOM     10  C   UNL     1     -14.431  56.997  49.186  0.00  0.00    +0.000 A 
ATOM     11  C   UNL     1     -14.045  56.884  47.859  0.00  0.00    +0.000 A 
ENDROOT
BRANCH   1  17
ATOM     12  S   UNL     1      -7.030  54.726  52.993  0.00  0.00    +0.000 S 
ATOM     13  O   UNL     1      -6.995  55.710  54.056  0.00  0.00    +0.000 OA
ATOM     14  O   UNL     1      -5.813  54.349  52.302  0.00  0.00    +0.000 OA
ATOM     15  N   UNL     1      -8.096  55.237  51.885  0.00  0.00    +0.000 N 
ATOM     16  C   UNL     1      -7.653  53.253  53.710  0.00  0.00    +0.000 A 
ATOM     17  C   UNL     1      -9.255  54.663  51.755  0.00  0.00    +0.000 C 
ATOM     18  C   UNL     1      -8.939  52.859  53.376  0.00  0.00    +0.000 A 
ATOM     19  C   UNL     1      -6.850  52.510  54.580  0.00  0.00    +0.000 A 
ATOM     20  N   UNL     1      -9.730  53.620  52.520  0.00  0.00    +0.000 N 
ATOM     21  C   UNL     1      -9.458  51.713  53.984  0.00  0.00    +0.000 A 
ATOM     22  C   UNL     1      -7.369  51.354  55.156  0.00  0.00    +0.000 A 
ATOM     23  C   UNL     1      -8.675  50.960  54.863  0.00  0.00    +0.000 A 
ATOM     24  H   UNL     1      -7.862  55.993  51.300  0.00  0.00    +0.000 HD
ATOM     25  H   UNL     1     -10.688  53.399  52.458  0.00  0.00    +0.000 HD
ENDBRANCH   1  17
BRANCH   3  26
ATOM     26  O   UNL     1     -11.851  55.856  52.241  0.00  0.00    +0.000 OA
ATOM     27  H   UNL     1     -11.553  56.551  52.794  0.00  0.00    +0.000 HD
ENDBRANCH   3  26
BRANCH   5  28
ATOM     28  C   UNL     1     -10.083  55.450  46.845  0.00  0.00    +0.000 C 
BRANCH  28  29
ATOM     29  C   UNL     1     -10.392  54.127  46.124  0.00  0.00    +0.000 C 
BRANCH  29  30
ATOM     30  S   UNL     1      -8.941  53.266  45.447  0.00  0.00    +0.000 S 
ATOM     31  C   UNL     1      -7.804  54.679  45.459  0.00  0.00    +0.000 C 
ENDBRANCH  29  30
ENDBRANCH  28  29
ENDBRANCH   5  28
TORSDOF 5
ENDMDL
MODEL 7
REMARK VINA RESULT:      -7.4      1.744      2.542
REMARK  Name = 338315
REMARK  6 active torsions:
REMARK  status: ('A' for Active; 'I' for Inactive)
REMARK    1  A    between atoms: C_6  and  C_10
REMARK    2  A    between atoms: C_14  and  O_18
REMARK    3  A    between atoms: N_17  and  C_21
REMARK    4  A    between atoms: C_21  and  C_24
REMARK    5  A    between atoms: C_24  and  S_27
REMARK    6  A    between atoms: S_27  and  C_28
REMARK                            x       y       z     vdW  Elec       q    Type
REMARK                         _______ _______ _______ _____ _____    ______ ____
ROOT
ATOM      1  C   UNL     1     -10.121  54.509  52.159  0.00  0.00    +0.000 A 
ATOM      2  C   UNL     1      -8.718  55.033  52.158  0.00  0.00    +0.000 A 
ATOM      3  C   UNL     1     -10.428  53.397  52.847  0.00  0.00    +0.000 A 
ATOM      4  O   UNL     1      -8.505  56.129  51.638  0.00  0.00    +0.000 OA
ATOM      5  N   UNL     1      -7.729  54.280  52.783  0.00  0.00    +0.000 N 
ATOM      6  C   UNL     1      -9.393  52.684  53.605  0.00  0.00    +0.000 A 
ATOM      7  C   UNL     1      -8.062  53.139  53.575  0.00  0.00    +0.000 A 
ATOM      8  C   UNL     1      -9.727  51.565  54.389  0.00  0.00    +0.000 A 
ATOM      9  C   UNL     1      -7.111  52.477  54.367  0.00  0.00    +0.000 A 
ATOM     10  C   UNL     1      -8.766  50.915  55.157  0.00  0.00    +0.000 A 
ATOM     11  C   UNL     1      -7.457  51.373  55.146  0.00  0.00    +0.000 A 
ENDROOT
BRANCH   1  17
ATOM     12  S   UNL     1     -13.454  56.491  51.557  0.00  0.00    +0.000 S 
ATOM     13  O   UNL     1     -13.353  57.867  52.000  0.00  0.00    +0.000 OA
ATOM     14  O   UNL     1     -14.661  55.728  51.802  0.00  0.00    +0.000 OA
ATOM     15  N   UNL     1     -12.209  55.676  52.196  0.00  0.00    +0.000 N 
ATOM     16  C   UNL     1     -13.249  56.522  49.815  0.00  0.00    +0.000 A 
ATOM     17  C   UNL     1     -11.205  55.300  51.460  0.00  0.00    +0.000 C 
ATOM     18  C   UNL     1     -12.064  56.032  49.290  0.00  0.00    +0.000 A 
ATOM     19  C   UNL     1     -14.273  57.019  49.005  0.00  0.00    +0.000 A 
ATOM     20  N   UNL     1     -11.049  55.555  50.115  0.00  0.00    +0.000 N 
ATOM     21  C   UNL     1     -11.876  56.101  47.908  0.00  0.00    +0.000 A 
ATOM     22  C   UNL     1     -14.084  57.055  47.626  0.00  0.00    +0.000 A 
ATOM     23  C   UNL     1     -12.883  56.602  47.079  0.00  0.00    +0.000 A 
ATOM     24  H   UNL     1     -12.212  55.462  53.156  0.00  0.00    +0.000 HD
ATOM     25  H   UNL     1     -10.166  55.390  49.713  0.00  0.00    +0.000 HD
ENDBRANCH   1  17
BRANCH   3  26
ATOM     26  O   UNL     1     -11.705  52.869  52.958  0.00  0.00    +0.000 OA
ATOM     27  H   UNL     1     -12.227  52.739  52.190  0.00  0.00    +0.000 HD
ENDBRANCH   3  26
BRANCH   5  28
ATOM     28  C   UNL     1      -6.350  54.789  52.720  0.00  0.00    +0.000 C 
BRANCH  28  29
ATOM     29  C   UNL     1      -5.370  54.015  51.823  0.00  0.00    +0.000 C 
BRANCH  29  30
ATOM     30  S   UNL     1      -5.981  53.658  50.149  0.00  0.00    +0.000 S 
ATOM     31  C   UNL     1      -5.655  55.290  49.429  0.00  0.00    +0.000 C 
ENDBRANCH  29  30
ENDBRANCH  28  29
ENDBRANCH   5  28
TORSDOF 5
ENDMDL
MODEL 8
REMARK VINA RESULT:      -7.3      3.767      5.314
REMARK  Name = 338315
REMARK  6 active torsions:
REMARK  status: ('A' for Active; 'I' for Inactive)
REMARK    1  A    between atoms: C_6  and  C_10
REMARK    2  A    between atoms: C_14  and  O_18
REMARK    3  A    between atoms: N_17  and  C_21
REMARK    4  A    between atoms: C_21  and  C_24
REMARK    5  A    between atoms: C_24  and  S_27
REMARK    6  A    between atoms: S_27  and  C_28
REMARK                            x       y       z     vdW  Elec       q    Type
REMARK                         _______ _______ _______ _____ _____    ______ ____
ROOT
ATOM      1  C   UNL     1     -10.710  55.718  48.433  0.00  0.00    +0.000 A 
ATOM      2  C   UNL     1      -9.300  55.569  48.915  0.00  0.00    +0.000 A 
ATOM      3  C   UNL     1     -11.079  55.200  47.249  0.00  0.00    +0.000 A 
ATOM      4  O   UNL     1      -9.035  55.928  50.063  0.00  0.00    +0.000 OA
ATOM      5  N   UNL     1      -8.365  54.992  48.062  0.00  0.00    +0.000 N 
ATOM      6  C   UNL     1     -10.104  54.483  46.417  0.00  0.00    +0.000 A 
ATOM      7  C   UNL     1      -8.767  54.376  46.837  0.00  0.00    +0.000 A 
ATOM      8  C   UNL     1     -10.507  53.874  45.216  0.00  0.00    +0.000 A 
ATOM      9  C   UNL     1      -7.878  53.624  46.053  0.00  0.00    +0.000 A 
ATOM     10  C   UNL     1      -9.607  53.142  44.447  0.00  0.00    +0.000 A 
ATOM     11  C   UNL     1      -8.291  53.017  44.867  0.00  0.00    +0.000 A 
ENDROOT
BRANCH   1  17
ATOM     12  S   UNL     1     -13.333  56.201  51.311  0.00  0.00    +0.000 S 
ATOM     13  O   UNL     1     -12.697  56.464  52.586  0.00  0.00    +0.000 OA
ATOM     14  O   UNL     1     -14.482  55.322  51.232  0.00  0.00    +0.000 OA
ATOM     15  N   UNL     1     -12.200  55.635  50.302  0.00  0.00    +0.000 N 
ATOM     16  C   UNL     1     -13.874  57.756  50.706  0.00  0.00    +0.000 A 
ATOM     17  C   UNL     1     -11.734  56.369  49.336  0.00  0.00    +0.000 C 
ATOM     18  C   UNL     1     -13.193  58.310  49.634  0.00  0.00    +0.000 A 
ATOM     19  C   UNL     1     -14.970  58.388  51.297  0.00  0.00    +0.000 A 
ATOM     20  N   UNL     1     -12.092  57.672  49.067  0.00  0.00    +0.000 N 
ATOM     21  C   UNL     1     -13.588  59.571  49.181  0.00  0.00    +0.000 A 
ATOM     22  C   UNL     1     -15.372  59.631  50.816  0.00  0.00    +0.000 A 
ATOM     23  C   UNL     1     -14.677  60.225  49.763  0.00  0.00    +0.000 A 
ATOM     24  H   UNL     1     -11.859  54.719  50.422  0.00  0.00    +0.000 HD
ATOM     25  H   UNL     1     -11.537  58.184  48.436  0.00  0.00    +0.000 HD
ENDBRANCH   1  17
BRANCH   3  26
ATOM     26  O   UNL     1     -12.369  55.234  46.746  0.00  0.00    +0.000 OA
ATOM     27  H   UNL     1     -13.012  54.630  47.062  0.00  0.00    +0.000 HD
ENDBRANCH   3  26
BRANCH   5  28
ATOM     28  C   UNL     1      -6.976  54.907  48.539  0.00  0.00    +0.000 C 
BRANCH  28  29
ATOM     29  C   UNL     1      -6.611  53.675  49.383  0.00  0.00    +0.000 C 
BRANCH  29  30
ATOM     30  S   UNL     1      -6.204  54.028  51.119  0.00  0.00    +0.000 S 
ATOM     31  C   UNL     1      -4.403  53.864  50.974  0.00  0.00    +0.000 C 
ENDBRANCH  29  30
ENDBRANCH  28  29
ENDBRANCH   5  28
TORSDOF 5
ENDMDL
MODEL 9
REMARK VINA RESULT:      -7.3      4.045      5.668
REMARK  Name = 338315
REMARK  6 active torsions:
REMARK  status: ('A' for Active; 'I' for Inactive)
REMARK    1  A    between atoms: C_6  and  C_10
REMARK    2  A    between atoms: C_14  and  O_18
REMARK    3  A    between atoms: N_17  and  C_21
REMARK    4  A    between atoms: C_21  and  C_24
REMARK    5  A    between atoms: C_24  and  S_27
REMARK    6  A    between atoms: S_27  and  C_28
REMARK                            x       y       z     vdW  Elec       q    Type
REMARK                         _______ _______ _______ _____ _____    ______ ____
ROOT
ATOM      1  C   UNL     1     -11.442  55.787  48.938  0.00  0.00    +0.000 A 
ATOM      2  C   UNL     1     -11.528  55.412  47.490  0.00  0.00    +0.000 A 
ATOM      3  C   UNL     1     -10.448  55.309  49.704  0.00  0.00    +0.000 A 
ATOM      4  O   UNL     1     -12.364  55.981  46.789  0.00  0.00    +0.000 OA
ATOM      5  N   UNL     1     -10.630  54.472  46.995  0.00  0.00    +0.000 N 
ATOM      6  C   UNL     1      -9.434  54.415  49.130  0.00  0.00    +0.000 A 
ATOM      7  C   UNL     1      -9.529  54.018  47.785  0.00  0.00    +0.000 A 
ATOM      8  C   UNL     1      -8.349  53.976  49.910  0.00  0.00    +0.000 A 
ATOM      9  C   UNL     1      -8.506  53.220  47.249  0.00  0.00    +0.000 A 
ATOM     10  C   UNL     1      -7.351  53.175  49.363  0.00  0.00    +0.000 A 
ATOM     11  C   UNL     1      -7.430  52.798  48.031  0.00  0.00    +0.000 A 
ENDROOT
BRANCH   1  17
ATOM     12  S   UNL     1     -13.488  59.101  49.420  0.00  0.00    +0.000 S 
ATOM     13  O   UNL     1     -14.604  59.187  48.500  0.00  0.00    +0.000 OA
ATOM     14  O   UNL     1     -12.681  60.270  49.705  0.00  0.00    +0.000 OA
ATOM     15  N   UNL     1     -12.502  57.931  48.889  0.00  0.00    +0.000 N 
ATOM     16  C   UNL     1     -14.159  58.592  50.958  0.00  0.00    +0.000 A 
ATOM     17  C   UNL     1     -12.429  56.786  49.501  0.00  0.00    +0.000 C 
ATOM     18  C   UNL     1     -13.904  57.299  51.384  0.00  0.00    +0.000 A 
ATOM     19  C   UNL     1     -14.914  59.490  51.717  0.00  0.00    +0.000 A 
ATOM     20  N   UNL     1     -13.163  56.413  50.606  0.00  0.00    +0.000 N 
ATOM     21  C   UNL     1     -14.479  56.873  52.583  0.00  0.00    +0.000 A 
ATOM     22  C   UNL     1     -15.456  59.061  52.925  0.00  0.00    +0.000 A 
ATOM     23  C   UNL     1     -15.244  57.751  53.355  0.00  0.00    +0.000 A 
ATOM     24  H   UNL     1     -11.949  58.090  48.091  0.00  0.00    +0.000 HD
ATOM     25  H   UNL     1     -13.163  55.463  50.861  0.00  0.00    +0.000 HD
ENDBRANCH   1  17
BRANCH   3  26
ATOM     26  O   UNL     1     -10.250  55.645  51.034  0.00  0.00    +0.000 OA
ATOM     27  H   UNL     1      -9.564  56.237  51.271  0.00  0.00    +0.000 HD
ENDBRANCH   3  26
BRANCH   5  28
ATOM     28  C   UNL     1     -10.770  54.080  45.584  0.00  0.00    +0.000 C 
BRANCH  28  29
ATOM     29  C   UNL     1     -11.709  52.899  45.287  0.00  0.00    +0.000 C 
BRANCH  29  30
ATOM     30  S   UNL     1     -10.920  51.477  44.477  0.00  0.00    +0.000 S 
ATOM     31  C   UNL     1     -10.048  52.400  43.182  0.00  0.00    +0.000 C 
ENDBRANCH  29  30
ENDBRANCH  28  29
ENDBRANCH   5  28
TORSDOF 5
ENDMDL
