MODEL 1
REMARK VINA RESULT:      -8.6      0.000      0.000
REMARK  Name = 338327
REMARK  10 active torsions:
REMARK  status: ('A' for Active; 'I' for Inactive)
REMARK    1  A    between atoms: C_6  and  C_10
REMARK    2  A    between atoms: C_14  and  O_18
REMARK    3  A    between atoms: N_17  and  C_21
REMARK    4  A    between atoms: C_21  and  C_24
REMARK    5  A    between atoms: C_24  and  C_27
REMARK    6  A    between atoms: C_25  and  O_28
REMARK    7  A    between atoms: C_27  and  C_29
REMARK    8  A    between atoms: C_27  and  C_30
REMARK    9  A    between atoms: O_28  and  C_31
REMARK   10  A    between atoms: C_31  and  C_32
REMARK                            x       y       z     vdW  Elec       q    Type
REMARK                         _______ _______ _______ _____ _____    ______ ____
ROOT
ATOM      1  C   UNL     1     -10.806  54.369  48.523  0.00  0.00    +0.000 A 
ATOM      2  C   UNL     1     -10.342  53.981  49.889  0.00  0.00    +0.000 A 
ATOM      3  C   UNL     1     -11.820  55.234  48.364  0.00  0.00    +0.000 A 
ATOM      4  O   UNL     1      -9.312  53.309  49.990  0.00  0.00    +0.000 OA
ATOM      5  N   UNL     1     -11.073  54.421  50.982  0.00  0.00    +0.000 N 
ATOM      6  C   UNL     1     -12.492  55.792  49.540  0.00  0.00    +0.000 A 
ATOM      7  C   UNL     1     -12.101  55.395  50.827  0.00  0.00    +0.000 A 
ATOM      8  C   UNL     1     -13.506  56.750  49.393  0.00  0.00    +0.000 A 
ATOM      9  C   UNL     1     -12.709  56.007  51.930  0.00  0.00    +0.000 A 
ATOM     10  C   UNL     1     -14.114  57.329  50.500  0.00  0.00    +0.000 A 
ATOM     11  C   UNL     1     -13.702  56.966  51.775  0.00  0.00    +0.000 A 
ENDROOT
BRANCH   1  17
ATOM     12  S   UNL     1      -7.969  53.839  45.876  0.00  0.00    +0.000 S 
ATOM     13  O   UNL     1      -6.944  52.917  46.338  0.00  0.00    +0.000 OA
ATOM     14  O   UNL     1      -7.600  55.035  45.150  0.00  0.00    +0.000 OA
ATOM     15  N   UNL     1      -8.844  54.282  47.164  0.00  0.00    +0.000 N 
ATOM     16  C   UNL     1      -9.005  52.918  44.799  0.00  0.00    +0.000 A 
ATOM     17  C   UNL     1     -10.055  53.838  47.326  0.00  0.00    +0.000 C 
ATOM     18  C   UNL     1     -10.279  52.598  45.241  0.00  0.00    +0.000 A 
ATOM     19  C   UNL     1      -8.540  52.537  43.540  0.00  0.00    +0.000 A 
ATOM     20  N   UNL     1     -10.713  52.949  46.510  0.00  0.00    +0.000 N 
ATOM     21  C   UNL     1     -11.099  51.829  44.406  0.00  0.00    +0.000 A 
ATOM     22  C   UNL     1      -9.370  51.784  42.716  0.00  0.00    +0.000 A 
ATOM     23  C   UNL     1     -10.647  51.430  43.147  0.00  0.00    +0.000 A 
ATOM     24  H   UNL     1      -8.456  54.893  47.831  0.00  0.00    +0.000 HD
ATOM     25  H   UNL     1     -11.543  52.537  46.848  0.00  0.00    +0.000 HD
ENDBRANCH   1  17
BRANCH   3  26
ATOM     26  O   UNL     1     -12.269  55.708  47.141  0.00  0.00    +0.000 OA
ATOM     27  H   UNL     1     -13.125  55.480  46.836  0.00  0.00    +0.000 HD
ENDBRANCH   3  26
BRANCH   5  28
ATOM     28  C   UNL     1     -10.645  53.981  52.314  0.00  0.00    +0.000 C 
BRANCH  28  29
ATOM     29  C   UNL     1      -9.820  55.003  53.110  0.00  0.00    +0.000 C 
BRANCH  29  30
ATOM     30  C   UNL     1      -8.302  54.978  52.892  0.00  0.00    +0.000 C 
ATOM     31  C   UNL     1      -7.865  55.943  51.795  0.00  0.00    +0.000 C 
ATOM     32  C   UNL     1      -7.631  55.343  54.222  0.00  0.00    +0.000 C 
ENDBRANCH  29  30
ENDBRANCH  28  29
ENDBRANCH   5  28
BRANCH  10  33
ATOM     33  O   UNL     1     -15.036  58.293  50.220  0.00  0.00    +0.000 OA
BRANCH  33  34
ATOM     34  C   UNL     1     -14.744  59.596  50.718  0.00  0.00    +0.000 C 
BRANCH  34  35
ATOM     35  C   UNL     1     -13.928  60.367  49.686  0.00  0.00    +0.000 C 
ATOM     36  O   UNL     1     -12.718  60.543  49.791  0.00  0.00    +0.000 OA
ATOM     37  N   UNL     1     -14.619  60.841  48.611  0.00  0.00    +0.000 N 
ATOM     38  H   UNL     1     -15.589  60.690  48.544  0.00  0.00    +0.000 HD
ATOM     39  H   UNL     1     -14.148  61.335  47.902  0.00  0.00    +0.000 HD
ENDBRANCH  34  35
ENDBRANCH  33  34
ENDBRANCH  10  33
TORSDOF 8
ENDMDL
MODEL 2
REMARK VINA RESULT:      -8.4      2.163      6.343
REMARK  Name = 338327
REMARK  10 active torsions:
REMARK  status: ('A' for Active; 'I' for Inactive)
REMARK    1  A    between atoms: C_6  and  C_10
REMARK    2  A    between atoms: C_14  and  O_18
REMARK    3  A    between atoms: N_17  and  C_21
REMARK    4  A    between atoms: C_21  and  C_24
REMARK    5  A    between atoms: C_24  and  C_27
REMARK    6  A    between atoms: C_25  and  O_28
REMARK    7  A    between atoms: C_27  and  C_29
REMARK    8  A    between atoms: C_27  and  C_30
REMARK    9  A    between atoms: O_28  and  C_31
REMARK   10  A    between atoms: C_31  and  C_32
REMARK                            x       y       z     vdW  Elec       q    Type
REMARK                         _______ _______ _______ _____ _____    ______ ____
ROOT
ATOM      1  C   UNL     1     -10.101  54.677  50.031  0.00  0.00    +0.000 A 
ATOM      2  C   UNL     1     -10.027  54.423  48.561  0.00  0.00    +0.000 A 
ATOM      3  C   UNL     1     -11.052  55.475  50.541  0.00  0.00    +0.000 A 
ATOM      4  O   UNL     1      -9.239  53.564  48.153  0.00  0.00    +0.000 OA
ATOM      5  N   UNL     1     -10.869  55.140  47.725  0.00  0.00    +0.000 N 
ATOM      6  C   UNL     1     -12.019  56.118  49.647  0.00  0.00    +0.000 A 
ATOM      7  C   UNL     1     -11.927  55.930  48.260  0.00  0.00    +0.000 A 
ATOM      8  C   UNL     1     -13.061  56.898  50.169  0.00  0.00    +0.000 A 
ATOM      9  C   UNL     1     -12.913  56.493  47.441  0.00  0.00    +0.000 A 
ATOM     10  C   UNL     1     -14.018  57.469  49.337  0.00  0.00    +0.000 A 
ATOM     11  C   UNL     1     -13.951  57.252  47.968  0.00  0.00    +0.000 A 
ENDROOT
BRANCH   1  17
ATOM     12  S   UNL     1      -8.207  51.762  51.835  0.00  0.00    +0.000 S 
ATOM     13  O   UNL     1      -7.115  51.230  51.035  0.00  0.00    +0.000 OA
ATOM     14  O   UNL     1      -9.062  50.869  52.586  0.00  0.00    +0.000 OA
ATOM     15  N   UNL     1      -9.141  52.652  50.857  0.00  0.00    +0.000 N 
ATOM     16  C   UNL     1      -7.469  52.834  53.013  0.00  0.00    +0.000 A 
ATOM     17  C   UNL     1      -9.141  53.949  50.941  0.00  0.00    +0.000 C 
ATOM     18  C   UNL     1      -7.659  54.199  52.858  0.00  0.00    +0.000 A 
ATOM     19  C   UNL     1      -6.727  52.305  54.070  0.00  0.00    +0.000 A 
ATOM     20  N   UNL     1      -8.365  54.712  51.781  0.00  0.00    +0.000 N 
ATOM     21  C   UNL     1      -7.042  55.064  53.770  0.00  0.00    +0.000 A 
ATOM     22  C   UNL     1      -6.131  53.177  54.976  0.00  0.00    +0.000 A 
ATOM     23  C   UNL     1      -6.287  54.553  54.826  0.00  0.00    +0.000 A 
ATOM     24  H   UNL     1      -9.715  52.207  50.193  0.00  0.00    +0.000 HD
ATOM     25  H   UNL     1      -8.309  55.680  51.607  0.00  0.00    +0.000 HD
ENDBRANCH   1  17
BRANCH   3  26
ATOM     26  O   UNL     1     -11.245  55.709  51.893  0.00  0.00    +0.000 OA
ATOM     27  H   UNL     1     -11.959  55.300  52.343  0.00  0.00    +0.000 HD
ENDBRANCH   3  26
BRANCH   5  28
ATOM     28  C   UNL     1     -10.742  54.928  46.279  0.00  0.00    +0.000 C 
BRANCH  28  29
ATOM     29  C   UNL     1     -11.623  53.812  45.699  0.00  0.00    +0.000 C 
BRANCH  29  30
ATOM     30  C   UNL     1     -11.048  53.032  44.511  0.00  0.00    +0.000 C 
ATOM     31  C   UNL     1      -9.526  53.108  44.459  0.00  0.00    +0.000 C 
ATOM     32  C   UNL     1     -11.505  51.573  44.641  0.00  0.00    +0.000 C 
ENDBRANCH  29  30
ENDBRANCH  28  29
ENDBRANCH   5  28
BRANCH  10  33
ATOM     33  O   UNL     1     -15.013  58.147  49.975  0.00  0.00    +0.000 OA
BRANCH  33  34
ATOM     34  C   UNL     1     -14.624  59.349  50.633  0.00  0.00    +0.000 C 
BRANCH  34  35
ATOM     35  C   UNL     1     -14.176  60.377  49.599  0.00  0.00    +0.000 C 
ATOM     36  O   UNL     1     -14.945  60.883  48.788  0.00  0.00    +0.000 OA
ATOM     37  N   UNL     1     -12.859  60.726  49.637  0.00  0.00    +0.000 N 
ATOM     38  H   UNL     1     -12.258  60.310  50.295  0.00  0.00    +0.000 HD
ATOM     39  H   UNL     1     -12.509  61.396  49.005  0.00  0.00    +0.000 HD
ENDBRANCH  34  35
ENDBRANCH  33  34
ENDBRANCH  10  33
TORSDOF 8
ENDMDL
MODEL 3
REMARK VINA RESULT:      -8.4      2.684      6.215
REMARK  Name = 338327
REMARK  10 active torsions:
REMARK  status: ('A' for Active; 'I' for Inactive)
REMARK    1  A    between atoms: C_6  and  C_10
REMARK    2  A    between atoms: C_14  and  O_18
REMARK    3  A    between atoms: N_17  and  C_21
REMARK    4  A    between atoms: C_21  and  C_24
REMARK    5  A    between atoms: C_24  and  C_27
REMARK    6  A    between atoms: C_25  and  O_28
REMARK    7  A    between atoms: C_27  and  C_29
REMARK    8  A    between atoms: C_27  and  C_30
REMARK    9  A    between atoms: O_28  and  C_31
REMARK   10  A    between atoms: C_31  and  C_32
REMARK                            x       y       z     vdW  Elec       q    Type
REMARK                         _______ _______ _______ _____ _____    ______ ____
ROOT
ATOM      1  C   UNL     1     -10.027  54.610  50.782  0.00  0.00    +0.000 A 
ATOM      2  C   UNL     1      -9.757  54.226  49.364  0.00  0.00    +0.000 A 
ATOM      3  C   UNL     1     -11.029  55.451  51.085  0.00  0.00    +0.000 A 
ATOM      4  O   UNL     1      -8.932  53.334  49.145  0.00  0.00    +0.000 OA
ATOM      5  N   UNL     1     -10.469  54.866  48.361  0.00  0.00    +0.000 N 
ATOM      6  C   UNL     1     -11.857  56.012  50.014  0.00  0.00    +0.000 A 
ATOM      7  C   UNL     1     -11.580  55.701  48.675  0.00  0.00    +0.000 A 
ATOM      8  C   UNL     1     -12.951  56.836  50.318  0.00  0.00    +0.000 A 
ATOM      9  C   UNL     1     -12.438  56.188  47.682  0.00  0.00    +0.000 A 
ATOM     10  C   UNL     1     -13.778  57.330  49.316  0.00  0.00    +0.000 A 
ATOM     11  C   UNL     1     -13.529  56.991  47.993  0.00  0.00    +0.000 A 
ENDROOT
BRANCH   1  17
ATOM     12  S   UNL     1      -6.936  53.384  52.851  0.00  0.00    +0.000 S 
ATOM     13  O   UNL     1      -6.388  54.428  53.701  0.00  0.00    +0.000 OA
ATOM     14  O   UNL     1      -6.054  52.491  52.133  0.00  0.00    +0.000 OA
ATOM     15  N   UNL     1      -7.919  54.093  51.778  0.00  0.00    +0.000 N 
ATOM     16  C   UNL     1      -7.912  52.366  53.897  0.00  0.00    +0.000 A 
ATOM     17  C   UNL     1      -9.208  53.967  51.876  0.00  0.00    +0.000 C 
ATOM     18  C   UNL     1      -9.290  52.427  53.761  0.00  0.00    +0.000 A 
ATOM     19  C   UNL     1      -7.296  51.524  54.823  0.00  0.00    +0.000 A 
ATOM     20  N   UNL     1      -9.890  53.298  52.864  0.00  0.00    +0.000 N 
ATOM     21  C   UNL     1     -10.078  51.649  54.618  0.00  0.00    +0.000 A 
ATOM     22  C   UNL     1      -8.091  50.746  55.659  0.00  0.00    +0.000 A 
ATOM     23  C   UNL     1      -9.480  50.808  55.557  0.00  0.00    +0.000 A 
ATOM     24  H   UNL     1      -7.536  54.626  51.043  0.00  0.00    +0.000 HD
ATOM     25  H   UNL     1     -10.861  53.446  52.939  0.00  0.00    +0.000 HD
ENDBRANCH   1  17
BRANCH   3  26
ATOM     26  O   UNL     1     -11.401  55.806  52.372  0.00  0.00    +0.000 OA
ATOM     27  H   UNL     1     -12.278  55.653  52.666  0.00  0.00    +0.000 HD
ENDBRANCH   3  26
BRANCH   5  28
ATOM     28  C   UNL     1     -10.149  54.525  46.971  0.00  0.00    +0.000 C 
BRANCH  28  29
ATOM     29  C   UNL     1      -9.006  55.335  46.342  0.00  0.00    +0.000 C 
BRANCH  29  30
ATOM     30  C   UNL     1      -7.935  54.538  45.588  0.00  0.00    +0.000 C 
ATOM     31  C   UNL     1      -6.792  54.107  46.501  0.00  0.00    +0.000 C 
ATOM     32  C   UNL     1      -8.614  53.310  44.968  0.00  0.00    +0.000 C 
ENDBRANCH  29  30
ENDBRANCH  28  29
ENDBRANCH   5  28
BRANCH  10  33
ATOM     33  O   UNL     1     -14.843  58.062  49.749  0.00  0.00    +0.000 OA
BRANCH  33  34
ATOM     34  C   UNL     1     -14.530  59.209  50.536  0.00  0.00    +0.000 C 
BRANCH  34  35
ATOM     35  C   UNL     1     -13.891  60.276  49.654  0.00  0.00    +0.000 C 
ATOM     36  O   UNL     1     -12.735  60.659  49.804  0.00  0.00    +0.000 OA
ATOM     37  N   UNL     1     -14.677  60.777  48.659  0.00  0.00    +0.000 N 
ATOM     38  H   UNL     1     -15.602  60.457  48.554  0.00  0.00    +0.000 HD
ATOM     39  H   UNL     1     -14.319  61.459  48.045  0.00  0.00    +0.000 HD
ENDBRANCH  34  35
ENDBRANCH  33  34
ENDBRANCH  10  33
TORSDOF 8
ENDMDL
MODEL 4
REMARK VINA RESULT:      -8.4      2.495      7.938
REMARK  Name = 338327
REMARK  10 active torsions:
REMARK  status: ('A' for Active; 'I' for Inactive)
REMARK    1  A    between atoms: C_6  and  C_10
REMARK    2  A    between atoms: C_14  and  O_18
REMARK    3  A    between atoms: N_17  and  C_21
REMARK    4  A    between atoms: C_21  and  C_24
REMARK    5  A    between atoms: C_24  and  C_27
REMARK    6  A    between atoms: C_25  and  O_28
REMARK    7  A    between atoms: C_27  and  C_29
REMARK    8  A    between atoms: C_27  and  C_30
REMARK    9  A    between atoms: O_28  and  C_31
REMARK   10  A    between atoms: C_31  and  C_32
REMARK                            x       y       z     vdW  Elec       q    Type
REMARK                         _______ _______ _______ _____ _____    ______ ____
ROOT
ATOM      1  C   UNL     1     -11.408  55.906  48.932  0.00  0.00    +0.000 A 
ATOM      2  C   UNL     1     -10.483  55.213  49.878  0.00  0.00    +0.000 A 
ATOM      3  C   UNL     1     -11.392  55.615  47.621  0.00  0.00    +0.000 A 
ATOM      4  O   UNL     1     -10.639  55.396  51.089  0.00  0.00    +0.000 OA
ATOM      5  N   UNL     1      -9.514  54.372  49.355  0.00  0.00    +0.000 N 
ATOM      6  C   UNL     1     -10.446  54.620  47.109  0.00  0.00    +0.000 A 
ATOM      7  C   UNL     1      -9.536  54.002  47.979  0.00  0.00    +0.000 A 
ATOM      8  C   UNL     1     -10.463  54.253  45.755  0.00  0.00    +0.000 A 
ATOM      9  C   UNL     1      -8.701  52.998  47.473  0.00  0.00    +0.000 A 
ATOM     10  C   UNL     1      -9.610  53.271  45.266  0.00  0.00    +0.000 A 
ATOM     11  C   UNL     1      -8.735  52.630  46.133  0.00  0.00    +0.000 A 
ENDROOT
BRANCH   1  17
ATOM     12  S   UNL     1     -13.509  59.172  49.443  0.00  0.00    +0.000 S 
ATOM     13  O   UNL     1     -14.628  59.262  48.518  0.00  0.00    +0.000 OA
ATOM     14  O   UNL     1     -12.722  60.346  49.751  0.00  0.00    +0.000 OA
ATOM     15  N   UNL     1     -12.509  58.025  48.889  0.00  0.00    +0.000 N 
ATOM     16  C   UNL     1     -14.181  58.622  50.968  0.00  0.00    +0.000 A 
ATOM     17  C   UNL     1     -12.423  56.876  49.490  0.00  0.00    +0.000 C 
ATOM     18  C   UNL     1     -13.899  57.327  51.374  0.00  0.00    +0.000 A 
ATOM     19  C   UNL     1     -14.966  59.484  51.736  0.00  0.00    +0.000 A 
ATOM     20  N   UNL     1     -13.151  56.469  50.582  0.00  0.00    +0.000 N 
ATOM     21  C   UNL     1     -14.463  56.867  52.569  0.00  0.00    +0.000 A 
ATOM     22  C   UNL     1     -15.509  59.017  52.928  0.00  0.00    +0.000 A 
ATOM     23  C   UNL     1     -15.259  57.710  53.345  0.00  0.00    +0.000 A 
ATOM     24  H   UNL     1     -11.961  58.199  48.090  0.00  0.00    +0.000 HD
ATOM     25  H   UNL     1     -13.140  55.512  50.815  0.00  0.00    +0.000 HD
ENDBRANCH   1  17
BRANCH   3  26
ATOM     26  O   UNL     1     -12.260  56.149  46.682  0.00  0.00    +0.000 OA
ATOM     27  H   UNL     1     -13.086  55.738  46.520  0.00  0.00    +0.000 HD
ENDBRANCH   3  26
BRANCH   5  28
ATOM     28  C   UNL     1      -8.571  53.748  50.289  0.00  0.00    +0.000 C 
BRANCH  28  29
ATOM     29  C   UNL     1      -7.178  54.392  50.346  0.00  0.00    +0.000 C 
BRANCH  29  30
ATOM     30  C   UNL     1      -6.954  55.447  51.436  0.00  0.00    +0.000 C 
ATOM     31  C   UNL     1      -7.489  56.815  51.027  0.00  0.00    +0.000 C 
ATOM     32  C   UNL     1      -7.655  54.960  52.711  0.00  0.00    +0.000 C 
ENDBRANCH  29  30
ENDBRANCH  28  29
ENDBRANCH   5  28
BRANCH  10  33
ATOM     33  O   UNL     1      -9.773  52.961  43.949  0.00  0.00    +0.000 OA
BRANCH  33  34
ATOM     34  C   UNL     1      -8.861  52.004  43.417  0.00  0.00    +0.000 C 
BRANCH  34  35
ATOM     35  C   UNL     1      -9.633  50.910  42.689  0.00  0.00    +0.000 C 
ATOM     36  O   UNL     1      -9.091  49.919  42.210  0.00  0.00    +0.000 OA
ATOM     37  N   UNL     1     -10.984  51.081  42.615  0.00  0.00    +0.000 N 
ATOM     38  H   UNL     1     -11.400  51.882  43.005  0.00  0.00    +0.000 HD
ATOM     39  H   UNL     1     -11.542  50.403  42.170  0.00  0.00    +0.000 HD
ENDBRANCH  34  35
ENDBRANCH  33  34
ENDBRANCH  10  33
TORSDOF 8
ENDMDL
MODEL 5
REMARK VINA RESULT:      -8.3      2.911      6.635
REMARK  Name = 338327
REMARK  10 active torsions:
REMARK  status: ('A' for Active; 'I' for Inactive)
REMARK    1  A    between atoms: C_6  and  C_10
REMARK    2  A    between atoms: C_14  and  O_18
REMARK    3  A    between atoms: N_17  and  C_21
REMARK    4  A    between atoms: C_21  and  C_24
REMARK    5  A    between atoms: C_24  and  C_27
REMARK    6  A    between atoms: C_25  and  O_28
REMARK    7  A    between atoms: C_27  and  C_29
REMARK    8  A    between atoms: C_27  and  C_30
REMARK    9  A    between atoms: O_28  and  C_31
REMARK   10  A    between atoms: C_31  and  C_32
REMARK                            x       y       z     vdW  Elec       q    Type
REMARK                         _______ _______ _______ _____ _____    ______ ____
ROOT
ATOM      1  C   UNL     1      -9.290  54.913  50.409  0.00  0.00    +0.000 A 
ATOM      2  C   UNL     1      -8.812  54.649  49.019  0.00  0.00    +0.000 A 
ATOM      3  C   UNL     1     -10.498  55.456  50.626  0.00  0.00    +0.000 A 
ATOM      4  O   UNL     1      -7.767  54.008  48.869  0.00  0.00    +0.000 OA
ATOM      5  N   UNL     1      -9.579  55.110  47.960  0.00  0.00    +0.000 N 
ATOM      6  C   UNL     1     -11.351  55.812  49.490  0.00  0.00    +0.000 A 
ATOM      7  C   UNL     1     -10.892  55.619  48.179  0.00  0.00    +0.000 A 
ATOM      8  C   UNL     1     -12.643  56.316  49.700  0.00  0.00    +0.000 A 
ATOM      9  C   UNL     1     -11.762  55.894  47.117  0.00  0.00    +0.000 A 
ATOM     10  C   UNL     1     -13.485  56.605  48.632  0.00  0.00    +0.000 A 
ATOM     11  C   UNL     1     -13.046  56.378  47.334  0.00  0.00    +0.000 A 
ENDROOT
BRANCH   1  17
ATOM     12  S   UNL     1      -6.206  54.569  52.798  0.00  0.00    +0.000 S 
ATOM     13  O   UNL     1      -6.125  55.657  53.760  0.00  0.00    +0.000 OA
ATOM     14  O   UNL     1      -5.008  54.071  52.158  0.00  0.00    +0.000 OA
ATOM     15  N   UNL     1      -7.247  55.015  51.642  0.00  0.00    +0.000 N 
ATOM     16  C   UNL     1      -6.897  53.206  53.662  0.00  0.00    +0.000 A 
ATOM     17  C   UNL     1      -8.426  54.474  51.568  0.00  0.00    +0.000 C 
ATOM     18  C   UNL     1      -8.196  52.833  53.353  0.00  0.00    +0.000 A 
ATOM     19  C   UNL     1      -6.141  52.530  54.619  0.00  0.00    +0.000 A 
ATOM     20  N   UNL     1      -8.950  53.540  52.428  0.00  0.00    +0.000 N 
ATOM     21  C   UNL     1      -8.771  51.773  54.064  0.00  0.00    +0.000 A 
ATOM     22  C   UNL     1      -6.720  51.469  55.308  0.00  0.00    +0.000 A 
ATOM     23  C   UNL     1      -8.033  51.091  55.033  0.00  0.00    +0.000 A 
ATOM     24  H   UNL     1      -6.985  55.704  50.988  0.00  0.00    +0.000 HD
ATOM     25  H   UNL     1      -9.918  53.361  52.384  0.00  0.00    +0.000 HD
ENDBRANCH   1  17
BRANCH   3  26
ATOM     26  O   UNL     1     -11.056  55.667  51.878  0.00  0.00    +0.000 OA
ATOM     27  H   UNL     1     -11.390  54.943  52.371  0.00  0.00    +0.000 HD
ENDBRANCH   3  26
BRANCH   5  28
ATOM     28  C   UNL     1      -9.067  54.901  46.601  0.00  0.00    +0.000 C 
BRANCH  28  29
ATOM     29  C   UNL     1      -9.341  53.514  46.002  0.00  0.00    +0.000 C 
BRANCH  29  30
ATOM     30  C   UNL     1     -10.280  53.464  44.791  0.00  0.00    +0.000 C 
ATOM     31  C   UNL     1      -9.657  52.721  43.614  0.00  0.00    +0.000 C 
ATOM     32  C   UNL     1     -11.577  52.774  45.230  0.00  0.00    +0.000 C 
ENDBRANCH  29  30
ENDBRANCH  28  29
ENDBRANCH   5  28
BRANCH  10  33
ATOM     33  O   UNL     1     -14.736  57.024  48.973  0.00  0.00    +0.000 OA
BRANCH  33  34
ATOM     34  C   UNL     1     -14.867  57.596  50.272  0.00  0.00    +0.000 C 
BRANCH  34  35
ATOM     35  C   UNL     1     -15.857  56.779  51.094  0.00  0.00    +0.000 C 
ATOM     36  O   UNL     1     -15.911  56.835  52.319  0.00  0.00    +0.000 OA
ATOM     37  N   UNL     1     -16.708  55.984  50.386  0.00  0.00    +0.000 N 
ATOM     38  H   UNL     1     -16.650  55.953  49.404  0.00  0.00    +0.000 HD
ATOM     39  H   UNL     1     -17.382  55.442  50.857  0.00  0.00    +0.000 HD
ENDBRANCH  34  35
ENDBRANCH  33  34
ENDBRANCH  10  33
TORSDOF 8
ENDMDL
MODEL 6
REMARK VINA RESULT:      -8.2      3.043      7.695
REMARK  Name = 338327
REMARK  10 active torsions:
REMARK  status: ('A' for Active; 'I' for Inactive)
REMARK    1  A    between atoms: C_6  and  C_10
REMARK    2  A    between atoms: C_14  and  O_18
REMARK    3  A    between atoms: N_17  and  C_21
REMARK    4  A    between atoms: C_21  and  C_24
REMARK    5  A    between atoms: C_24  and  C_27
REMARK    6  A    between atoms: C_25  and  O_28
REMARK    7  A    between atoms: C_27  and  C_29
REMARK    8  A    between atoms: C_27  and  C_30
REMARK    9  A    between atoms: O_28  and  C_31
REMARK   10  A    between atoms: C_31  and  C_32
REMARK                            x       y       z     vdW  Elec       q    Type
REMARK                         _______ _______ _______ _____ _____    ______ ____
ROOT
ATOM      1  C   UNL     1      -9.740  54.046  50.936  0.00  0.00    +0.000 A 
ATOM      2  C   UNL     1     -10.821  55.048  51.175  0.00  0.00    +0.000 A 
ATOM      3  C   UNL     1      -9.472  53.609  49.696  0.00  0.00    +0.000 A 
ATOM      4  O   UNL     1     -10.929  55.538  52.303  0.00  0.00    +0.000 OA
ATOM      5  N   UNL     1     -11.635  55.405  50.111  0.00  0.00    +0.000 N 
ATOM      6  C   UNL     1     -10.260  54.105  48.564  0.00  0.00    +0.000 A 
ATOM      7  C   UNL     1     -11.314  55.004  48.782  0.00  0.00    +0.000 A 
ATOM      8  C   UNL     1      -9.949  53.712  47.254  0.00  0.00    +0.000 A 
ATOM      9  C   UNL     1     -11.994  55.520  47.672  0.00  0.00    +0.000 A 
ATOM     10  C   UNL     1     -10.652  54.217  46.166  0.00  0.00    +0.000 A 
ATOM     11  C   UNL     1     -11.670  55.137  46.377  0.00  0.00    +0.000 A 
ENDROOT
BRANCH   1  17
ATOM     12  S   UNL     1      -6.653  53.587  53.303  0.00  0.00    +0.000 S 
ATOM     13  O   UNL     1      -6.473  54.713  54.205  0.00  0.00    +0.000 OA
ATOM     14  O   UNL     1      -5.506  52.967  52.675  0.00  0.00    +0.000 OA
ATOM     15  N   UNL     1      -7.675  54.054  52.137  0.00  0.00    +0.000 N 
ATOM     16  C   UNL     1      -7.433  52.327  54.244  0.00  0.00    +0.000 A 
ATOM     17  C   UNL     1      -8.893  53.602  52.105  0.00  0.00    +0.000 C 
ATOM     18  C   UNL     1      -8.761  52.041  53.971  0.00  0.00    +0.000 A 
ATOM     19  C   UNL     1      -6.714  51.644  55.225  0.00  0.00    +0.000 A 
ATOM     20  N   UNL     1      -9.473  52.755  53.019  0.00  0.00    +0.000 N 
ATOM     21  C   UNL     1      -9.403  51.065  54.743  0.00  0.00    +0.000 A 
ATOM     22  C   UNL     1      -7.362  50.668  55.976  0.00  0.00    +0.000 A 
ATOM     23  C   UNL     1      -8.704  50.379  55.736  0.00  0.00    +0.000 A 
ATOM     24  H   UNL     1      -7.372  54.686  51.446  0.00  0.00    +0.000 HD
ATOM     25  H   UNL     1     -10.453  52.650  52.997  0.00  0.00    +0.000 HD
ENDBRANCH   1  17
BRANCH   3  26
ATOM     26  O   UNL     1      -8.443  52.741  49.368  0.00  0.00    +0.000 OA
ATOM     27  H   UNL     1      -8.622  51.830  49.236  0.00  0.00    +0.000 HD
ENDBRANCH   3  26
BRANCH   5  28
ATOM     28  C   UNL     1     -12.734  56.341  50.372  0.00  0.00    +0.000 C 
BRANCH  28  29
ATOM     29  C   UNL     1     -13.920  55.758  51.155  0.00  0.00    +0.000 C 
BRANCH  29  30
ATOM     30  C   UNL     1     -14.779  56.756  51.941  0.00  0.00    +0.000 C 
ATOM     31  C   UNL     1     -13.958  57.538  52.961  0.00  0.00    +0.000 C 
ATOM     32  C   UNL     1     -15.429  57.713  50.934  0.00  0.00    +0.000 C 
ENDBRANCH  29  30
ENDBRANCH  28  29
ENDBRANCH   5  28
BRANCH  10  33
ATOM     33  O   UNL     1     -10.207  53.807  44.945  0.00  0.00    +0.000 OA
BRANCH  33  34
ATOM     34  C   UNL     1     -10.969  52.778  44.319  0.00  0.00    +0.000 C 
BRANCH  34  35
ATOM     35  C   UNL     1     -10.213  52.246  43.107  0.00  0.00    +0.000 C 
ATOM     36  O   UNL     1      -9.207  52.788  42.659  0.00  0.00    +0.000 OA
ATOM     37  N   UNL     1     -10.708  51.105  42.548  0.00  0.00    +0.000 N 
ATOM     38  H   UNL     1     -11.515  50.685  42.921  0.00  0.00    +0.000 HD
ATOM     39  H   UNL     1     -10.257  50.702  41.771  0.00  0.00    +0.000 HD
ENDBRANCH  34  35
ENDBRANCH  33  34
ENDBRANCH  10  33
TORSDOF 8
ENDMDL
MODEL 7
REMARK VINA RESULT:      -7.9      2.579      7.886
REMARK  Name = 338327
REMARK  10 active torsions:
REMARK  status: ('A' for Active; 'I' for Inactive)
REMARK    1  A    between atoms: C_6  and  C_10
REMARK    2  A    between atoms: C_14  and  O_18
REMARK    3  A    between atoms: N_17  and  C_21
REMARK    4  A    between atoms: C_21  and  C_24
REMARK    5  A    between atoms: C_24  and  C_27
REMARK    6  A    between atoms: C_25  and  O_28
REMARK    7  A    between atoms: C_27  and  C_29
REMARK    8  A    between atoms: C_27  and  C_30
REMARK    9  A    between atoms: O_28  and  C_31
REMARK   10  A    between atoms: C_31  and  C_32
REMARK                            x       y       z     vdW  Elec       q    Type
REMARK                         _______ _______ _______ _____ _____    ______ ____
ROOT
ATOM      1  C   UNL     1     -11.303  55.114  48.898  0.00  0.00    +0.000 A 
ATOM      2  C   UNL     1     -10.444  54.260  49.771  0.00  0.00    +0.000 A 
ATOM      3  C   UNL     1     -11.200  55.049  47.562  0.00  0.00    +0.000 A 
ATOM      4  O   UNL     1     -10.680  54.236  50.983  0.00  0.00    +0.000 OA
ATOM      5  N   UNL     1      -9.443  53.507  49.177  0.00  0.00    +0.000 N 
ATOM      6  C   UNL     1     -10.223  54.143  46.950  0.00  0.00    +0.000 A 
ATOM      7  C   UNL     1      -9.374  53.375  47.760  0.00  0.00    +0.000 A 
ATOM      8  C   UNL     1     -10.150  54.011  45.556  0.00  0.00    +0.000 A 
ATOM      9  C   UNL     1      -8.509  52.461  47.147  0.00  0.00    +0.000 A 
ATOM     10  C   UNL     1      -9.268  53.115  44.964  0.00  0.00    +0.000 A 
ATOM     11  C   UNL     1      -8.454  52.326  45.765  0.00  0.00    +0.000 A 
ENDROOT
BRANCH   1  17
ATOM     12  S   UNL     1     -14.521  56.200  50.849  0.00  0.00    +0.000 S 
ATOM     13  O   UNL     1     -14.334  56.165  52.291  0.00  0.00    +0.000 OA
ATOM     14  O   UNL     1     -15.759  55.734  50.264  0.00  0.00    +0.000 OA
ATOM     15  N   UNL     1     -13.303  55.371  50.179  0.00  0.00    +0.000 N 
ATOM     16  C   UNL     1     -14.363  57.883  50.377  0.00  0.00    +0.000 A 
ATOM     17  C   UNL     1     -12.351  55.988  49.545  0.00  0.00    +0.000 C 
ATOM     18  C   UNL     1     -13.226  58.258  49.678  0.00  0.00    +0.000 A 
ATOM     19  C   UNL     1     -15.368  58.795  50.699  0.00  0.00    +0.000 A 
ATOM     20  N   UNL     1     -12.217  57.348  49.399  0.00  0.00    +0.000 N 
ATOM     21  C   UNL     1     -13.073  59.605  49.332  0.00  0.00    +0.000 A 
ATOM     22  C   UNL     1     -15.208  60.129  50.337  0.00  0.00    +0.000 A 
ATOM     23  C   UNL     1     -14.062  60.534  49.655  0.00  0.00    +0.000 A 
ATOM     24  H   UNL     1     -13.282  54.389  50.251  0.00  0.00    +0.000 HD
ATOM     25  H   UNL     1     -11.354  57.697  49.077  0.00  0.00    +0.000 HD
ENDBRANCH   1  17
BRANCH   3  26
ATOM     26  O   UNL     1     -12.002  55.746  46.672  0.00  0.00    +0.000 OA
ATOM     27  H   UNL     1     -12.114  56.672  46.767  0.00  0.00    +0.000 HD
ENDBRANCH   3  26
BRANCH   5  28
ATOM     28  C   UNL     1      -8.566  52.722  50.052  0.00  0.00    +0.000 C 
BRANCH  28  29
ATOM     29  C   UNL     1      -7.288  53.437  50.514  0.00  0.00    +0.000 C 
BRANCH  29  30
ATOM     30  C   UNL     1      -7.267  54.963  50.374  0.00  0.00    +0.000 C 
ATOM     31  C   UNL     1      -7.216  55.662  51.728  0.00  0.00    +0.000 C 
ATOM     32  C   UNL     1      -6.042  55.341  49.532  0.00  0.00    +0.000 C 
ENDBRANCH  29  30
ENDBRANCH  28  29
ENDBRANCH   5  28
BRANCH  10  33
ATOM     33  O   UNL     1      -9.344  53.035  43.605  0.00  0.00    +0.000 OA
BRANCH  33  34
ATOM     34  C   UNL     1      -8.572  52.002  42.999  0.00  0.00    +0.000 C 
BRANCH  34  35
ATOM     35  C   UNL     1      -9.496  50.891  42.514  0.00  0.00    +0.000 C 
ATOM     36  O   UNL     1      -9.083  49.795  42.145  0.00  0.00    +0.000 OA
ATOM     37  N   UNL     1     -10.830  51.174  42.529  0.00  0.00    +0.000 N 
ATOM     38  H   UNL     1     -11.142  52.058  42.828  0.00  0.00    +0.000 HD
ATOM     39  H   UNL     1     -11.480  50.493  42.241  0.00  0.00    +0.000 HD
ENDBRANCH  34  35
ENDBRANCH  33  34
ENDBRANCH  10  33
TORSDOF 8
ENDMDL
MODEL 8
REMARK VINA RESULT:      -7.7      2.738      7.635
REMARK  Name = 338327
REMARK  10 active torsions:
REMARK  status: ('A' for Active; 'I' for Inactive)
REMARK    1  A    between atoms: C_6  and  C_10
REMARK    2  A    between atoms: C_14  and  O_18
REMARK    3  A    between atoms: N_17  and  C_21
REMARK    4  A    between atoms: C_21  and  C_24
REMARK    5  A    between atoms: C_24  and  C_27
REMARK    6  A    between atoms: C_25  and  O_28
REMARK    7  A    between atoms: C_27  and  C_29
REMARK    8  A    between atoms: C_27  and  C_30
REMARK    9  A    between atoms: O_28  and  C_31
REMARK   10  A    between atoms: C_31  and  C_32
REMARK                            x       y       z     vdW  Elec       q    Type
REMARK                         _______ _______ _______ _____ _____    ______ ____
ROOT
ATOM      1  C   UNL     1     -11.509  54.981  50.113  0.00  0.00    +0.000 A 
ATOM      2  C   UNL     1     -10.525  54.392  51.070  0.00  0.00    +0.000 A 
ATOM      3  C   UNL     1     -11.639  54.484  48.873  0.00  0.00    +0.000 A 
ATOM      4  O   UNL     1     -10.548  54.774  52.244  0.00  0.00    +0.000 OA
ATOM      5  N   UNL     1      -9.653  53.421  50.605  0.00  0.00    +0.000 N 
ATOM      6  C   UNL     1     -10.796  53.365  48.445  0.00  0.00    +0.000 A 
ATOM      7  C   UNL     1      -9.831  52.838  49.317  0.00  0.00    +0.000 A 
ATOM      8  C   UNL     1     -10.967  52.789  47.178  0.00  0.00    +0.000 A 
ATOM      9  C   UNL     1      -9.098  51.718  48.906  0.00  0.00    +0.000 A 
ATOM     10  C   UNL     1     -10.213  51.691  46.779  0.00  0.00    +0.000 A 
ATOM     11  C   UNL     1      -9.285  51.145  47.655  0.00  0.00    +0.000 A 
ENDROOT
BRANCH   1  17
ATOM     12  S   UNL     1     -14.154  56.925  52.250  0.00  0.00    +0.000 S 
ATOM     13  O   UNL     1     -13.575  57.517  53.445  0.00  0.00    +0.000 OA
ATOM     14  O   UNL     1     -15.455  56.295  52.306  0.00  0.00    +0.000 OA
ATOM     15  N   UNL     1     -13.094  55.843  51.678  0.00  0.00    +0.000 N 
ATOM     16  C   UNL     1     -14.294  58.225  51.079  0.00  0.00    +0.000 A 
ATOM     17  C   UNL     1     -12.417  56.087  50.596  0.00  0.00    +0.000 C 
ATOM     18  C   UNL     1     -13.434  58.216  49.992  0.00  0.00    +0.000 A 
ATOM     19  C   UNL     1     -15.254  59.222  51.256  0.00  0.00    +0.000 A 
ATOM     20  N   UNL     1     -12.459  57.240  49.851  0.00  0.00    +0.000 N 
ATOM     21  C   UNL     1     -13.511  59.270  49.074  0.00  0.00    +0.000 A 
ATOM     22  C   UNL     1     -15.327  60.257  50.329  0.00  0.00    +0.000 A 
ATOM     23  C   UNL     1     -14.458  60.282  49.240  0.00  0.00    +0.000 A 
ATOM     24  H   UNL     1     -12.961  54.991  52.155  0.00  0.00    +0.000 HD
ATOM     25  H   UNL     1     -11.755  57.382  49.176  0.00  0.00    +0.000 HD
ENDBRANCH   1  17
BRANCH   3  26
ATOM     26  O   UNL     1     -12.573  54.914  47.944  0.00  0.00    +0.000 OA
ATOM     27  H   UNL     1     -13.447  54.576  47.966  0.00  0.00    +0.000 HD
ENDBRANCH   3  26
BRANCH   5  28
ATOM     28  C   UNL     1      -8.649  52.897  51.537  0.00  0.00    +0.000 C 
BRANCH  28  29
ATOM     29  C   UNL     1      -7.255  53.531  51.426  0.00  0.00    +0.000 C 
BRANCH  29  30
ATOM     30  C   UNL     1      -6.860  54.517  52.532  0.00  0.00    +0.000 C 
ATOM     31  C   UNL     1      -7.316  55.938  52.223  0.00  0.00    +0.000 C 
ATOM     32  C   UNL     1      -7.489  54.028  53.843  0.00  0.00    +0.000 C 
ENDBRANCH  29  30
ENDBRANCH  28  29
ENDBRANCH   5  28
BRANCH  10  33
ATOM     33  O   UNL     1     -10.523  51.187  45.552  0.00  0.00    +0.000 OA
BRANCH  33  34
ATOM     34  C   UNL     1      -9.490  51.256  44.572  0.00  0.00    +0.000 C 
BRANCH  34  35
ATOM     35  C   UNL     1     -10.052  51.829  43.276  0.00  0.00    +0.000 C 
ATOM     36  O   UNL     1      -9.678  52.898  42.803  0.00  0.00    +0.000 OA
ATOM     37  N   UNL     1     -10.993  51.069  42.646  0.00  0.00    +0.000 N 
ATOM     38  H   UNL     1     -11.280  50.215  43.040  0.00  0.00    +0.000 HD
ATOM     39  H   UNL     1     -11.385  51.377  41.796  0.00  0.00    +0.000 HD
ENDBRANCH  34  35
ENDBRANCH  33  34
ENDBRANCH  10  33
TORSDOF 8
ENDMDL
MODEL 9
REMARK VINA RESULT:      -7.6      2.909      7.910
REMARK  Name = 338327
REMARK  10 active torsions:
REMARK  status: ('A' for Active; 'I' for Inactive)
REMARK    1  A    between atoms: C_6  and  C_10
REMARK    2  A    between atoms: C_14  and  O_18
REMARK    3  A    between atoms: N_17  and  C_21
REMARK    4  A    between atoms: C_21  and  C_24
REMARK    5  A    between atoms: C_24  and  C_27
REMARK    6  A    between atoms: C_25  and  O_28
REMARK    7  A    between atoms: C_27  and  C_29
REMARK    8  A    between atoms: C_27  and  C_30
REMARK    9  A    between atoms: O_28  and  C_31
REMARK   10  A    between atoms: C_31  and  C_32
REMARK                            x       y       z     vdW  Elec       q    Type
REMARK                         _______ _______ _______ _____ _____    ______ ____
ROOT
ATOM      1  C   UNL     1      -9.399  54.236  49.706  0.00  0.00    +0.000 A 
ATOM      2  C   UNL     1     -10.405  55.340  49.677  0.00  0.00    +0.000 A 
ATOM      3  C   UNL     1      -9.241  53.426  48.648  0.00  0.00    +0.000 A 
ATOM      4  O   UNL     1     -10.409  56.154  50.605  0.00  0.00    +0.000 OA
ATOM      5  N   UNL     1     -11.266  55.418  48.594  0.00  0.00    +0.000 N 
ATOM      6  C   UNL     1     -10.074  53.613  47.457  0.00  0.00    +0.000 A 
ATOM      7  C   UNL     1     -11.058  54.612  47.438  0.00  0.00    +0.000 A 
ATOM      8  C   UNL     1      -9.874  52.821  46.316  0.00  0.00    +0.000 A 
ATOM      9  C   UNL     1     -11.781  54.818  46.257  0.00  0.00    +0.000 A 
ATOM     10  C   UNL     1     -10.618  53.025  45.160  0.00  0.00    +0.000 A 
ATOM     11  C   UNL     1     -11.566  54.038  45.127  0.00  0.00    +0.000 A 
ENDROOT
BRANCH   1  17
ATOM     12  S   UNL     1      -8.222  54.102  53.439  0.00  0.00    +0.000 S 
ATOM     13  O   UNL     1      -8.440  52.797  54.043  0.00  0.00    +0.000 OA
ATOM     14  O   UNL     1      -8.490  55.307  54.193  0.00  0.00    +0.000 OA
ATOM     15  N   UNL     1      -9.089  54.158  52.073  0.00  0.00    +0.000 N 
ATOM     16  C   UNL     1      -6.521  54.163  53.012  0.00  0.00    +0.000 A 
ATOM     17  C   UNL     1      -8.503  54.104  50.914  0.00  0.00    +0.000 C 
ATOM     18  C   UNL     1      -6.186  54.104  51.668  0.00  0.00    +0.000 A 
ATOM     19  C   UNL     1      -5.554  54.276  54.011  0.00  0.00    +0.000 A 
ATOM     20  N   UNL     1      -7.156  53.952  50.688  0.00  0.00    +0.000 N 
ATOM     21  C   UNL     1      -4.831  54.113  51.319  0.00  0.00    +0.000 A 
ATOM     22  C   UNL     1      -4.211  54.296  53.649  0.00  0.00    +0.000 A 
ATOM     23  C   UNL     1      -3.849  54.214  52.305  0.00  0.00    +0.000 A 
ATOM     24  H   UNL     1     -10.069  54.235  52.120  0.00  0.00    +0.000 HD
ATOM     25  H   UNL     1      -6.863  53.722  49.776  0.00  0.00    +0.000 HD
ENDBRANCH   1  17
BRANCH   3  26
ATOM     26  O   UNL     1      -8.286  52.426  48.554  0.00  0.00    +0.000 OA
ATOM     27  H   UNL     1      -7.374  52.645  48.563  0.00  0.00    +0.000 HD
ENDBRANCH   3  26
BRANCH   5  28
ATOM     28  C   UNL     1     -12.291  56.468  48.608  0.00  0.00    +0.000 C 
BRANCH  28  29
ATOM     29  C   UNL     1     -13.612  56.087  49.291  0.00  0.00    +0.000 C 
BRANCH  29  30
ATOM     30  C   UNL     1     -14.158  57.076  50.328  0.00  0.00    +0.000 C 
ATOM     31  C   UNL     1     -13.748  56.702  51.748  0.00  0.00    +0.000 C 
ATOM     32  C   UNL     1     -13.628  58.471  49.970  0.00  0.00    +0.000 C 
ENDBRANCH  29  30
ENDBRANCH  28  29
ENDBRANCH   5  28
BRANCH  10  33
ATOM     33  O   UNL     1     -10.280  52.234  44.104  0.00  0.00    +0.000 OA
BRANCH  33  34
ATOM     34  C   UNL     1      -8.924  52.317  43.673  0.00  0.00    +0.000 C 
BRANCH  34  35
ATOM     35  C   UNL     1      -8.657  51.256  42.611  0.00  0.00    +0.000 C 
ATOM     36  O   UNL     1      -7.539  51.035  42.157  0.00  0.00    +0.000 OA
ATOM     37  N   UNL     1      -9.741  50.538  42.200  0.00  0.00    +0.000 N 
ATOM     38  H   UNL     1     -10.630  50.730  42.576  0.00  0.00    +0.000 HD
ATOM     39  H   UNL     1      -9.634  49.828  41.526  0.00  0.00    +0.000 HD
ENDBRANCH  34  35
ENDBRANCH  33  34
ENDBRANCH  10  33
TORSDOF 8
ENDMDL
