MODEL 1
REMARK VINA RESULT:      -8.4      0.000      0.000
REMARK  Name = 338091
REMARK  6 active torsions:
REMARK  status: ('A' for Active; 'I' for Inactive)
REMARK    1  A    between atoms: C_6  and  C_10
REMARK    2  A    between atoms: C_14  and  O_18
REMARK    3  A    between atoms: N_17  and  C_21
REMARK    4  A    between atoms: C_21  and  C_24
REMARK    5  A    between atoms: C_24  and  C_27
REMARK    6  A    between atoms: C_24  and  C_28
REMARK                            x       y       z     vdW  Elec       q    Type
REMARK                         _______ _______ _______ _____ _____    ______ ____
ROOT
ATOM      1  C   UNL     1     -10.021  54.352  52.284  0.00  0.00    +0.000 A 
ATOM      2  C   UNL     1      -8.607  54.809  52.088  0.00  0.00    +0.000 A 
ATOM      3  C   UNL     1     -10.261  53.282  53.066  0.00  0.00    +0.000 A 
ATOM      4  O   UNL     1      -8.386  55.718  51.280  0.00  0.00    +0.000 OA
ATOM      5  N   UNL     1      -7.599  54.222  52.844  0.00  0.00    +0.000 N 
ATOM      6  C   UNL     1      -9.168  52.594  53.767  0.00  0.00    +0.000 A 
ATOM      7  C   UNL     1      -7.856  53.092  53.680  0.00  0.00    +0.000 A 
ATOM      8  C   UNL     1      -9.434  51.468  54.567  0.00  0.00    +0.000 A 
ATOM      9  C   UNL     1      -6.845  52.454  54.417  0.00  0.00    +0.000 A 
ATOM     10  C   UNL     1      -8.420  50.843  55.288  0.00  0.00    +0.000 A 
ATOM     11  C   UNL     1      -7.126  51.340  55.216  0.00  0.00    +0.000 A 
ENDROOT
BRANCH   1  17
ATOM     12  S   UNL     1     -12.392  55.836  49.496  0.00  0.00    +0.000 S 
ATOM     13  O   UNL     1     -13.251  54.804  48.950  0.00  0.00    +0.000 OA
ATOM     14  O   UNL     1     -11.779  56.820  48.623  0.00  0.00    +0.000 OA
ATOM     15  N   UNL     1     -11.203  55.109  50.321  0.00  0.00    +0.000 N 
ATOM     16  C   UNL     1     -13.377  56.741  50.629  0.00  0.00    +0.000 A 
ATOM     17  C   UNL     1     -11.160  55.131  51.623  0.00  0.00    +0.000 C 
ATOM     18  C   UNL     1     -13.103  56.599  51.979  0.00  0.00    +0.000 A 
ATOM     19  C   UNL     1     -14.402  57.563  50.154  0.00  0.00    +0.000 A 
ATOM     20  N   UNL     1     -12.068  55.786  52.426  0.00  0.00    +0.000 N 
ATOM     21  C   UNL     1     -13.915  57.288  52.887  0.00  0.00    +0.000 A 
ATOM     22  C   UNL     1     -15.190  58.257  51.068  0.00  0.00    +0.000 A 
ATOM     23  C   UNL     1     -14.950  58.115  52.434  0.00  0.00    +0.000 A 
ATOM     24  H   UNL     1     -10.495  54.638  49.825  0.00  0.00    +0.000 HD
ATOM     25  H   UNL     1     -11.977  55.667  53.399  0.00  0.00    +0.000 HD
ENDBRANCH   1  17
BRANCH   3  26
ATOM     26  O   UNL     1     -11.517  52.759  53.320  0.00  0.00    +0.000 OA
ATOM     27  H   UNL     1     -11.612  51.852  53.537  0.00  0.00    +0.000 HD
ENDBRANCH   3  26
BRANCH   5  28
ATOM     28  C   UNL     1      -6.263  54.830  52.781  0.00  0.00    +0.000 C 
BRANCH  28  29
ATOM     29  C   UNL     1      -5.242  54.074  51.906  0.00  0.00    +0.000 C 
ATOM     30  C   UNL     1      -5.197  54.587  50.466  0.00  0.00    +0.000 C 
ATOM     31  C   UNL     1      -3.847  54.199  52.529  0.00  0.00    +0.000 C 
ENDBRANCH  28  29
ENDBRANCH   5  28
TORSDOF 4
ENDMDL
MODEL 2
REMARK VINA RESULT:      -8.2      2.996      7.262
REMARK  Name = 338091
REMARK  6 active torsions:
REMARK  status: ('A' for Active; 'I' for Inactive)
REMARK    1  A    between atoms: C_6  and  C_10
REMARK    2  A    between atoms: C_14  and  O_18
REMARK    3  A    between atoms: N_17  and  C_21
REMARK    4  A    between atoms: C_21  and  C_24
REMARK    5  A    between atoms: C_24  and  C_27
REMARK    6  A    between atoms: C_24  and  C_28
REMARK                            x       y       z     vdW  Elec       q    Type
REMARK                         _______ _______ _______ _____ _____    ______ ____
ROOT
ATOM      1  C   UNL     1     -10.174  55.222  50.744  0.00  0.00    +0.000 A 
ATOM      2  C   UNL     1      -9.748  55.322  49.310  0.00  0.00    +0.000 A 
ATOM      3  C   UNL     1     -11.412  55.626  51.088  0.00  0.00    +0.000 A 
ATOM      4  O   UNL     1      -8.575  55.058  49.023  0.00  0.00    +0.000 OA
ATOM      5  N   UNL     1     -10.690  55.673  48.350  0.00  0.00    +0.000 N 
ATOM      6  C   UNL     1     -12.361  56.110  50.077  0.00  0.00    +0.000 A 
ATOM      7  C   UNL     1     -12.006  56.093  48.717  0.00  0.00    +0.000 A 
ATOM      8  C   UNL     1     -13.645  56.544  50.456  0.00  0.00    +0.000 A 
ATOM      9  C   UNL     1     -12.960  56.497  47.768  0.00  0.00    +0.000 A 
ATOM     10  C   UNL     1     -14.577  56.946  49.504  0.00  0.00    +0.000 A 
ATOM     11  C   UNL     1     -14.235  56.918  48.159  0.00  0.00    +0.000 A 
ENDROOT
BRANCH   1  17
ATOM     12  S   UNL     1      -6.982  54.759  53.022  0.00  0.00    +0.000 S 
ATOM     13  O   UNL     1      -6.967  55.739  54.090  0.00  0.00    +0.000 OA
ATOM     14  O   UNL     1      -5.760  54.425  52.314  0.00  0.00    +0.000 OA
ATOM     15  N   UNL     1      -8.068  55.240  51.921  0.00  0.00    +0.000 N 
ATOM     16  C   UNL     1      -7.549  53.265  53.742  0.00  0.00    +0.000 A 
ATOM     17  C   UNL     1      -9.210  54.631  51.774  0.00  0.00    +0.000 C 
ATOM     18  C   UNL     1      -8.814  52.821  53.394  0.00  0.00    +0.000 A 
ATOM     19  C   UNL     1      -6.731  52.573  54.638  0.00  0.00    +0.000 A 
ATOM     20  N   UNL     1      -9.603  53.520  52.488  0.00  0.00    +0.000 N 
ATOM     21  C   UNL     1      -9.285  51.649  53.998  0.00  0.00    +0.000 A 
ATOM     22  C   UNL     1      -7.205  51.399  55.218  0.00  0.00    +0.000 A 
ATOM     23  C   UNL     1      -8.484  50.942  54.902  0.00  0.00    +0.000 A 
ATOM     24  H   UNL     1      -7.859  56.012  51.348  0.00  0.00    +0.000 HD
ATOM     25  H   UNL     1     -10.520  53.193  52.344  0.00  0.00    +0.000 HD
ENDBRANCH   1  17
BRANCH   3  26
ATOM     26  O   UNL     1     -11.922  55.591  52.375  0.00  0.00    +0.000 OA
ATOM     27  H   UNL     1     -12.632  56.155  52.613  0.00  0.00    +0.000 HD
ENDBRANCH   3  26
BRANCH   5  28
ATOM     28  C   UNL     1     -10.295  55.561  46.941  0.00  0.00    +0.000 C 
BRANCH  28  29
ATOM     29  C   UNL     1     -10.420  54.148  46.337  0.00  0.00    +0.000 C 
ATOM     30  C   UNL     1     -11.616  54.006  45.395  0.00  0.00    +0.000 C 
ATOM     31  C   UNL     1      -9.134  53.803  45.576  0.00  0.00    +0.000 C 
ENDBRANCH  28  29
ENDBRANCH   5  28
TORSDOF 4
ENDMDL
MODEL 3
REMARK VINA RESULT:      -8.0      2.551      7.813
REMARK  Name = 338091
REMARK  6 active torsions:
REMARK  status: ('A' for Active; 'I' for Inactive)
REMARK    1  A    between atoms: C_6  and  C_10
REMARK    2  A    between atoms: C_14  and  O_18
REMARK    3  A    between atoms: N_17  and  C_21
REMARK    4  A    between atoms: C_21  and  C_24
REMARK    5  A    between atoms: C_24  and  C_27
REMARK    6  A    between atoms: C_24  and  C_28
REMARK                            x       y       z     vdW  Elec       q    Type
REMARK                         _______ _______ _______ _____ _____    ______ ____
ROOT
ATOM      1  C   UNL     1     -10.332  54.979  50.845  0.00  0.00    +0.000 A 
ATOM      2  C   UNL     1     -11.548  55.691  51.356  0.00  0.00    +0.000 A 
ATOM      3  C   UNL     1     -10.185  54.806  49.517  0.00  0.00    +0.000 A 
ATOM      4  O   UNL     1     -11.730  55.744  52.577  0.00  0.00    +0.000 OA
ATOM      5  N   UNL     1     -12.408  56.293  50.446  0.00  0.00    +0.000 N 
ATOM      6  C   UNL     1     -11.167  55.346  48.568  0.00  0.00    +0.000 A 
ATOM      7  C   UNL     1     -12.246  56.116  49.037  0.00  0.00    +0.000 A 
ATOM      8  C   UNL     1     -11.008  55.142  47.185  0.00  0.00    +0.000 A 
ATOM      9  C   UNL     1     -13.129  56.677  48.101  0.00  0.00    +0.000 A 
ATOM     10  C   UNL     1     -11.894  55.701  46.269  0.00  0.00    +0.000 A 
ATOM     11  C   UNL     1     -12.953  56.472  46.728  0.00  0.00    +0.000 A 
ENDROOT
BRANCH   1  17
ATOM     12  S   UNL     1      -6.986  54.833  52.937  0.00  0.00    +0.000 S 
ATOM     13  O   UNL     1      -6.977  55.856  53.964  0.00  0.00    +0.000 OA
ATOM     14  O   UNL     1      -5.788  54.553  52.168  0.00  0.00    +0.000 OA
ATOM     15  N   UNL     1      -8.166  55.191  51.889  0.00  0.00    +0.000 N 
ATOM     16  C   UNL     1      -7.402  53.335  53.747  0.00  0.00    +0.000 A 
ATOM     17  C   UNL     1      -9.269  54.500  51.836  0.00  0.00    +0.000 C 
ATOM     18  C   UNL     1      -8.651  52.791  53.496  0.00  0.00    +0.000 A 
ATOM     19  C   UNL     1      -6.486  52.739  54.617  0.00  0.00    +0.000 A 
ATOM     20  N   UNL     1      -9.540  53.396  52.614  0.00  0.00    +0.000 N 
ATOM     21  C   UNL     1      -9.001  51.617  54.172  0.00  0.00    +0.000 A 
ATOM     22  C   UNL     1      -6.841  51.561  55.269  0.00  0.00    +0.000 A 
ATOM     23  C   UNL     1      -8.100  51.005  55.051  0.00  0.00    +0.000 A 
ATOM     24  H   UNL     1      -8.046  55.951  51.274  0.00  0.00    +0.000 HD
ATOM     25  H   UNL     1     -10.439  53.001  52.540  0.00  0.00    +0.000 HD
ENDBRANCH   1  17
BRANCH   3  26
ATOM     26  O   UNL     1      -9.114  54.162  48.921  0.00  0.00    +0.000 OA
ATOM     27  H   UNL     1      -8.595  53.558  49.416  0.00  0.00    +0.000 HD
ENDBRANCH   3  26
BRANCH   5  28
ATOM     28  C   UNL     1     -13.470  57.153  50.985  0.00  0.00    +0.000 C 
BRANCH  28  29
ATOM     29  C   UNL     1     -14.701  56.404  51.535  0.00  0.00    +0.000 C 
ATOM     30  C   UNL     1     -15.418  57.171  52.646  0.00  0.00    +0.000 C 
ATOM     31  C   UNL     1     -15.686  56.134  50.391  0.00  0.00    +0.000 C 
ENDBRANCH  28  29
ENDBRANCH   5  28
TORSDOF 4
ENDMDL
MODEL 4
REMARK VINA RESULT:      -8.0      3.612      5.360
REMARK  Name = 338091
REMARK  6 active torsions:
REMARK  status: ('A' for Active; 'I' for Inactive)
REMARK    1  A    between atoms: C_6  and  C_10
REMARK    2  A    between atoms: C_14  and  O_18
REMARK    3  A    between atoms: N_17  and  C_21
REMARK    4  A    between atoms: C_21  and  C_24
REMARK    5  A    between atoms: C_24  and  C_27
REMARK    6  A    between atoms: C_24  and  C_28
REMARK                            x       y       z     vdW  Elec       q    Type
REMARK                         _______ _______ _______ _____ _____    ______ ____
ROOT
ATOM      1  C   UNL     1     -11.599  56.155  48.610  0.00  0.00    +0.000 A 
ATOM      2  C   UNL     1     -10.321  55.689  49.240  0.00  0.00    +0.000 A 
ATOM      3  C   UNL     1     -11.938  55.687  47.393  0.00  0.00    +0.000 A 
ATOM      4  O   UNL     1      -9.962  56.210  50.301  0.00  0.00    +0.000 OA
ATOM      5  N   UNL     1      -9.603  54.667  48.630  0.00  0.00    +0.000 N 
ATOM      6  C   UNL     1     -11.105  54.692  46.704  0.00  0.00    +0.000 A 
ATOM      7  C   UNL     1      -9.969  54.165  47.343  0.00  0.00    +0.000 A 
ATOM      8  C   UNL     1     -11.464  54.225  45.426  0.00  0.00    +0.000 A 
ATOM      9  C   UNL     1      -9.232  53.165  46.687  0.00  0.00    +0.000 A 
ATOM     10  C   UNL     1     -10.721  53.237  44.787  0.00  0.00    +0.000 A 
ATOM     11  C   UNL     1      -9.607  52.705  45.420  0.00  0.00    +0.000 A 
ENDROOT
BRANCH   1  17
ATOM     12  S   UNL     1     -13.631  59.411  49.539  0.00  0.00    +0.000 S 
ATOM     13  O   UNL     1     -14.795  59.550  48.686  0.00  0.00    +0.000 OA
ATOM     14  O   UNL     1     -12.824  60.568  49.877  0.00  0.00    +0.000 OA
ATOM     15  N   UNL     1     -12.651  58.312  48.867  0.00  0.00    +0.000 N 
ATOM     16  C   UNL     1     -14.219  58.770  51.062  0.00  0.00    +0.000 A 
ATOM     17  C   UNL     1     -12.505  57.121  49.375  0.00  0.00    +0.000 C 
ATOM     18  C   UNL     1     -13.898  57.460  51.377  0.00  0.00    +0.000 A 
ATOM     19  C   UNL     1     -14.989  59.576  51.902  0.00  0.00    +0.000 A 
ATOM     20  N   UNL     1     -13.117  56.682  50.529  0.00  0.00    +0.000 N 
ATOM     21  C   UNL     1     -14.400  56.933  52.572  0.00  0.00    +0.000 A 
ATOM     22  C   UNL     1     -15.467  59.045  53.097  0.00  0.00    +0.000 A 
ATOM     23  C   UNL     1     -15.177  57.722  53.428  0.00  0.00    +0.000 A 
ATOM     24  H   UNL     1     -12.152  58.550  48.052  0.00  0.00    +0.000 HD
ATOM     25  H   UNL     1     -12.991  55.737  50.774  0.00  0.00    +0.000 HD
ENDBRANCH   1  17
BRANCH   3  26
ATOM     26  O   UNL     1     -13.084  56.043  46.704  0.00  0.00    +0.000 OA
ATOM     27  H   UNL     1     -13.917  56.016  47.133  0.00  0.00    +0.000 HD
ENDBRANCH   3  26
BRANCH   5  28
ATOM     28  C   UNL     1      -8.474  54.095  49.374  0.00  0.00    +0.000 C 
BRANCH  28  29
ATOM     29  C   UNL     1      -7.089  54.657  48.994  0.00  0.00    +0.000 C 
ATOM     30  C   UNL     1      -6.500  55.569  50.072  0.00  0.00    +0.000 C 
ATOM     31  C   UNL     1      -6.122  53.495  48.733  0.00  0.00    +0.000 C 
ENDBRANCH  28  29
ENDBRANCH   5  28
TORSDOF 4
ENDMDL
MODEL 5
REMARK VINA RESULT:      -7.9      3.128      7.309
REMARK  Name = 338091
REMARK  6 active torsions:
REMARK  status: ('A' for Active; 'I' for Inactive)
REMARK    1  A    between atoms: C_6  and  C_10
REMARK    2  A    between atoms: C_14  and  O_18
REMARK    3  A    between atoms: N_17  and  C_21
REMARK    4  A    between atoms: C_21  and  C_24
REMARK    5  A    between atoms: C_24  and  C_27
REMARK    6  A    between atoms: C_24  and  C_28
REMARK                            x       y       z     vdW  Elec       q    Type
REMARK                         _______ _______ _______ _____ _____    ______ ____
ROOT
ATOM      1  C   UNL     1     -10.382  54.974  50.500  0.00  0.00    +0.000 A 
ATOM      2  C   UNL     1      -9.883  55.092  49.092  0.00  0.00    +0.000 A 
ATOM      3  C   UNL     1     -11.605  55.453  50.802  0.00  0.00    +0.000 A 
ATOM      4  O   UNL     1      -8.718  54.756  48.849  0.00  0.00    +0.000 OA
ATOM      5  N   UNL     1     -10.751  55.541  48.104  0.00  0.00    +0.000 N 
ATOM      6  C   UNL     1     -12.469  56.036  49.767  0.00  0.00    +0.000 A 
ATOM      7  C   UNL     1     -12.051  56.040  48.425  0.00  0.00    +0.000 A 
ATOM      8  C   UNL     1     -13.737  56.546  50.103  0.00  0.00    +0.000 A 
ATOM      9  C   UNL     1     -12.928  56.541  47.449  0.00  0.00    +0.000 A 
ATOM     10  C   UNL     1     -14.593  57.044  49.125  0.00  0.00    +0.000 A 
ATOM     11  C   UNL     1     -14.189  57.037  47.797  0.00  0.00    +0.000 A 
ENDROOT
BRANCH   1  17
ATOM     12  S   UNL     1      -9.021  52.224  52.985  0.00  0.00    +0.000 S 
ATOM     13  O   UNL     1      -8.382  51.145  52.257  0.00  0.00    +0.000 OA
ATOM     14  O   UNL     1      -9.878  51.938  54.120  0.00  0.00    +0.000 OA
ATOM     15  N   UNL     1      -9.885  53.093  51.927  0.00  0.00    +0.000 N 
ATOM     16  C   UNL     1      -7.724  53.231  53.599  0.00  0.00    +0.000 A 
ATOM     17  C   UNL     1      -9.512  54.283  51.551  0.00  0.00    +0.000 C 
ATOM     18  C   UNL     1      -7.554  54.482  53.029  0.00  0.00    +0.000 A 
ATOM     19  C   UNL     1      -6.903  52.755  54.624  0.00  0.00    +0.000 A 
ATOM     20  N   UNL     1      -8.394  54.938  52.020  0.00  0.00    +0.000 N 
ATOM     21  C   UNL     1      -6.494  55.272  53.490  0.00  0.00    +0.000 A 
ATOM     22  C   UNL     1      -5.864  53.559  55.085  0.00  0.00    +0.000 A 
ATOM     23  C   UNL     1      -5.657  54.814  54.514  0.00  0.00    +0.000 A 
ATOM     24  H   UNL     1     -10.716  52.712  51.559  0.00  0.00    +0.000 HD
ATOM     25  H   UNL     1      -8.171  55.802  51.605  0.00  0.00    +0.000 HD
ENDBRANCH   1  17
BRANCH   3  26
ATOM     26  O   UNL     1     -12.177  55.411  52.062  0.00  0.00    +0.000 OA
ATOM     27  H   UNL     1     -11.769  55.859  52.777  0.00  0.00    +0.000 HD
ENDBRANCH   3  26
BRANCH   5  28
ATOM     28  C   UNL     1     -10.297  55.448  46.710  0.00  0.00    +0.000 C 
BRANCH  28  29
ATOM     29  C   UNL     1     -10.397  54.043  46.082  0.00  0.00    +0.000 C 
ATOM     30  C   UNL     1     -11.633  53.872  45.199  0.00  0.00    +0.000 C 
ATOM     31  C   UNL     1      -9.140  53.768  45.249  0.00  0.00    +0.000 C 
ENDBRANCH  28  29
ENDBRANCH   5  28
TORSDOF 4
ENDMDL
MODEL 6
REMARK VINA RESULT:      -7.9      2.156      3.083
REMARK  Name = 338091
REMARK  6 active torsions:
REMARK  status: ('A' for Active; 'I' for Inactive)
REMARK    1  A    between atoms: C_6  and  C_10
REMARK    2  A    between atoms: C_14  and  O_18
REMARK    3  A    between atoms: N_17  and  C_21
REMARK    4  A    between atoms: C_21  and  C_24
REMARK    5  A    between atoms: C_24  and  C_27
REMARK    6  A    between atoms: C_24  and  C_28
REMARK                            x       y       z     vdW  Elec       q    Type
REMARK                         _______ _______ _______ _____ _____    ______ ____
ROOT
ATOM      1  C   UNL     1     -11.632  54.105  51.144  0.00  0.00    +0.000 A 
ATOM      2  C   UNL     1     -10.666  54.063  52.289  0.00  0.00    +0.000 A 
ATOM      3  C   UNL     1     -11.749  53.025  50.347  0.00  0.00    +0.000 A 
ATOM      4  O   UNL     1     -10.481  55.095  52.944  0.00  0.00    +0.000 OA
ATOM      5  N   UNL     1     -10.039  52.861  52.598  0.00  0.00    +0.000 N 
ATOM      6  C   UNL     1     -10.989  51.797  50.616  0.00  0.00    +0.000 A 
ATOM      7  C   UNL     1     -10.172  51.714  51.757  0.00  0.00    +0.000 A 
ATOM      8  C   UNL     1     -11.111  50.684  49.764  0.00  0.00    +0.000 A 
ATOM      9  C   UNL     1      -9.512  50.503  52.024  0.00  0.00    +0.000 A 
ATOM     10  C   UNL     1     -10.446  49.493  50.039  0.00  0.00    +0.000 A 
ATOM     11  C   UNL     1      -9.650  49.402  51.172  0.00  0.00    +0.000 A 
ENDROOT
BRANCH   1  17
ATOM     12  S   UNL     1     -13.443  57.111  49.333  0.00  0.00    +0.000 S 
ATOM     13  O   UNL     1     -14.567  56.636  48.550  0.00  0.00    +0.000 OA
ATOM     14  O   UNL     1     -12.562  58.137  48.808  0.00  0.00    +0.000 OA
ATOM     15  N   UNL     1     -12.528  55.831  49.715  0.00  0.00    +0.000 N 
ATOM     16  C   UNL     1     -14.123  57.765  50.811  0.00  0.00    +0.000 A 
ATOM     17  C   UNL     1     -12.486  55.355  50.927  0.00  0.00    +0.000 C 
ATOM     18  C   UNL     1     -13.910  57.062  51.985  0.00  0.00    +0.000 A 
ATOM     19  C   UNL     1     -14.856  58.953  50.770  0.00  0.00    +0.000 A 
ATOM     20  N   UNL     1     -13.164  55.889  52.002  0.00  0.00    +0.000 N 
ATOM     21  C   UNL     1     -14.485  57.561  53.159  0.00  0.00    +0.000 A 
ATOM     22  C   UNL     1     -15.407  59.447  51.949  0.00  0.00    +0.000 A 
ATOM     23  C   UNL     1     -15.227  58.748  53.141  0.00  0.00    +0.000 A 
ATOM     24  H   UNL     1     -11.988  55.401  49.012  0.00  0.00    +0.000 HD
ATOM     25  H   UNL     1     -13.116  55.398  52.853  0.00  0.00    +0.000 HD
ENDBRANCH   1  17
BRANCH   3  26
ATOM     26  O   UNL     1     -12.598  52.941  49.256  0.00  0.00    +0.000 OA
ATOM     27  H   UNL     1     -12.248  52.969  48.387  0.00  0.00    +0.000 HD
ENDBRANCH   3  26
BRANCH   5  28
ATOM     28  C   UNL     1      -9.264  52.802  53.844  0.00  0.00    +0.000 C 
BRANCH  28  29
ATOM     29  C   UNL     1      -7.747  53.022  53.680  0.00  0.00    +0.000 C 
ATOM     30  C   UNL     1      -7.296  54.417  54.115  0.00  0.00    +0.000 C 
ATOM     31  C   UNL     1      -6.989  51.970  54.499  0.00  0.00    +0.000 C 
ENDBRANCH  28  29
ENDBRANCH   5  28
TORSDOF 4
ENDMDL
MODEL 7
REMARK VINA RESULT:      -7.7      2.565      7.796
REMARK  Name = 338091
REMARK  6 active torsions:
REMARK  status: ('A' for Active; 'I' for Inactive)
REMARK    1  A    between atoms: C_6  and  C_10
REMARK    2  A    between atoms: C_14  and  O_18
REMARK    3  A    between atoms: N_17  and  C_21
REMARK    4  A    between atoms: C_21  and  C_24
REMARK    5  A    between atoms: C_24  and  C_27
REMARK    6  A    between atoms: C_24  and  C_28
REMARK                            x       y       z     vdW  Elec       q    Type
REMARK                         _______ _______ _______ _____ _____    ______ ____
ROOT
ATOM      1  C   UNL     1     -10.794  54.841  50.791  0.00  0.00    +0.000 A 
ATOM      2  C   UNL     1     -11.846  55.698  51.428  0.00  0.00    +0.000 A 
ATOM      3  C   UNL     1     -10.763  54.732  49.448  0.00  0.00    +0.000 A 
ATOM      4  O   UNL     1     -11.938  55.700  52.660  0.00  0.00    +0.000 OA
ATOM      5  N   UNL     1     -12.656  56.484  50.618  0.00  0.00    +0.000 N 
ATOM      6  C   UNL     1     -11.706  55.478  48.605  0.00  0.00    +0.000 A 
ATOM      7  C   UNL     1     -12.616  56.374  49.193  0.00  0.00    +0.000 A 
ATOM      8  C   UNL     1     -11.671  55.341  47.205  0.00  0.00    +0.000 A 
ATOM      9  C   UNL     1     -13.457  57.125  48.355  0.00  0.00    +0.000 A 
ATOM     10  C   UNL     1     -12.515  56.088  46.388  0.00  0.00    +0.000 A 
ATOM     11  C   UNL     1     -13.405  56.983  46.965  0.00  0.00    +0.000 A 
ENDROOT
BRANCH   1  17
ATOM     12  S   UNL     1      -8.766  51.970  52.590  0.00  0.00    +0.000 S 
ATOM     13  O   UNL     1      -7.913  51.275  51.646  0.00  0.00    +0.000 OA
ATOM     14  O   UNL     1      -9.503  51.230  53.598  0.00  0.00    +0.000 OA
ATOM     15  N   UNL     1      -9.836  52.842  51.744  0.00  0.00    +0.000 N 
ATOM     16  C   UNL     1      -7.723  53.074  53.466  0.00  0.00    +0.000 A 
ATOM     17  C   UNL     1      -9.759  54.140  51.673  0.00  0.00    +0.000 C 
ATOM     18  C   UNL     1      -7.863  54.429  53.216  0.00  0.00    +0.000 A 
ATOM     19  C   UNL     1      -6.787  52.571  54.373  0.00  0.00    +0.000 A 
ATOM     20  N   UNL     1      -8.813  54.905  52.319  0.00  0.00    +0.000 N 
ATOM     21  C   UNL     1      -7.004  55.309  53.884  0.00  0.00    +0.000 A 
ATOM     22  C   UNL     1      -5.951  53.460  55.044  0.00  0.00    +0.000 A 
ATOM     23  C   UNL     1      -6.056  54.828  54.794  0.00  0.00    +0.000 A 
ATOM     24  H   UNL     1     -10.564  52.378  51.271  0.00  0.00    +0.000 HD
ATOM     25  H   UNL     1      -8.807  55.871  52.129  0.00  0.00    +0.000 HD
ENDBRANCH   1  17
BRANCH   3  26
ATOM     26  O   UNL     1      -9.849  53.969  48.741  0.00  0.00    +0.000 OA
ATOM     27  H   UNL     1      -9.219  54.387  48.188  0.00  0.00    +0.000 HD
ENDBRANCH   3  26
BRANCH   5  28
ATOM     28  C   UNL     1     -13.530  57.461  51.278  0.00  0.00    +0.000 C 
BRANCH  28  29
ATOM     29  C   UNL     1     -14.742  56.859  52.017  0.00  0.00    +0.000 C 
ATOM     30  C   UNL     1     -15.191  57.702  53.212  0.00  0.00    +0.000 C 
ATOM     31  C   UNL     1     -15.913  56.709  51.038  0.00  0.00    +0.000 C 
ENDBRANCH  28  29
ENDBRANCH   5  28
TORSDOF 4
ENDMDL
MODEL 8
REMARK VINA RESULT:      -7.7      3.792      5.256
REMARK  Name = 338091
REMARK  6 active torsions:
REMARK  status: ('A' for Active; 'I' for Inactive)
REMARK    1  A    between atoms: C_6  and  C_10
REMARK    2  A    between atoms: C_14  and  O_18
REMARK    3  A    between atoms: N_17  and  C_21
REMARK    4  A    between atoms: C_21  and  C_24
REMARK    5  A    between atoms: C_24  and  C_27
REMARK    6  A    between atoms: C_24  and  C_28
REMARK                            x       y       z     vdW  Elec       q    Type
REMARK                         _______ _______ _______ _____ _____    ______ ____
ROOT
ATOM      1  C   UNL     1     -10.499  55.318  48.975  0.00  0.00    +0.000 A 
ATOM      2  C   UNL     1     -10.618  54.196  47.989  0.00  0.00    +0.000 A 
ATOM      3  C   UNL     1      -9.279  55.653  49.440  0.00  0.00    +0.000 A 
ATOM      4  O   UNL     1     -11.748  53.820  47.656  0.00  0.00    +0.000 OA
ATOM      5  N   UNL     1      -9.461  53.639  47.458  0.00  0.00    +0.000 N 
ATOM      6  C   UNL     1      -8.070  54.973  48.958  0.00  0.00    +0.000 A 
ATOM      7  C   UNL     1      -8.167  54.002  47.946  0.00  0.00    +0.000 A 
ATOM      8  C   UNL     1      -6.805  55.324  49.466  0.00  0.00    +0.000 A 
ATOM      9  C   UNL     1      -6.986  53.420  47.457  0.00  0.00    +0.000 A 
ATOM     10  C   UNL     1      -5.645  54.735  48.974  0.00  0.00    +0.000 A 
ATOM     11  C   UNL     1      -5.736  53.786  47.966  0.00  0.00    +0.000 A 
ENDROOT
BRANCH   1  17
ATOM     12  S   UNL     1     -13.843  57.406  48.758  0.00  0.00    +0.000 S 
ATOM     13  O   UNL     1     -14.934  56.579  48.281  0.00  0.00    +0.000 OA
ATOM     14  O   UNL     1     -13.691  58.769  48.284  0.00  0.00    +0.000 OA
ATOM     15  N   UNL     1     -12.458  56.626  48.452  0.00  0.00    +0.000 N 
ATOM     16  C   UNL     1     -14.042  57.517  50.496  0.00  0.00    +0.000 A 
ATOM     17  C   UNL     1     -11.754  56.080  49.403  0.00  0.00    +0.000 C 
ATOM     18  C   UNL     1     -13.129  56.849  51.294  0.00  0.00    +0.000 A 
ATOM     19  C   UNL     1     -15.102  58.257  51.027  0.00  0.00    +0.000 A 
ATOM     20  N   UNL     1     -12.074  56.131  50.742  0.00  0.00    +0.000 N 
ATOM     21  C   UNL     1     -13.309  56.903  52.681  0.00  0.00    +0.000 A 
ATOM     22  C   UNL     1     -15.259  58.317  52.409  0.00  0.00    +0.000 A 
ATOM     23  C   UNL     1     -14.366  57.635  53.235  0.00  0.00    +0.000 A 
ATOM     24  H   UNL     1     -12.139  56.563  47.523  0.00  0.00    +0.000 HD
ATOM     25  H   UNL     1     -11.507  55.616  51.361  0.00  0.00    +0.000 HD
ENDBRANCH   1  17
BRANCH   3  26
ATOM     26  O   UNL     1      -9.037  56.663  50.356  0.00  0.00    +0.000 OA
ATOM     27  H   UNL     1      -9.092  57.560  50.090  0.00  0.00    +0.000 HD
ENDBRANCH   3  26
BRANCH   5  28
ATOM     28  C   UNL     1      -9.613  52.690  46.348  0.00  0.00    +0.000 C 
BRANCH  28  29
ATOM     29  C   UNL     1      -9.681  53.330  44.946  0.00  0.00    +0.000 C 
ATOM     30  C   UNL     1      -8.586  52.823  44.007  0.00  0.00    +0.000 C 
ATOM     31  C   UNL     1     -11.052  53.044  44.322  0.00  0.00    +0.000 C 
ENDBRANCH  28  29
ENDBRANCH   5  28
TORSDOF 4
ENDMDL
MODEL 9
REMARK VINA RESULT:      -7.6      3.265      4.992
REMARK  Name = 338091
REMARK  6 active torsions:
REMARK  status: ('A' for Active; 'I' for Inactive)
REMARK    1  A    between atoms: C_6  and  C_10
REMARK    2  A    between atoms: C_14  and  O_18
REMARK    3  A    between atoms: N_17  and  C_21
REMARK    4  A    between atoms: C_21  and  C_24
REMARK    5  A    between atoms: C_24  and  C_27
REMARK    6  A    between atoms: C_24  and  C_28
REMARK                            x       y       z     vdW  Elec       q    Type
REMARK                         _______ _______ _______ _____ _____    ______ ____
ROOT
ATOM      1  C   UNL     1     -10.719  55.613  48.934  0.00  0.00    +0.000 A 
ATOM      2  C   UNL     1      -9.509  55.210  49.722  0.00  0.00    +0.000 A 
ATOM      3  C   UNL     1     -10.787  55.288  47.628  0.00  0.00    +0.000 A 
ATOM      4  O   UNL     1      -9.404  55.610  50.886  0.00  0.00    +0.000 OA
ATOM      5  N   UNL     1      -8.568  54.375  49.132  0.00  0.00    +0.000 N 
ATOM      6  C   UNL     1      -9.724  54.505  46.984  0.00  0.00    +0.000 A 
ATOM      7  C   UNL     1      -8.647  54.025  47.748  0.00  0.00    +0.000 A 
ATOM      8  C   UNL     1      -9.803  54.189  45.615  0.00  0.00    +0.000 A 
ATOM      9  C   UNL     1      -7.682  53.221  47.119  0.00  0.00    +0.000 A 
ATOM     10  C   UNL     1      -8.837  53.395  45.005  0.00  0.00    +0.000 A 
ATOM     11  C   UNL     1      -7.778  52.908  45.759  0.00  0.00    +0.000 A 
ENDROOT
BRANCH   1  17
ATOM     12  S   UNL     1     -13.614  56.416  51.497  0.00  0.00    +0.000 S 
ATOM     13  O   UNL     1     -13.069  56.752  52.798  0.00  0.00    +0.000 OA
ATOM     14  O   UNL     1     -14.788  55.572  51.388  0.00  0.00    +0.000 OA
ATOM     15  N   UNL     1     -12.435  55.727  50.628  0.00  0.00    +0.000 N 
ATOM     16  C   UNL     1     -14.040  57.940  50.742  0.00  0.00    +0.000 A 
ATOM     17  C   UNL     1     -11.862  56.348  49.636  0.00  0.00    +0.000 C 
ATOM     18  C   UNL     1     -13.268  58.369  49.674  0.00  0.00    +0.000 A 
ATOM     19  C   UNL     1     -15.121  58.677  51.230  0.00  0.00    +0.000 A 
ATOM     20  N   UNL     1     -12.205  57.609  49.198  0.00  0.00    +0.000 N 
ATOM     21  C   UNL     1     -13.581  59.604  49.096  0.00  0.00    +0.000 A 
ATOM     22  C   UNL     1     -15.433  59.896  50.632  0.00  0.00    +0.000 A 
ATOM     23  C   UNL     1     -14.659  60.361  49.570  0.00  0.00    +0.000 A 
ATOM     24  H   UNL     1     -12.143  54.815  50.854  0.00  0.00    +0.000 HD
ATOM     25  H   UNL     1     -11.650  58.007  48.489  0.00  0.00    +0.000 HD
ENDBRANCH   1  17
BRANCH   3  26
ATOM     26  O   UNL     1     -11.844  55.607  46.792  0.00  0.00    +0.000 OA
ATOM     27  H   UNL     1     -11.877  56.447  46.378  0.00  0.00    +0.000 HD
ENDBRANCH   3  26
BRANCH   5  28
ATOM     28  C   UNL     1      -7.508  53.835  49.992  0.00  0.00    +0.000 C 
BRANCH  28  29
ATOM     29  C   UNL     1      -6.463  54.865  50.466  0.00  0.00    +0.000 C 
ATOM     30  C   UNL     1      -5.728  54.428  51.734  0.00  0.00    +0.000 C 
ATOM     31  C   UNL     1      -5.440  55.105  49.349  0.00  0.00    +0.000 C 
ENDBRANCH  28  29
ENDBRANCH   5  28
TORSDOF 4
ENDMDL
