MODEL 1
REMARK VINA RESULT:      -9.5      0.000      0.000
REMARK  Name = 338030
REMARK  10 active torsions:
REMARK  status: ('A' for Active; 'I' for Inactive)
REMARK    1  A    between atoms: C_6  and  C_10
REMARK    2  A    between atoms: C_14  and  O_18
REMARK    3  A    between atoms: N_17  and  C_21
REMARK    4  A    between atoms: C_21  and  C_24
REMARK    5  A    between atoms: C_24  and  C_27
REMARK    6  A    between atoms: C_25  and  O_28
REMARK    7  A    between atoms: C_27  and  C_29
REMARK    8  A    between atoms: C_27  and  C_30
REMARK    9  A    between atoms: O_28  and  C_31
REMARK   10  A    between atoms: C_31  and  C_32
REMARK                            x       y       z     vdW  Elec       q    Type
REMARK                         _______ _______ _______ _____ _____    ______ ____
ROOT
ATOM      1  C   UNL     1      -8.940  54.799  50.184  0.00  0.00    +0.000 A 
ATOM      2  C   UNL     1      -8.386  54.504  48.827  0.00  0.00    +0.000 A 
ATOM      3  C   UNL     1     -10.158  55.343  50.310  0.00  0.00    +0.000 A 
ATOM      4  O   UNL     1      -7.322  53.883  48.757  0.00  0.00    +0.000 OA
ATOM      5  N   UNL     1      -9.098  54.926  47.707  0.00  0.00    +0.000 N 
ATOM      6  C   UNL     1     -10.954  55.640  49.118  0.00  0.00    +0.000 A 
ATOM      7  C   UNL     1     -10.430  55.425  47.834  0.00  0.00    +0.000 A 
ATOM      8  C   UNL     1     -12.252  56.136  49.266  0.00  0.00    +0.000 A 
ATOM      9  C   UNL     1     -11.254  55.679  46.727  0.00  0.00    +0.000 A 
ATOM     10  C   UNL     1     -13.027  56.464  48.160  0.00  0.00    +0.000 A 
ATOM     11  C   UNL     1     -12.539  56.205  46.888  0.00  0.00    +0.000 A 
ENDROOT
BRANCH   1  17
ATOM     12  S   UNL     1      -6.063  54.596  52.848  0.00  0.00    +0.000 S 
ATOM     13  O   UNL     1      -6.094  55.702  53.784  0.00  0.00    +0.000 OA
ATOM     14  O   UNL     1      -4.799  54.119  52.316  0.00  0.00    +0.000 OA
ATOM     15  N   UNL     1      -7.014  54.985  51.595  0.00  0.00    +0.000 N 
ATOM     16  C   UNL     1      -6.783  53.230  53.680  0.00  0.00    +0.000 A 
ATOM     17  C   UNL     1      -8.160  54.396  51.415  0.00  0.00    +0.000 C 
ATOM     18  C   UNL     1      -8.036  52.806  53.266  0.00  0.00    +0.000 A 
ATOM     19  C   UNL     1      -6.092  52.592  54.712  0.00  0.00    +0.000 A 
ATOM     20  N   UNL     1      -8.718  53.449  52.241  0.00  0.00    +0.000 N 
ATOM     21  C   UNL     1      -8.643  51.753  53.958  0.00  0.00    +0.000 A 
ATOM     22  C   UNL     1      -6.694  51.523  55.369  0.00  0.00    +0.000 A 
ATOM     23  C   UNL     1      -7.973  51.108  54.998  0.00  0.00    +0.000 A 
ATOM     24  H   UNL     1      -6.720  55.678  50.960  0.00  0.00    +0.000 HD
ATOM     25  H   UNL     1      -9.663  53.210  52.095  0.00  0.00    +0.000 HD
ENDBRANCH   1  17
BRANCH   3  26
ATOM     26  O   UNL     1     -10.774  55.627  51.518  0.00  0.00    +0.000 OA
ATOM     27  H   UNL     1     -11.565  55.184  51.757  0.00  0.00    +0.000 HD
ENDBRANCH   3  26
BRANCH   5  28
ATOM     28  C   UNL     1      -8.496  54.708  46.388  0.00  0.00    +0.000 C 
BRANCH  28  29
ATOM     29  C   UNL     1      -8.785  53.344  45.737  0.00  0.00    +0.000 C 
BRANCH  29  30
ATOM     30  C   UNL     1      -9.484  53.364  44.368  0.00  0.00    +0.000 C 
ATOM     31  C   UNL     1      -8.681  52.641  43.289  0.00  0.00    +0.000 C 
ATOM     32  C   UNL     1     -10.865  52.710  44.511  0.00  0.00    +0.000 C 
ENDBRANCH  29  30
ENDBRANCH  28  29
ENDBRANCH   5  28
BRANCH  10  33
ATOM     33  O   UNL     1     -14.263  57.038  48.235  0.00  0.00    +0.000 OA
BRANCH  33  34
ATOM     34  C   UNL     1     -14.271  58.317  48.879  0.00  0.00    +0.000 C 
BRANCH  34  35
ATOM     35  C   UNL     1     -14.635  58.173  50.333  0.00  0.00    +0.000 A 
ATOM     36  C   UNL     1     -15.336  57.057  50.802  0.00  0.00    +0.000 A 
ATOM     37  C   UNL     1     -14.227  59.162  51.239  0.00  0.00    +0.000 A 
ATOM     38  C   UNL     1     -15.657  56.949  52.151  0.00  0.00    +0.000 A 
ATOM     39  C   UNL     1     -14.551  59.055  52.588  0.00  0.00    +0.000 A 
ATOM     40  C   UNL     1     -15.271  57.951  53.042  0.00  0.00    +0.000 A 
ENDBRANCH  34  35
ENDBRANCH  33  34
ENDBRANCH  10  33
TORSDOF 8
ENDMDL
MODEL 2
REMARK VINA RESULT:      -8.8      3.011      8.086
REMARK  Name = 338030
REMARK  10 active torsions:
REMARK  status: ('A' for Active; 'I' for Inactive)
REMARK    1  A    between atoms: C_6  and  C_10
REMARK    2  A    between atoms: C_14  and  O_18
REMARK    3  A    between atoms: N_17  and  C_21
REMARK    4  A    between atoms: C_21  and  C_24
REMARK    5  A    between atoms: C_24  and  C_27
REMARK    6  A    between atoms: C_25  and  O_28
REMARK    7  A    between atoms: C_27  and  C_29
REMARK    8  A    between atoms: C_27  and  C_30
REMARK    9  A    between atoms: O_28  and  C_31
REMARK   10  A    between atoms: C_31  and  C_32
REMARK                            x       y       z     vdW  Elec       q    Type
REMARK                         _______ _______ _______ _____ _____    ______ ____
ROOT
ATOM      1  C   UNL     1     -12.068  54.447  50.466  0.00  0.00    +0.000 A 
ATOM      2  C   UNL     1     -11.879  53.868  49.100  0.00  0.00    +0.000 A 
ATOM      3  C   UNL     1     -11.348  53.985  51.497  0.00  0.00    +0.000 A 
ATOM      4  O   UNL     1     -12.461  54.409  48.156  0.00  0.00    +0.000 OA
ATOM      5  N   UNL     1     -11.047  52.762  48.950  0.00  0.00    +0.000 N 
ATOM      6  C   UNL     1     -10.366  52.920  51.285  0.00  0.00    +0.000 A 
ATOM      7  C   UNL     1     -10.214  52.324  50.024  0.00  0.00    +0.000 A 
ATOM      8  C   UNL     1      -9.567  52.501  52.353  0.00  0.00    +0.000 A 
ATOM      9  C   UNL     1      -9.223  51.343  49.864  0.00  0.00    +0.000 A 
ATOM     10  C   UNL     1      -8.649  51.469  52.203  0.00  0.00    +0.000 A 
ATOM     11  C   UNL     1      -8.453  50.912  50.948  0.00  0.00    +0.000 A 
ENDROOT
BRANCH   1  17
ATOM     12  S   UNL     1     -15.278  56.507  51.394  0.00  0.00    +0.000 S 
ATOM     13  O   UNL     1     -15.374  56.776  52.815  0.00  0.00    +0.000 OA
ATOM     14  O   UNL     1     -16.459  56.133  50.637  0.00  0.00    +0.000 OA
ATOM     15  N   UNL     1     -14.166  55.346  51.187  0.00  0.00    +0.000 N 
ATOM     16  C   UNL     1     -14.677  57.980  50.655  0.00  0.00    +0.000 A 
ATOM     17  C   UNL     1     -13.007  55.614  50.662  0.00  0.00    +0.000 C 
ATOM     18  C   UNL     1     -13.380  57.979  50.168  0.00  0.00    +0.000 A 
ATOM     19  C   UNL     1     -15.502  59.103  50.556  0.00  0.00    +0.000 A 
ATOM     20  N   UNL     1     -12.565  56.858  50.275  0.00  0.00    +0.000 N 
ATOM     21  C   UNL     1     -12.872  59.164  49.626  0.00  0.00    +0.000 A 
ATOM     22  C   UNL     1     -14.995  60.266  49.982  0.00  0.00    +0.000 A 
ATOM     23  C   UNL     1     -13.677  60.299  49.526  0.00  0.00    +0.000 A 
ATOM     24  H   UNL     1     -14.373  54.424  51.463  0.00  0.00    +0.000 HD
ATOM     25  H   UNL     1     -11.610  56.960  50.058  0.00  0.00    +0.000 HD
ENDBRANCH   1  17
BRANCH   3  26
ATOM     26  O   UNL     1     -11.424  54.469  52.793  0.00  0.00    +0.000 OA
ATOM     27  H   UNL     1     -11.346  55.389  52.955  0.00  0.00    +0.000 HD
ENDBRANCH   3  26
BRANCH   5  28
ATOM     28  C   UNL     1     -10.945  52.155  47.619  0.00  0.00    +0.000 C 
BRANCH  28  29
ATOM     29  C   UNL     1      -9.678  52.504  46.820  0.00  0.00    +0.000 C 
BRANCH  29  30
ATOM     30  C   UNL     1      -9.809  53.613  45.762  0.00  0.00    +0.000 C 
ATOM     31  C   UNL     1     -11.202  53.665  45.138  0.00  0.00    +0.000 C 
ATOM     32  C   UNL     1      -9.488  54.961  46.421  0.00  0.00    +0.000 C 
ENDBRANCH  29  30
ENDBRANCH  28  29
ENDBRANCH   5  28
BRANCH  10  33
ATOM     33  O   UNL     1      -7.906  50.950  53.224  0.00  0.00    +0.000 OA
BRANCH  33  34
ATOM     34  C   UNL     1      -7.750  51.839  54.337  0.00  0.00    +0.000 C 
BRANCH  34  35
ATOM     35  C   UNL     1      -6.496  52.657  54.186  0.00  0.00    +0.000 A 
ATOM     36  C   UNL     1      -5.348  52.129  53.588  0.00  0.00    +0.000 A 
ATOM     37  C   UNL     1      -6.496  53.990  54.621  0.00  0.00    +0.000 A 
ATOM     38  C   UNL     1      -4.204  52.909  53.459  0.00  0.00    +0.000 A 
ATOM     39  C   UNL     1      -5.350  54.770  54.495  0.00  0.00    +0.000 A 
ATOM     40  C   UNL     1      -4.203  54.227  53.919  0.00  0.00    +0.000 A 
ENDBRANCH  34  35
ENDBRANCH  33  34
ENDBRANCH  10  33
TORSDOF 8
ENDMDL
MODEL 3
REMARK VINA RESULT:      -8.6      2.684      7.532
REMARK  Name = 338030
REMARK  10 active torsions:
REMARK  status: ('A' for Active; 'I' for Inactive)
REMARK    1  A    between atoms: C_6  and  C_10
REMARK    2  A    between atoms: C_14  and  O_18
REMARK    3  A    between atoms: N_17  and  C_21
REMARK    4  A    between atoms: C_21  and  C_24
REMARK    5  A    between atoms: C_24  and  C_27
REMARK    6  A    between atoms: C_25  and  O_28
REMARK    7  A    between atoms: C_27  and  C_29
REMARK    8  A    between atoms: C_27  and  C_30
REMARK    9  A    between atoms: O_28  and  C_31
REMARK   10  A    between atoms: C_31  and  C_32
REMARK                            x       y       z     vdW  Elec       q    Type
REMARK                         _______ _______ _______ _____ _____    ______ ____
ROOT
ATOM      1  C   UNL     1     -11.452  55.952  48.853  0.00  0.00    +0.000 A 
ATOM      2  C   UNL     1     -11.594  55.541  47.422  0.00  0.00    +0.000 A 
ATOM      3  C   UNL     1     -10.409  55.524  49.575  0.00  0.00    +0.000 A 
ATOM      4  O   UNL     1     -12.492  56.062  46.755  0.00  0.00    +0.000 OA
ATOM      5  N   UNL     1     -10.701  54.607  46.902  0.00  0.00    +0.000 N 
ATOM      6  C   UNL     1      -9.398  54.661  48.962  0.00  0.00    +0.000 A 
ATOM      7  C   UNL     1      -9.542  54.217  47.639  0.00  0.00    +0.000 A 
ATOM      8  C   UNL     1      -8.276  54.285  49.705  0.00  0.00    +0.000 A 
ATOM      9  C   UNL     1      -8.519  53.433  47.083  0.00  0.00    +0.000 A 
ATOM     10  C   UNL     1      -7.312  53.437  49.171  0.00  0.00    +0.000 A 
ATOM     11  C   UNL     1      -7.417  53.037  47.847  0.00  0.00    +0.000 A 
ENDROOT
BRANCH   1  17
ATOM     12  S   UNL     1     -13.536  59.226  49.450  0.00  0.00    +0.000 S 
ATOM     13  O   UNL     1     -14.664  59.339  48.548  0.00  0.00    +0.000 OA
ATOM     14  O   UNL     1     -12.727  60.391  49.763  0.00  0.00    +0.000 OA
ATOM     15  N   UNL     1     -12.550  58.080  48.865  0.00  0.00    +0.000 N 
ATOM     16  C   UNL     1     -14.184  58.663  50.979  0.00  0.00    +0.000 A 
ATOM     17  C   UNL     1     -12.440  56.925  49.453  0.00  0.00    +0.000 C 
ATOM     18  C   UNL     1     -13.898  57.363  51.365  0.00  0.00    +0.000 A 
ATOM     19  C   UNL     1     -14.948  59.518  51.776  0.00  0.00    +0.000 A 
ATOM     20  N   UNL     1     -13.140  56.517  50.564  0.00  0.00    +0.000 N 
ATOM     21  C   UNL     1     -14.455  56.886  52.556  0.00  0.00    +0.000 A 
ATOM     22  C   UNL     1     -15.468  59.041  52.976  0.00  0.00    +0.000 A 
ATOM     23  C   UNL     1     -15.229  57.722  53.362  0.00  0.00    +0.000 A 
ATOM     24  H   UNL     1     -12.026  58.262  48.051  0.00  0.00    +0.000 HD
ATOM     25  H   UNL     1     -13.101  55.564  50.809  0.00  0.00    +0.000 HD
ENDBRANCH   1  17
BRANCH   3  26
ATOM     26  O   UNL     1     -10.169  55.869  50.896  0.00  0.00    +0.000 OA
ATOM     27  H   UNL     1     -10.011  56.764  51.126  0.00  0.00    +0.000 HD
ENDBRANCH   3  26
BRANCH   5  28
ATOM     28  C   UNL     1     -10.911  54.149  45.525  0.00  0.00    +0.000 C 
BRANCH  28  29
ATOM     29  C   UNL     1     -11.686  52.829  45.370  0.00  0.00    +0.000 C 
BRANCH  29  30
ATOM     30  C   UNL     1     -11.081  51.778  44.424  0.00  0.00    +0.000 C 
ATOM     31  C   UNL     1      -9.998  52.359  43.518  0.00  0.00    +0.000 C 
ATOM     32  C   UNL     1     -10.494  50.638  45.267  0.00  0.00    +0.000 C 
ENDBRANCH  29  30
ENDBRANCH  28  29
ENDBRANCH   5  28
BRANCH  10  33
ATOM     33  O   UNL     1      -6.243  52.958  49.870  0.00  0.00    +0.000 OA
BRANCH  33  34
ATOM     34  C   UNL     1      -6.574  52.475  51.178  0.00  0.00    +0.000 C 
BRANCH  34  35
ATOM     35  C   UNL     1      -5.848  53.268  52.232  0.00  0.00    +0.000 A 
ATOM     36  C   UNL     1      -6.435  53.543  53.471  0.00  0.00    +0.000 A 
ATOM     37  C   UNL     1      -4.541  53.706  51.975  0.00  0.00    +0.000 A 
ATOM     38  C   UNL     1      -5.740  54.276  54.427  0.00  0.00    +0.000 A 
ATOM     39  C   UNL     1      -3.847  54.442  52.931  0.00  0.00    +0.000 A 
ATOM     40  C   UNL     1      -4.449  54.732  54.154  0.00  0.00    +0.000 A 
ENDBRANCH  34  35
ENDBRANCH  33  34
ENDBRANCH  10  33
TORSDOF 8
ENDMDL
MODEL 4
REMARK VINA RESULT:      -8.6      1.560      2.015
REMARK  Name = 338030
REMARK  10 active torsions:
REMARK  status: ('A' for Active; 'I' for Inactive)
REMARK    1  A    between atoms: C_6  and  C_10
REMARK    2  A    between atoms: C_14  and  O_18
REMARK    3  A    between atoms: N_17  and  C_21
REMARK    4  A    between atoms: C_21  and  C_24
REMARK    5  A    between atoms: C_24  and  C_27
REMARK    6  A    between atoms: C_25  and  O_28
REMARK    7  A    between atoms: C_27  and  C_29
REMARK    8  A    between atoms: C_27  and  C_30
REMARK    9  A    between atoms: O_28  and  C_31
REMARK   10  A    between atoms: C_31  and  C_32
REMARK                            x       y       z     vdW  Elec       q    Type
REMARK                         _______ _______ _______ _____ _____    ______ ____
ROOT
ATOM      1  C   UNL     1      -8.936  54.194  49.467  0.00  0.00    +0.000 A 
ATOM      2  C   UNL     1      -8.572  53.997  48.031  0.00  0.00    +0.000 A 
ATOM      3  C   UNL     1     -10.071  54.828  49.793  0.00  0.00    +0.000 A 
ATOM      4  O   UNL     1      -7.591  53.294  47.772  0.00  0.00    +0.000 OA
ATOM      5  N   UNL     1      -9.360  54.597  47.052  0.00  0.00    +0.000 N 
ATOM      6  C   UNL     1     -10.962  55.320  48.741  0.00  0.00    +0.000 A 
ATOM      7  C   UNL     1     -10.612  55.197  47.388  0.00  0.00    +0.000 A 
ATOM      8  C   UNL     1     -12.179  55.911  49.094  0.00  0.00    +0.000 A 
ATOM      9  C   UNL     1     -11.526  55.639  46.419  0.00  0.00    +0.000 A 
ATOM     10  C   UNL     1     -13.036  56.423  48.127  0.00  0.00    +0.000 A 
ATOM     11  C   UNL     1     -12.724  56.257  46.786  0.00  0.00    +0.000 A 
ENDROOT
BRANCH   1  17
ATOM     12  S   UNL     1      -6.907  51.566  51.563  0.00  0.00    +0.000 S 
ATOM     13  O   UNL     1      -5.604  51.288  50.993  0.00  0.00    +0.000 OA
ATOM     14  O   UNL     1      -7.718  50.489  52.101  0.00  0.00    +0.000 OA
ATOM     15  N   UNL     1      -7.785  52.331  50.435  0.00  0.00    +0.000 N 
ATOM     16  C   UNL     1      -6.635  52.677  52.892  0.00  0.00    +0.000 A 
ATOM     17  C   UNL     1      -8.067  53.596  50.549  0.00  0.00    +0.000 C 
ATOM     18  C   UNL     1      -7.050  53.989  52.737  0.00  0.00    +0.000 A 
ATOM     19  C   UNL     1      -6.032  52.228  54.070  0.00  0.00    +0.000 A 
ATOM     20  N   UNL     1      -7.646  54.428  51.560  0.00  0.00    +0.000 N 
ATOM     21  C   UNL     1      -6.789  54.896  53.769  0.00  0.00    +0.000 A 
ATOM     22  C   UNL     1      -5.809  53.134  55.103  0.00  0.00    +0.000 A 
ATOM     23  C   UNL     1      -6.180  54.470  54.949  0.00  0.00    +0.000 A 
ATOM     24  H   UNL     1      -8.108  51.831  49.652  0.00  0.00    +0.000 HD
ATOM     25  H   UNL     1      -7.776  55.397  51.443  0.00  0.00    +0.000 HD
ENDBRANCH   1  17
BRANCH   3  26
ATOM     26  O   UNL     1     -10.514  55.037  51.089  0.00  0.00    +0.000 OA
ATOM     27  H   UNL     1      -9.896  55.195  51.776  0.00  0.00    +0.000 HD
ENDBRANCH   3  26
BRANCH   5  28
ATOM     28  C   UNL     1      -8.936  54.468  45.654  0.00  0.00    +0.000 C 
BRANCH  28  29
ATOM     29  C   UNL     1      -9.437  53.214  44.916  0.00  0.00    +0.000 C 
BRANCH  29  30
ATOM     30  C   UNL     1     -10.427  52.314  45.675  0.00  0.00    +0.000 C 
ATOM     31  C   UNL     1     -11.766  52.178  44.954  0.00  0.00    +0.000 C 
ATOM     32  C   UNL     1      -9.793  50.927  45.854  0.00  0.00    +0.000 C 
ENDBRANCH  29  30
ENDBRANCH  28  29
ENDBRANCH   5  28
BRANCH  10  33
ATOM     33  O   UNL     1     -14.192  57.093  48.407  0.00  0.00    +0.000 OA
BRANCH  33  34
ATOM     34  C   UNL     1     -15.002  56.461  49.405  0.00  0.00    +0.000 C 
BRANCH  34  35
ATOM     35  C   UNL     1     -15.050  57.300  50.654  0.00  0.00    +0.000 A 
ATOM     36  C   UNL     1     -15.289  56.730  51.908  0.00  0.00    +0.000 A 
ATOM     37  C   UNL     1     -14.811  58.678  50.558  0.00  0.00    +0.000 A 
ATOM     38  C   UNL     1     -15.325  57.530  53.045  0.00  0.00    +0.000 A 
ATOM     39  C   UNL     1     -14.851  59.479  51.696  0.00  0.00    +0.000 A 
ATOM     40  C   UNL     1     -15.113  58.905  52.938  0.00  0.00    +0.000 A 
ENDBRANCH  34  35
ENDBRANCH  33  34
ENDBRANCH  10  33
TORSDOF 8
ENDMDL
MODEL 5
REMARK VINA RESULT:      -8.6      1.732      6.555
REMARK  Name = 338030
REMARK  10 active torsions:
REMARK  status: ('A' for Active; 'I' for Inactive)
REMARK    1  A    between atoms: C_6  and  C_10
REMARK    2  A    between atoms: C_14  and  O_18
REMARK    3  A    between atoms: N_17  and  C_21
REMARK    4  A    between atoms: C_21  and  C_24
REMARK    5  A    between atoms: C_24  and  C_27
REMARK    6  A    between atoms: C_25  and  O_28
REMARK    7  A    between atoms: C_27  and  C_29
REMARK    8  A    between atoms: C_27  and  C_30
REMARK    9  A    between atoms: O_28  and  C_31
REMARK   10  A    between atoms: C_31  and  C_32
REMARK                            x       y       z     vdW  Elec       q    Type
REMARK                         _______ _______ _______ _____ _____    ______ ____
ROOT
ATOM      1  C   UNL     1     -10.066  54.147  51.060  0.00  0.00    +0.000 A 
ATOM      2  C   UNL     1     -11.063  55.210  51.398  0.00  0.00    +0.000 A 
ATOM      3  C   UNL     1      -9.918  53.743  49.792  0.00  0.00    +0.000 A 
ATOM      4  O   UNL     1     -11.075  55.648  52.552  0.00  0.00    +0.000 OA
ATOM      5  N   UNL     1     -11.916  55.669  50.398  0.00  0.00    +0.000 N 
ATOM      6  C   UNL     1     -10.723  54.350  48.731  0.00  0.00    +0.000 A 
ATOM      7  C   UNL     1     -11.703  55.307  49.033  0.00  0.00    +0.000 A 
ATOM      8  C   UNL     1     -10.504  53.974  47.403  0.00  0.00    +0.000 A 
ATOM      9  C   UNL     1     -12.412  55.894  47.973  0.00  0.00    +0.000 A 
ATOM     10  C   UNL     1     -11.271  54.500  46.371  0.00  0.00    +0.000 A 
ATOM     11  C   UNL     1     -12.205  55.486  46.653  0.00  0.00    +0.000 A 
ENDROOT
BRANCH   1  17
ATOM     12  S   UNL     1      -6.826  53.299  53.110  0.00  0.00    +0.000 S 
ATOM     13  O   UNL     1      -6.390  54.403  53.941  0.00  0.00    +0.000 OA
ATOM     14  O   UNL     1      -5.858  52.503  52.378  0.00  0.00    +0.000 OA
ATOM     15  N   UNL     1      -7.899  53.880  52.042  0.00  0.00    +0.000 N 
ATOM     16  C   UNL     1      -7.663  52.183  54.174  0.00  0.00    +0.000 A 
ATOM     17  C   UNL     1      -9.164  53.596  52.140  0.00  0.00    +0.000 C 
ATOM     18  C   UNL     1      -9.039  52.078  54.052  0.00  0.00    +0.000 A 
ATOM     19  C   UNL     1      -6.943  51.421  55.097  0.00  0.00    +0.000 A 
ATOM     20  N   UNL     1      -9.747  52.844  53.134  0.00  0.00    +0.000 N 
ATOM     21  C   UNL     1      -9.721  51.233  54.933  0.00  0.00    +0.000 A 
ATOM     22  C   UNL     1      -7.632  50.557  55.944  0.00  0.00    +0.000 A 
ATOM     23  C   UNL     1      -9.022  50.470  55.868  0.00  0.00    +0.000 A 
ATOM     24  H   UNL     1      -7.587  54.457  51.308  0.00  0.00    +0.000 HD
ATOM     25  H   UNL     1     -10.730  52.847  53.197  0.00  0.00    +0.000 HD
ENDBRANCH   1  17
BRANCH   3  26
ATOM     26  O   UNL     1      -9.006  52.789  49.369  0.00  0.00    +0.000 OA
ATOM     27  H   UNL     1      -8.502  52.310  49.999  0.00  0.00    +0.000 HD
ENDBRANCH   3  26
BRANCH   5  28
ATOM     28  C   UNL     1     -12.945  56.646  50.769  0.00  0.00    +0.000 C 
BRANCH  28  29
ATOM     29  C   UNL     1     -14.305  56.059  51.187  0.00  0.00    +0.000 C 
BRANCH  29  30
ATOM     30  C   UNL     1     -15.394  57.061  51.603  0.00  0.00    +0.000 C 
ATOM     31  C   UNL     1     -15.303  57.448  53.077  0.00  0.00    +0.000 C 
ATOM     32  C   UNL     1     -15.266  58.317  50.730  0.00  0.00    +0.000 C 
ENDBRANCH  29  30
ENDBRANCH  28  29
ENDBRANCH   5  28
BRANCH  10  33
ATOM     33  O   UNL     1     -11.172  54.109  45.067  0.00  0.00    +0.000 OA
BRANCH  33  34
ATOM     34  C   UNL     1     -11.295  52.694  44.875  0.00  0.00    +0.000 C 
BRANCH  34  35
ATOM     35  C   UNL     1     -10.113  52.162  44.110  0.00  0.00    +0.000 A 
ATOM     36  C   UNL     1      -9.805  52.627  42.828  0.00  0.00    +0.000 A 
ATOM     37  C   UNL     1      -9.284  51.207  44.715  0.00  0.00    +0.000 A 
ATOM     38  C   UNL     1      -8.705  52.118  42.145  0.00  0.00    +0.000 A 
ATOM     39  C   UNL     1      -8.185  50.696  44.031  0.00  0.00    +0.000 A 
ATOM     40  C   UNL     1      -7.900  51.147  42.744  0.00  0.00    +0.000 A 
ENDBRANCH  34  35
ENDBRANCH  33  34
ENDBRANCH  10  33
TORSDOF 8
ENDMDL
MODEL 6
REMARK VINA RESULT:      -8.3      2.638      7.811
REMARK  Name = 338030
REMARK  10 active torsions:
REMARK  status: ('A' for Active; 'I' for Inactive)
REMARK    1  A    between atoms: C_6  and  C_10
REMARK    2  A    between atoms: C_14  and  O_18
REMARK    3  A    between atoms: N_17  and  C_21
REMARK    4  A    between atoms: C_21  and  C_24
REMARK    5  A    between atoms: C_24  and  C_27
REMARK    6  A    between atoms: C_25  and  O_28
REMARK    7  A    between atoms: C_27  and  C_29
REMARK    8  A    between atoms: C_27  and  C_30
REMARK    9  A    between atoms: O_28  and  C_31
REMARK   10  A    between atoms: C_31  and  C_32
REMARK                            x       y       z     vdW  Elec       q    Type
REMARK                         _______ _______ _______ _____ _____    ______ ____
ROOT
ATOM      1  C   UNL     1     -10.798  55.696  48.727  0.00  0.00    +0.000 A 
ATOM      2  C   UNL     1     -11.129  55.215  47.350  0.00  0.00    +0.000 A 
ATOM      3  C   UNL     1      -9.553  55.564  49.204  0.00  0.00    +0.000 A 
ATOM      4  O   UNL     1     -12.248  55.474  46.899  0.00  0.00    +0.000 OA
ATOM      5  N   UNL     1     -10.162  54.514  46.635  0.00  0.00    +0.000 N 
ATOM      6  C   UNL     1      -8.511  54.958  48.373  0.00  0.00    +0.000 A 
ATOM      7  C   UNL     1      -8.813  54.449  47.101  0.00  0.00    +0.000 A 
ATOM      8  C   UNL     1      -7.200  54.897  48.853  0.00  0.00    +0.000 A 
ATOM      9  C   UNL     1      -7.767  53.925  46.326  0.00  0.00    +0.000 A 
ATOM     10  C   UNL     1      -6.190  54.298  48.111  0.00  0.00    +0.000 A 
ATOM     11  C   UNL     1      -6.467  53.840  46.831  0.00  0.00    +0.000 A 
ENDROOT
BRANCH   1  17
ATOM     12  S   UNL     1     -13.547  56.391  51.442  0.00  0.00    +0.000 S 
ATOM     13  O   UNL     1     -12.981  56.694  52.741  0.00  0.00    +0.000 OA
ATOM     14  O   UNL     1     -14.714  55.534  51.332  0.00  0.00    +0.000 OA
ATOM     15  N   UNL     1     -12.371  55.747  50.531  0.00  0.00    +0.000 N 
ATOM     16  C   UNL     1     -14.008  57.929  50.736  0.00  0.00    +0.000 A 
ATOM     17  C   UNL     1     -11.848  56.412  49.543  0.00  0.00    +0.000 C 
ATOM     18  C   UNL     1     -13.261  58.403  49.670  0.00  0.00    +0.000 A 
ATOM     19  C   UNL     1     -15.108  58.629  51.236  0.00  0.00    +0.000 A 
ATOM     20  N   UNL     1     -12.166  57.701  49.181  0.00  0.00    +0.000 N 
ATOM     21  C   UNL     1     -13.586  59.653  49.135  0.00  0.00    +0.000 A 
ATOM     22  C   UNL     1     -15.441  59.857  50.671  0.00  0.00    +0.000 A 
ATOM     23  C   UNL     1     -14.675  60.373  49.626  0.00  0.00    +0.000 A 
ATOM     24  H   UNL     1     -12.049  54.838  50.728  0.00  0.00    +0.000 HD
ATOM     25  H   UNL     1     -11.579  58.155  48.533  0.00  0.00    +0.000 HD
ENDBRANCH   1  17
BRANCH   3  26
ATOM     26  O   UNL     1      -9.135  56.000  50.451  0.00  0.00    +0.000 OA
ATOM     27  H   UNL     1      -9.566  56.724  50.863  0.00  0.00    +0.000 HD
ENDBRANCH   3  26
BRANCH   5  28
ATOM     28  C   UNL     1     -10.535  53.973  45.323  0.00  0.00    +0.000 C 
BRANCH  28  29
ATOM     29  C   UNL     1     -11.418  52.714  45.347  0.00  0.00    +0.000 C 
BRANCH  29  30
ATOM     30  C   UNL     1     -11.226  51.755  46.533  0.00  0.00    +0.000 C 
ATOM     31  C   UNL     1     -12.493  50.970  46.864  0.00  0.00    +0.000 C 
ATOM     32  C   UNL     1     -10.087  50.782  46.200  0.00  0.00    +0.000 C 
ENDBRANCH  29  30
ENDBRANCH  28  29
ENDBRANCH   5  28
BRANCH  10  33
ATOM     33  O   UNL     1      -4.912  54.122  48.558  0.00  0.00    +0.000 OA
BRANCH  33  34
ATOM     34  C   UNL     1      -4.709  52.891  49.263  0.00  0.00    +0.000 C 
BRANCH  34  35
ATOM     35  C   UNL     1      -4.852  53.103  50.746  0.00  0.00    +0.000 A 
ATOM     36  C   UNL     1      -4.054  54.025  51.431  0.00  0.00    +0.000 A 
ATOM     37  C   UNL     1      -5.833  52.386  51.445  0.00  0.00    +0.000 A 
ATOM     38  C   UNL     1      -4.210  54.202  52.802  0.00  0.00    +0.000 A 
ATOM     39  C   UNL     1      -5.986  52.561  52.818  0.00  0.00    +0.000 A 
ATOM     40  C   UNL     1      -5.171  53.465  53.496  0.00  0.00    +0.000 A 
ENDBRANCH  34  35
ENDBRANCH  33  34
ENDBRANCH  10  33
TORSDOF 8
ENDMDL
MODEL 7
REMARK VINA RESULT:      -8.2      2.894      8.347
REMARK  Name = 338030
REMARK  10 active torsions:
REMARK  status: ('A' for Active; 'I' for Inactive)
REMARK    1  A    between atoms: C_6  and  C_10
REMARK    2  A    between atoms: C_14  and  O_18
REMARK    3  A    between atoms: N_17  and  C_21
REMARK    4  A    between atoms: C_21  and  C_24
REMARK    5  A    between atoms: C_24  and  C_27
REMARK    6  A    between atoms: C_25  and  O_28
REMARK    7  A    between atoms: C_27  and  C_29
REMARK    8  A    between atoms: C_27  and  C_30
REMARK    9  A    between atoms: O_28  and  C_31
REMARK   10  A    between atoms: C_31  and  C_32
REMARK                            x       y       z     vdW  Elec       q    Type
REMARK                         _______ _______ _______ _____ _____    ______ ____
ROOT
ATOM      1  C   UNL     1     -11.406  54.777  50.309  0.00  0.00    +0.000 A 
ATOM      2  C   UNL     1     -10.475  54.503  51.446  0.00  0.00    +0.000 A 
ATOM      3  C   UNL     1     -11.437  53.954  49.252  0.00  0.00    +0.000 A 
ATOM      4  O   UNL     1     -10.571  55.204  52.457  0.00  0.00    +0.000 OA
ATOM      5  N   UNL     1      -9.557  53.463  51.324  0.00  0.00    +0.000 N 
ATOM      6  C   UNL     1     -10.566  52.779  49.213  0.00  0.00    +0.000 A 
ATOM      7  C   UNL     1      -9.644  52.535  50.242  0.00  0.00    +0.000 A 
ATOM      8  C   UNL     1     -10.663  51.888  48.140  0.00  0.00    +0.000 A 
ATOM      9  C   UNL     1      -8.869  51.366  50.181  0.00  0.00    +0.000 A 
ATOM     10  C   UNL     1      -9.829  50.780  48.049  0.00  0.00    +0.000 A 
ATOM     11  C   UNL     1      -8.953  50.501  49.087  0.00  0.00    +0.000 A 
ENDROOT
BRANCH   1  17
ATOM     12  S   UNL     1     -13.334  58.077  49.409  0.00  0.00    +0.000 S 
ATOM     13  O   UNL     1     -14.387  57.857  48.437  0.00  0.00    +0.000 OA
ATOM     14  O   UNL     1     -12.484  59.250  49.318  0.00  0.00    +0.000 OA
ATOM     15  N   UNL     1     -12.377  56.768  49.401  0.00  0.00    +0.000 N 
ATOM     16  C   UNL     1     -14.121  58.170  50.973  0.00  0.00    +0.000 A 
ATOM     17  C   UNL     1     -12.377  55.932  50.397  0.00  0.00    +0.000 C 
ATOM     18  C   UNL     1     -13.939  57.118  51.855  0.00  0.00    +0.000 A 
ATOM     19  C   UNL     1     -14.889  59.288  51.306  0.00  0.00    +0.000 A 
ATOM     20  N   UNL     1     -13.177  56.007  51.513  0.00  0.00    +0.000 N 
ATOM     21  C   UNL     1     -14.607  57.157  53.083  0.00  0.00    +0.000 A 
ATOM     22  C   UNL     1     -15.520  59.330  52.547  0.00  0.00    +0.000 A 
ATOM     23  C   UNL     1     -15.386  58.260  53.432  0.00  0.00    +0.000 A 
ATOM     24  H   UNL     1     -11.787  56.605  48.630  0.00  0.00    +0.000 HD
ATOM     25  H   UNL     1     -13.210  55.224  52.110  0.00  0.00    +0.000 HD
ENDBRANCH   1  17
BRANCH   3  26
ATOM     26  O   UNL     1     -12.280  54.101  48.162  0.00  0.00    +0.000 OA
ATOM     27  H   UNL     1     -12.644  54.942  47.961  0.00  0.00    +0.000 HD
ENDBRANCH   3  26
BRANCH   5  28
ATOM     28  C   UNL     1      -8.592  53.267  52.412  0.00  0.00    +0.000 C 
BRANCH  28  29
ATOM     29  C   UNL     1      -7.179  53.821  52.161  0.00  0.00    +0.000 C 
BRANCH  29  30
ATOM     30  C   UNL     1      -6.872  55.218  52.727  0.00  0.00    +0.000 C 
ATOM     31  C   UNL     1      -7.344  56.341  51.806  0.00  0.00    +0.000 C 
ATOM     32  C   UNL     1      -7.550  55.353  54.097  0.00  0.00    +0.000 C 
ENDBRANCH  29  30
ENDBRANCH  28  29
ENDBRANCH   5  28
BRANCH  10  33
ATOM     33  O   UNL     1      -9.808  49.925  46.985  0.00  0.00    +0.000 OA
BRANCH  33  34
ATOM     34  C   UNL     1      -8.671  50.091  46.129  0.00  0.00    +0.000 C 
BRANCH  34  35
ATOM     35  C   UNL     1      -9.008  50.999  44.977  0.00  0.00    +0.000 A 
ATOM     36  C   UNL     1      -8.428  52.265  44.852  0.00  0.00    +0.000 A 
ATOM     37  C   UNL     1      -9.895  50.547  43.990  0.00  0.00    +0.000 A 
ATOM     38  C   UNL     1      -8.757  53.082  43.775  0.00  0.00    +0.000 A 
ATOM     39  C   UNL     1     -10.226  51.366  42.914  0.00  0.00    +0.000 A 
ATOM     40  C   UNL     1      -9.661  52.635  42.811  0.00  0.00    +0.000 A 
ENDBRANCH  34  35
ENDBRANCH  33  34
ENDBRANCH  10  33
TORSDOF 8
ENDMDL
MODEL 8
REMARK VINA RESULT:      -8.2      3.187      8.678
REMARK  Name = 338030
REMARK  10 active torsions:
REMARK  status: ('A' for Active; 'I' for Inactive)
REMARK    1  A    between atoms: C_6  and  C_10
REMARK    2  A    between atoms: C_14  and  O_18
REMARK    3  A    between atoms: N_17  and  C_21
REMARK    4  A    between atoms: C_21  and  C_24
REMARK    5  A    between atoms: C_24  and  C_27
REMARK    6  A    between atoms: C_25  and  O_28
REMARK    7  A    between atoms: C_27  and  C_29
REMARK    8  A    between atoms: C_27  and  C_30
REMARK    9  A    between atoms: O_28  and  C_31
REMARK   10  A    between atoms: C_31  and  C_32
REMARK                            x       y       z     vdW  Elec       q    Type
REMARK                         _______ _______ _______ _____ _____    ______ ____
ROOT
ATOM      1  C   UNL     1     -11.914  54.439  50.550  0.00  0.00    +0.000 A 
ATOM      2  C   UNL     1     -11.039  54.054  51.700  0.00  0.00    +0.000 A 
ATOM      3  C   UNL     1     -11.896  53.719  49.421  0.00  0.00    +0.000 A 
ATOM      4  O   UNL     1     -11.183  54.659  52.766  0.00  0.00    +0.000 OA
ATOM      5  N   UNL     1     -10.120  53.023  51.526  0.00  0.00    +0.000 N 
ATOM      6  C   UNL     1     -11.028  52.545  49.315  0.00  0.00    +0.000 A 
ATOM      7  C   UNL     1     -10.158  52.200  50.360  0.00  0.00    +0.000 A 
ATOM      8  C   UNL     1     -11.075  51.759  48.160  0.00  0.00    +0.000 A 
ATOM      9  C   UNL     1      -9.384  51.036  50.227  0.00  0.00    +0.000 A 
ATOM     10  C   UNL     1     -10.242  50.658  48.005  0.00  0.00    +0.000 A 
ATOM     11  C   UNL     1      -9.418  50.277  49.054  0.00  0.00    +0.000 A 
ENDROOT
BRANCH   1  17
ATOM     12  S   UNL     1     -15.211  56.435  51.301  0.00  0.00    +0.000 S 
ATOM     13  O   UNL     1     -15.396  56.688  52.716  0.00  0.00    +0.000 OA
ATOM     14  O   UNL     1     -16.337  56.047  50.471  0.00  0.00    +0.000 OA
ATOM     15  N   UNL     1     -14.068  55.295  51.151  0.00  0.00    +0.000 N 
ATOM     16  C   UNL     1     -14.593  57.925  50.612  0.00  0.00    +0.000 A 
ATOM     17  C   UNL     1     -12.884  55.589  50.699  0.00  0.00    +0.000 C 
ATOM     18  C   UNL     1     -13.270  57.951  50.203  0.00  0.00    +0.000 A 
ATOM     19  C   UNL     1     -15.431  59.034  50.472  0.00  0.00    +0.000 A 
ATOM     20  N   UNL     1     -12.443  56.843  50.349  0.00  0.00    +0.000 N 
ATOM     21  C   UNL     1     -12.752  59.149  49.703  0.00  0.00    +0.000 A 
ATOM     22  C   UNL     1     -14.911  60.211  49.940  0.00  0.00    +0.000 A 
ATOM     23  C   UNL     1     -13.569  60.271  49.564  0.00  0.00    +0.000 A 
ATOM     24  H   UNL     1     -14.273  54.367  51.406  0.00  0.00    +0.000 HD
ATOM     25  H   UNL     1     -11.478  56.965  50.191  0.00  0.00    +0.000 HD
ENDBRANCH   1  17
BRANCH   3  26
ATOM     26  O   UNL     1     -12.685  53.973  48.310  0.00  0.00    +0.000 OA
ATOM     27  H   UNL     1     -12.363  54.521  47.621  0.00  0.00    +0.000 HD
ENDBRANCH   3  26
BRANCH   5  28
ATOM     28  C   UNL     1      -9.210  52.720  52.636  0.00  0.00    +0.000 C 
BRANCH  28  29
ATOM     29  C   UNL     1      -7.859  53.456  52.614  0.00  0.00    +0.000 C 
BRANCH  29  30
ATOM     30  C   UNL     1      -7.790  54.799  53.360  0.00  0.00    +0.000 C 
ATOM     31  C   UNL     1      -6.732  54.805  54.460  0.00  0.00    +0.000 C 
ATOM     32  C   UNL     1      -7.488  55.910  52.345  0.00  0.00    +0.000 C 
ENDBRANCH  29  30
ENDBRANCH  28  29
ENDBRANCH   5  28
BRANCH  10  33
ATOM     33  O   UNL     1     -10.172  49.905  46.869  0.00  0.00    +0.000 OA
BRANCH  33  34
ATOM     34  C   UNL     1      -8.950  50.067  46.140  0.00  0.00    +0.000 C 
BRANCH  34  35
ATOM     35  C   UNL     1      -9.167  50.948  44.938  0.00  0.00    +0.000 A 
ATOM     36  C   UNL     1      -9.875  50.496  43.821  0.00  0.00    +0.000 A 
ATOM     37  C   UNL     1      -8.680  52.262  44.960  0.00  0.00    +0.000 A 
ATOM     38  C   UNL     1     -10.062  51.332  42.725  0.00  0.00    +0.000 A 
ATOM     39  C   UNL     1      -8.864  53.098  43.862  0.00  0.00    +0.000 A 
ATOM     40  C   UNL     1      -9.551  52.630  42.743  0.00  0.00    +0.000 A 
ENDBRANCH  34  35
ENDBRANCH  33  34
ENDBRANCH  10  33
TORSDOF 8
ENDMDL
MODEL 9
REMARK VINA RESULT:      -7.9      2.602      7.883
REMARK  Name = 338030
REMARK  10 active torsions:
REMARK  status: ('A' for Active; 'I' for Inactive)
REMARK    1  A    between atoms: C_6  and  C_10
REMARK    2  A    between atoms: C_14  and  O_18
REMARK    3  A    between atoms: N_17  and  C_21
REMARK    4  A    between atoms: C_21  and  C_24
REMARK    5  A    between atoms: C_24  and  C_27
REMARK    6  A    between atoms: C_25  and  O_28
REMARK    7  A    between atoms: C_27  and  C_29
REMARK    8  A    between atoms: C_27  and  C_30
REMARK    9  A    between atoms: O_28  and  C_31
REMARK   10  A    between atoms: C_31  and  C_32
REMARK                            x       y       z     vdW  Elec       q    Type
REMARK                         _______ _______ _______ _____ _____    ______ ____
ROOT
ATOM      1  C   UNL     1     -10.437  55.879  48.817  0.00  0.00    +0.000 A 
ATOM      2  C   UNL     1      -9.112  55.678  49.482  0.00  0.00    +0.000 A 
ATOM      3  C   UNL     1     -10.632  55.449  47.563  0.00  0.00    +0.000 A 
ATOM      4  O   UNL     1      -9.014  55.966  50.678  0.00  0.00    +0.000 OA
ATOM      5  N   UNL     1      -8.059  55.162  48.732  0.00  0.00    +0.000 N 
ATOM      6  C   UNL     1      -9.552  54.771  46.846  0.00  0.00    +0.000 A 
ATOM      7  C   UNL     1      -8.285  54.623  47.429  0.00  0.00    +0.000 A 
ATOM      8  C   UNL     1      -9.793  54.260  45.567  0.00  0.00    +0.000 A 
ATOM      9  C   UNL     1      -7.300  53.921  46.717  0.00  0.00    +0.000 A 
ATOM     10  C   UNL     1      -8.785  53.642  44.838  0.00  0.00    +0.000 A 
ATOM     11  C   UNL     1      -7.545  53.443  45.427  0.00  0.00    +0.000 A 
ENDROOT
BRANCH   1  17
ATOM     12  S   UNL     1     -13.385  56.264  51.381  0.00  0.00    +0.000 S 
ATOM     13  O   UNL     1     -12.920  56.541  52.725  0.00  0.00    +0.000 OA
ATOM     14  O   UNL     1     -14.483  55.339  51.160  0.00  0.00    +0.000 OA
ATOM     15  N   UNL     1     -12.116  55.742  50.519  0.00  0.00    +0.000 N 
ATOM     16  C   UNL     1     -13.906  57.800  50.715  0.00  0.00    +0.000 A 
ATOM     17  C   UNL     1     -11.581  56.487  49.596  0.00  0.00    +0.000 C 
ATOM     18  C   UNL     1     -13.130  58.372  49.720  0.00  0.00    +0.000 A 
ATOM     19  C   UNL     1     -15.079  58.403  51.175  0.00  0.00    +0.000 A 
ATOM     20  N   UNL     1     -11.962  57.767  49.272  0.00  0.00    +0.000 N 
ATOM     21  C   UNL     1     -13.506  59.623  49.221  0.00  0.00    +0.000 A 
ATOM     22  C   UNL     1     -15.461  59.632  50.644  0.00  0.00    +0.000 A 
ATOM     23  C   UNL     1     -14.670  60.247  49.673  0.00  0.00    +0.000 A 
ATOM     24  H   UNL     1     -11.745  54.848  50.696  0.00  0.00    +0.000 HD
ATOM     25  H   UNL     1     -11.370  58.289  48.682  0.00  0.00    +0.000 HD
ENDBRANCH   1  17
BRANCH   3  26
ATOM     26  O   UNL     1     -11.826  55.560  46.869  0.00  0.00    +0.000 OA
ATOM     27  H   UNL     1     -11.884  55.253  45.985  0.00  0.00    +0.000 HD
ENDBRANCH   3  26
BRANCH   5  28
ATOM     28  C   UNL     1      -6.745  55.056  49.376  0.00  0.00    +0.000 C 
BRANCH  28  29
ATOM     29  C   UNL     1      -6.336  53.645  49.833  0.00  0.00    +0.000 C 
BRANCH  29  30
ATOM     30  C   UNL     1      -6.460  53.340  51.335  0.00  0.00    +0.000 C 
ATOM     31  C   UNL     1      -6.197  54.566  52.206  0.00  0.00    +0.000 C 
ATOM     32  C   UNL     1      -7.870  52.801  51.613  0.00  0.00    +0.000 C 
ENDBRANCH  29  30
ENDBRANCH  28  29
ENDBRANCH   5  28
BRANCH  10  33
ATOM     33  O   UNL     1      -8.927  53.204  43.553  0.00  0.00    +0.000 OA
BRANCH  33  34
ATOM     34  C   UNL     1     -10.244  52.731  43.244  0.00  0.00    +0.000 C 
BRANCH  34  35
ATOM     35  C   UNL     1     -10.581  51.527  44.082  0.00  0.00    +0.000 A 
ATOM     36  C   UNL     1      -9.725  50.423  44.150  0.00  0.00    +0.000 A 
ATOM     37  C   UNL     1     -11.761  51.533  44.839  0.00  0.00    +0.000 A 
ATOM     38  C   UNL     1     -10.061  49.325  44.935  0.00  0.00    +0.000 A 
ATOM     39  C   UNL     1     -12.099  50.432  45.622  0.00  0.00    +0.000 A 
ATOM     40  C   UNL     1     -11.251  49.327  45.665  0.00  0.00    +0.000 A 
ENDBRANCH  34  35
ENDBRANCH  33  34
ENDBRANCH  10  33
TORSDOF 8
ENDMDL
