MODEL 1
REMARK VINA RESULT:      -8.3      0.000      0.000
REMARK  Name = 338289
REMARK  4 active torsions:
REMARK  status: ('A' for Active; 'I' for Inactive)
REMARK    1  A    between atoms: C_6  and  C_10
REMARK    2  A    between atoms: C_14  and  O_18
REMARK    3  A    between atoms: N_17  and  C_21
REMARK    4  A    between atoms: C_21  and  C_24
REMARK                            x       y       z     vdW  Elec       q    Type
REMARK                         _______ _______ _______ _____ _____    ______ ____
ROOT
ATOM      1  C   UNL     1     -11.021  54.776  50.727  0.00  0.00    +0.000 A 
ATOM      2  C   UNL     1     -12.025  55.532  51.527  0.00  0.00    +0.000 A 
ATOM      3  C   UNL     1     -11.070  54.839  49.385  0.00  0.00    +0.000 A 
ATOM      4  O   UNL     1     -11.750  55.821  52.695  0.00  0.00    +0.000 OA
ATOM      5  N   UNL     1     -13.229  55.856  50.918  0.00  0.00    +0.000 N 
ATOM      6  C   UNL     1     -12.133  55.626  48.737  0.00  0.00    +0.000 A 
ATOM      7  C   UNL     1     -13.247  56.050  49.498  0.00  0.00    +0.000 A 
ATOM      8  C   UNL     1     -12.040  55.981  47.383  0.00  0.00    +0.000 A 
ATOM      9  C   UNL     1     -14.274  56.756  48.857  0.00  0.00    +0.000 A 
ATOM     10  C   UNL     1     -13.028  56.760  46.784  0.00  0.00    +0.000 A 
ATOM     11  C   UNL     1     -14.149  57.135  47.517  0.00  0.00    +0.000 A 
ENDROOT
BRANCH   1  17
ATOM     12  S   UNL     1      -8.853  51.888  52.254  0.00  0.00    +0.000 S 
ATOM     13  O   UNL     1      -7.923  51.261  51.334  0.00  0.00    +0.000 OA
ATOM     14  O   UNL     1      -9.618  51.074  53.183  0.00  0.00    +0.000 OA
ATOM     15  N   UNL     1      -9.904  52.761  51.374  0.00  0.00    +0.000 N 
ATOM     16  C   UNL     1      -7.906  52.982  53.245  0.00  0.00    +0.000 A 
ATOM     17  C   UNL     1      -9.920  54.057  51.459  0.00  0.00    +0.000 C 
ATOM     18  C   UNL     1      -8.134  54.339  53.105  0.00  0.00    +0.000 A 
ATOM     19  C   UNL     1      -6.969  52.483  54.155  0.00  0.00    +0.000 A 
ATOM     20  N   UNL     1      -9.045  54.831  52.183  0.00  0.00    +0.000 N 
ATOM     21  C   UNL     1      -7.355  55.228  53.855  0.00  0.00    +0.000 A 
ATOM     22  C   UNL     1      -6.217  53.378  54.912  0.00  0.00    +0.000 A 
ATOM     23  C   UNL     1      -6.402  54.751  54.761  0.00  0.00    +0.000 A 
ATOM     24  H   UNL     1     -10.535  52.304  50.772  0.00  0.00    +0.000 HD
ATOM     25  H   UNL     1      -9.068  55.805  52.036  0.00  0.00    +0.000 HD
ENDBRANCH   1  17
BRANCH   3  26
ATOM     26  O   UNL     1     -10.160  54.237  48.534  0.00  0.00    +0.000 OA
ATOM     27  H   UNL     1     -10.132  54.482  47.630  0.00  0.00    +0.000 HD
ENDBRANCH   3  26
BRANCH   5  28
ATOM     28  C   UNL     1     -14.298  56.353  51.783  0.00  0.00    +0.000 C 
BRANCH  28  29
ATOM     29  C   UNL     1     -14.140  57.765  52.286  0.00  0.00    +0.000 C 
ATOM     30  C   UNL     1     -15.240  58.436  53.080  0.00  0.00    +0.000 C 
ATOM     31  C   UNL     1     -14.832  58.994  51.746  0.00  0.00    +0.000 C 
ENDBRANCH  28  29
ENDBRANCH   5  28
TORSDOF 4
ENDMDL
MODEL 2
REMARK VINA RESULT:      -8.2      2.459      7.722
REMARK  Name = 338289
REMARK  4 active torsions:
REMARK  status: ('A' for Active; 'I' for Inactive)
REMARK    1  A    between atoms: C_6  and  C_10
REMARK    2  A    between atoms: C_14  and  O_18
REMARK    3  A    between atoms: N_17  and  C_21
REMARK    4  A    between atoms: C_21  and  C_24
REMARK                            x       y       z     vdW  Elec       q    Type
REMARK                         _______ _______ _______ _____ _____    ______ ____
ROOT
ATOM      1  C   UNL     1     -10.215  54.153  52.374  0.00  0.00    +0.000 A 
ATOM      2  C   UNL     1      -8.815  54.660  52.400  0.00  0.00    +0.000 A 
ATOM      3  C   UNL     1     -10.528  53.055  53.084  0.00  0.00    +0.000 A 
ATOM      4  O   UNL     1      -8.613  55.845  52.121  0.00  0.00    +0.000 OA
ATOM      5  N   UNL     1      -7.806  53.763  52.721  0.00  0.00    +0.000 N 
ATOM      6  C   UNL     1      -9.474  52.361  53.844  0.00  0.00    +0.000 A 
ATOM      7  C   UNL     1      -8.117  52.664  53.587  0.00  0.00    +0.000 A 
ATOM      8  C   UNL     1      -9.802  51.424  54.836  0.00  0.00    +0.000 A 
ATOM      9  C   UNL     1      -7.125  51.960  54.283  0.00  0.00    +0.000 A 
ATOM     10  C   UNL     1      -8.803  50.800  55.580  0.00  0.00    +0.000 A 
ATOM     11  C   UNL     1      -7.467  51.059  55.294  0.00  0.00    +0.000 A 
ENDROOT
BRANCH   1  17
ATOM     12  S   UNL     1     -12.133  55.961  49.472  0.00  0.00    +0.000 S 
ATOM     13  O   UNL     1     -13.008  55.111  48.686  0.00  0.00    +0.000 OA
ATOM     14  O   UNL     1     -11.303  56.957  48.816  0.00  0.00    +0.000 OA
ATOM     15  N   UNL     1     -11.159  54.995  50.343  0.00  0.00    +0.000 N 
ATOM     16  C   UNL     1     -13.170  56.852  50.572  0.00  0.00    +0.000 A 
ATOM     17  C   UNL     1     -11.252  54.958  51.638  0.00  0.00    +0.000 C 
ATOM     18  C   UNL     1     -13.056  56.583  51.924  0.00  0.00    +0.000 A 
ATOM     19  C   UNL     1     -14.062  57.812  50.084  0.00  0.00    +0.000 A 
ATOM     20  N   UNL     1     -12.189  55.612  52.401  0.00  0.00    +0.000 N 
ATOM     21  C   UNL     1     -13.907  57.253  52.811  0.00  0.00    +0.000 A 
ATOM     22  C   UNL     1     -14.886  58.488  50.981  0.00  0.00    +0.000 A 
ATOM     23  C   UNL     1     -14.817  58.207  52.343  0.00  0.00    +0.000 A 
ATOM     24  H   UNL     1     -10.493  54.433  49.885  0.00  0.00    +0.000 HD
ATOM     25  H   UNL     1     -12.248  55.374  53.355  0.00  0.00    +0.000 HD
ENDBRANCH   1  17
BRANCH   3  26
ATOM     26  O   UNL     1     -11.801  52.524  53.194  0.00  0.00    +0.000 OA
ATOM     27  H   UNL     1     -12.342  52.444  52.433  0.00  0.00    +0.000 HD
ENDBRANCH   3  26
BRANCH   5  28
ATOM     28  C   UNL     1      -6.430  54.198  52.483  0.00  0.00    +0.000 C 
BRANCH  28  29
ATOM     29  C   UNL     1      -5.798  53.721  51.201  0.00  0.00    +0.000 C 
ATOM     30  C   UNL     1      -4.293  53.678  51.043  0.00  0.00    +0.000 C 
ATOM     31  C   UNL     1      -5.113  54.579  50.162  0.00  0.00    +0.000 C 
ENDBRANCH  28  29
ENDBRANCH   5  28
TORSDOF 4
ENDMDL
MODEL 3
REMARK VINA RESULT:      -8.2      3.357      7.030
REMARK  Name = 338289
REMARK  4 active torsions:
REMARK  status: ('A' for Active; 'I' for Inactive)
REMARK    1  A    between atoms: C_6  and  C_10
REMARK    2  A    between atoms: C_14  and  O_18
REMARK    3  A    between atoms: N_17  and  C_21
REMARK    4  A    between atoms: C_21  and  C_24
REMARK                            x       y       z     vdW  Elec       q    Type
REMARK                         _______ _______ _______ _____ _____    ______ ____
ROOT
ATOM      1  C   UNL     1     -11.871  56.158  48.539  0.00  0.00    +0.000 A 
ATOM      2  C   UNL     1     -10.798  55.476  49.315  0.00  0.00    +0.000 A 
ATOM      3  C   UNL     1     -12.063  55.823  47.252  0.00  0.00    +0.000 A 
ATOM      4  O   UNL     1     -10.883  55.458  50.546  0.00  0.00    +0.000 OA
ATOM      5  N   UNL     1      -9.747  54.910  48.609  0.00  0.00    +0.000 N 
ATOM      6  C   UNL     1     -11.190  54.812  46.630  0.00  0.00    +0.000 A 
ATOM      7  C   UNL     1      -9.992  54.434  47.279  0.00  0.00    +0.000 A 
ATOM      8  C   UNL     1     -11.545  54.204  45.416  0.00  0.00    +0.000 A 
ATOM      9  C   UNL     1      -9.147  53.509  46.652  0.00  0.00    +0.000 A 
ATOM     10  C   UNL     1     -10.736  53.221  44.852  0.00  0.00    +0.000 A 
ATOM     11  C   UNL     1      -9.533  52.884  45.463  0.00  0.00    +0.000 A 
ENDROOT
BRANCH   1  17
ATOM     12  S   UNL     1     -13.691  59.476  49.565  0.00  0.00    +0.000 S 
ATOM     13  O   UNL     1     -14.860  59.810  48.772  0.00  0.00    +0.000 OA
ATOM     14  O   UNL     1     -12.747  60.513  49.944  0.00  0.00    +0.000 OA
ATOM     15  N   UNL     1     -12.870  58.320  48.770  0.00  0.00    +0.000 N 
ATOM     16  C   UNL     1     -14.292  58.804  51.071  0.00  0.00    +0.000 A 
ATOM     17  C   UNL     1     -12.772  57.122  49.263  0.00  0.00    +0.000 C 
ATOM     18  C   UNL     1     -14.046  57.466  51.322  0.00  0.00    +0.000 A 
ATOM     19  C   UNL     1     -14.978  59.610  51.983  0.00  0.00    +0.000 A 
ATOM     20  N   UNL     1     -13.388  56.663  50.402  0.00  0.00    +0.000 N 
ATOM     21  C   UNL     1     -14.556  56.903  52.497  0.00  0.00    +0.000 A 
ATOM     22  C   UNL     1     -15.460  59.042  53.160  0.00  0.00    +0.000 A 
ATOM     23  C   UNL     1     -15.258  57.689  53.418  0.00  0.00    +0.000 A 
ATOM     24  H   UNL     1     -12.443  58.530  47.908  0.00  0.00    +0.000 HD
ATOM     25  H   UNL     1     -13.359  55.694  50.578  0.00  0.00    +0.000 HD
ENDBRANCH   1  17
BRANCH   3  26
ATOM     26  O   UNL     1     -13.064  56.334  46.445  0.00  0.00    +0.000 OA
ATOM     27  H   UNL     1     -12.843  56.825  45.679  0.00  0.00    +0.000 HD
ENDBRANCH   3  26
BRANCH   5  28
ATOM     28  C   UNL     1      -8.580  54.487  49.382  0.00  0.00    +0.000 C 
BRANCH  28  29
ATOM     29  C   UNL     1      -7.508  55.526  49.585  0.00  0.00    +0.000 C 
ATOM     30  C   UNL     1      -6.486  55.385  50.694  0.00  0.00    +0.000 C 
ATOM     31  C   UNL     1      -7.443  56.544  50.701  0.00  0.00    +0.000 C 
ENDBRANCH  28  29
ENDBRANCH   5  28
TORSDOF 4
ENDMDL
MODEL 4
REMARK VINA RESULT:      -8.2      3.544      7.530
REMARK  Name = 338289
REMARK  4 active torsions:
REMARK  status: ('A' for Active; 'I' for Inactive)
REMARK    1  A    between atoms: C_6  and  C_10
REMARK    2  A    between atoms: C_14  and  O_18
REMARK    3  A    between atoms: N_17  and  C_21
REMARK    4  A    between atoms: C_21  and  C_24
REMARK                            x       y       z     vdW  Elec       q    Type
REMARK                         _______ _______ _______ _____ _____    ______ ____
ROOT
ATOM      1  C   UNL     1     -12.537  54.239  50.030  0.00  0.00    +0.000 A 
ATOM      2  C   UNL     1     -12.302  53.970  48.584  0.00  0.00    +0.000 A 
ATOM      3  C   UNL     1     -11.966  53.437  50.946  0.00  0.00    +0.000 A 
ATOM      4  O   UNL     1     -12.452  54.896  47.782  0.00  0.00    +0.000 OA
ATOM      5  N   UNL     1     -11.943  52.682  48.213  0.00  0.00    +0.000 N 
ATOM      6  C   UNL     1     -11.150  52.295  50.500  0.00  0.00    +0.000 A 
ATOM      7  C   UNL     1     -11.219  51.876  49.151  0.00  0.00    +0.000 A 
ATOM      8  C   UNL     1     -10.288  51.636  51.390  0.00  0.00    +0.000 A 
ATOM      9  C   UNL     1     -10.474  50.758  48.753  0.00  0.00    +0.000 A 
ATOM     10  C   UNL     1      -9.489  50.582  50.954  0.00  0.00    +0.000 A 
ATOM     11  C   UNL     1      -9.592  50.137  49.640  0.00  0.00    +0.000 A 
ENDROOT
BRANCH   1  17
ATOM     12  S   UNL     1     -15.404  56.533  51.403  0.00  0.00    +0.000 S 
ATOM     13  O   UNL     1     -15.386  56.752  52.837  0.00  0.00    +0.000 OA
ATOM     14  O   UNL     1     -16.663  56.289  50.719  0.00  0.00    +0.000 OA
ATOM     15  N   UNL     1     -14.413  55.285  51.083  0.00  0.00    +0.000 N 
ATOM     16  C   UNL     1     -14.736  57.982  50.673  0.00  0.00    +0.000 A 
ATOM     17  C   UNL     1     -13.317  55.468  50.410  0.00  0.00    +0.000 C 
ATOM     18  C   UNL     1     -13.520  57.874  50.023  0.00  0.00    +0.000 A 
ATOM     19  C   UNL     1     -15.431  59.193  50.739  0.00  0.00    +0.000 A 
ATOM     20  N   UNL     1     -12.821  56.676  49.984  0.00  0.00    +0.000 N 
ATOM     21  C   UNL     1     -12.952  59.029  49.475  0.00  0.00    +0.000 A 
ATOM     22  C   UNL     1     -14.865  60.331  50.168  0.00  0.00    +0.000 A 
ATOM     23  C   UNL     1     -13.623  60.255  49.541  0.00  0.00    +0.000 A 
ATOM     24  H   UNL     1     -14.645  54.383  51.401  0.00  0.00    +0.000 HD
ATOM     25  H   UNL     1     -11.905  56.692  49.623  0.00  0.00    +0.000 HD
ENDBRANCH   1  17
BRANCH   3  26
ATOM     26  O   UNL     1     -12.053  53.619  52.315  0.00  0.00    +0.000 OA
ATOM     27  H   UNL     1     -12.823  54.000  52.689  0.00  0.00    +0.000 HD
ENDBRANCH   3  26
BRANCH   5  28
ATOM     28  C   UNL     1     -11.979  52.368  46.785  0.00  0.00    +0.000 C 
BRANCH  28  29
ATOM     29  C   UNL     1     -10.829  52.889  45.963  0.00  0.00    +0.000 C 
ATOM     30  C   UNL     1     -10.942  53.020  44.459  0.00  0.00    +0.000 C 
ATOM     31  C   UNL     1      -9.933  52.079  45.055  0.00  0.00    +0.000 C 
ENDBRANCH  28  29
ENDBRANCH   5  28
TORSDOF 4
ENDMDL
MODEL 5
REMARK VINA RESULT:      -8.1      2.615      7.069
REMARK  Name = 338289
REMARK  4 active torsions:
REMARK  status: ('A' for Active; 'I' for Inactive)
REMARK    1  A    between atoms: C_6  and  C_10
REMARK    2  A    between atoms: C_14  and  O_18
REMARK    3  A    between atoms: N_17  and  C_21
REMARK    4  A    between atoms: C_21  and  C_24
REMARK                            x       y       z     vdW  Elec       q    Type
REMARK                         _______ _______ _______ _____ _____    ______ ____
ROOT
ATOM      1  C   UNL     1     -11.434  54.091  51.365  0.00  0.00    +0.000 A 
ATOM      2  C   UNL     1     -10.474  54.275  52.489  0.00  0.00    +0.000 A 
ATOM      3  C   UNL     1     -11.535  52.885  50.780  0.00  0.00    +0.000 A 
ATOM      4  O   UNL     1     -10.665  55.202  53.281  0.00  0.00    +0.000 OA
ATOM      5  N   UNL     1      -9.401  53.400  52.576  0.00  0.00    +0.000 N 
ATOM      6  C   UNL     1     -10.672  51.783  51.241  0.00  0.00    +0.000 A 
ATOM      7  C   UNL     1      -9.559  52.070  52.065  0.00  0.00    +0.000 A 
ATOM      8  C   UNL     1     -10.957  50.454  50.894  0.00  0.00    +0.000 A 
ATOM      9  C   UNL     1      -8.719  51.018  52.455  0.00  0.00    +0.000 A 
ATOM     10  C   UNL     1     -10.161  49.412  51.365  0.00  0.00    +0.000 A 
ATOM     11  C   UNL     1      -9.038  49.696  52.133  0.00  0.00    +0.000 A 
ENDROOT
BRANCH   1  17
ATOM     12  S   UNL     1     -13.120  56.976  49.315  0.00  0.00    +0.000 S 
ATOM     13  O   UNL     1     -14.178  56.558  48.416  0.00  0.00    +0.000 OA
ATOM     14  O   UNL     1     -12.150  57.970  48.887  0.00  0.00    +0.000 OA
ATOM     15  N   UNL     1     -12.303  55.646  49.769  0.00  0.00    +0.000 N 
ATOM     16  C   UNL     1     -13.910  57.658  50.726  0.00  0.00    +0.000 A 
ATOM     17  C   UNL     1     -12.335  55.240  51.001  0.00  0.00    +0.000 C 
ATOM     18  C   UNL     1     -13.781  56.982  51.926  0.00  0.00    +0.000 A 
ATOM     19  C   UNL     1     -14.628  58.854  50.628  0.00  0.00    +0.000 A 
ATOM     20  N   UNL     1     -13.091  55.782  52.013  0.00  0.00    +0.000 N 
ATOM     21  C   UNL     1     -14.443  57.487  53.051  0.00  0.00    +0.000 A 
ATOM     22  C   UNL     1     -15.262  59.358  51.761  0.00  0.00    +0.000 A 
ATOM     23  C   UNL     1     -15.178  58.675  52.972  0.00  0.00    +0.000 A 
ATOM     24  H   UNL     1     -11.780  55.145  49.103  0.00  0.00    +0.000 HD
ATOM     25  H   UNL     1     -13.145  55.283  52.861  0.00  0.00    +0.000 HD
ENDBRANCH   1  17
BRANCH   3  26
ATOM     26  O   UNL     1     -12.430  52.570  49.774  0.00  0.00    +0.000 OA
ATOM     27  H   UNL     1     -12.958  51.798  49.842  0.00  0.00    +0.000 HD
ENDBRANCH   3  26
BRANCH   5  28
ATOM     28  C   UNL     1      -8.332  53.750  53.510  0.00  0.00    +0.000 C 
BRANCH  28  29
ATOM     29  C   UNL     1      -7.202  54.573  52.944  0.00  0.00    +0.000 C 
ATOM     30  C   UNL     1      -6.773  55.865  53.606  0.00  0.00    +0.000 C 
ATOM     31  C   UNL     1      -7.328  55.887  52.209  0.00  0.00    +0.000 C 
ENDBRANCH  28  29
ENDBRANCH   5  28
TORSDOF 4
ENDMDL
MODEL 6
REMARK VINA RESULT:      -8.0      2.744      7.684
REMARK  Name = 338289
REMARK  4 active torsions:
REMARK  status: ('A' for Active; 'I' for Inactive)
REMARK    1  A    between atoms: C_6  and  C_10
REMARK    2  A    between atoms: C_14  and  O_18
REMARK    3  A    between atoms: N_17  and  C_21
REMARK    4  A    between atoms: C_21  and  C_24
REMARK                            x       y       z     vdW  Elec       q    Type
REMARK                         _______ _______ _______ _____ _____    ______ ____
ROOT
ATOM      1  C   UNL     1      -9.054  55.085  51.459  0.00  0.00    +0.000 A 
ATOM      2  C   UNL     1      -7.960  55.468  50.524  0.00  0.00    +0.000 A 
ATOM      3  C   UNL     1      -8.746  54.729  52.718  0.00  0.00    +0.000 A 
ATOM      4  O   UNL     1      -8.237  56.174  49.551  0.00  0.00    +0.000 OA
ATOM      5  N   UNL     1      -6.684  54.992  50.789  0.00  0.00    +0.000 N 
ATOM      6  C   UNL     1      -7.333  54.694  53.134  0.00  0.00    +0.000 A 
ATOM      7  C   UNL     1      -6.318  54.737  52.152  0.00  0.00    +0.000 A 
ATOM      8  C   UNL     1      -6.985  54.645  54.493  0.00  0.00    +0.000 A 
ATOM      9  C   UNL     1      -4.979  54.653  52.560  0.00  0.00    +0.000 A 
ATOM     10  C   UNL     1      -5.648  54.653  54.883  0.00  0.00    +0.000 A 
ATOM     11  C   UNL     1      -4.648  54.644  53.917  0.00  0.00    +0.000 A 
ENDROOT
BRANCH   1  17
ATOM     12  S   UNL     1     -12.190  55.136  49.107  0.00  0.00    +0.000 S 
ATOM     13  O   UNL     1     -12.790  53.840  48.849  0.00  0.00    +0.000 OA
ATOM     14  O   UNL     1     -12.038  56.096  48.028  0.00  0.00    +0.000 OA
ATOM     15  N   UNL     1     -10.723  54.880  49.757  0.00  0.00    +0.000 N 
ATOM     16  C   UNL     1     -13.205  55.920  50.305  0.00  0.00    +0.000 A 
ATOM     17  C   UNL     1     -10.476  55.219  50.986  0.00  0.00    +0.000 C 
ATOM     18  C   UNL     1     -12.667  56.141  51.559  0.00  0.00    +0.000 A 
ATOM     19  C   UNL     1     -14.505  56.318  49.980  0.00  0.00    +0.000 A 
ATOM     20  N   UNL     1     -11.386  55.721  51.885  0.00  0.00    +0.000 N 
ATOM     21  C   UNL     1     -13.478  56.725  52.540  0.00  0.00    +0.000 A 
ATOM     22  C   UNL     1     -15.294  56.919  50.959  0.00  0.00    +0.000 A 
ATOM     23  C   UNL     1     -14.787  57.118  52.241  0.00  0.00    +0.000 A 
ATOM     24  H   UNL     1     -10.014  54.464  49.214  0.00  0.00    +0.000 HD
ATOM     25  H   UNL     1     -11.108  55.788  52.828  0.00  0.00    +0.000 HD
ENDBRANCH   1  17
BRANCH   3  26
ATOM     26  O   UNL     1      -9.672  54.416  53.697  0.00  0.00    +0.000 OA
ATOM     27  H   UNL     1      -9.832  53.521  53.922  0.00  0.00    +0.000 HD
ENDBRANCH   3  26
BRANCH   5  28
ATOM     28  C   UNL     1      -5.684  55.146  49.733  0.00  0.00    +0.000 C 
BRANCH  28  29
ATOM     29  C   UNL     1      -5.396  53.917  48.910  0.00  0.00    +0.000 C 
ATOM     30  C   UNL     1      -6.017  53.733  47.541  0.00  0.00    +0.000 C 
ATOM     31  C   UNL     1      -6.343  52.768  48.647  0.00  0.00    +0.000 C 
ENDBRANCH  28  29
ENDBRANCH   5  28
TORSDOF 4
ENDMDL
MODEL 7
REMARK VINA RESULT:      -7.8      3.182      7.033
REMARK  Name = 338289
REMARK  4 active torsions:
REMARK  status: ('A' for Active; 'I' for Inactive)
REMARK    1  A    between atoms: C_6  and  C_10
REMARK    2  A    between atoms: C_14  and  O_18
REMARK    3  A    between atoms: N_17  and  C_21
REMARK    4  A    between atoms: C_21  and  C_24
REMARK                            x       y       z     vdW  Elec       q    Type
REMARK                         _______ _______ _______ _____ _____    ______ ____
ROOT
ATOM      1  C   UNL     1     -11.085  55.338  48.409  0.00  0.00    +0.000 A 
ATOM      2  C   UNL     1      -9.864  54.693  48.969  0.00  0.00    +0.000 A 
ATOM      3  C   UNL     1     -11.406  55.125  47.121  0.00  0.00    +0.000 A 
ATOM      4  O   UNL     1      -9.791  54.532  50.190  0.00  0.00    +0.000 OA
ATOM      5  N   UNL     1      -8.863  54.322  48.083  0.00  0.00    +0.000 N 
ATOM      6  C   UNL     1     -10.529  54.287  46.286  0.00  0.00    +0.000 A 
ATOM      7  C   UNL     1      -9.229  53.970  46.743  0.00  0.00    +0.000 A 
ATOM      8  C   UNL     1     -10.977  53.780  45.056  0.00  0.00    +0.000 A 
ATOM      9  C   UNL     1      -8.389  53.213  45.916  0.00  0.00    +0.000 A 
ATOM     10  C   UNL     1     -10.158  52.956  44.288  0.00  0.00    +0.000 A 
ATOM     11  C   UNL     1      -8.862  52.684  44.712  0.00  0.00    +0.000 A 
ENDROOT
BRANCH   1  17
ATOM     12  S   UNL     1     -13.470  56.205  51.397  0.00  0.00    +0.000 S 
ATOM     13  O   UNL     1     -12.807  56.479  52.658  0.00  0.00    +0.000 OA
ATOM     14  O   UNL     1     -14.681  55.402  51.371  0.00  0.00    +0.000 OA
ATOM     15  N   UNL     1     -12.385  55.504  50.410  0.00  0.00    +0.000 N 
ATOM     16  C   UNL     1     -13.916  57.763  50.725  0.00  0.00    +0.000 A 
ATOM     17  C   UNL     1     -11.972  56.116  49.342  0.00  0.00    +0.000 C 
ATOM     18  C   UNL     1     -13.284  58.168  49.564  0.00  0.00    +0.000 A 
ATOM     19  C   UNL     1     -14.893  58.548  51.345  0.00  0.00    +0.000 A 
ATOM     20  N   UNL     1     -12.297  57.398  48.967  0.00  0.00    +0.000 N 
ATOM     21  C   UNL     1     -13.595  59.428  49.039  0.00  0.00    +0.000 A 
ATOM     22  C   UNL     1     -15.210  59.790  50.798  0.00  0.00    +0.000 A 
ATOM     23  C   UNL     1     -14.559  60.237  49.651  0.00  0.00    +0.000 A 
ATOM     24  H   UNL     1     -12.038  54.608  50.624  0.00  0.00    +0.000 HD
ATOM     25  H   UNL     1     -11.792  57.797  48.221  0.00  0.00    +0.000 HD
ENDBRANCH   1  17
BRANCH   3  26
ATOM     26  O   UNL     1     -12.544  55.612  46.503  0.00  0.00    +0.000 OA
ATOM     27  H   UNL     1     -12.469  56.134  45.728  0.00  0.00    +0.000 HD
ENDBRANCH   3  26
BRANCH   5  28
ATOM     28  C   UNL     1      -7.573  53.943  48.660  0.00  0.00    +0.000 C 
BRANCH  28  29
ATOM     29  C   UNL     1      -6.697  55.078  49.125  0.00  0.00    +0.000 C 
ATOM     30  C   UNL     1      -5.199  54.901  49.255  0.00  0.00    +0.000 C 
ATOM     31  C   UNL     1      -6.027  55.202  50.473  0.00  0.00    +0.000 C 
ENDBRANCH  28  29
ENDBRANCH   5  28
TORSDOF 4
ENDMDL
MODEL 8
REMARK VINA RESULT:      -7.8      2.089      4.264
REMARK  Name = 338289
REMARK  4 active torsions:
REMARK  status: ('A' for Active; 'I' for Inactive)
REMARK    1  A    between atoms: C_6  and  C_10
REMARK    2  A    between atoms: C_14  and  O_18
REMARK    3  A    between atoms: N_17  and  C_21
REMARK    4  A    between atoms: C_21  and  C_24
REMARK                            x       y       z     vdW  Elec       q    Type
REMARK                         _______ _______ _______ _____ _____    ______ ____
ROOT
ATOM      1  C   UNL     1     -10.418  55.020  50.987  0.00  0.00    +0.000 A 
ATOM      2  C   UNL     1     -10.149  54.733  49.551  0.00  0.00    +0.000 A 
ATOM      3  C   UNL     1     -11.565  55.632  51.329  0.00  0.00    +0.000 A 
ATOM      4  O   UNL     1      -9.348  53.837  49.270  0.00  0.00    +0.000 OA
ATOM      5  N   UNL     1     -10.802  55.505  48.601  0.00  0.00    +0.000 N 
ATOM      6  C   UNL     1     -12.514  56.032  50.275  0.00  0.00    +0.000 A 
ATOM      7  C   UNL     1     -12.088  56.048  48.927  0.00  0.00    +0.000 A 
ATOM      8  C   UNL     1     -13.838  56.371  50.591  0.00  0.00    +0.000 A 
ATOM      9  C   UNL     1     -12.986  56.478  47.941  0.00  0.00    +0.000 A 
ATOM     10  C   UNL     1     -14.742  56.711  49.587  0.00  0.00    +0.000 A 
ATOM     11  C   UNL     1     -14.312  56.776  48.266  0.00  0.00    +0.000 A 
ENDROOT
BRANCH   1  17
ATOM     12  S   UNL     1      -7.103  54.518  53.019  0.00  0.00    +0.000 S 
ATOM     13  O   UNL     1      -6.857  55.504  54.054  0.00  0.00    +0.000 OA
ATOM     14  O   UNL     1      -6.014  54.066  52.169  0.00  0.00    +0.000 OA
ATOM     15  N   UNL     1      -8.280  55.094  52.057  0.00  0.00    +0.000 N 
ATOM     16  C   UNL     1      -7.698  53.083  53.835  0.00  0.00    +0.000 A 
ATOM     17  C   UNL     1      -9.440  54.513  52.012  0.00  0.00    +0.000 C 
ATOM     18  C   UNL     1      -9.008  52.707  53.603  0.00  0.00    +0.000 A 
ATOM     19  C   UNL     1      -6.858  52.346  54.674  0.00  0.00    +0.000 A 
ATOM     20  N   UNL     1      -9.846  53.456  52.790  0.00  0.00    +0.000 N 
ATOM     21  C   UNL     1      -9.512  51.591  54.281  0.00  0.00    +0.000 A 
ATOM     22  C   UNL     1      -7.365  51.223  55.325  0.00  0.00    +0.000 A 
ATOM     23  C   UNL     1      -8.693  50.846  55.136  0.00  0.00    +0.000 A 
ATOM     24  H   UNL     1      -8.111  55.891  51.504  0.00  0.00    +0.000 HD
ATOM     25  H   UNL     1     -10.801  53.213  52.769  0.00  0.00    +0.000 HD
ENDBRANCH   1  17
BRANCH   3  26
ATOM     26  O   UNL     1     -11.961  55.894  52.628  0.00  0.00    +0.000 OA
ATOM     27  H   UNL     1     -12.215  56.762  52.874  0.00  0.00    +0.000 HD
ENDBRANCH   3  26
BRANCH   5  28
ATOM     28  C   UNL     1     -10.332  55.398  47.220  0.00  0.00    +0.000 C 
BRANCH  28  29
ATOM     29  C   UNL     1     -10.686  54.124  46.497  0.00  0.00    +0.000 C 
ATOM     30  C   UNL     1      -9.987  53.739  45.211  0.00  0.00    +0.000 C 
ATOM     31  C   UNL     1     -11.466  54.009  45.208  0.00  0.00    +0.000 C 
ENDBRANCH  28  29
ENDBRANCH   5  28
TORSDOF 4
ENDMDL
MODEL 9
REMARK VINA RESULT:      -7.7      2.511      7.728
REMARK  Name = 338289
REMARK  4 active torsions:
REMARK  status: ('A' for Active; 'I' for Inactive)
REMARK    1  A    between atoms: C_6  and  C_10
REMARK    2  A    between atoms: C_14  and  O_18
REMARK    3  A    between atoms: N_17  and  C_21
REMARK    4  A    between atoms: C_21  and  C_24
REMARK                            x       y       z     vdW  Elec       q    Type
REMARK                         _______ _______ _______ _____ _____    ______ ____
ROOT
ATOM      1  C   UNL     1     -10.180  54.305  52.232  0.00  0.00    +0.000 A 
ATOM      2  C   UNL     1      -8.774  54.792  52.298  0.00  0.00    +0.000 A 
ATOM      3  C   UNL     1     -10.526  53.205  52.922  0.00  0.00    +0.000 A 
ATOM      4  O   UNL     1      -8.548  55.976  52.036  0.00  0.00    +0.000 OA
ATOM      5  N   UNL     1      -7.786  53.878  52.636  0.00  0.00    +0.000 N 
ATOM      6  C   UNL     1      -9.501  52.489  53.702  0.00  0.00    +0.000 A 
ATOM      7  C   UNL     1      -8.134  52.775  53.482  0.00  0.00    +0.000 A 
ATOM      8  C   UNL     1      -9.868  51.547  54.676  0.00  0.00    +0.000 A 
ATOM      9  C   UNL     1      -7.170  52.051  54.196  0.00  0.00    +0.000 A 
ATOM     10  C   UNL     1      -8.897  50.902  55.439  0.00  0.00    +0.000 A 
ATOM     11  C   UNL     1      -7.550  51.145  55.190  0.00  0.00    +0.000 A 
ENDROOT
BRANCH   1  17
ATOM     12  S   UNL     1     -13.412  56.362  51.399  0.00  0.00    +0.000 S 
ATOM     13  O   UNL     1     -13.388  57.748  51.824  0.00  0.00    +0.000 OA
ATOM     14  O   UNL     1     -14.615  55.567  51.572  0.00  0.00    +0.000 OA
ATOM     15  N   UNL     1     -12.194  55.593  52.153  0.00  0.00    +0.000 N 
ATOM     16  C   UNL     1     -13.088  56.369  49.674  0.00  0.00    +0.000 A 
ATOM     17  C   UNL     1     -11.186  55.131  51.477  0.00  0.00    +0.000 C 
ATOM     18  C   UNL     1     -11.901  55.810  49.239  0.00  0.00    +0.000 A 
ATOM     19  C   UNL     1     -14.018  56.910  48.781  0.00  0.00    +0.000 A 
ATOM     20  N   UNL     1     -10.969  55.298  50.130  0.00  0.00    +0.000 N 
ATOM     21  C   UNL     1     -11.606  55.848  47.871  0.00  0.00    +0.000 A 
ATOM     22  C   UNL     1     -13.723  56.920  47.420  0.00  0.00    +0.000 A 
ATOM     23  C   UNL     1     -12.516  56.397  46.961  0.00  0.00    +0.000 A 
ATOM     24  H   UNL     1     -12.221  55.477  53.130  0.00  0.00    +0.000 HD
ATOM     25  H   UNL     1     -10.090  55.035  49.773  0.00  0.00    +0.000 HD
ENDBRANCH   1  17
BRANCH   3  26
ATOM     26  O   UNL     1     -11.808  52.691  52.994  0.00  0.00    +0.000 OA
ATOM     27  H   UNL     1     -11.938  51.767  53.085  0.00  0.00    +0.000 HD
ENDBRANCH   3  26
BRANCH   5  28
ATOM     28  C   UNL     1      -6.398  54.296  52.437  0.00  0.00    +0.000 C 
BRANCH  28  29
ATOM     29  C   UNL     1      -5.701  53.723  51.230  0.00  0.00    +0.000 C 
ATOM     30  C   UNL     1      -5.246  54.618  50.096  0.00  0.00    +0.000 C 
ATOM     31  C   UNL     1      -6.287  53.562  49.846  0.00  0.00    +0.000 C 
ENDBRANCH  28  29
ENDBRANCH   5  28
TORSDOF 4
ENDMDL
