MODEL 1
REMARK VINA RESULT:      -8.2      0.000      0.000
REMARK  Name = 338298
REMARK  5 active torsions:
REMARK  status: ('A' for Active; 'I' for Inactive)
REMARK    1  A    between atoms: C_6  and  C_10
REMARK    2  A    between atoms: C_14  and  O_18
REMARK    3  A    between atoms: N_17  and  C_21
REMARK    4  A    between atoms: C_21  and  C_24
REMARK    5  A    between atoms: C_24  and  C_27
REMARK                            x       y       z     vdW  Elec       q    Type
REMARK                         _______ _______ _______ _____ _____    ______ ____
ROOT
ATOM      1  C   UNL     1     -10.113  54.402  52.280  0.00  0.00    +0.000 A 
ATOM      2  C   UNL     1      -8.737  54.955  52.136  0.00  0.00    +0.000 A 
ATOM      3  C   UNL     1     -10.323  53.303  53.019  0.00  0.00    +0.000 A 
ATOM      4  O   UNL     1      -8.618  55.953  51.421  0.00  0.00    +0.000 OA
ATOM      5  N   UNL     1      -7.679  54.360  52.812  0.00  0.00    +0.000 N 
ATOM      6  C   UNL     1      -9.204  52.657  53.721  0.00  0.00    +0.000 A 
ATOM      7  C   UNL     1      -7.897  53.175  53.601  0.00  0.00    +0.000 A 
ATOM      8  C   UNL     1      -9.442  51.529  54.528  0.00  0.00    +0.000 A 
ATOM      9  C   UNL     1      -6.860  52.512  54.284  0.00  0.00    +0.000 A 
ATOM     10  C   UNL     1      -8.407  50.915  55.227  0.00  0.00    +0.000 A 
ATOM     11  C   UNL     1      -7.116  51.405  55.101  0.00  0.00    +0.000 A 
ENDROOT
BRANCH   1  17
ATOM     12  S   UNL     1     -12.418  55.957  49.503  0.00  0.00    +0.000 S 
ATOM     13  O   UNL     1     -13.328  54.998  48.906  0.00  0.00    +0.000 OA
ATOM     14  O   UNL     1     -11.741  56.937  48.674  0.00  0.00    +0.000 OA
ATOM     15  N   UNL     1     -11.295  55.126  50.317  0.00  0.00    +0.000 N 
ATOM     16  C   UNL     1     -13.375  56.881  50.653  0.00  0.00    +0.000 A 
ATOM     17  C   UNL     1     -11.258  55.144  51.618  0.00  0.00    +0.000 C 
ATOM     18  C   UNL     1     -13.118  56.697  51.999  0.00  0.00    +0.000 A 
ATOM     19  C   UNL     1     -14.347  57.778  50.199  0.00  0.00    +0.000 A 
ATOM     20  N   UNL     1     -12.164  55.784  52.437  0.00  0.00    +0.000 N 
ATOM     21  C   UNL     1     -13.910  57.387  52.925  0.00  0.00    +0.000 A 
ATOM     22  C   UNL     1     -15.104  58.484  51.131  0.00  0.00    +0.000 A 
ATOM     23  C   UNL     1     -14.891  58.283  52.493  0.00  0.00    +0.000 A 
ATOM     24  H   UNL     1     -10.629  54.597  49.821  0.00  0.00    +0.000 HD
ATOM     25  H   UNL     1     -12.133  55.582  53.399  0.00  0.00    +0.000 HD
ENDBRANCH   1  17
BRANCH   3  26
ATOM     26  O   UNL     1     -11.562  52.716  53.203  0.00  0.00    +0.000 OA
ATOM     27  H   UNL     1     -11.622  51.808  53.432  0.00  0.00    +0.000 HD
ENDBRANCH   3  26
BRANCH   5  28
ATOM     28  C   UNL     1      -6.309  54.875  52.578  0.00  0.00    +0.000 C 
BRANCH  28  29
ATOM     29  C   UNL     1      -5.509  54.190  51.454  0.00  0.00    +0.000 C 
BRANCH  29  30
ATOM     30  C   UNL     1      -5.520  54.949  50.158  0.00  0.00    +0.000 C 
ATOM     31  C   UNL     1      -6.327  54.528  48.960  0.00  0.00    +0.000 C 
ATOM     32  C   UNL     1      -4.837  54.330  48.966  0.00  0.00    +0.000 C 
ENDBRANCH  29  30
ENDBRANCH  28  29
ENDBRANCH   5  28
TORSDOF 5
ENDMDL
MODEL 2
REMARK VINA RESULT:      -8.0      3.180      7.130
REMARK  Name = 338298
REMARK  5 active torsions:
REMARK  status: ('A' for Active; 'I' for Inactive)
REMARK    1  A    between atoms: C_6  and  C_10
REMARK    2  A    between atoms: C_14  and  O_18
REMARK    3  A    between atoms: N_17  and  C_21
REMARK    4  A    between atoms: C_21  and  C_24
REMARK    5  A    between atoms: C_24  and  C_27
REMARK                            x       y       z     vdW  Elec       q    Type
REMARK                         _______ _______ _______ _____ _____    ______ ____
ROOT
ATOM      1  C   UNL     1     -10.275  55.227  50.846  0.00  0.00    +0.000 A 
ATOM      2  C   UNL     1      -9.811  55.209  49.430  0.00  0.00    +0.000 A 
ATOM      3  C   UNL     1     -11.504  55.670  51.146  0.00  0.00    +0.000 A 
ATOM      4  O   UNL     1      -8.660  54.812  49.234  0.00  0.00    +0.000 OA
ATOM      5  N   UNL     1     -10.675  55.602  48.415  0.00  0.00    +0.000 N 
ATOM      6  C   UNL     1     -12.416  56.105  50.078  0.00  0.00    +0.000 A 
ATOM      7  C   UNL     1     -11.994  56.085  48.731  0.00  0.00    +0.000 A 
ATOM      8  C   UNL     1     -13.719  56.528  50.399  0.00  0.00    +0.000 A 
ATOM      9  C   UNL     1     -12.901  56.523  47.750  0.00  0.00    +0.000 A 
ATOM     10  C   UNL     1     -14.613  56.918  49.408  0.00  0.00    +0.000 A 
ATOM     11  C   UNL     1     -14.202  56.919  48.083  0.00  0.00    +0.000 A 
ENDROOT
BRANCH   1  17
ATOM     12  S   UNL     1      -7.099  54.756  53.112  0.00  0.00    +0.000 S 
ATOM     13  O   UNL     1      -7.030  55.702  54.210  0.00  0.00    +0.000 OA
ATOM     14  O   UNL     1      -5.903  54.416  52.365  0.00  0.00    +0.000 OA
ATOM     15  N   UNL     1      -8.207  55.301  52.067  0.00  0.00    +0.000 N 
ATOM     16  C   UNL     1      -7.677  53.249  53.807  0.00  0.00    +0.000 A 
ATOM     17  C   UNL     1      -9.343  54.686  51.913  0.00  0.00    +0.000 C 
ATOM     18  C   UNL     1      -8.948  52.828  53.465  0.00  0.00    +0.000 A 
ATOM     19  C   UNL     1      -6.855  52.508  54.661  0.00  0.00    +0.000 A 
ATOM     20  N   UNL     1      -9.763  53.587  52.632  0.00  0.00    +0.000 N 
ATOM     21  C   UNL     1      -9.439  51.656  54.054  0.00  0.00    +0.000 A 
ATOM     22  C   UNL     1      -7.343  51.325  55.213  0.00  0.00    +0.000 A 
ATOM     23  C   UNL     1      -8.638  50.904  54.916  0.00  0.00    +0.000 A 
ATOM     24  H   UNL     1      -8.018  56.110  51.538  0.00  0.00    +0.000 HD
ATOM     25  H   UNL     1     -10.707  53.321  52.549  0.00  0.00    +0.000 HD
ENDBRANCH   1  17
BRANCH   3  26
ATOM     26  O   UNL     1     -12.017  55.730  52.430  0.00  0.00    +0.000 OA
ATOM     27  H   UNL     1     -12.944  55.701  52.566  0.00  0.00    +0.000 HD
ENDBRANCH   3  26
BRANCH   5  28
ATOM     28  C   UNL     1     -10.158  55.660  47.027  0.00  0.00    +0.000 C 
BRANCH  28  29
ATOM     29  C   UNL     1     -10.066  54.317  46.279  0.00  0.00    +0.000 C 
BRANCH  29  30
ATOM     30  C   UNL     1     -11.307  53.971  45.508  0.00  0.00    +0.000 C 
ATOM     31  C   UNL     1     -11.971  52.622  45.572  0.00  0.00    +0.000 C 
ATOM     32  C   UNL     1     -11.181  53.009  44.354  0.00  0.00    +0.000 C 
ENDBRANCH  29  30
ENDBRANCH  28  29
ENDBRANCH   5  28
TORSDOF 5
ENDMDL
MODEL 3
REMARK VINA RESULT:      -8.0      2.592      7.816
REMARK  Name = 338298
REMARK  5 active torsions:
REMARK  status: ('A' for Active; 'I' for Inactive)
REMARK    1  A    between atoms: C_6  and  C_10
REMARK    2  A    between atoms: C_14  and  O_18
REMARK    3  A    between atoms: N_17  and  C_21
REMARK    4  A    between atoms: C_21  and  C_24
REMARK    5  A    between atoms: C_24  and  C_27
REMARK                            x       y       z     vdW  Elec       q    Type
REMARK                         _______ _______ _______ _____ _____    ______ ____
ROOT
ATOM      1  C   UNL     1     -10.040  54.755  50.892  0.00  0.00    +0.000 A 
ATOM      2  C   UNL     1     -11.371  55.268  51.320  0.00  0.00    +0.000 A 
ATOM      3  C   UNL     1      -9.733  54.683  49.589  0.00  0.00    +0.000 A 
ATOM      4  O   UNL     1     -11.590  55.280  52.533  0.00  0.00    +0.000 OA
ATOM      5  N   UNL     1     -12.274  55.724  50.367  0.00  0.00    +0.000 N 
ATOM      6  C   UNL     1     -10.692  55.146  48.575  0.00  0.00    +0.000 A 
ATOM      7  C   UNL     1     -11.954  55.643  48.966  0.00  0.00    +0.000 A 
ATOM      8  C   UNL     1     -10.344  55.107  47.212  0.00  0.00    +0.000 A 
ATOM      9  C   UNL     1     -12.839  56.062  47.956  0.00  0.00    +0.000 A 
ATOM     10  C   UNL     1     -11.220  55.564  46.233  0.00  0.00    +0.000 A 
ATOM     11  C   UNL     1     -12.469  56.038  46.606  0.00  0.00    +0.000 A 
ENDROOT
BRANCH   1  17
ATOM     12  S   UNL     1      -6.766  54.688  53.065  0.00  0.00    +0.000 S 
ATOM     13  O   UNL     1      -6.723  55.731  54.073  0.00  0.00    +0.000 OA
ATOM     14  O   UNL     1      -5.575  54.357  52.305  0.00  0.00    +0.000 OA
ATOM     15  N   UNL     1      -7.941  55.066  52.020  0.00  0.00    +0.000 N 
ATOM     16  C   UNL     1      -7.220  53.216  53.911  0.00  0.00    +0.000 A 
ATOM     17  C   UNL     1      -9.039  54.371  51.965  0.00  0.00    +0.000 C 
ATOM     18  C   UNL     1      -8.472  52.688  53.657  0.00  0.00    +0.000 A 
ATOM     19  C   UNL     1      -6.323  52.607  54.794  0.00  0.00    +0.000 A 
ATOM     20  N   UNL     1      -9.362  53.317  52.794  0.00  0.00    +0.000 N 
ATOM     21  C   UNL     1      -8.865  51.545  54.365  0.00  0.00    +0.000 A 
ATOM     22  C   UNL     1      -6.714  51.451  55.466  0.00  0.00    +0.000 A 
ATOM     23  C   UNL     1      -7.987  50.925  55.258  0.00  0.00    +0.000 A 
ATOM     24  H   UNL     1      -7.824  55.835  51.416  0.00  0.00    +0.000 HD
ATOM     25  H   UNL     1     -10.288  52.986  52.771  0.00  0.00    +0.000 HD
ENDBRANCH   1  17
BRANCH   3  26
ATOM     26  O   UNL     1      -8.526  54.214  49.099  0.00  0.00    +0.000 OA
ATOM     27  H   UNL     1      -8.428  54.041  48.183  0.00  0.00    +0.000 HD
ENDBRANCH   3  26
BRANCH   5  28
ATOM     28  C   UNL     1     -13.624  56.144  50.815  0.00  0.00    +0.000 C 
BRANCH  28  29
ATOM     29  C   UNL     1     -13.830  57.656  51.025  0.00  0.00    +0.000 C 
BRANCH  29  30
ATOM     30  C   UNL     1     -14.086  58.035  52.456  0.00  0.00    +0.000 C 
ATOM     31  C   UNL     1     -15.374  57.736  53.173  0.00  0.00    +0.000 C 
ATOM     32  C   UNL     1     -15.072  59.140  52.732  0.00  0.00    +0.000 C 
ENDBRANCH  29  30
ENDBRANCH  28  29
ENDBRANCH   5  28
TORSDOF 5
ENDMDL
MODEL 4
REMARK VINA RESULT:      -7.9      3.469      4.424
REMARK  Name = 338298
REMARK  5 active torsions:
REMARK  status: ('A' for Active; 'I' for Inactive)
REMARK    1  A    between atoms: C_6  and  C_10
REMARK    2  A    between atoms: C_14  and  O_18
REMARK    3  A    between atoms: N_17  and  C_21
REMARK    4  A    between atoms: C_21  and  C_24
REMARK    5  A    between atoms: C_24  and  C_27
REMARK                            x       y       z     vdW  Elec       q    Type
REMARK                         _______ _______ _______ _____ _____    ______ ____
ROOT
ATOM      1  C   UNL     1     -12.426  54.164  49.916  0.00  0.00    +0.000 A 
ATOM      2  C   UNL     1     -12.089  53.936  48.483  0.00  0.00    +0.000 A 
ATOM      3  C   UNL     1     -11.993  53.309  50.853  0.00  0.00    +0.000 A 
ATOM      4  O   UNL     1     -12.543  54.751  47.676  0.00  0.00    +0.000 OA
ATOM      5  N   UNL     1     -11.279  52.865  48.125  0.00  0.00    +0.000 N 
ATOM      6  C   UNL     1     -11.153  52.162  50.479  0.00  0.00    +0.000 A 
ATOM      7  C   UNL     1     -10.818  51.938  49.126  0.00  0.00    +0.000 A 
ATOM      8  C   UNL     1     -10.669  51.293  51.475  0.00  0.00    +0.000 A 
ATOM      9  C   UNL     1     -10.022  50.820  48.820  0.00  0.00    +0.000 A 
ATOM     10  C   UNL     1      -9.849  50.217  51.153  0.00  0.00    +0.000 A 
ATOM     11  C   UNL     1      -9.529  49.978  49.825  0.00  0.00    +0.000 A 
ENDROOT
BRANCH   1  17
ATOM     12  S   UNL     1     -15.316  56.468  51.252  0.00  0.00    +0.000 S 
ATOM     13  O   UNL     1     -15.289  56.648  52.692  0.00  0.00    +0.000 OA
ATOM     14  O   UNL     1     -16.577  56.269  50.563  0.00  0.00    +0.000 OA
ATOM     15  N   UNL     1     -14.347  55.222  50.897  0.00  0.00    +0.000 N 
ATOM     16  C   UNL     1     -14.620  57.931  50.569  0.00  0.00    +0.000 A 
ATOM     17  C   UNL     1     -13.217  55.406  50.279  0.00  0.00    +0.000 C 
ATOM     18  C   UNL     1     -13.383  57.833  49.961  0.00  0.00    +0.000 A 
ATOM     19  C   UNL     1     -15.320  59.139  50.635  0.00  0.00    +0.000 A 
ATOM     20  N   UNL     1     -12.688  56.629  49.923  0.00  0.00    +0.000 N 
ATOM     21  C   UNL     1     -12.796  59.001  49.460  0.00  0.00    +0.000 A 
ATOM     22  C   UNL     1     -14.740  60.288  50.102  0.00  0.00    +0.000 A 
ATOM     23  C   UNL     1     -13.475  60.221  49.522  0.00  0.00    +0.000 A 
ATOM     24  H   UNL     1     -14.616  54.311  51.153  0.00  0.00    +0.000 HD
ATOM     25  H   UNL     1     -11.752  56.650  49.620  0.00  0.00    +0.000 HD
ENDBRANCH   1  17
BRANCH   3  26
ATOM     26  O   UNL     1     -12.262  53.435  52.205  0.00  0.00    +0.000 OA
ATOM     27  H   UNL     1     -13.109  53.722  52.490  0.00  0.00    +0.000 HD
ENDBRANCH   3  26
BRANCH   5  28
ATOM     28  C   UNL     1     -11.036  52.610  46.685  0.00  0.00    +0.000 C 
BRANCH  28  29
ATOM     29  C   UNL     1      -9.624  52.939  46.167  0.00  0.00    +0.000 C 
BRANCH  29  30
ATOM     30  C   UNL     1      -9.349  54.412  46.059  0.00  0.00    +0.000 C 
ATOM     31  C   UNL     1      -8.030  54.976  45.605  0.00  0.00    +0.000 C 
ATOM     32  C   UNL     1      -8.407  55.033  47.058  0.00  0.00    +0.000 C 
ENDBRANCH  29  30
ENDBRANCH  28  29
ENDBRANCH   5  28
TORSDOF 5
ENDMDL
MODEL 5
REMARK VINA RESULT:      -7.9      2.242      3.315
REMARK  Name = 338298
REMARK  5 active torsions:
REMARK  status: ('A' for Active; 'I' for Inactive)
REMARK    1  A    between atoms: C_6  and  C_10
REMARK    2  A    between atoms: C_14  and  O_18
REMARK    3  A    between atoms: N_17  and  C_21
REMARK    4  A    between atoms: C_21  and  C_24
REMARK    5  A    between atoms: C_24  and  C_27
REMARK                            x       y       z     vdW  Elec       q    Type
REMARK                         _______ _______ _______ _____ _____    ______ ____
ROOT
ATOM      1  C   UNL     1     -11.765  53.963  50.962  0.00  0.00    +0.000 A 
ATOM      2  C   UNL     1     -10.887  53.912  52.165  0.00  0.00    +0.000 A 
ATOM      3  C   UNL     1     -11.832  52.911  50.133  0.00  0.00    +0.000 A 
ATOM      4  O   UNL     1     -10.858  54.926  52.866  0.00  0.00    +0.000 OA
ATOM      5  N   UNL     1     -10.180  52.752  52.456  0.00  0.00    +0.000 N 
ATOM      6  C   UNL     1     -11.071  51.688  50.425  0.00  0.00    +0.000 A 
ATOM      7  C   UNL     1     -10.242  51.622  51.565  0.00  0.00    +0.000 A 
ATOM      8  C   UNL     1     -11.181  50.574  49.572  0.00  0.00    +0.000 A 
ATOM      9  C   UNL     1      -9.525  50.433  51.792  0.00  0.00    +0.000 A 
ATOM     10  C   UNL     1     -10.494  49.394  49.838  0.00  0.00    +0.000 A 
ATOM     11  C   UNL     1      -9.664  49.325  50.946  0.00  0.00    +0.000 A 
ENDROOT
BRANCH   1  17
ATOM     12  S   UNL     1     -13.355  57.110  49.227  0.00  0.00    +0.000 S 
ATOM     13  O   UNL     1     -14.463  56.785  48.349  0.00  0.00    +0.000 OA
ATOM     14  O   UNL     1     -12.377  58.106  48.832  0.00  0.00    +0.000 OA
ATOM     15  N   UNL     1     -12.569  55.734  49.552  0.00  0.00    +0.000 N 
ATOM     16  C   UNL     1     -14.076  57.709  50.714  0.00  0.00    +0.000 A 
ATOM     17  C   UNL     1     -12.607  55.204  50.739  0.00  0.00    +0.000 C 
ATOM     18  C   UNL     1     -13.965  56.922  51.846  0.00  0.00    +0.000 A 
ATOM     19  C   UNL     1     -14.720  58.949  50.734  0.00  0.00    +0.000 A 
ATOM     20  N   UNL     1     -13.340  55.680  51.806  0.00  0.00    +0.000 N 
ATOM     21  C   UNL     1     -14.581  57.363  53.023  0.00  0.00    +0.000 A 
ATOM     22  C   UNL     1     -15.299  59.392  51.921  0.00  0.00    +0.000 A 
ATOM     23  C   UNL     1     -15.236  58.597  53.063  0.00  0.00    +0.000 A 
ATOM     24  H   UNL     1     -12.052  55.291  48.840  0.00  0.00    +0.000 HD
ATOM     25  H   UNL     1     -13.428  55.099  52.596  0.00  0.00    +0.000 HD
ENDBRANCH   1  17
BRANCH   3  26
ATOM     26  O   UNL     1     -12.613  52.870  48.991  0.00  0.00    +0.000 OA
ATOM     27  H   UNL     1     -12.250  53.130  48.166  0.00  0.00    +0.000 HD
ENDBRANCH   3  26
BRANCH   5  28
ATOM     28  C   UNL     1      -9.245  52.762  53.606  0.00  0.00    +0.000 C 
BRANCH  28  29
ATOM     29  C   UNL     1      -7.824  53.282  53.323  0.00  0.00    +0.000 C 
BRANCH  29  30
ATOM     30  C   UNL     1      -7.503  54.571  54.024  0.00  0.00    +0.000 C 
ATOM     31  C   UNL     1      -6.368  55.471  53.620  0.00  0.00    +0.000 C 
ATOM     32  C   UNL     1      -6.252  54.632  54.861  0.00  0.00    +0.000 C 
ENDBRANCH  29  30
ENDBRANCH  28  29
ENDBRANCH   5  28
TORSDOF 5
ENDMDL
MODEL 6
REMARK VINA RESULT:      -7.6      2.902      5.192
REMARK  Name = 338298
REMARK  5 active torsions:
REMARK  status: ('A' for Active; 'I' for Inactive)
REMARK    1  A    between atoms: C_6  and  C_10
REMARK    2  A    between atoms: C_14  and  O_18
REMARK    3  A    between atoms: N_17  and  C_21
REMARK    4  A    between atoms: C_21  and  C_24
REMARK    5  A    between atoms: C_24  and  C_27
REMARK                            x       y       z     vdW  Elec       q    Type
REMARK                         _______ _______ _______ _____ _____    ______ ____
ROOT
ATOM      1  C   UNL     1     -11.481  55.891  48.851  0.00  0.00    +0.000 A 
ATOM      2  C   UNL     1     -10.479  55.263  49.758  0.00  0.00    +0.000 A 
ATOM      3  C   UNL     1     -11.529  55.542  47.557  0.00  0.00    +0.000 A 
ATOM      4  O   UNL     1     -10.479  55.651  50.928  0.00  0.00    +0.000 OA
ATOM      5  N   UNL     1      -9.631  54.275  49.272  0.00  0.00    +0.000 N 
ATOM      6  C   UNL     1     -10.620  54.512  47.033  0.00  0.00    +0.000 A 
ATOM      7  C   UNL     1      -9.673  53.902  47.882  0.00  0.00    +0.000 A 
ATOM      8  C   UNL     1     -10.707  54.123  45.683  0.00  0.00    +0.000 A 
ATOM      9  C   UNL     1      -8.819  52.931  47.327  0.00  0.00    +0.000 A 
ATOM     10  C   UNL     1      -9.880  53.131  45.166  0.00  0.00    +0.000 A 
ATOM     11  C   UNL     1      -8.934  52.538  45.988  0.00  0.00    +0.000 A 
ENDROOT
BRANCH   1  17
ATOM     12  S   UNL     1     -13.520  59.198  49.438  0.00  0.00    +0.000 S 
ATOM     13  O   UNL     1     -14.651  59.344  48.542  0.00  0.00    +0.000 OA
ATOM     14  O   UNL     1     -12.685  60.342  49.754  0.00  0.00    +0.000 OA
ATOM     15  N   UNL     1     -12.571  58.032  48.843  0.00  0.00    +0.000 N 
ATOM     16  C   UNL     1     -14.184  58.652  50.971  0.00  0.00    +0.000 A 
ATOM     17  C   UNL     1     -12.463  56.883  49.443  0.00  0.00    +0.000 C 
ATOM     18  C   UNL     1     -13.906  57.357  51.369  0.00  0.00    +0.000 A 
ATOM     19  C   UNL     1     -14.953  59.519  51.754  0.00  0.00    +0.000 A 
ATOM     20  N   UNL     1     -13.159  56.499  50.570  0.00  0.00    +0.000 N 
ATOM     21  C   UNL     1     -14.473  56.894  52.562  0.00  0.00    +0.000 A 
ATOM     22  C   UNL     1     -15.483  59.056  52.956  0.00  0.00    +0.000 A 
ATOM     23  C   UNL     1     -15.250  57.742  53.356  0.00  0.00    +0.000 A 
ATOM     24  H   UNL     1     -12.066  58.194  48.013  0.00  0.00    +0.000 HD
ATOM     25  H   UNL     1     -13.124  55.550  50.827  0.00  0.00    +0.000 HD
ENDBRANCH   1  17
BRANCH   3  26
ATOM     26  O   UNL     1     -12.418  56.077  46.641  0.00  0.00    +0.000 OA
ATOM     27  H   UNL     1     -13.115  55.550  46.303  0.00  0.00    +0.000 HD
ENDBRANCH   3  26
BRANCH   5  28
ATOM     28  C   UNL     1      -8.585  53.733  50.172  0.00  0.00    +0.000 C 
BRANCH  28  29
ATOM     29  C   UNL     1      -9.016  52.578  51.096  0.00  0.00    +0.000 C 
BRANCH  29  30
ATOM     30  C   UNL     1      -8.875  52.891  52.558  0.00  0.00    +0.000 C 
ATOM     31  C   UNL     1      -9.222  51.916  53.650  0.00  0.00    +0.000 C 
ATOM     32  C   UNL     1     -10.131  53.078  53.368  0.00  0.00    +0.000 C 
ENDBRANCH  29  30
ENDBRANCH  28  29
ENDBRANCH   5  28
TORSDOF 5
ENDMDL
MODEL 7
REMARK VINA RESULT:      -7.6      3.262      7.162
REMARK  Name = 338298
REMARK  5 active torsions:
REMARK  status: ('A' for Active; 'I' for Inactive)
REMARK    1  A    between atoms: C_6  and  C_10
REMARK    2  A    between atoms: C_14  and  O_18
REMARK    3  A    between atoms: N_17  and  C_21
REMARK    4  A    between atoms: C_21  and  C_24
REMARK    5  A    between atoms: C_24  and  C_27
REMARK                            x       y       z     vdW  Elec       q    Type
REMARK                         _______ _______ _______ _____ _____    ______ ____
ROOT
ATOM      1  C   UNL     1     -10.372  54.868  50.304  0.00  0.00    +0.000 A 
ATOM      2  C   UNL     1     -10.038  54.719  48.859  0.00  0.00    +0.000 A 
ATOM      3  C   UNL     1     -11.466  55.548  50.675  0.00  0.00    +0.000 A 
ATOM      4  O   UNL     1      -9.004  54.102  48.596  0.00  0.00    +0.000 OA
ATOM      5  N   UNL     1     -10.893  55.241  47.895  0.00  0.00    +0.000 N 
ATOM      6  C   UNL     1     -12.364  56.119  49.660  0.00  0.00    +0.000 A 
ATOM      7  C   UNL     1     -12.065  55.979  48.288  0.00  0.00    +0.000 A 
ATOM      8  C   UNL     1     -13.532  56.795  50.059  0.00  0.00    +0.000 A 
ATOM      9  C   UNL     1     -12.950  56.555  47.358  0.00  0.00    +0.000 A 
ATOM     10  C   UNL     1     -14.414  57.321  49.121  0.00  0.00    +0.000 A 
ATOM     11  C   UNL     1     -14.121  57.204  47.771  0.00  0.00    +0.000 A 
ENDROOT
BRANCH   1  17
ATOM     12  S   UNL     1      -8.999  52.221  52.864  0.00  0.00    +0.000 S 
ATOM     13  O   UNL     1      -8.313  51.110  52.231  0.00  0.00    +0.000 OA
ATOM     14  O   UNL     1      -9.889  51.988  53.985  0.00  0.00    +0.000 OA
ATOM     15  N   UNL     1      -9.830  53.001  51.716  0.00  0.00    +0.000 N 
ATOM     16  C   UNL     1      -7.738  53.288  53.466  0.00  0.00    +0.000 A 
ATOM     17  C   UNL     1      -9.476  54.189  51.321  0.00  0.00    +0.000 C 
ATOM     18  C   UNL     1      -7.581  54.514  52.845  0.00  0.00    +0.000 A 
ATOM     19  C   UNL     1      -6.944  52.898  54.548  0.00  0.00    +0.000 A 
ATOM     20  N   UNL     1      -8.363  54.879  51.755  0.00  0.00    +0.000 N 
ATOM     21  C   UNL     1      -6.546  55.350  53.281  0.00  0.00    +0.000 A 
ATOM     22  C   UNL     1      -5.940  53.754  54.994  0.00  0.00    +0.000 A 
ATOM     23  C   UNL     1      -5.736  54.976  54.356  0.00  0.00    +0.000 A 
ATOM     24  H   UNL     1     -10.616  52.570  51.309  0.00  0.00    +0.000 HD
ATOM     25  H   UNL     1      -8.106  55.688  51.258  0.00  0.00    +0.000 HD
ENDBRANCH   1  17
BRANCH   3  26
ATOM     26  O   UNL     1     -11.851  55.743  51.990  0.00  0.00    +0.000 OA
ATOM     27  H   UNL     1     -11.851  56.607  52.355  0.00  0.00    +0.000 HD
ENDBRANCH   3  26
BRANCH   5  28
ATOM     28  C   UNL     1     -10.489  55.158  46.471  0.00  0.00    +0.000 C 
BRANCH  28  29
ATOM     29  C   UNL     1     -11.123  54.018  45.651  0.00  0.00    +0.000 C 
BRANCH  29  30
ATOM     30  C   UNL     1     -10.130  53.003  45.163  0.00  0.00    +0.000 C 
ATOM     31  C   UNL     1      -8.865  53.368  44.434  0.00  0.00    +0.000 C 
ATOM     32  C   UNL     1     -10.020  52.775  43.677  0.00  0.00    +0.000 C 
ENDBRANCH  29  30
ENDBRANCH  28  29
ENDBRANCH   5  28
TORSDOF 5
ENDMDL
MODEL 8
REMARK VINA RESULT:      -7.5      2.673      8.018
REMARK  Name = 338298
REMARK  5 active torsions:
REMARK  status: ('A' for Active; 'I' for Inactive)
REMARK    1  A    between atoms: C_6  and  C_10
REMARK    2  A    between atoms: C_14  and  O_18
REMARK    3  A    between atoms: N_17  and  C_21
REMARK    4  A    between atoms: C_21  and  C_24
REMARK    5  A    between atoms: C_24  and  C_27
REMARK                            x       y       z     vdW  Elec       q    Type
REMARK                         _______ _______ _______ _____ _____    ______ ____
ROOT
ATOM      1  C   UNL     1     -10.033  54.159  50.630  0.00  0.00    +0.000 A 
ATOM      2  C   UNL     1     -11.225  54.577  51.420  0.00  0.00    +0.000 A 
ATOM      3  C   UNL     1      -9.978  54.405  49.314  0.00  0.00    +0.000 A 
ATOM      4  O   UNL     1     -11.215  54.294  52.620  0.00  0.00    +0.000 OA
ATOM      5  N   UNL     1     -12.257  55.271  50.799  0.00  0.00    +0.000 N 
ATOM      6  C   UNL     1     -11.075  55.121  48.647  0.00  0.00    +0.000 A 
ATOM      7  C   UNL     1     -12.207  55.532  49.383  0.00  0.00    +0.000 A 
ATOM      8  C   UNL     1     -10.988  55.412  47.273  0.00  0.00    +0.000 A 
ATOM      9  C   UNL     1     -13.233  56.203  48.695  0.00  0.00    +0.000 A 
ATOM     10  C   UNL     1     -11.998  56.114  46.622  0.00  0.00    +0.000 A 
ATOM     11  C   UNL     1     -13.122  56.505  47.333  0.00  0.00    +0.000 A 
ENDROOT
BRANCH   1  17
ATOM     12  S   UNL     1      -8.026  51.734  52.984  0.00  0.00    +0.000 S 
ATOM     13  O   UNL     1      -7.743  50.447  52.377  0.00  0.00    +0.000 OA
ATOM     14  O   UNL     1      -8.431  51.814  54.375  0.00  0.00    +0.000 OA
ATOM     15  N   UNL     1      -9.161  52.459  52.087  0.00  0.00    +0.000 N 
ATOM     16  C   UNL     1      -6.539  52.663  52.863  0.00  0.00    +0.000 A 
ATOM     17  C   UNL     1      -8.879  53.504  51.365  0.00  0.00    +0.000 C 
ATOM     18  C   UNL     1      -6.522  53.743  51.999  0.00  0.00    +0.000 A 
ATOM     19  C   UNL     1      -5.427  52.315  53.637  0.00  0.00    +0.000 A 
ATOM     20  N   UNL     1      -7.627  54.064  51.219  0.00  0.00    +0.000 N 
ATOM     21  C   UNL     1      -5.327  54.458  51.856  0.00  0.00    +0.000 A 
ATOM     22  C   UNL     1      -4.255  53.057  53.509  0.00  0.00    +0.000 A 
ATOM     23  C   UNL     1      -4.202  54.123  52.614  0.00  0.00    +0.000 A 
ATOM     24  H   UNL     1     -10.079  52.103  52.088  0.00  0.00    +0.000 HD
ATOM     25  H   UNL     1      -7.508  54.739  50.514  0.00  0.00    +0.000 HD
ENDBRANCH   1  17
BRANCH   3  26
ATOM     26  O   UNL     1      -8.917  54.048  48.500  0.00  0.00    +0.000 OA
ATOM     27  H   UNL     1      -8.824  54.437  47.652  0.00  0.00    +0.000 HD
ENDBRANCH   3  26
BRANCH   5  28
ATOM     28  C   UNL     1     -13.469  55.594  51.588  0.00  0.00    +0.000 C 
BRANCH  28  29
ATOM     29  C   UNL     1     -13.511  56.994  52.227  0.00  0.00    +0.000 C 
BRANCH  29  30
ATOM     30  C   UNL     1     -14.804  57.723  51.997  0.00  0.00    +0.000 C 
ATOM     31  C   UNL     1     -14.904  59.002  51.211  0.00  0.00    +0.000 C 
ATOM     32  C   UNL     1     -15.017  59.034  52.709  0.00  0.00    +0.000 C 
ENDBRANCH  29  30
ENDBRANCH  28  29
ENDBRANCH   5  28
TORSDOF 5
ENDMDL
MODEL 9
REMARK VINA RESULT:      -7.5      4.112      7.348
REMARK  Name = 338298
REMARK  5 active torsions:
REMARK  status: ('A' for Active; 'I' for Inactive)
REMARK    1  A    between atoms: C_6  and  C_10
REMARK    2  A    between atoms: C_14  and  O_18
REMARK    3  A    between atoms: N_17  and  C_21
REMARK    4  A    between atoms: C_21  and  C_24
REMARK    5  A    between atoms: C_24  and  C_27
REMARK                            x       y       z     vdW  Elec       q    Type
REMARK                         _______ _______ _______ _____ _____    ______ ____
ROOT
ATOM      1  C   UNL     1     -11.041  54.600  48.280  0.00  0.00    +0.000 A 
ATOM      2  C   UNL     1     -10.770  54.130  49.667  0.00  0.00    +0.000 A 
ATOM      3  C   UNL     1     -11.967  55.544  48.058  0.00  0.00    +0.000 A 
ATOM      4  O   UNL     1      -9.923  53.242  49.790  0.00  0.00    +0.000 OA
ATOM      5  N   UNL     1     -11.440  54.711  50.737  0.00  0.00    +0.000 N 
ATOM      6  C   UNL     1     -12.693  56.149  49.184  0.00  0.00    +0.000 A 
ATOM      7  C   UNL     1     -12.441  55.720  50.505  0.00  0.00    +0.000 A 
ATOM      8  C   UNL     1     -13.633  57.169  48.945  0.00  0.00    +0.000 A 
ATOM      9  C   UNL     1     -13.171  56.322  51.545  0.00  0.00    +0.000 A 
ATOM     10  C   UNL     1     -14.314  57.779  49.993  0.00  0.00    +0.000 A 
ATOM     11  C   UNL     1     -14.086  57.352  51.293  0.00  0.00    +0.000 A 
ENDROOT
BRANCH   1  17
ATOM     12  S   UNL     1      -8.029  53.950  45.840  0.00  0.00    +0.000 S 
ATOM     13  O   UNL     1      -7.022  53.064  46.393  0.00  0.00    +0.000 OA
ATOM     14  O   UNL     1      -7.635  55.124  45.085  0.00  0.00    +0.000 OA
ATOM     15  N   UNL     1      -8.979  54.431  47.058  0.00  0.00    +0.000 N 
ATOM     16  C   UNL     1      -8.985  52.969  44.738  0.00  0.00    +0.000 A 
ATOM     17  C   UNL     1     -10.211  54.022  47.150  0.00  0.00    +0.000 C 
ATOM     18  C   UNL     1     -10.289  52.682  45.097  0.00  0.00    +0.000 A 
ATOM     19  C   UNL     1      -8.430  52.518  43.537  0.00  0.00    +0.000 A 
ATOM     20  N   UNL     1     -10.820  53.117  46.307  0.00  0.00    +0.000 N 
ATOM     21  C   UNL     1     -11.042  51.857  44.253  0.00  0.00    +0.000 A 
ATOM     22  C   UNL     1      -9.203  51.727  42.689  0.00  0.00    +0.000 A 
ATOM     23  C   UNL     1     -10.505  51.390  43.051  0.00  0.00    +0.000 A 
ATOM     24  H   UNL     1      -8.619  55.043  47.741  0.00  0.00    +0.000 HD
ATOM     25  H   UNL     1     -11.693  52.755  46.579  0.00  0.00    +0.000 HD
ENDBRANCH   1  17
BRANCH   3  26
ATOM     26  O   UNL     1     -12.291  56.036  46.806  0.00  0.00    +0.000 OA
ATOM     27  H   UNL     1     -12.277  55.467  46.061  0.00  0.00    +0.000 HD
ENDBRANCH   3  26
BRANCH   5  28
ATOM     28  C   UNL     1     -11.216  54.161  52.095  0.00  0.00    +0.000 C 
BRANCH  28  29
ATOM     29  C   UNL     1     -10.287  54.977  53.014  0.00  0.00    +0.000 C 
BRANCH  29  30
ATOM     30  C   UNL     1      -8.841  54.585  52.909  0.00  0.00    +0.000 C 
ATOM     31  C   UNL     1      -7.748  55.232  53.714  0.00  0.00    +0.000 C 
ATOM     32  C   UNL     1      -7.889  55.551  52.253  0.00  0.00    +0.000 C 
ENDBRANCH  29  30
ENDBRANCH  28  29
ENDBRANCH   5  28
TORSDOF 5
ENDMDL
