MODEL 1
REMARK VINA RESULT:      -7.5      0.000      0.000
REMARK  Name = 338250
REMARK  6 active torsions:
REMARK  status: ('A' for Active; 'I' for Inactive)
REMARK    1  A    between atoms: N_3  and  C_6
REMARK    2  A    between atoms: C_4  and  C_8
REMARK    3  A    between atoms: C_6  and  C_11
REMARK    4  A    between atoms: C_7  and  O_12
REMARK    5  A    between atoms: C_11  and  C_17
REMARK    6  A    between atoms: C_17  and  C_21
REMARK                            x       y       z     vdW  Elec       q    Type
REMARK                         _______ _______ _______ _____ _____    ______ ____
ROOT
ATOM      1  O   UNL     1     -12.850  55.518  47.353  0.00  0.00    +0.000 OA
ATOM      2  C   UNL     1     -11.633  55.512  47.567  0.00  0.00    +0.000 A 
ATOM      3  N   UNL     1     -10.755  54.951  46.656  0.00  0.00    +0.000 N 
ATOM      4  C   UNL     1     -11.108  56.072  48.860  0.00  0.00    +0.000 A 
ATOM      5  C   UNL     1      -9.372  54.810  46.954  0.00  0.00    +0.000 A 
ATOM      6  C   UNL     1      -9.788  55.997  49.117  0.00  0.00    +0.000 A 
ATOM      7  C   UNL     1      -8.875  55.311  48.174  0.00  0.00    +0.000 A 
ATOM      8  C   UNL     1      -8.498  54.145  46.072  0.00  0.00    +0.000 A 
ATOM      9  C   UNL     1      -7.518  55.101  48.487  0.00  0.00    +0.000 A 
ATOM     10  C   UNL     1      -7.158  53.949  46.397  0.00  0.00    +0.000 A 
ATOM     11  C   UNL     1      -6.669  54.419  47.609  0.00  0.00    +0.000 A 
ENDROOT
BRANCH   4  12
ATOM     12  C   UNL     1     -12.050  56.576  49.818  0.00  0.00    +0.000 A 
ATOM     13  N   UNL     1     -12.474  56.160  51.007  0.00  0.00    +0.000 NA
ATOM     14  N   UNL     1     -12.734  57.712  49.455  0.00  0.00    +0.000 N 
ATOM     15  C   UNL     1     -13.425  57.099  51.411  0.00  0.00    +0.000 A 
ATOM     16  C   UNL     1     -13.642  58.033  50.410  0.00  0.00    +0.000 A 
ATOM     17  C   UNL     1     -14.161  57.239  52.602  0.00  0.00    +0.000 A 
ATOM     18  C   UNL     1     -14.579  59.066  50.465  0.00  0.00    +0.000 A 
ATOM     19  C   UNL     1     -15.112  58.276  52.694  0.00  0.00    +0.000 A 
ATOM     20  C   UNL     1     -15.329  59.160  51.634  0.00  0.00    +0.000 A 
ATOM     21  H   UNL     1     -12.588  58.218  48.623  0.00  0.00    +0.000 HD
ENDBRANCH   4  12
BRANCH   6  22
ATOM     22  O   UNL     1      -9.202  56.475  50.279  0.00  0.00    +0.000 OA
ATOM     23  H   UNL     1      -9.604  57.176  50.753  0.00  0.00    +0.000 HD
ENDBRANCH   6  22
BRANCH   3  24
ATOM     24  C   UNL     1     -11.345  54.342  45.459  0.00  0.00    +0.000 C 
BRANCH  24  25
ATOM     25  C   UNL     1     -11.779  52.896  45.723  0.00  0.00    +0.000 C 
BRANCH  25  26
ATOM     26  C   UNL     1     -11.341  51.948  44.608  0.00  0.00    +0.000 C 
ATOM     27  C   UNL     1     -10.460  52.671  43.599  0.00  0.00    +0.000 C 
ENDBRANCH  25  26
ENDBRANCH  24  25
ENDBRANCH   3  24
TORSDOF 5
ENDMDL
MODEL 2
REMARK VINA RESULT:      -7.4      2.164      7.431
REMARK  Name = 338250
REMARK  6 active torsions:
REMARK  status: ('A' for Active; 'I' for Inactive)
REMARK    1  A    between atoms: N_3  and  C_6
REMARK    2  A    between atoms: C_4  and  C_8
REMARK    3  A    between atoms: C_6  and  C_11
REMARK    4  A    between atoms: C_7  and  O_12
REMARK    5  A    between atoms: C_11  and  C_17
REMARK    6  A    between atoms: C_17  and  C_21
REMARK                            x       y       z     vdW  Elec       q    Type
REMARK                         _______ _______ _______ _____ _____    ______ ____
ROOT
ATOM      1  O   UNL     1     -10.604  53.646  49.653  0.00  0.00    +0.000 OA
ATOM      2  C   UNL     1     -11.369  54.616  49.666  0.00  0.00    +0.000 A 
ATOM      3  N   UNL     1     -11.844  55.129  50.861  0.00  0.00    +0.000 N 
ATOM      4  C   UNL     1     -11.828  55.212  48.364  0.00  0.00    +0.000 A 
ATOM      5  C   UNL     1     -12.833  56.151  50.883  0.00  0.00    +0.000 A 
ATOM      6  C   UNL     1     -12.716  56.224  48.385  0.00  0.00    +0.000 A 
ATOM      7  C   UNL     1     -13.287  56.698  49.667  0.00  0.00    +0.000 A 
ATOM      8  C   UNL     1     -13.394  56.598  52.095  0.00  0.00    +0.000 A 
ATOM      9  C   UNL     1     -14.316  57.659  49.701  0.00  0.00    +0.000 A 
ATOM     10  C   UNL     1     -14.410  57.551  52.110  0.00  0.00    +0.000 A 
ATOM     11  C   UNL     1     -14.878  58.075  50.913  0.00  0.00    +0.000 A 
ENDROOT
BRANCH   4  12
ATOM     12  C   UNL     1     -11.378  54.610  47.142  0.00  0.00    +0.000 A 
ATOM     13  N   UNL     1     -11.960  53.869  46.205  0.00  0.00    +0.000 NA
ATOM     14  N   UNL     1     -10.042  54.757  46.850  0.00  0.00    +0.000 N 
ATOM     15  C   UNL     1     -10.955  53.583  45.279  0.00  0.00    +0.000 A 
ATOM     16  C   UNL     1      -9.735  54.078  45.717  0.00  0.00    +0.000 A 
ATOM     17  C   UNL     1     -10.977  52.908  44.045  0.00  0.00    +0.000 A 
ATOM     18  C   UNL     1      -8.517  53.905  45.060  0.00  0.00    +0.000 A 
ATOM     19  C   UNL     1      -9.764  52.721  43.351  0.00  0.00    +0.000 A 
ATOM     20  C   UNL     1      -8.553  53.194  43.864  0.00  0.00    +0.000 A 
ATOM     21  H   UNL     1      -9.401  55.277  47.387  0.00  0.00    +0.000 HD
ENDBRANCH   4  12
BRANCH   6  22
ATOM     22  O   UNL     1     -13.210  56.839  47.244  0.00  0.00    +0.000 OA
ATOM     23  H   UNL     1     -12.825  57.635  46.938  0.00  0.00    +0.000 HD
ENDBRANCH   6  22
BRANCH   3  24
ATOM     24  C   UNL     1     -11.427  54.442  52.088  0.00  0.00    +0.000 C 
BRANCH  24  25
ATOM     25  C   UNL     1     -10.146  55.056  52.664  0.00  0.00    +0.000 C 
BRANCH  25  26
ATOM     26  C   UNL     1      -9.284  54.023  53.386  0.00  0.00    +0.000 C 
ATOM     27  C   UNL     1     -10.100  52.787  53.736  0.00  0.00    +0.000 C 
ENDBRANCH  25  26
ENDBRANCH  24  25
ENDBRANCH   3  24
TORSDOF 5
ENDMDL
MODEL 3
REMARK VINA RESULT:      -7.3      1.298      3.835
REMARK  Name = 338250
REMARK  6 active torsions:
REMARK  status: ('A' for Active; 'I' for Inactive)
REMARK    1  A    between atoms: N_3  and  C_6
REMARK    2  A    between atoms: C_4  and  C_8
REMARK    3  A    between atoms: C_6  and  C_11
REMARK    4  A    between atoms: C_7  and  O_12
REMARK    5  A    between atoms: C_11  and  C_17
REMARK    6  A    between atoms: C_17  and  C_21
REMARK                            x       y       z     vdW  Elec       q    Type
REMARK                         _______ _______ _______ _____ _____    ______ ____
ROOT
ATOM      1  O   UNL     1      -9.957  55.841  51.019  0.00  0.00    +0.000 OA
ATOM      2  C   UNL     1     -10.074  55.431  49.860  0.00  0.00    +0.000 A 
ATOM      3  N   UNL     1      -9.071  54.684  49.267  0.00  0.00    +0.000 N 
ATOM      4  C   UNL     1     -11.300  55.795  49.068  0.00  0.00    +0.000 A 
ATOM      5  C   UNL     1      -9.131  54.329  47.891  0.00  0.00    +0.000 A 
ATOM      6  C   UNL     1     -11.387  55.404  47.782  0.00  0.00    +0.000 A 
ATOM      7  C   UNL     1     -10.265  54.687  47.135  0.00  0.00    +0.000 A 
ATOM      8  C   UNL     1      -8.062  53.661  47.262  0.00  0.00    +0.000 A 
ATOM      9  C   UNL     1     -10.279  54.391  45.758  0.00  0.00    +0.000 A 
ATOM     10  C   UNL     1      -8.095  53.373  45.899  0.00  0.00    +0.000 A 
ATOM     11  C   UNL     1      -9.199  53.747  45.144  0.00  0.00    +0.000 A 
ENDROOT
BRANCH   4  12
ATOM     12  C   UNL     1     -12.286  56.635  49.684  0.00  0.00    +0.000 A 
ATOM     13  N   UNL     1     -12.862  57.785  49.352  0.00  0.00    +0.000 NA
ATOM     14  N   UNL     1     -12.733  56.236  50.923  0.00  0.00    +0.000 N 
ATOM     15  C   UNL     1     -13.728  58.085  50.404  0.00  0.00    +0.000 A 
ATOM     16  C   UNL     1     -13.597  57.153  51.423  0.00  0.00    +0.000 A 
ATOM     17  C   UNL     1     -14.657  59.125  50.591  0.00  0.00    +0.000 A 
ATOM     18  C   UNL     1     -14.268  57.200  52.645  0.00  0.00    +0.000 A 
ATOM     19  C   UNL     1     -15.358  59.199  51.812  0.00  0.00    +0.000 A 
ATOM     20  C   UNL     1     -15.149  58.263  52.828  0.00  0.00    +0.000 A 
ATOM     21  H   UNL     1     -12.463  55.406  51.379  0.00  0.00    +0.000 HD
ENDBRANCH   4  12
BRANCH   6  22
ATOM     22  O   UNL     1     -12.468  55.693  46.962  0.00  0.00    +0.000 OA
ATOM     23  H   UNL     1     -12.978  54.997  46.598  0.00  0.00    +0.000 HD
ENDBRANCH   6  22
BRANCH   3  24
ATOM     24  C   UNL     1      -7.865  54.443  50.066  0.00  0.00    +0.000 C 
BRANCH  24  25
ATOM     25  C   UNL     1      -6.915  55.645  50.022  0.00  0.00    +0.000 C 
BRANCH  25  26
ATOM     26  C   UNL     1      -5.531  55.269  49.497  0.00  0.00    +0.000 C 
ATOM     27  C   UNL     1      -4.895  54.196  50.369  0.00  0.00    +0.000 C 
ENDBRANCH  25  26
ENDBRANCH  24  25
ENDBRANCH   3  24
TORSDOF 5
ENDMDL
MODEL 4
REMARK VINA RESULT:      -7.2      2.205      3.024
REMARK  Name = 338250
REMARK  6 active torsions:
REMARK  status: ('A' for Active; 'I' for Inactive)
REMARK    1  A    between atoms: N_3  and  C_6
REMARK    2  A    between atoms: C_4  and  C_8
REMARK    3  A    between atoms: C_6  and  C_11
REMARK    4  A    between atoms: C_7  and  O_12
REMARK    5  A    between atoms: C_11  and  C_17
REMARK    6  A    between atoms: C_17  and  C_21
REMARK                            x       y       z     vdW  Elec       q    Type
REMARK                         _______ _______ _______ _____ _____    ______ ____
ROOT
ATOM      1  O   UNL     1     -12.051  55.680  46.682  0.00  0.00    +0.000 OA
ATOM      2  C   UNL     1     -11.844  54.650  47.333  0.00  0.00    +0.000 A 
ATOM      3  N   UNL     1     -11.223  53.558  46.753  0.00  0.00    +0.000 N 
ATOM      4  C   UNL     1     -12.324  54.567  48.756  0.00  0.00    +0.000 A 
ATOM      5  C   UNL     1     -11.108  52.321  47.446  0.00  0.00    +0.000 A 
ATOM      6  C   UNL     1     -12.159  53.416  49.435  0.00  0.00    +0.000 A 
ATOM      7  C   UNL     1     -11.577  52.227  48.771  0.00  0.00    +0.000 A 
ATOM      8  C   UNL     1     -10.571  51.180  46.819  0.00  0.00    +0.000 A 
ATOM      9  C   UNL     1     -11.521  50.977  49.420  0.00  0.00    +0.000 A 
ATOM     10  C   UNL     1     -10.521  49.953  47.477  0.00  0.00    +0.000 A 
ATOM     11  C   UNL     1     -11.005  49.849  48.774  0.00  0.00    +0.000 A 
ENDROOT
BRANCH   4  12
ATOM     12  C   UNL     1     -13.033  55.687  49.304  0.00  0.00    +0.000 A 
ATOM     13  N   UNL     1     -14.175  55.825  49.968  0.00  0.00    +0.000 NA
ATOM     14  N   UNL     1     -12.479  56.926  49.075  0.00  0.00    +0.000 N 
ATOM     15  C   UNL     1     -14.310  57.196  50.195  0.00  0.00    +0.000 A 
ATOM     16  C   UNL     1     -13.286  57.895  49.574  0.00  0.00    +0.000 A 
ATOM     17  C   UNL     1     -15.267  57.942  50.907  0.00  0.00    +0.000 A 
ATOM     18  C   UNL     1     -13.163  59.284  49.548  0.00  0.00    +0.000 A 
ATOM     19  C   UNL     1     -15.169  59.349  50.907  0.00  0.00    +0.000 A 
ATOM     20  C   UNL     1     -14.145  60.006  50.220  0.00  0.00    +0.000 A 
ATOM     21  H   UNL     1     -11.624  57.085  48.614  0.00  0.00    +0.000 HD
ENDBRANCH   4  12
BRANCH   6  22
ATOM     22  O   UNL     1     -12.570  53.230  50.746  0.00  0.00    +0.000 OA
ATOM     23  H   UNL     1     -13.089  52.484  50.973  0.00  0.00    +0.000 HD
ENDBRANCH   6  22
BRANCH   3  24
ATOM     24  C   UNL     1     -10.863  53.677  45.336  0.00  0.00    +0.000 C 
BRANCH  24  25
ATOM     25  C   UNL     1      -9.353  53.874  45.157  0.00  0.00    +0.000 C 
BRANCH  25  26
ATOM     26  C   UNL     1      -8.811  53.117  43.947  0.00  0.00    +0.000 C 
ATOM     27  C   UNL     1      -9.945  52.500  43.142  0.00  0.00    +0.000 C 
ENDBRANCH  25  26
ENDBRANCH  24  25
ENDBRANCH   3  24
TORSDOF 5
ENDMDL
MODEL 5
REMARK VINA RESULT:      -7.2      3.538      6.819
REMARK  Name = 338250
REMARK  6 active torsions:
REMARK  status: ('A' for Active; 'I' for Inactive)
REMARK    1  A    between atoms: N_3  and  C_6
REMARK    2  A    between atoms: C_4  and  C_8
REMARK    3  A    between atoms: C_6  and  C_11
REMARK    4  A    between atoms: C_7  and  O_12
REMARK    5  A    between atoms: C_11  and  C_17
REMARK    6  A    between atoms: C_17  and  C_21
REMARK                            x       y       z     vdW  Elec       q    Type
REMARK                         _______ _______ _______ _____ _____    ______ ____
ROOT
ATOM      1  O   UNL     1     -11.502  55.518  52.651  0.00  0.00    +0.000 OA
ATOM      2  C   UNL     1     -11.232  55.615  51.450  0.00  0.00    +0.000 A 
ATOM      3  N   UNL     1     -12.218  55.893  50.520  0.00  0.00    +0.000 N 
ATOM      4  C   UNL     1      -9.820  55.372  50.989  0.00  0.00    +0.000 A 
ATOM      5  C   UNL     1     -11.947  55.865  49.124  0.00  0.00    +0.000 A 
ATOM      6  C   UNL     1      -9.548  55.409  49.670  0.00  0.00    +0.000 A 
ATOM      7  C   UNL     1     -10.632  55.615  48.682  0.00  0.00    +0.000 A 
ATOM      8  C   UNL     1     -12.973  56.044  48.176  0.00  0.00    +0.000 A 
ATOM      9  C   UNL     1     -10.392  55.521  47.298  0.00  0.00    +0.000 A 
ATOM     10  C   UNL     1     -12.716  55.950  46.810  0.00  0.00    +0.000 A 
ATOM     11  C   UNL     1     -11.427  55.679  46.371  0.00  0.00    +0.000 A 
ENDROOT
BRANCH   4  12
ATOM     12  C   UNL     1      -8.836  55.010  51.967  0.00  0.00    +0.000 A 
ATOM     13  N   UNL     1      -7.767  55.615  52.473  0.00  0.00    +0.000 NA
ATOM     14  N   UNL     1      -8.941  53.743  52.493  0.00  0.00    +0.000 N 
ATOM     15  C   UNL     1      -7.217  54.705  53.377  0.00  0.00    +0.000 A 
ATOM     16  C   UNL     1      -7.909  53.503  53.339  0.00  0.00    +0.000 A 
ATOM     17  C   UNL     1      -6.132  54.801  54.268  0.00  0.00    +0.000 A 
ATOM     18  C   UNL     1      -7.577  52.362  54.069  0.00  0.00    +0.000 A 
ATOM     19  C   UNL     1      -5.772  53.668  55.026  0.00  0.00    +0.000 A 
ATOM     20  C   UNL     1      -6.472  52.464  54.910  0.00  0.00    +0.000 A 
ATOM     21  H   UNL     1      -9.660  53.104  52.284  0.00  0.00    +0.000 HD
ENDBRANCH   4  12
BRANCH   6  22
ATOM     22  O   UNL     1      -8.285  55.192  49.139  0.00  0.00    +0.000 OA
ATOM     23  H   UNL     1      -7.618  55.841  49.239  0.00  0.00    +0.000 HD
ENDBRANCH   6  22
BRANCH   3  24
ATOM     24  C   UNL     1     -13.587  56.028  51.029  0.00  0.00    +0.000 C 
BRANCH  24  25
ATOM     25  C   UNL     1     -13.930  57.492  51.331  0.00  0.00    +0.000 C 
BRANCH  25  26
ATOM     26  C   UNL     1     -14.378  57.694  52.777  0.00  0.00    +0.000 C 
ATOM     27  C   UNL     1     -15.187  58.975  52.919  0.00  0.00    +0.000 C 
ENDBRANCH  25  26
ENDBRANCH  24  25
ENDBRANCH   3  24
TORSDOF 5
ENDMDL
MODEL 6
REMARK VINA RESULT:      -7.2      2.364      3.094
REMARK  Name = 338250
REMARK  6 active torsions:
REMARK  status: ('A' for Active; 'I' for Inactive)
REMARK    1  A    between atoms: N_3  and  C_6
REMARK    2  A    between atoms: C_4  and  C_8
REMARK    3  A    between atoms: C_6  and  C_11
REMARK    4  A    between atoms: C_7  and  O_12
REMARK    5  A    between atoms: C_11  and  C_17
REMARK    6  A    between atoms: C_17  and  C_21
REMARK                            x       y       z     vdW  Elec       q    Type
REMARK                         _______ _______ _______ _____ _____    ______ ____
ROOT
ATOM      1  O   UNL     1     -10.120  56.583  49.383  0.00  0.00    +0.000 OA
ATOM      2  C   UNL     1     -10.297  55.372  49.552  0.00  0.00    +0.000 A 
ATOM      3  N   UNL     1      -9.483  54.442  48.930  0.00  0.00    +0.000 N 
ATOM      4  C   UNL     1     -11.447  54.906  50.403  0.00  0.00    +0.000 A 
ATOM      5  C   UNL     1      -9.764  53.049  49.003  0.00  0.00    +0.000 A 
ATOM      6  C   UNL     1     -11.677  53.585  50.524  0.00  0.00    +0.000 A 
ATOM      7  C   UNL     1     -10.854  52.605  49.778  0.00  0.00    +0.000 A 
ATOM      8  C   UNL     1      -8.998  52.111  48.284  0.00  0.00    +0.000 A 
ATOM      9  C   UNL     1     -11.162  51.231  49.783  0.00  0.00    +0.000 A 
ATOM     10  C   UNL     1      -9.316  50.755  48.304  0.00  0.00    +0.000 A 
ATOM     11  C   UNL     1     -10.404  50.315  49.045  0.00  0.00    +0.000 A 
ENDROOT
BRANCH   4  12
ATOM     12  C   UNL     1     -12.320  55.893  50.971  0.00  0.00    +0.000 A 
ATOM     13  N   UNL     1     -12.807  56.107  52.188  0.00  0.00    +0.000 NA
ATOM     14  N   UNL     1     -12.841  56.817  50.096  0.00  0.00    +0.000 N 
ATOM     15  C   UNL     1     -13.625  57.232  52.069  0.00  0.00    +0.000 A 
ATOM     16  C   UNL     1     -13.705  57.636  50.745  0.00  0.00    +0.000 A 
ATOM     17  C   UNL     1     -14.346  57.977  53.020  0.00  0.00    +0.000 A 
ATOM     18  C   UNL     1     -14.493  58.686  50.272  0.00  0.00    +0.000 A 
ATOM     19  C   UNL     1     -15.147  59.049  52.578  0.00  0.00    +0.000 A 
ATOM     20  C   UNL     1     -15.234  59.382  51.224  0.00  0.00    +0.000 A 
ATOM     21  H   UNL     1     -12.620  56.874  49.138  0.00  0.00    +0.000 HD
ENDBRANCH   4  12
BRANCH   6  22
ATOM     22  O   UNL     1     -12.712  53.049  51.276  0.00  0.00    +0.000 OA
ATOM     23  H   UNL     1     -12.523  52.576  52.062  0.00  0.00    +0.000 HD
ENDBRANCH   6  22
BRANCH   3  24
ATOM     24  C   UNL     1      -8.438  54.965  48.044  0.00  0.00    +0.000 C 
BRANCH  24  25
ATOM     25  C   UNL     1      -8.983  55.236  46.636  0.00  0.00    +0.000 C 
BRANCH  25  26
ATOM     26  C   UNL     1      -8.043  54.728  45.546  0.00  0.00    +0.000 C 
ATOM     27  C   UNL     1      -8.671  53.568  44.786  0.00  0.00    +0.000 C 
ENDBRANCH  25  26
ENDBRANCH  24  25
ENDBRANCH   3  24
TORSDOF 5
ENDMDL
MODEL 7
REMARK VINA RESULT:      -7.0      2.179      4.258
REMARK  Name = 338250
REMARK  6 active torsions:
REMARK  status: ('A' for Active; 'I' for Inactive)
REMARK    1  A    between atoms: N_3  and  C_6
REMARK    2  A    between atoms: C_4  and  C_8
REMARK    3  A    between atoms: C_6  and  C_11
REMARK    4  A    between atoms: C_7  and  O_12
REMARK    5  A    between atoms: C_11  and  C_17
REMARK    6  A    between atoms: C_17  and  C_21
REMARK                            x       y       z     vdW  Elec       q    Type
REMARK                         _______ _______ _______ _____ _____    ______ ____
ROOT
ATOM      1  O   UNL     1     -10.160  54.218  51.558  0.00  0.00    +0.000 OA
ATOM      2  C   UNL     1      -9.919  54.308  50.350  0.00  0.00    +0.000 A 
ATOM      3  N   UNL     1      -8.696  53.912  49.838  0.00  0.00    +0.000 N 
ATOM      4  C   UNL     1     -10.952  54.906  49.434  0.00  0.00    +0.000 A 
ATOM      5  C   UNL     1      -8.356  54.143  48.476  0.00  0.00    +0.000 A 
ATOM      6  C   UNL     1     -10.656  55.066  48.130  0.00  0.00    +0.000 A 
ATOM      7  C   UNL     1      -9.309  54.724  47.616  0.00  0.00    +0.000 A 
ATOM      8  C   UNL     1      -7.073  53.837  47.982  0.00  0.00    +0.000 A 
ATOM      9  C   UNL     1      -8.934  55.011  46.289  0.00  0.00    +0.000 A 
ATOM     10  C   UNL     1      -6.721  54.125  46.665  0.00  0.00    +0.000 A 
ATOM     11  C   UNL     1      -7.649  54.721  45.821  0.00  0.00    +0.000 A 
ENDROOT
BRANCH   4  12
ATOM     12  C   UNL     1     -12.181  55.377  50.006  0.00  0.00    +0.000 A 
ATOM     13  N   UNL     1     -13.449  55.372  49.609  0.00  0.00    +0.000 NA
ATOM     14  N   UNL     1     -12.075  56.037  51.208  0.00  0.00    +0.000 N 
ATOM     15  C   UNL     1     -14.158  56.015  50.625  0.00  0.00    +0.000 A 
ATOM     16  C   UNL     1     -13.291  56.496  51.595  0.00  0.00    +0.000 A 
ATOM     17  C   UNL     1     -15.534  56.246  50.811  0.00  0.00    +0.000 A 
ATOM     18  C   UNL     1     -13.670  57.245  52.709  0.00  0.00    +0.000 A 
ATOM     19  C   UNL     1     -15.952  56.993  51.931  0.00  0.00    +0.000 A 
ATOM     20  C   UNL     1     -15.031  57.501  52.851  0.00  0.00    +0.000 A 
ATOM     21  H   UNL     1     -11.239  56.159  51.713  0.00  0.00    +0.000 HD
ENDBRANCH   4  12
BRANCH   6  22
ATOM     22  O   UNL     1     -11.530  55.612  47.203  0.00  0.00    +0.000 OA
ATOM     23  H   UNL     1     -11.233  55.809  46.338  0.00  0.00    +0.000 HD
ENDBRANCH   6  22
BRANCH   3  24
ATOM     24  C   UNL     1      -7.704  53.424  50.801  0.00  0.00    +0.000 C 
BRANCH  24  25
ATOM     25  C   UNL     1      -6.879  54.575  51.388  0.00  0.00    +0.000 C 
BRANCH  25  26
ATOM     26  C   UNL     1      -6.750  54.479  52.906  0.00  0.00    +0.000 C 
ATOM     27  C   UNL     1      -7.233  55.760  53.571  0.00  0.00    +0.000 C 
ENDBRANCH  25  26
ENDBRANCH  24  25
ENDBRANCH   3  24
TORSDOF 5
ENDMDL
MODEL 8
REMARK VINA RESULT:      -6.9      4.373      6.378
REMARK  Name = 338250
REMARK  6 active torsions:
REMARK  status: ('A' for Active; 'I' for Inactive)
REMARK    1  A    between atoms: N_3  and  C_6
REMARK    2  A    between atoms: C_4  and  C_8
REMARK    3  A    between atoms: C_6  and  C_11
REMARK    4  A    between atoms: C_7  and  O_12
REMARK    5  A    between atoms: C_11  and  C_17
REMARK    6  A    between atoms: C_17  and  C_21
REMARK                            x       y       z     vdW  Elec       q    Type
REMARK                         _______ _______ _______ _____ _____    ______ ____
ROOT
ATOM      1  O   UNL     1      -8.347  56.124  51.480  0.00  0.00    +0.000 OA
ATOM      2  C   UNL     1      -8.610  55.161  52.208  0.00  0.00    +0.000 A 
ATOM      3  N   UNL     1      -7.618  54.533  52.940  0.00  0.00    +0.000 N 
ATOM      4  C   UNL     1     -10.018  54.633  52.254  0.00  0.00    +0.000 A 
ATOM      5  C   UNL     1      -7.881  53.339  53.668  0.00  0.00    +0.000 A 
ATOM      6  C   UNL     1     -10.282  53.539  52.994  0.00  0.00    +0.000 A 
ATOM      7  C   UNL     1      -9.192  52.824  53.697  0.00  0.00    +0.000 A 
ATOM      8  C   UNL     1      -6.849  52.642  54.326  0.00  0.00    +0.000 A 
ATOM      9  C   UNL     1      -9.424  51.604  54.362  0.00  0.00    +0.000 A 
ATOM     10  C   UNL     1      -7.097  51.438  54.981  0.00  0.00    +0.000 A 
ATOM     11  C   UNL     1      -8.383  50.914  54.991  0.00  0.00    +0.000 A 
ENDROOT
BRANCH   4  12
ATOM     12  C   UNL     1     -11.009  55.257  51.425  0.00  0.00    +0.000 A 
ATOM     13  N   UNL     1     -12.189  55.821  51.656  0.00  0.00    +0.000 NA
ATOM     14  N   UNL     1     -10.757  55.252  50.072  0.00  0.00    +0.000 N 
ATOM     15  C   UNL     1     -12.664  56.217  50.405  0.00  0.00    +0.000 A 
ATOM     16  C   UNL     1     -11.802  55.798  49.403  0.00  0.00    +0.000 A 
ATOM     17  C   UNL     1     -13.814  56.929  50.017  0.00  0.00    +0.000 A 
ATOM     18  C   UNL     1     -12.017  55.972  48.035  0.00  0.00    +0.000 A 
ATOM     19  C   UNL     1     -14.059  57.128  48.643  0.00  0.00    +0.000 A 
ATOM     20  C   UNL     1     -13.183  56.638  47.671  0.00  0.00    +0.000 A 
ATOM     21  H   UNL     1      -9.939  54.901  49.652  0.00  0.00    +0.000 HD
ENDBRANCH   4  12
BRANCH   6  22
ATOM     22  O   UNL     1     -11.541  52.967  53.099  0.00  0.00    +0.000 OA
ATOM     23  H   UNL     1     -12.235  53.436  53.520  0.00  0.00    +0.000 HD
ENDBRANCH   6  22
BRANCH   3  24
ATOM     24  C   UNL     1      -6.253  55.043  52.778  0.00  0.00    +0.000 C 
BRANCH  24  25
ATOM     25  C   UNL     1      -5.545  54.379  51.591  0.00  0.00    +0.000 C 
BRANCH  25  26
ATOM     26  C   UNL     1      -4.123  53.942  51.937  0.00  0.00    +0.000 C 
ATOM     27  C   UNL     1      -3.980  52.431  51.828  0.00  0.00    +0.000 C 
ENDBRANCH  25  26
ENDBRANCH  24  25
ENDBRANCH   3  24
TORSDOF 5
ENDMDL
MODEL 9
REMARK VINA RESULT:      -6.6      2.307      3.677
REMARK  Name = 338250
REMARK  6 active torsions:
REMARK  status: ('A' for Active; 'I' for Inactive)
REMARK    1  A    between atoms: N_3  and  C_6
REMARK    2  A    between atoms: C_4  and  C_8
REMARK    3  A    between atoms: C_6  and  C_11
REMARK    4  A    between atoms: C_7  and  O_12
REMARK    5  A    between atoms: C_11  and  C_17
REMARK    6  A    between atoms: C_17  and  C_21
REMARK                            x       y       z     vdW  Elec       q    Type
REMARK                         _______ _______ _______ _____ _____    ______ ____
ROOT
ATOM      1  O   UNL     1     -10.625  54.681  50.890  0.00  0.00    +0.000 OA
ATOM      2  C   UNL     1     -10.757  54.491  49.677  0.00  0.00    +0.000 A 
ATOM      3  N   UNL     1      -9.944  53.593  49.006  0.00  0.00    +0.000 N 
ATOM      4  C   UNL     1     -11.779  55.286  48.911  0.00  0.00    +0.000 A 
ATOM      5  C   UNL     1      -9.990  53.471  47.590  0.00  0.00    +0.000 A 
ATOM      6  C   UNL     1     -11.868  55.125  47.577  0.00  0.00    +0.000 A 
ATOM      7  C   UNL     1     -10.928  54.230  46.863  0.00  0.00    +0.000 A 
ATOM      8  C   UNL     1      -9.091  52.636  46.899  0.00  0.00    +0.000 A 
ATOM      9  C   UNL     1     -10.915  54.152  45.456  0.00  0.00    +0.000 A 
ATOM     10  C   UNL     1      -9.095  52.569  45.508  0.00  0.00    +0.000 A 
ATOM     11  C   UNL     1     -10.000  53.335  44.785  0.00  0.00    +0.000 A 
ENDROOT
BRANCH   4  12
ATOM     12  C   UNL     1     -12.553  56.264  49.620  0.00  0.00    +0.000 A 
ATOM     13  N   UNL     1     -12.781  57.563  49.454  0.00  0.00    +0.000 NA
ATOM     14  N   UNL     1     -13.178  55.828  50.765  0.00  0.00    +0.000 N 
ATOM     15  C   UNL     1     -13.613  57.932  50.513  0.00  0.00    +0.000 A 
ATOM     16  C   UNL     1     -13.806  56.864  51.376  0.00  0.00    +0.000 A 
ATOM     17  C   UNL     1     -14.248  59.147  50.831  0.00  0.00    +0.000 A 
ATOM     18  C   UNL     1     -14.529  56.916  52.568  0.00  0.00    +0.000 A 
ATOM     19  C   UNL     1     -14.992  59.232  52.025  0.00  0.00    +0.000 A 
ATOM     20  C   UNL     1     -15.111  58.139  52.887  0.00  0.00    +0.000 A 
ATOM     21  H   UNL     1     -13.170  54.900  51.094  0.00  0.00    +0.000 HD
ENDBRANCH   4  12
BRANCH   6  22
ATOM     22  O   UNL     1     -12.768  55.813  46.777  0.00  0.00    +0.000 OA
ATOM     23  H   UNL     1     -12.515  56.091  45.920  0.00  0.00    +0.000 HD
ENDBRANCH   6  22
BRANCH   3  24
ATOM     24  C   UNL     1      -8.910  52.920  49.798  0.00  0.00    +0.000 C 
BRANCH  24  25
ATOM     25  C   UNL     1      -9.218  51.428  49.969  0.00  0.00    +0.000 C 
BRANCH  25  26
ATOM     26  C   UNL     1      -9.381  51.035  51.435  0.00  0.00    +0.000 C 
ATOM     27  C   UNL     1     -10.357  49.876  51.580  0.00  0.00    +0.000 C 
ENDBRANCH  25  26
ENDBRANCH  24  25
ENDBRANCH   3  24
TORSDOF 5
ENDMDL
