MODEL 1
REMARK VINA RESULT:      -8.4      0.000      0.000
REMARK  Name = 338068
REMARK  6 active torsions:
REMARK  status: ('A' for Active; 'I' for Inactive)
REMARK    1  A    between atoms: C_6  and  C_10
REMARK    2  A    between atoms: C_14  and  O_18
REMARK    3  A    between atoms: N_17  and  C_21
REMARK    4  A    between atoms: C_21  and  C_24
REMARK    5  A    between atoms: C_24  and  C_27
REMARK    6  A    between atoms: C_27  and  C_28
REMARK                            x       y       z     vdW  Elec       q    Type
REMARK                         _______ _______ _______ _____ _____    ______ ____
ROOT
ATOM      1  C   UNL     1     -10.093  54.443  52.247  0.00  0.00    +0.000 A 
ATOM      2  C   UNL     1      -8.720  55.025  52.135  0.00  0.00    +0.000 A 
ATOM      3  C   UNL     1     -10.304  53.333  52.974  0.00  0.00    +0.000 A 
ATOM      4  O   UNL     1      -8.586  56.111  51.561  0.00  0.00    +0.000 OA
ATOM      5  N   UNL     1      -7.657  54.340  52.702  0.00  0.00    +0.000 N 
ATOM      6  C   UNL     1      -9.181  52.674  53.656  0.00  0.00    +0.000 A 
ATOM      7  C   UNL     1      -7.872  53.173  53.501  0.00  0.00    +0.000 A 
ATOM      8  C   UNL     1      -9.412  51.562  54.485  0.00  0.00    +0.000 A 
ATOM      9  C   UNL     1      -6.829  52.534  54.187  0.00  0.00    +0.000 A 
ATOM     10  C   UNL     1      -8.370  50.969  55.190  0.00  0.00    +0.000 A 
ATOM     11  C   UNL     1      -7.080  51.460  55.045  0.00  0.00    +0.000 A 
ENDROOT
BRANCH   1  17
ATOM     12  S   UNL     1     -12.453  55.975  49.510  0.00  0.00    +0.000 S 
ATOM     13  O   UNL     1     -13.361  54.993  48.939  0.00  0.00    +0.000 OA
ATOM     14  O   UNL     1     -11.813  56.960  48.662  0.00  0.00    +0.000 OA
ATOM     15  N   UNL     1     -11.294  55.171  50.310  0.00  0.00    +0.000 N 
ATOM     16  C   UNL     1     -13.395  56.885  50.677  0.00  0.00    +0.000 A 
ATOM     17  C   UNL     1     -11.254  55.173  51.607  0.00  0.00    +0.000 C 
ATOM     18  C   UNL     1     -13.125  56.693  52.022  0.00  0.00    +0.000 A 
ATOM     19  C   UNL     1     -14.372  57.782  50.239  0.00  0.00    +0.000 A 
ATOM     20  N   UNL     1     -12.160  55.784  52.444  0.00  0.00    +0.000 N 
ATOM     21  C   UNL     1     -13.902  57.378  52.959  0.00  0.00    +0.000 A 
ATOM     22  C   UNL     1     -15.122  58.478  51.183  0.00  0.00    +0.000 A 
ATOM     23  C   UNL     1     -14.893  58.272  52.544  0.00  0.00    +0.000 A 
ATOM     24  H   UNL     1     -10.612  54.674  49.805  0.00  0.00    +0.000 HD
ATOM     25  H   UNL     1     -12.122  55.564  53.403  0.00  0.00    +0.000 HD
ENDBRANCH   1  17
BRANCH   3  26
ATOM     26  O   UNL     1     -11.544  52.755  53.184  0.00  0.00    +0.000 OA
ATOM     27  H   UNL     1     -12.314  53.162  52.840  0.00  0.00    +0.000 HD
ENDBRANCH   3  26
BRANCH   5  28
ATOM     28  C   UNL     1      -6.315  54.915  52.534  0.00  0.00    +0.000 C 
BRANCH  28  29
ATOM     29  C   UNL     1      -5.478  54.189  51.466  0.00  0.00    +0.000 C 
BRANCH  29  30
ATOM     30  C   UNL     1      -6.304  53.821  50.227  0.00  0.00    +0.000 C 
BRANCH  30  31
ATOM     31  C   UNL     1      -6.281  54.918  49.185  0.00  0.00    +0.000 C 
ATOM     32  O   UNL     1      -7.173  55.102  48.364  0.00  0.00    +0.000 OA
ATOM     33  N   UNL     1      -5.187  55.726  49.215  0.00  0.00    +0.000 N 
ATOM     34  H   UNL     1      -4.476  55.569  49.878  0.00  0.00    +0.000 HD
ATOM     35  H   UNL     1      -5.105  56.467  48.572  0.00  0.00    +0.000 HD
ENDBRANCH  30  31
ENDBRANCH  29  30
ENDBRANCH  28  29
ENDBRANCH   5  28
TORSDOF 6
ENDMDL
MODEL 2
REMARK VINA RESULT:      -8.2      2.693      7.696
REMARK  Name = 338068
REMARK  6 active torsions:
REMARK  status: ('A' for Active; 'I' for Inactive)
REMARK    1  A    between atoms: C_6  and  C_10
REMARK    2  A    between atoms: C_14  and  O_18
REMARK    3  A    between atoms: N_17  and  C_21
REMARK    4  A    between atoms: C_21  and  C_24
REMARK    5  A    between atoms: C_24  and  C_27
REMARK    6  A    between atoms: C_27  and  C_28
REMARK                            x       y       z     vdW  Elec       q    Type
REMARK                         _______ _______ _______ _____ _____    ______ ____
ROOT
ATOM      1  C   UNL     1     -10.766  55.179  51.019  0.00  0.00    +0.000 A 
ATOM      2  C   UNL     1     -11.988  55.856  51.551  0.00  0.00    +0.000 A 
ATOM      3  C   UNL     1     -10.568  55.076  49.694  0.00  0.00    +0.000 A 
ATOM      4  O   UNL     1     -12.076  56.040  52.770  0.00  0.00    +0.000 OA
ATOM      5  N   UNL     1     -12.960  56.277  50.657  0.00  0.00    +0.000 N 
ATOM      6  C   UNL     1     -11.560  55.619  48.756  0.00  0.00    +0.000 A 
ATOM      7  C   UNL     1     -12.749  56.198  49.245  0.00  0.00    +0.000 A 
ATOM      8  C   UNL     1     -11.315  55.588  47.371  0.00  0.00    +0.000 A 
ATOM      9  C   UNL     1     -13.661  56.729  48.321  0.00  0.00    +0.000 A 
ATOM     10  C   UNL     1     -12.213  56.159  46.475  0.00  0.00    +0.000 A 
ATOM     11  C   UNL     1     -13.382  56.734  46.952  0.00  0.00    +0.000 A 
ENDROOT
BRANCH   1  17
ATOM     12  S   UNL     1      -7.366  54.881  52.958  0.00  0.00    +0.000 S 
ATOM     13  O   UNL     1      -7.248  55.850  54.036  0.00  0.00    +0.000 OA
ATOM     14  O   UNL     1      -6.228  54.586  52.112  0.00  0.00    +0.000 OA
ATOM     15  N   UNL     1      -8.593  55.347  52.005  0.00  0.00    +0.000 N 
ATOM     16  C   UNL     1      -7.807  53.362  53.716  0.00  0.00    +0.000 A 
ATOM     17  C   UNL     1      -9.713  54.693  51.993  0.00  0.00    +0.000 C 
ATOM     18  C   UNL     1      -9.093  52.887  53.519  0.00  0.00    +0.000 A 
ATOM     19  C   UNL     1      -6.869  52.664  54.480  0.00  0.00    +0.000 A 
ATOM     20  N   UNL     1     -10.022  53.601  52.770  0.00  0.00    +0.000 N 
ATOM     21  C   UNL     1      -9.467  51.702  54.159  0.00  0.00    +0.000 A 
ATOM     22  C   UNL     1      -7.247  51.471  55.090  0.00  0.00    +0.000 A 
ATOM     23  C   UNL     1      -8.548  50.993  54.937  0.00  0.00    +0.000 A 
ATOM     24  H   UNL     1      -8.486  56.137  51.430  0.00  0.00    +0.000 HD
ATOM     25  H   UNL     1     -10.961  53.307  52.799  0.00  0.00    +0.000 HD
ENDBRANCH   1  17
BRANCH   3  26
ATOM     26  O   UNL     1      -9.444  54.520  49.109  0.00  0.00    +0.000 OA
ATOM     27  H   UNL     1      -9.275  54.655  48.197  0.00  0.00    +0.000 HD
ENDBRANCH   3  26
BRANCH   5  28
ATOM     28  C   UNL     1     -14.170  56.897  51.216  0.00  0.00    +0.000 C 
BRANCH  28  29
ATOM     29  C   UNL     1     -14.004  58.401  51.492  0.00  0.00    +0.000 C 
BRANCH  29  30
ATOM     30  C   UNL     1     -14.998  59.255  50.693  0.00  0.00    +0.000 C 
BRANCH  30  31
ATOM     31  C   UNL     1     -14.302  60.122  49.666  0.00  0.00    +0.000 C 
ATOM     32  O   UNL     1     -14.888  60.869  48.891  0.00  0.00    +0.000 OA
ATOM     33  N   UNL     1     -12.945  60.034  49.654  0.00  0.00    +0.000 N 
ATOM     34  H   UNL     1     -12.484  59.430  50.281  0.00  0.00    +0.000 HD
ATOM     35  H   UNL     1     -12.422  60.574  49.018  0.00  0.00    +0.000 HD
ENDBRANCH  30  31
ENDBRANCH  29  30
ENDBRANCH  28  29
ENDBRANCH   5  28
TORSDOF 6
ENDMDL
MODEL 3
REMARK VINA RESULT:      -8.1      3.034      4.920
REMARK  Name = 338068
REMARK  6 active torsions:
REMARK  status: ('A' for Active; 'I' for Inactive)
REMARK    1  A    between atoms: C_6  and  C_10
REMARK    2  A    between atoms: C_14  and  O_18
REMARK    3  A    between atoms: N_17  and  C_21
REMARK    4  A    between atoms: C_21  and  C_24
REMARK    5  A    between atoms: C_24  and  C_27
REMARK    6  A    between atoms: C_27  and  C_28
REMARK                            x       y       z     vdW  Elec       q    Type
REMARK                         _______ _______ _______ _____ _____    ______ ____
ROOT
ATOM      1  C   UNL     1     -11.481  55.959  48.795  0.00  0.00    +0.000 A 
ATOM      2  C   UNL     1     -10.436  55.331  49.660  0.00  0.00    +0.000 A 
ATOM      3  C   UNL     1     -11.598  55.604  47.504  0.00  0.00    +0.000 A 
ATOM      4  O   UNL     1     -10.437  55.592  50.868  0.00  0.00    +0.000 OA
ATOM      5  N   UNL     1      -9.527  54.458  49.082  0.00  0.00    +0.000 N 
ATOM      6  C   UNL     1     -10.692  54.600  46.931  0.00  0.00    +0.000 A 
ATOM      7  C   UNL     1      -9.659  54.051  47.717  0.00  0.00    +0.000 A 
ATOM      8  C   UNL     1     -10.867  54.165  45.604  0.00  0.00    +0.000 A 
ATOM      9  C   UNL     1      -8.829  53.078  47.144  0.00  0.00    +0.000 A 
ATOM     10  C   UNL     1     -10.059  53.167  45.069  0.00  0.00    +0.000 A 
ATOM     11  C   UNL     1      -9.045  52.621  45.841  0.00  0.00    +0.000 A 
ENDROOT
BRANCH   1  17
ATOM     12  S   UNL     1     -13.530  59.241  49.456  0.00  0.00    +0.000 S 
ATOM     13  O   UNL     1     -14.677  59.374  48.571  0.00  0.00    +0.000 OA
ATOM     14  O   UNL     1     -12.713  60.394  49.772  0.00  0.00    +0.000 OA
ATOM     15  N   UNL     1     -12.563  58.092  48.844  0.00  0.00    +0.000 N 
ATOM     16  C   UNL     1     -14.164  58.666  50.987  0.00  0.00    +0.000 A 
ATOM     17  C   UNL     1     -12.460  56.933  49.416  0.00  0.00    +0.000 C 
ATOM     18  C   UNL     1     -13.882  57.361  51.358  0.00  0.00    +0.000 A 
ATOM     19  C   UNL     1     -14.914  59.520  51.798  0.00  0.00    +0.000 A 
ATOM     20  N   UNL     1     -13.147  56.516  50.533  0.00  0.00    +0.000 N 
ATOM     21  C   UNL     1     -14.422  56.880  52.553  0.00  0.00    +0.000 A 
ATOM     22  C   UNL     1     -15.425  59.036  52.999  0.00  0.00    +0.000 A 
ATOM     23  C   UNL     1     -15.186  57.714  53.374  0.00  0.00    +0.000 A 
ATOM     24  H   UNL     1     -12.048  58.278  48.026  0.00  0.00    +0.000 HD
ATOM     25  H   UNL     1     -13.117  55.560  50.762  0.00  0.00    +0.000 HD
ENDBRANCH   1  17
BRANCH   3  26
ATOM     26  O   UNL     1     -12.569  56.086  46.642  0.00  0.00    +0.000 OA
ATOM     27  H   UNL     1     -13.376  55.622  46.540  0.00  0.00    +0.000 HD
ENDBRANCH   3  26
BRANCH   5  28
ATOM     28  C   UNL     1      -8.484  53.894  49.951  0.00  0.00    +0.000 C 
BRANCH  28  29
ATOM     29  C   UNL     1      -7.186  54.720  49.950  0.00  0.00    +0.000 C 
BRANCH  29  30
ATOM     30  C   UNL     1      -6.573  54.847  51.351  0.00  0.00    +0.000 C 
BRANCH  30  31
ATOM     31  C   UNL     1      -7.122  56.039  52.104  0.00  0.00    +0.000 C 
ATOM     32  O   UNL     1      -7.220  56.093  53.324  0.00  0.00    +0.000 OA
ATOM     33  N   UNL     1      -7.504  57.090  51.329  0.00  0.00    +0.000 N 
ATOM     34  H   UNL     1      -7.422  57.037  50.350  0.00  0.00    +0.000 HD
ATOM     35  H   UNL     1      -7.865  57.905  51.749  0.00  0.00    +0.000 HD
ENDBRANCH  30  31
ENDBRANCH  29  30
ENDBRANCH  28  29
ENDBRANCH   5  28
TORSDOF 6
ENDMDL
MODEL 4
REMARK VINA RESULT:      -8.0      2.150      3.056
REMARK  Name = 338068
REMARK  6 active torsions:
REMARK  status: ('A' for Active; 'I' for Inactive)
REMARK    1  A    between atoms: C_6  and  C_10
REMARK    2  A    between atoms: C_14  and  O_18
REMARK    3  A    between atoms: N_17  and  C_21
REMARK    4  A    between atoms: C_21  and  C_24
REMARK    5  A    between atoms: C_24  and  C_27
REMARK    6  A    between atoms: C_27  and  C_28
REMARK                            x       y       z     vdW  Elec       q    Type
REMARK                         _______ _______ _______ _____ _____    ______ ____
ROOT
ATOM      1  C   UNL     1     -11.651  54.020  51.070  0.00  0.00    +0.000 A 
ATOM      2  C   UNL     1     -10.760  53.998  52.271  0.00  0.00    +0.000 A 
ATOM      3  C   UNL     1     -11.739  52.944  50.270  0.00  0.00    +0.000 A 
ATOM      4  O   UNL     1     -10.798  54.957  53.050  0.00  0.00    +0.000 OA
ATOM      5  N   UNL     1      -9.950  52.893  52.481  0.00  0.00    +0.000 N 
ATOM      6  C   UNL     1     -10.950  51.740  50.563  0.00  0.00    +0.000 A 
ATOM      7  C   UNL     1     -10.055  51.732  51.652  0.00  0.00    +0.000 A 
ATOM      8  C   UNL     1     -11.104  50.585  49.775  0.00  0.00    +0.000 A 
ATOM      9  C   UNL     1      -9.337  50.557  51.916  0.00  0.00    +0.000 A 
ATOM     10  C   UNL     1     -10.414  49.416  50.081  0.00  0.00    +0.000 A 
ATOM     11  C   UNL     1      -9.535  49.402  51.155  0.00  0.00    +0.000 A 
ENDROOT
BRANCH   1  17
ATOM     12  S   UNL     1     -13.314  57.081  49.262  0.00  0.00    +0.000 S 
ATOM     13  O   UNL     1     -14.424  56.692  48.406  0.00  0.00    +0.000 OA
ATOM     14  O   UNL     1     -12.372  58.091  48.824  0.00  0.00    +0.000 OA
ATOM     15  N   UNL     1     -12.479  55.741  49.629  0.00  0.00    +0.000 N 
ATOM     16  C   UNL     1     -14.033  57.701  50.737  0.00  0.00    +0.000 A 
ATOM     17  C   UNL     1     -12.520  55.235  50.822  0.00  0.00    +0.000 C 
ATOM     18  C   UNL     1     -13.911  56.940  51.888  0.00  0.00    +0.000 A 
ATOM     19  C   UNL     1     -14.690  58.933  50.729  0.00  0.00    +0.000 A 
ATOM     20  N   UNL     1     -13.267  55.707  51.877  0.00  0.00    +0.000 N 
ATOM     21  C   UNL     1     -14.521  57.404  53.057  0.00  0.00    +0.000 A 
ATOM     22  C   UNL     1     -15.272  59.396  51.907  0.00  0.00    +0.000 A 
ATOM     23  C   UNL     1     -15.194  58.628  53.069  0.00  0.00    +0.000 A 
ATOM     24  H   UNL     1     -11.934  55.304  48.936  0.00  0.00    +0.000 HD
ATOM     25  H   UNL     1     -13.352  55.136  52.674  0.00  0.00    +0.000 HD
ENDBRANCH   1  17
BRANCH   3  26
ATOM     26  O   UNL     1     -12.578  52.849  49.172  0.00  0.00    +0.000 OA
ATOM     27  H   UNL     1     -13.065  52.064  49.022  0.00  0.00    +0.000 HD
ENDBRANCH   3  26
BRANCH   5  28
ATOM     28  C   UNL     1      -9.052  52.924  53.644  0.00  0.00    +0.000 C 
BRANCH  28  29
ATOM     29  C   UNL     1      -7.639  53.426  53.302  0.00  0.00    +0.000 C 
BRANCH  29  30
ATOM     30  C   UNL     1      -7.334  54.789  53.937  0.00  0.00    +0.000 C 
BRANCH  30  31
ATOM     31  C   UNL     1      -7.246  55.889  52.902  0.00  0.00    +0.000 C 
ATOM     32  O   UNL     1      -7.732  55.813  51.779  0.00  0.00    +0.000 OA
ATOM     33  N   UNL     1      -6.587  57.011  53.300  0.00  0.00    +0.000 N 
ATOM     34  H   UNL     1      -6.201  57.061  54.204  0.00  0.00    +0.000 HD
ATOM     35  H   UNL     1      -6.496  57.773  52.683  0.00  0.00    +0.000 HD
ENDBRANCH  30  31
ENDBRANCH  29  30
ENDBRANCH  28  29
ENDBRANCH   5  28
TORSDOF 6
ENDMDL
MODEL 5
REMARK VINA RESULT:      -7.9      3.952      5.835
REMARK  Name = 338068
REMARK  6 active torsions:
REMARK  status: ('A' for Active; 'I' for Inactive)
REMARK    1  A    between atoms: C_6  and  C_10
REMARK    2  A    between atoms: C_14  and  O_18
REMARK    3  A    between atoms: N_17  and  C_21
REMARK    4  A    between atoms: C_21  and  C_24
REMARK    5  A    between atoms: C_24  and  C_27
REMARK    6  A    between atoms: C_27  and  C_28
REMARK                            x       y       z     vdW  Elec       q    Type
REMARK                         _______ _______ _______ _____ _____    ______ ____
ROOT
ATOM      1  C   UNL     1     -10.893  55.629  48.664  0.00  0.00    +0.000 A 
ATOM      2  C   UNL     1     -11.291  55.132  47.311  0.00  0.00    +0.000 A 
ATOM      3  C   UNL     1      -9.626  55.494  49.092  0.00  0.00    +0.000 A 
ATOM      4  O   UNL     1     -12.431  55.382  46.904  0.00  0.00    +0.000 OA
ATOM      5  N   UNL     1     -10.360  54.438  46.554  0.00  0.00    +0.000 N 
ATOM      6  C   UNL     1      -8.624  54.847  48.235  0.00  0.00    +0.000 A 
ATOM      7  C   UNL     1      -9.002  54.314  46.987  0.00  0.00    +0.000 A 
ATOM      8  C   UNL     1      -7.280  54.781  48.645  0.00  0.00    +0.000 A 
ATOM      9  C   UNL     1      -8.014  53.725  46.185  0.00  0.00    +0.000 A 
ATOM     10  C   UNL     1      -6.307  54.232  47.816  0.00  0.00    +0.000 A 
ATOM     11  C   UNL     1      -6.675  53.710  46.584  0.00  0.00    +0.000 A 
ENDROOT
BRANCH   1  17
ATOM     12  S   UNL     1     -13.571  56.368  51.437  0.00  0.00    +0.000 S 
ATOM     13  O   UNL     1     -12.973  56.679  52.726  0.00  0.00    +0.000 OA
ATOM     14  O   UNL     1     -14.748  55.527  51.361  0.00  0.00    +0.000 OA
ATOM     15  N   UNL     1     -12.421  55.709  50.504  0.00  0.00    +0.000 N 
ATOM     16  C   UNL     1     -14.033  57.907  50.733  0.00  0.00    +0.000 A 
ATOM     17  C   UNL     1     -11.914  56.364  49.506  0.00  0.00    +0.000 C 
ATOM     18  C   UNL     1     -13.308  58.368  49.646  0.00  0.00    +0.000 A 
ATOM     19  C   UNL     1     -15.111  58.621  51.261  0.00  0.00    +0.000 A 
ATOM     20  N   UNL     1     -12.227  57.654  49.141  0.00  0.00    +0.000 N 
ATOM     21  C   UNL     1     -13.639  59.615  49.109  0.00  0.00    +0.000 A 
ATOM     22  C   UNL     1     -15.447  59.850  50.700  0.00  0.00    +0.000 A 
ATOM     23  C   UNL     1     -14.707  60.351  49.629  0.00  0.00    +0.000 A 
ATOM     24  H   UNL     1     -12.102  54.798  50.698  0.00  0.00    +0.000 HD
ATOM     25  H   UNL     1     -11.648  58.100  48.482  0.00  0.00    +0.000 HD
ENDBRANCH   1  17
BRANCH   3  26
ATOM     26  O   UNL     1      -9.151  55.973  50.301  0.00  0.00    +0.000 OA
ATOM     27  H   UNL     1      -8.228  56.021  50.455  0.00  0.00    +0.000 HD
ENDBRANCH   3  26
BRANCH   5  28
ATOM     28  C   UNL     1     -10.798  53.924  45.249  0.00  0.00    +0.000 C 
BRANCH  28  29
ATOM     29  C   UNL     1     -11.533  52.576  45.348  0.00  0.00    +0.000 C 
BRANCH  29  30
ATOM     30  C   UNL     1     -10.621  51.388  45.016  0.00  0.00    +0.000 C 
BRANCH  30  31
ATOM     31  C   UNL     1     -10.098  51.454  43.597  0.00  0.00    +0.000 C 
ATOM     32  O   UNL     1      -8.959  51.796  43.302  0.00  0.00    +0.000 OA
ATOM     33  N   UNL     1     -10.986  51.090  42.633  0.00  0.00    +0.000 N 
ATOM     34  H   UNL     1     -11.899  50.817  42.881  0.00  0.00    +0.000 HD
ATOM     35  H   UNL     1     -10.715  51.101  41.686  0.00  0.00    +0.000 HD
ENDBRANCH  30  31
ENDBRANCH  29  30
ENDBRANCH  28  29
ENDBRANCH   5  28
TORSDOF 6
ENDMDL
MODEL 6
REMARK VINA RESULT:      -7.8      1.632      2.329
REMARK  Name = 338068
REMARK  6 active torsions:
REMARK  status: ('A' for Active; 'I' for Inactive)
REMARK    1  A    between atoms: C_6  and  C_10
REMARK    2  A    between atoms: C_14  and  O_18
REMARK    3  A    between atoms: N_17  and  C_21
REMARK    4  A    between atoms: C_21  and  C_24
REMARK    5  A    between atoms: C_24  and  C_27
REMARK    6  A    between atoms: C_27  and  C_28
REMARK                            x       y       z     vdW  Elec       q    Type
REMARK                         _______ _______ _______ _____ _____    ______ ____
ROOT
ATOM      1  C   UNL     1     -10.101  54.399  52.153  0.00  0.00    +0.000 A 
ATOM      2  C   UNL     1      -8.682  54.871  52.114  0.00  0.00    +0.000 A 
ATOM      3  C   UNL     1     -10.441  53.328  52.889  0.00  0.00    +0.000 A 
ATOM      4  O   UNL     1      -8.429  55.928  51.527  0.00  0.00    +0.000 OA
ATOM      5  N   UNL     1      -7.712  54.122  52.761  0.00  0.00    +0.000 N 
ATOM      6  C   UNL     1      -9.416  52.604  53.654  0.00  0.00    +0.000 A 
ATOM      7  C   UNL     1      -8.065  52.997  53.571  0.00  0.00    +0.000 A 
ATOM      8  C   UNL     1      -9.783  51.534  54.491  0.00  0.00    +0.000 A 
ATOM      9  C   UNL     1      -7.119  52.298  54.334  0.00  0.00    +0.000 A 
ATOM     10  C   UNL     1      -8.834  50.883  55.273  0.00  0.00    +0.000 A 
ATOM     11  C   UNL     1      -7.504  51.270  55.197  0.00  0.00    +0.000 A 
ENDROOT
BRANCH   1  17
ATOM     12  S   UNL     1     -13.402  56.403  51.452  0.00  0.00    +0.000 S 
ATOM     13  O   UNL     1     -13.322  57.788  51.891  0.00  0.00    +0.000 OA
ATOM     14  O   UNL     1     -14.614  55.638  51.665  0.00  0.00    +0.000 OA
ATOM     15  N   UNL     1     -12.172  55.596  52.134  0.00  0.00    +0.000 N 
ATOM     16  C   UNL     1     -13.147  56.428  49.717  0.00  0.00    +0.000 A 
ATOM     17  C   UNL     1     -11.161  55.199  51.426  0.00  0.00    +0.000 C 
ATOM     18  C   UNL     1     -11.956  55.918  49.228  0.00  0.00    +0.000 A 
ATOM     19  C   UNL     1     -14.136  56.938  48.873  0.00  0.00    +0.000 A 
ATOM     20  N   UNL     1     -10.973  55.428  50.082  0.00  0.00    +0.000 N 
ATOM     21  C   UNL     1     -11.725  55.977  47.851  0.00  0.00    +0.000 A 
ATOM     22  C   UNL     1     -13.904  56.967  47.500  0.00  0.00    +0.000 A 
ATOM     23  C   UNL     1     -12.695  56.494  46.989  0.00  0.00    +0.000 A 
ATOM     24  H   UNL     1     -12.193  55.406  53.099  0.00  0.00    +0.000 HD
ATOM     25  H   UNL     1     -10.087  55.233  49.701  0.00  0.00    +0.000 HD
ENDBRANCH   1  17
BRANCH   3  26
ATOM     26  O   UNL     1     -11.733  52.852  53.034  0.00  0.00    +0.000 OA
ATOM     27  H   UNL     1     -11.879  51.957  53.267  0.00  0.00    +0.000 HD
ENDBRANCH   3  26
BRANCH   5  28
ATOM     28  C   UNL     1      -6.321  54.589  52.665  0.00  0.00    +0.000 C 
BRANCH  28  29
ATOM     29  C   UNL     1      -5.448  53.696  51.767  0.00  0.00    +0.000 C 
BRANCH  29  30
ATOM     30  C   UNL     1      -4.952  54.433  50.516  0.00  0.00    +0.000 C 
BRANCH  30  31
ATOM     31  C   UNL     1      -6.021  54.522  49.449  0.00  0.00    +0.000 C 
ATOM     32  O   UNL     1      -6.587  53.549  48.963  0.00  0.00    +0.000 OA
ATOM     33  N   UNL     1      -6.343  55.783  49.052  0.00  0.00    +0.000 N 
ATOM     34  H   UNL     1      -5.882  56.557  49.448  0.00  0.00    +0.000 HD
ATOM     35  H   UNL     1      -7.036  55.920  48.366  0.00  0.00    +0.000 HD
ENDBRANCH  30  31
ENDBRANCH  29  30
ENDBRANCH  28  29
ENDBRANCH   5  28
TORSDOF 6
ENDMDL
MODEL 7
REMARK VINA RESULT:      -7.8      2.873      6.817
REMARK  Name = 338068
REMARK  6 active torsions:
REMARK  status: ('A' for Active; 'I' for Inactive)
REMARK    1  A    between atoms: C_6  and  C_10
REMARK    2  A    between atoms: C_14  and  O_18
REMARK    3  A    between atoms: N_17  and  C_21
REMARK    4  A    between atoms: C_21  and  C_24
REMARK    5  A    between atoms: C_24  and  C_27
REMARK    6  A    between atoms: C_27  and  C_28
REMARK                            x       y       z     vdW  Elec       q    Type
REMARK                         _______ _______ _______ _____ _____    ______ ____
ROOT
ATOM      1  C   UNL     1     -10.293  55.191  50.803  0.00  0.00    +0.000 A 
ATOM      2  C   UNL     1      -9.909  55.073  49.363  0.00  0.00    +0.000 A 
ATOM      3  C   UNL     1     -11.493  55.686  51.148  0.00  0.00    +0.000 A 
ATOM      4  O   UNL     1      -8.850  54.502  49.080  0.00  0.00    +0.000 OA
ATOM      5  N   UNL     1     -10.766  55.582  48.399  0.00  0.00    +0.000 N 
ATOM      6  C   UNL     1     -12.435  56.127  50.110  0.00  0.00    +0.000 A 
ATOM      7  C   UNL     1     -12.058  56.085  48.752  0.00  0.00    +0.000 A 
ATOM      8  C   UNL     1     -13.724  56.566  50.464  0.00  0.00    +0.000 A 
ATOM      9  C   UNL     1     -12.991  56.490  47.788  0.00  0.00    +0.000 A 
ATOM     10  C   UNL     1     -14.649  56.923  49.488  0.00  0.00    +0.000 A 
ATOM     11  C   UNL     1     -14.283  56.879  48.151  0.00  0.00    +0.000 A 
ENDROOT
BRANCH   1  17
ATOM     12  S   UNL     1      -7.074  54.723  52.999  0.00  0.00    +0.000 S 
ATOM     13  O   UNL     1      -6.977  55.703  54.069  0.00  0.00    +0.000 OA
ATOM     14  O   UNL     1      -5.895  54.343  52.246  0.00  0.00    +0.000 OA
ATOM     15  N   UNL     1      -8.193  55.245  51.949  0.00  0.00    +0.000 N 
ATOM     16  C   UNL     1      -7.664  53.249  53.743  0.00  0.00    +0.000 A 
ATOM     17  C   UNL     1      -9.348  54.661  51.861  0.00  0.00    +0.000 C 
ATOM     18  C   UNL     1      -8.959  52.849  53.456  0.00  0.00    +0.000 A 
ATOM     19  C   UNL     1      -6.831  52.509  54.586  0.00  0.00    +0.000 A 
ATOM     20  N   UNL     1      -9.783  53.604  52.628  0.00  0.00    +0.000 N 
ATOM     21  C   UNL     1      -9.453  51.702  54.081  0.00  0.00    +0.000 A 
ATOM     22  C   UNL     1      -7.327  51.353  55.183  0.00  0.00    +0.000 A 
ATOM     23  C   UNL     1      -8.641  50.953  54.937  0.00  0.00    +0.000 A 
ATOM     24  H   UNL     1      -7.994  56.016  51.372  0.00  0.00    +0.000 HD
ATOM     25  H   UNL     1     -10.737  53.368  52.589  0.00  0.00    +0.000 HD
ENDBRANCH   1  17
BRANCH   3  26
ATOM     26  O   UNL     1     -11.960  55.780  52.448  0.00  0.00    +0.000 OA
ATOM     27  H   UNL     1     -12.606  55.176  52.758  0.00  0.00    +0.000 HD
ENDBRANCH   3  26
BRANCH   5  28
ATOM     28  C   UNL     1     -10.337  55.491  46.996  0.00  0.00    +0.000 C 
BRANCH  28  29
ATOM     29  C   UNL     1     -10.670  54.135  46.351  0.00  0.00    +0.000 C 
BRANCH  29  30
ATOM     30  C   UNL     1      -9.703  53.776  45.215  0.00  0.00    +0.000 C 
BRANCH  30  31
ATOM     31  C   UNL     1      -8.259  54.003  45.607  0.00  0.00    +0.000 C 
ATOM     32  O   UNL     1      -7.558  54.899  45.150  0.00  0.00    +0.000 OA
ATOM     33  N   UNL     1      -7.765  53.139  46.533  0.00  0.00    +0.000 N 
ATOM     34  H   UNL     1      -8.337  52.422  46.893  0.00  0.00    +0.000 HD
ATOM     35  H   UNL     1      -6.835  53.228  46.844  0.00  0.00    +0.000 HD
ENDBRANCH  30  31
ENDBRANCH  29  30
ENDBRANCH  28  29
ENDBRANCH   5  28
TORSDOF 6
ENDMDL
MODEL 8
REMARK VINA RESULT:      -7.8      3.047      5.160
REMARK  Name = 338068
REMARK  6 active torsions:
REMARK  status: ('A' for Active; 'I' for Inactive)
REMARK    1  A    between atoms: C_6  and  C_10
REMARK    2  A    between atoms: C_14  and  O_18
REMARK    3  A    between atoms: N_17  and  C_21
REMARK    4  A    between atoms: C_21  and  C_24
REMARK    5  A    between atoms: C_24  and  C_27
REMARK    6  A    between atoms: C_27  and  C_28
REMARK                            x       y       z     vdW  Elec       q    Type
REMARK                         _______ _______ _______ _____ _____    ______ ____
ROOT
ATOM      1  C   UNL     1     -10.704  55.726  48.411  0.00  0.00    +0.000 A 
ATOM      2  C   UNL     1      -9.276  55.639  48.845  0.00  0.00    +0.000 A 
ATOM      3  C   UNL     1     -11.097  55.171  47.252  0.00  0.00    +0.000 A 
ATOM      4  O   UNL     1      -8.976  56.053  49.970  0.00  0.00    +0.000 OA
ATOM      5  N   UNL     1      -8.349  55.074  47.983  0.00  0.00    +0.000 N 
ATOM      6  C   UNL     1     -10.121  54.483  46.396  0.00  0.00    +0.000 A 
ATOM      7  C   UNL     1      -8.760  54.455  46.760  0.00  0.00    +0.000 A 
ATOM      8  C   UNL     1     -10.545  53.829  45.225  0.00  0.00    +0.000 A 
ATOM      9  C   UNL     1      -7.862  53.768  45.931  0.00  0.00    +0.000 A 
ATOM     10  C   UNL     1      -9.644  53.117  44.440  0.00  0.00    +0.000 A 
ATOM     11  C   UNL     1      -8.304  53.083  44.797  0.00  0.00    +0.000 A 
ENDROOT
BRANCH   1  17
ATOM     12  S   UNL     1     -13.277  56.189  51.339  0.00  0.00    +0.000 S 
ATOM     13  O   UNL     1     -12.633  56.459  52.615  0.00  0.00    +0.000 OA
ATOM     14  O   UNL     1     -14.417  55.297  51.270  0.00  0.00    +0.000 OA
ATOM     15  N   UNL     1     -12.144  55.635  50.320  0.00  0.00    +0.000 N 
ATOM     16  C   UNL     1     -13.842  57.739  50.742  0.00  0.00    +0.000 A 
ATOM     17  C   UNL     1     -11.716  56.366  49.338  0.00  0.00    +0.000 C 
ATOM     18  C   UNL     1     -13.192  58.290  49.651  0.00  0.00    +0.000 A 
ATOM     19  C   UNL     1     -14.925  58.371  51.357  0.00  0.00    +0.000 A 
ATOM     20  N   UNL     1     -12.104  57.657  49.059  0.00  0.00    +0.000 N 
ATOM     21  C   UNL     1     -13.605  59.546  49.199  0.00  0.00    +0.000 A 
ATOM     22  C   UNL     1     -15.343  59.611  50.880  0.00  0.00    +0.000 A 
ATOM     23  C   UNL     1     -14.679  60.203  49.806  0.00  0.00    +0.000 A 
ATOM     24  H   UNL     1     -11.776  54.732  50.449  0.00  0.00    +0.000 HD
ATOM     25  H   UNL     1     -11.578  58.164  48.400  0.00  0.00    +0.000 HD
ENDBRANCH   1  17
BRANCH   3  26
ATOM     26  O   UNL     1     -12.404  55.148  46.795  0.00  0.00    +0.000 OA
ATOM     27  H   UNL     1     -13.089  55.516  47.318  0.00  0.00    +0.000 HD
ENDBRANCH   3  26
BRANCH   5  28
ATOM     28  C   UNL     1      -6.947  55.046  48.421  0.00  0.00    +0.000 C 
BRANCH  28  29
ATOM     29  C   UNL     1      -6.610  53.822  49.289  0.00  0.00    +0.000 C 
BRANCH  29  30
ATOM     30  C   UNL     1      -5.706  54.178  50.476  0.00  0.00    +0.000 C 
BRANCH  30  31
ATOM     31  C   UNL     1      -6.505  54.472  51.728  0.00  0.00    +0.000 C 
ATOM     32  O   UNL     1      -6.972  53.607  52.461  0.00  0.00    +0.000 OA
ATOM     33  N   UNL     1      -6.674  55.790  52.014  0.00  0.00    +0.000 N 
ATOM     34  H   UNL     1      -6.295  56.476  51.418  0.00  0.00    +0.000 HD
ATOM     35  H   UNL     1      -7.177  56.059  52.817  0.00  0.00    +0.000 HD
ENDBRANCH  30  31
ENDBRANCH  29  30
ENDBRANCH  28  29
ENDBRANCH   5  28
TORSDOF 6
ENDMDL
MODEL 9
REMARK VINA RESULT:      -7.8      3.591      5.659
REMARK  Name = 338068
REMARK  6 active torsions:
REMARK  status: ('A' for Active; 'I' for Inactive)
REMARK    1  A    between atoms: C_6  and  C_10
REMARK    2  A    between atoms: C_14  and  O_18
REMARK    3  A    between atoms: N_17  and  C_21
REMARK    4  A    between atoms: C_21  and  C_24
REMARK    5  A    between atoms: C_24  and  C_27
REMARK    6  A    between atoms: C_27  and  C_28
REMARK                            x       y       z     vdW  Elec       q    Type
REMARK                         _______ _______ _______ _____ _____    ______ ____
ROOT
ATOM      1  C   UNL     1     -10.237  54.322  47.808  0.00  0.00    +0.000 A 
ATOM      2  C   UNL     1      -8.882  53.745  48.068  0.00  0.00    +0.000 A 
ATOM      3  C   UNL     1     -10.813  54.187  46.601  0.00  0.00    +0.000 A 
ATOM      4  O   UNL     1      -8.438  53.782  49.221  0.00  0.00    +0.000 OA
ATOM      5  N   UNL     1      -8.189  53.167  47.017  0.00  0.00    +0.000 N 
ATOM      6  C   UNL     1     -10.108  53.479  45.523  0.00  0.00    +0.000 A 
ATOM      7  C   UNL     1      -8.803  52.992  45.736  0.00  0.00    +0.000 A 
ATOM      8  C   UNL     1     -10.742  53.263  44.287  0.00  0.00    +0.000 A 
ATOM      9  C   UNL     1      -8.171  52.300  44.693  0.00  0.00    +0.000 A 
ATOM     10  C   UNL     1     -10.114  52.537  43.280  0.00  0.00    +0.000 A 
ATOM     11  C   UNL     1      -8.831  52.052  43.487  0.00  0.00    +0.000 A 
ENDROOT
BRANCH   1  17
ATOM     12  S   UNL     1     -11.869  54.888  51.332  0.00  0.00    +0.000 S 
ATOM     13  O   UNL     1     -10.906  55.322  52.333  0.00  0.00    +0.000 OA
ATOM     14  O   UNL     1     -12.891  53.919  51.673  0.00  0.00    +0.000 OA
ATOM     15  N   UNL     1     -11.038  54.318  50.062  0.00  0.00    +0.000 N 
ATOM     16  C   UNL     1     -12.725  56.332  50.824  0.00  0.00    +0.000 A 
ATOM     17  C   UNL     1     -10.987  54.978  48.947  0.00  0.00    +0.000 C 
ATOM     18  C   UNL     1     -12.478  56.819  49.551  0.00  0.00    +0.000 A 
ATOM     19  C   UNL     1     -13.634  56.946  51.689  0.00  0.00    +0.000 A 
ATOM     20  N   UNL     1     -11.558  56.207  48.707  0.00  0.00    +0.000 N 
ATOM     21  C   UNL     1     -13.121  57.995  49.155  0.00  0.00    +0.000 A 
ATOM     22  C   UNL     1     -14.287  58.103  51.272  0.00  0.00    +0.000 A 
ATOM     23  C   UNL     1     -14.026  58.633  50.009  0.00  0.00    +0.000 A 
ATOM     24  H   UNL     1     -10.566  53.458  50.139  0.00  0.00    +0.000 HD
ATOM     25  H   UNL     1     -11.299  56.683  47.885  0.00  0.00    +0.000 HD
ENDBRANCH   1  17
BRANCH   3  26
ATOM     26  O   UNL     1     -12.084  54.633  46.283  0.00  0.00    +0.000 OA
ATOM     27  H   UNL     1     -12.250  55.011  45.442  0.00  0.00    +0.000 HD
ENDBRANCH   3  26
BRANCH   5  28
ATOM     28  C   UNL     1      -6.841  52.651  47.296  0.00  0.00    +0.000 C 
BRANCH  28  29
ATOM     29  C   UNL     1      -5.740  53.706  47.093  0.00  0.00    +0.000 C 
BRANCH  29  30
ATOM     30  C   UNL     1      -4.689  53.675  48.211  0.00  0.00    +0.000 C 
BRANCH  30  31
ATOM     31  C   UNL     1      -5.059  54.588  49.360  0.00  0.00    +0.000 C 
ATOM     32  O   UNL     1      -4.705  54.407  50.520  0.00  0.00    +0.000 OA
ATOM     33  N   UNL     1      -5.820  55.665  49.026  0.00  0.00    +0.000 N 
ATOM     34  H   UNL     1      -6.098  55.801  48.092  0.00  0.00    +0.000 HD
ATOM     35  H   UNL     1      -6.093  56.308  49.719  0.00  0.00    +0.000 HD
ENDBRANCH  30  31
ENDBRANCH  29  30
ENDBRANCH  28  29
ENDBRANCH   5  28
TORSDOF 6
ENDMDL
