MODEL 1
REMARK VINA RESULT:      -8.6      0.000      0.000
REMARK  Name = 338327
REMARK  10 active torsions:
REMARK  status: ('A' for Active; 'I' for Inactive)
REMARK    1  A    between atoms: C_6  and  C_10
REMARK    2  A    between atoms: C_14  and  O_18
REMARK    3  A    between atoms: N_17  and  C_21
REMARK    4  A    between atoms: C_21  and  C_24
REMARK    5  A    between atoms: C_24  and  C_27
REMARK    6  A    between atoms: C_25  and  O_28
REMARK    7  A    between atoms: C_27  and  C_29
REMARK    8  A    between atoms: C_27  and  C_30
REMARK    9  A    between atoms: O_28  and  C_31
REMARK   10  A    between atoms: C_31  and  C_32
REMARK                            x       y       z     vdW  Elec       q    Type
REMARK                         _______ _______ _______ _____ _____    ______ ____
ROOT
ATOM      1  C   UNL     1     -10.826  54.421  48.494  0.00  0.00    +0.000 A 
ATOM      2  C   UNL     1     -10.370  54.020  49.861  0.00  0.00    +0.000 A 
ATOM      3  C   UNL     1     -11.848  55.283  48.353  0.00  0.00    +0.000 A 
ATOM      4  O   UNL     1      -9.352  53.326  49.955  0.00  0.00    +0.000 OA
ATOM      5  N   UNL     1     -11.092  54.459  50.965  0.00  0.00    +0.000 N 
ATOM      6  C   UNL     1     -12.513  55.846  49.537  0.00  0.00    +0.000 A 
ATOM      7  C   UNL     1     -12.119  55.442  50.822  0.00  0.00    +0.000 A 
ATOM      8  C   UNL     1     -13.529  56.809  49.396  0.00  0.00    +0.000 A 
ATOM      9  C   UNL     1     -12.725  56.051  51.930  0.00  0.00    +0.000 A 
ATOM     10  C   UNL     1     -14.153  57.369  50.508  0.00  0.00    +0.000 A 
ATOM     11  C   UNL     1     -13.742  56.996  51.779  0.00  0.00    +0.000 A 
ENDROOT
BRANCH   1  17
ATOM     12  S   UNL     1      -7.976  53.907  45.837  0.00  0.00    +0.000 S 
ATOM     13  O   UNL     1      -6.928  53.015  46.294  0.00  0.00    +0.000 OA
ATOM     14  O   UNL     1      -7.636  55.116  45.112  0.00  0.00    +0.000 OA
ATOM     15  N   UNL     1      -8.854  54.334  47.130  0.00  0.00    +0.000 N 
ATOM     16  C   UNL     1      -8.989  52.966  44.760  0.00  0.00    +0.000 A 
ATOM     17  C   UNL     1     -10.072  53.900  47.284  0.00  0.00    +0.000 C 
ATOM     18  C   UNL     1     -10.264  52.642  45.192  0.00  0.00    +0.000 A 
ATOM     19  C   UNL     1      -8.511  52.579  43.505  0.00  0.00    +0.000 A 
ATOM     20  N   UNL     1     -10.726  53.026  46.448  0.00  0.00    +0.000 N 
ATOM     21  C   UNL     1     -11.060  51.843  44.363  0.00  0.00    +0.000 A 
ATOM     22  C   UNL     1      -9.328  51.814  42.675  0.00  0.00    +0.000 A 
ATOM     23  C   UNL     1     -10.598  51.438  43.109  0.00  0.00    +0.000 A 
ATOM     24  H   UNL     1      -8.462  54.931  47.807  0.00  0.00    +0.000 HD
ATOM     25  H   UNL     1     -11.579  52.645  46.759  0.00  0.00    +0.000 HD
ENDBRANCH   1  17
BRANCH   3  26
ATOM     26  O   UNL     1     -12.320  55.746  47.138  0.00  0.00    +0.000 OA
ATOM     27  H   UNL     1     -11.848  55.560  46.349  0.00  0.00    +0.000 HD
ENDBRANCH   3  26
BRANCH   5  28
ATOM     28  C   UNL     1     -10.667  53.994  52.291  0.00  0.00    +0.000 C 
BRANCH  28  29
ATOM     29  C   UNL     1      -9.823  54.983  53.113  0.00  0.00    +0.000 C 
BRANCH  29  30
ATOM     30  C   UNL     1      -8.306  54.971  52.865  0.00  0.00    +0.000 C 
ATOM     31  C   UNL     1      -7.885  55.963  51.783  0.00  0.00    +0.000 C 
ATOM     32  C   UNL     1      -7.589  55.303  54.180  0.00  0.00    +0.000 C 
ENDBRANCH  29  30
ENDBRANCH  28  29
ENDBRANCH   5  28
BRANCH  10  33
ATOM     33  O   UNL     1     -15.095  58.315  50.232  0.00  0.00    +0.000 OA
BRANCH  33  34
ATOM     34  C   UNL     1     -14.813  59.635  50.697  0.00  0.00    +0.000 C 
BRANCH  34  35
ATOM     35  C   UNL     1     -13.955  60.372  49.674  0.00  0.00    +0.000 C 
ATOM     36  O   UNL     1     -12.746  60.533  49.808  0.00  0.00    +0.000 OA
ATOM     37  N   UNL     1     -14.610  60.827  48.567  0.00  0.00    +0.000 N 
ATOM     38  H   UNL     1     -15.581  60.688  48.478  0.00  0.00    +0.000 HD
ATOM     39  H   UNL     1     -14.112  61.294  47.857  0.00  0.00    +0.000 HD
ENDBRANCH  34  35
ENDBRANCH  33  34
ENDBRANCH  10  33
TORSDOF 8
ENDMDL
MODEL 2
REMARK VINA RESULT:      -8.4      2.109      6.356
REMARK  Name = 338327
REMARK  10 active torsions:
REMARK  status: ('A' for Active; 'I' for Inactive)
REMARK    1  A    between atoms: C_6  and  C_10
REMARK    2  A    between atoms: C_14  and  O_18
REMARK    3  A    between atoms: N_17  and  C_21
REMARK    4  A    between atoms: C_21  and  C_24
REMARK    5  A    between atoms: C_24  and  C_27
REMARK    6  A    between atoms: C_25  and  O_28
REMARK    7  A    between atoms: C_27  and  C_29
REMARK    8  A    between atoms: C_27  and  C_30
REMARK    9  A    between atoms: O_28  and  C_31
REMARK   10  A    between atoms: C_31  and  C_32
REMARK                            x       y       z     vdW  Elec       q    Type
REMARK                         _______ _______ _______ _____ _____    ______ ____
ROOT
ATOM      1  C   UNL     1     -10.190  54.678  50.074  0.00  0.00    +0.000 A 
ATOM      2  C   UNL     1     -10.098  54.425  48.603  0.00  0.00    +0.000 A 
ATOM      3  C   UNL     1     -11.133  55.505  50.556  0.00  0.00    +0.000 A 
ATOM      4  O   UNL     1      -9.303  53.566  48.208  0.00  0.00    +0.000 OA
ATOM      5  N   UNL     1     -10.921  55.146  47.745  0.00  0.00    +0.000 N 
ATOM      6  C   UNL     1     -12.087  56.155  49.645  0.00  0.00    +0.000 A 
ATOM      7  C   UNL     1     -11.980  55.957  48.259  0.00  0.00    +0.000 A 
ATOM      8  C   UNL     1     -13.125  56.958  50.150  0.00  0.00    +0.000 A 
ATOM      9  C   UNL     1     -12.948  56.533  47.424  0.00  0.00    +0.000 A 
ATOM     10  C   UNL     1     -14.050  57.562  49.301  0.00  0.00    +0.000 A 
ATOM     11  C   UNL     1     -13.967  57.339  47.935  0.00  0.00    +0.000 A 
ENDROOT
BRANCH   1  17
ATOM     12  S   UNL     1      -8.406  51.726  51.957  0.00  0.00    +0.000 S 
ATOM     13  O   UNL     1      -7.368  51.091  51.166  0.00  0.00    +0.000 OA
ATOM     14  O   UNL     1      -9.309  50.917  52.753  0.00  0.00    +0.000 OA
ATOM     15  N   UNL     1      -9.302  52.631  50.956  0.00  0.00    +0.000 N 
ATOM     16  C   UNL     1      -7.585  52.786  53.086  0.00  0.00    +0.000 A 
ATOM     17  C   UNL     1      -9.256  53.932  51.009  0.00  0.00    +0.000 C 
ATOM     18  C   UNL     1      -7.713  54.152  52.898  0.00  0.00    +0.000 A 
ATOM     19  C   UNL     1      -6.844  52.250  54.142  0.00  0.00    +0.000 A 
ATOM     20  N   UNL     1      -8.447  54.675  51.836  0.00  0.00    +0.000 N 
ATOM     21  C   UNL     1      -7.015  55.007  53.759  0.00  0.00    +0.000 A 
ATOM     22  C   UNL     1      -6.183  53.113  55.014  0.00  0.00    +0.000 A 
ATOM     23  C   UNL     1      -6.262  54.491  54.816  0.00  0.00    +0.000 A 
ATOM     24  H   UNL     1      -9.890  52.192  50.300  0.00  0.00    +0.000 HD
ATOM     25  H   UNL     1      -8.383  55.642  51.666  0.00  0.00    +0.000 HD
ENDBRANCH   1  17
BRANCH   3  26
ATOM     26  O   UNL     1     -11.327  55.776  51.899  0.00  0.00    +0.000 OA
ATOM     27  H   UNL     1     -11.948  55.276  52.393  0.00  0.00    +0.000 HD
ENDBRANCH   3  26
BRANCH   5  28
ATOM     28  C   UNL     1     -10.762  54.933  46.301  0.00  0.00    +0.000 C 
BRANCH  28  29
ATOM     29  C   UNL     1     -11.598  53.793  45.694  0.00  0.00    +0.000 C 
BRANCH  29  30
ATOM     30  C   UNL     1     -10.991  53.059  44.486  0.00  0.00    +0.000 C 
ATOM     31  C   UNL     1      -9.466  53.129  44.469  0.00  0.00    +0.000 C 
ATOM     32  C   UNL     1     -11.442  51.593  44.524  0.00  0.00    +0.000 C 
ENDBRANCH  29  30
ENDBRANCH  28  29
ENDBRANCH   5  28
BRANCH  10  33
ATOM     33  O   UNL     1     -15.026  58.283  49.923  0.00  0.00    +0.000 OA
BRANCH  33  34
ATOM     34  C   UNL     1     -14.595  59.447  50.626  0.00  0.00    +0.000 C 
BRANCH  34  35
ATOM     35  C   UNL     1     -13.898  60.405  49.666  0.00  0.00    +0.000 C 
ATOM     36  O   UNL     1     -12.716  60.716  49.772  0.00  0.00    +0.000 OA
ATOM     37  N   UNL     1     -14.667  60.886  48.646  0.00  0.00    +0.000 N 
ATOM     38  H   UNL     1     -15.613  60.625  48.578  0.00  0.00    +0.000 HD
ATOM     39  H   UNL     1     -14.274  61.494  47.978  0.00  0.00    +0.000 HD
ENDBRANCH  34  35
ENDBRANCH  33  34
ENDBRANCH  10  33
TORSDOF 8
ENDMDL
MODEL 3
REMARK VINA RESULT:      -8.3      2.914      6.666
REMARK  Name = 338327
REMARK  10 active torsions:
REMARK  status: ('A' for Active; 'I' for Inactive)
REMARK    1  A    between atoms: C_6  and  C_10
REMARK    2  A    between atoms: C_14  and  O_18
REMARK    3  A    between atoms: N_17  and  C_21
REMARK    4  A    between atoms: C_21  and  C_24
REMARK    5  A    between atoms: C_24  and  C_27
REMARK    6  A    between atoms: C_25  and  O_28
REMARK    7  A    between atoms: C_27  and  C_29
REMARK    8  A    between atoms: C_27  and  C_30
REMARK    9  A    between atoms: O_28  and  C_31
REMARK   10  A    between atoms: C_31  and  C_32
REMARK                            x       y       z     vdW  Elec       q    Type
REMARK                         _______ _______ _______ _____ _____    ______ ____
ROOT
ATOM      1  C   UNL     1      -9.355  54.778  50.435  0.00  0.00    +0.000 A 
ATOM      2  C   UNL     1      -8.899  54.507  49.037  0.00  0.00    +0.000 A 
ATOM      3  C   UNL     1     -10.540  55.374  50.652  0.00  0.00    +0.000 A 
ATOM      4  O   UNL     1      -7.866  53.848  48.879  0.00  0.00    +0.000 OA
ATOM      5  N   UNL     1      -9.661  54.986  47.978  0.00  0.00    +0.000 N 
ATOM      6  C   UNL     1     -11.399  55.752  49.520  0.00  0.00    +0.000 A 
ATOM      7  C   UNL     1     -10.958  55.540  48.204  0.00  0.00    +0.000 A 
ATOM      8  C   UNL     1     -12.673  56.302  49.742  0.00  0.00    +0.000 A 
ATOM      9  C   UNL     1     -11.831  55.845  47.149  0.00  0.00    +0.000 A 
ATOM     10  C   UNL     1     -13.508  56.644  48.680  0.00  0.00    +0.000 A 
ATOM     11  C   UNL     1     -13.089  56.404  47.381  0.00  0.00    +0.000 A 
ENDROOT
BRANCH   1  17
ATOM     12  S   UNL     1      -6.266  54.326  52.823  0.00  0.00    +0.000 S 
ATOM     13  O   UNL     1      -6.109  55.420  53.762  0.00  0.00    +0.000 OA
ATOM     14  O   UNL     1      -5.104  53.760  52.165  0.00  0.00    +0.000 OA
ATOM     15  N   UNL     1      -7.300  54.810  51.673  0.00  0.00    +0.000 N 
ATOM     16  C   UNL     1      -7.003  53.012  53.720  0.00  0.00    +0.000 A 
ATOM     17  C   UNL     1      -8.497  54.303  51.594  0.00  0.00    +0.000 C 
ATOM     18  C   UNL     1      -8.314  52.681  53.420  0.00  0.00    +0.000 A 
ATOM     19  C   UNL     1      -6.268  52.325  54.689  0.00  0.00    +0.000 A 
ATOM     20  N   UNL     1      -9.038  53.379  52.457  0.00  0.00    +0.000 N 
ATOM     21  C   UNL     1      -8.929  51.672  54.169  0.00  0.00    +0.000 A 
ATOM     22  C   UNL     1      -6.882  51.297  55.403  0.00  0.00    +0.000 A 
ATOM     23  C   UNL     1      -8.216  50.978  55.148  0.00  0.00    +0.000 A 
ATOM     24  H   UNL     1      -7.019  55.496  51.026  0.00  0.00    +0.000 HD
ATOM     25  H   UNL     1     -10.003  53.199  52.389  0.00  0.00    +0.000 HD
ENDBRANCH   1  17
BRANCH   3  26
ATOM     26  O   UNL     1     -11.069  55.634  51.903  0.00  0.00    +0.000 OA
ATOM     27  H   UNL     1     -10.572  56.122  52.530  0.00  0.00    +0.000 HD
ENDBRANCH   3  26
BRANCH   5  28
ATOM     28  C   UNL     1      -9.156  54.769  46.616  0.00  0.00    +0.000 C 
BRANCH  28  29
ATOM     29  C   UNL     1      -9.489  53.408  45.983  0.00  0.00    +0.000 C 
BRANCH  29  30
ATOM     30  C   UNL     1     -10.420  53.424  44.759  0.00  0.00    +0.000 C 
ATOM     31  C   UNL     1      -9.818  52.698  43.559  0.00  0.00    +0.000 C 
ATOM     32  C   UNL     1     -11.752  52.768  45.146  0.00  0.00    +0.000 C 
ENDBRANCH  29  30
ENDBRANCH  28  29
ENDBRANCH   5  28
BRANCH  10  33
ATOM     33  O   UNL     1     -14.730  57.135  49.035  0.00  0.00    +0.000 OA
BRANCH  33  34
ATOM     34  C   UNL     1     -14.845  57.630  50.368  0.00  0.00    +0.000 C 
BRANCH  34  35
ATOM     35  C   UNL     1     -15.857  56.795  51.146  0.00  0.00    +0.000 C 
ATOM     36  O   UNL     1     -15.954  56.830  52.368  0.00  0.00    +0.000 OA
ATOM     37  N   UNL     1     -16.684  56.014  50.393  0.00  0.00    +0.000 N 
ATOM     38  H   UNL     1     -16.591  55.999  49.413  0.00  0.00    +0.000 HD
ATOM     39  H   UNL     1     -17.375  55.464  50.830  0.00  0.00    +0.000 HD
ENDBRANCH  34  35
ENDBRANCH  33  34
ENDBRANCH  10  33
TORSDOF 8
ENDMDL
MODEL 4
REMARK VINA RESULT:      -8.3      2.730      8.078
REMARK  Name = 338327
REMARK  10 active torsions:
REMARK  status: ('A' for Active; 'I' for Inactive)
REMARK    1  A    between atoms: C_6  and  C_10
REMARK    2  A    between atoms: C_14  and  O_18
REMARK    3  A    between atoms: N_17  and  C_21
REMARK    4  A    between atoms: C_21  and  C_24
REMARK    5  A    between atoms: C_24  and  C_27
REMARK    6  A    between atoms: C_25  and  O_28
REMARK    7  A    between atoms: C_27  and  C_29
REMARK    8  A    between atoms: C_27  and  C_30
REMARK    9  A    between atoms: O_28  and  C_31
REMARK   10  A    between atoms: C_31  and  C_32
REMARK                            x       y       z     vdW  Elec       q    Type
REMARK                         _______ _______ _______ _____ _____    ______ ____
ROOT
ATOM      1  C   UNL     1     -11.185  56.031  48.940  0.00  0.00    +0.000 A 
ATOM      2  C   UNL     1     -10.128  55.495  49.853  0.00  0.00    +0.000 A 
ATOM      3  C   UNL     1     -11.220  55.645  47.653  0.00  0.00    +0.000 A 
ATOM      4  O   UNL     1     -10.201  55.774  51.054  0.00  0.00    +0.000 OA
ATOM      5  N   UNL     1      -9.125  54.694  49.321  0.00  0.00    +0.000 N 
ATOM      6  C   UNL     1     -10.231  54.686  47.139  0.00  0.00    +0.000 A 
ATOM      7  C   UNL     1      -9.210  54.213  47.978  0.00  0.00    +0.000 A 
ATOM      8  C   UNL     1     -10.311  54.217  45.816  0.00  0.00    +0.000 A 
ATOM      9  C   UNL     1      -8.326  53.245  47.477  0.00  0.00    +0.000 A 
ATOM     10  C   UNL     1      -9.395  53.292  45.320  0.00  0.00    +0.000 A 
ATOM     11  C   UNL     1      -8.407  52.798  46.157  0.00  0.00    +0.000 A 
ENDROOT
BRANCH   1  17
ATOM     12  S   UNL     1     -13.498  59.170  49.431  0.00  0.00    +0.000 S 
ATOM     13  O   UNL     1     -14.622  59.197  48.516  0.00  0.00    +0.000 OA
ATOM     14  O   UNL     1     -12.766  60.389  49.719  0.00  0.00    +0.000 OA
ATOM     15  N   UNL     1     -12.440  58.075  48.878  0.00  0.00    +0.000 N 
ATOM     16  C   UNL     1     -14.128  58.612  50.969  0.00  0.00    +0.000 A 
ATOM     17  C   UNL     1     -12.251  56.950  49.508  0.00  0.00    +0.000 C 
ATOM     18  C   UNL     1     -13.754  57.350  51.400  0.00  0.00    +0.000 A 
ATOM     19  C   UNL     1     -14.968  59.434  51.725  0.00  0.00    +0.000 A 
ATOM     20  N   UNL     1     -12.923  56.536  50.634  0.00  0.00    +0.000 N 
ATOM     21  C   UNL     1     -14.296  56.873  52.598  0.00  0.00    +0.000 A 
ATOM     22  C   UNL     1     -15.473  58.960  52.934  0.00  0.00    +0.000 A 
ATOM     23  C   UNL     1     -15.144  57.675  53.365  0.00  0.00    +0.000 A 
ATOM     24  H   UNL     1     -11.933  58.262  48.056  0.00  0.00    +0.000 HD
ATOM     25  H   UNL     1     -12.809  55.601  50.918  0.00  0.00    +0.000 HD
ENDBRANCH   1  17
BRANCH   3  26
ATOM     26  O   UNL     1     -12.176  56.050  46.739  0.00  0.00    +0.000 OA
ATOM     27  H   UNL     1     -12.237  56.953  46.494  0.00  0.00    +0.000 HD
ENDBRANCH   3  26
BRANCH   5  28
ATOM     28  C   UNL     1      -8.060  54.240  50.223  0.00  0.00    +0.000 C 
BRANCH  28  29
ATOM     29  C   UNL     1      -6.837  55.166  50.340  0.00  0.00    +0.000 C 
BRANCH  29  30
ATOM     30  C   UNL     1      -5.458  54.487  50.391  0.00  0.00    +0.000 C 
ATOM     31  C   UNL     1      -5.534  53.052  50.908  0.00  0.00    +0.000 C 
ATOM     32  C   UNL     1      -4.852  54.497  48.982  0.00  0.00    +0.000 C 
ENDBRANCH  29  30
ENDBRANCH  28  29
ENDBRANCH   5  28
BRANCH  10  33
ATOM     33  O   UNL     1      -9.607  52.894  44.033  0.00  0.00    +0.000 OA
BRANCH  33  34
ATOM     34  C   UNL     1      -8.726  51.890  43.533  0.00  0.00    +0.000 C 
BRANCH  34  35
ATOM     35  C   UNL     1      -9.520  50.838  42.765  0.00  0.00    +0.000 C 
ATOM     36  O   UNL     1      -9.018  49.806  42.333  0.00  0.00    +0.000 OA
ATOM     37  N   UNL     1     -10.850  51.099  42.606  0.00  0.00    +0.000 N 
ATOM     38  H   UNL     1     -11.234  51.933  42.960  0.00  0.00    +0.000 HD
ATOM     39  H   UNL     1     -11.426  50.452  42.137  0.00  0.00    +0.000 HD
ENDBRANCH  34  35
ENDBRANCH  33  34
ENDBRANCH  10  33
TORSDOF 8
ENDMDL
MODEL 5
REMARK VINA RESULT:      -8.2      3.300      8.373
REMARK  Name = 338327
REMARK  10 active torsions:
REMARK  status: ('A' for Active; 'I' for Inactive)
REMARK    1  A    between atoms: C_6  and  C_10
REMARK    2  A    between atoms: C_14  and  O_18
REMARK    3  A    between atoms: N_17  and  C_21
REMARK    4  A    between atoms: C_21  and  C_24
REMARK    5  A    between atoms: C_24  and  C_27
REMARK    6  A    between atoms: C_25  and  O_28
REMARK    7  A    between atoms: C_27  and  C_29
REMARK    8  A    between atoms: C_27  and  C_30
REMARK    9  A    between atoms: O_28  and  C_31
REMARK   10  A    between atoms: C_31  and  C_32
REMARK                            x       y       z     vdW  Elec       q    Type
REMARK                         _______ _______ _______ _____ _____    ______ ____
ROOT
ATOM      1  C   UNL     1     -12.210  54.229  50.283  0.00  0.00    +0.000 A 
ATOM      2  C   UNL     1     -11.926  53.810  48.876  0.00  0.00    +0.000 A 
ATOM      3  C   UNL     1     -11.654  53.562  51.308  0.00  0.00    +0.000 A 
ATOM      4  O   UNL     1     -12.353  54.521  47.960  0.00  0.00    +0.000 OA
ATOM      5  N   UNL     1     -11.180  52.659  48.656  0.00  0.00    +0.000 N 
ATOM      6  C   UNL     1     -10.754  52.427  51.054  0.00  0.00    +0.000 A 
ATOM      7  C   UNL     1     -10.517  52.001  49.738  0.00  0.00    +0.000 A 
ATOM      8  C   UNL     1     -10.106  51.776  52.119  0.00  0.00    +0.000 A 
ATOM      9  C   UNL     1      -9.598  50.962  49.526  0.00  0.00    +0.000 A 
ATOM     10  C   UNL     1      -9.233  50.714  51.893  0.00  0.00    +0.000 A 
ATOM     11  C   UNL     1      -8.971  50.314  50.591  0.00  0.00    +0.000 A 
ENDROOT
BRANCH   1  17
ATOM     12  S   UNL     1     -15.262  56.471  51.334  0.00  0.00    +0.000 S 
ATOM     13  O   UNL     1     -15.319  56.722  52.761  0.00  0.00    +0.000 OA
ATOM     14  O   UNL     1     -16.478  56.175  50.600  0.00  0.00    +0.000 OA
ATOM     15  N   UNL     1     -14.226  55.250  51.090  0.00  0.00    +0.000 N 
ATOM     16  C   UNL     1     -14.599  57.921  50.605  0.00  0.00    +0.000 A 
ATOM     17  C   UNL     1     -13.070  55.456  50.526  0.00  0.00    +0.000 C 
ATOM     18  C   UNL     1     -13.323  57.850  50.073  0.00  0.00    +0.000 A 
ATOM     19  C   UNL     1     -15.356  59.095  50.561  0.00  0.00    +0.000 A 
ATOM     20  N   UNL     1     -12.575  56.676  50.131  0.00  0.00    +0.000 N 
ATOM     21  C   UNL     1     -12.762  59.016  49.540  0.00  0.00    +0.000 A 
ATOM     22  C   UNL     1     -14.799  60.240  49.995  0.00  0.00    +0.000 A 
ATOM     23  C   UNL     1     -13.498  60.202  49.494  0.00  0.00    +0.000 A 
ATOM     24  H   UNL     1     -14.473  54.340  51.372  0.00  0.00    +0.000 HD
ATOM     25  H   UNL     1     -11.627  56.724  49.871  0.00  0.00    +0.000 HD
ENDBRANCH   1  17
BRANCH   3  26
ATOM     26  O   UNL     1     -11.821  53.891  52.641  0.00  0.00    +0.000 OA
ATOM     27  H   UNL     1     -11.843  54.791  52.903  0.00  0.00    +0.000 HD
ENDBRANCH   3  26
BRANCH   5  28
ATOM     28  C   UNL     1     -10.974  52.229  47.267  0.00  0.00    +0.000 C 
BRANCH  28  29
ATOM     29  C   UNL     1      -9.631  52.626  46.631  0.00  0.00    +0.000 C 
BRANCH  29  30
ATOM     30  C   UNL     1      -9.618  53.915  45.793  0.00  0.00    +0.000 C 
ATOM     31  C   UNL     1      -9.167  55.130  46.600  0.00  0.00    +0.000 C 
ATOM     32  C   UNL     1      -8.682  53.713  44.594  0.00  0.00    +0.000 C 
ENDBRANCH  29  30
ENDBRANCH  28  29
ENDBRANCH   5  28
BRANCH  10  33
ATOM     33  O   UNL     1      -8.645  50.196  53.009  0.00  0.00    +0.000 OA
BRANCH  33  34
ATOM     34  C   UNL     1      -8.263  51.136  54.011  0.00  0.00    +0.000 C 
BRANCH  34  35
ATOM     35  C   UNL     1      -8.915  50.771  55.340  0.00  0.00    +0.000 C 
ATOM     36  O   UNL     1      -8.493  49.879  56.070  0.00  0.00    +0.000 OA
ATOM     37  N   UNL     1      -9.997  51.522  55.696  0.00  0.00    +0.000 N 
ATOM     38  H   UNL     1     -10.321  52.233  55.098  0.00  0.00    +0.000 HD
ATOM     39  H   UNL     1     -10.454  51.353  56.552  0.00  0.00    +0.000 HD
ENDBRANCH  34  35
ENDBRANCH  33  34
ENDBRANCH  10  33
TORSDOF 8
ENDMDL
MODEL 6
REMARK VINA RESULT:      -8.2      3.142      7.796
REMARK  Name = 338327
REMARK  10 active torsions:
REMARK  status: ('A' for Active; 'I' for Inactive)
REMARK    1  A    between atoms: C_6  and  C_10
REMARK    2  A    between atoms: C_14  and  O_18
REMARK    3  A    between atoms: N_17  and  C_21
REMARK    4  A    between atoms: C_21  and  C_24
REMARK    5  A    between atoms: C_24  and  C_27
REMARK    6  A    between atoms: C_25  and  O_28
REMARK    7  A    between atoms: C_27  and  C_29
REMARK    8  A    between atoms: C_27  and  C_30
REMARK    9  A    between atoms: O_28  and  C_31
REMARK   10  A    between atoms: C_31  and  C_32
REMARK                            x       y       z     vdW  Elec       q    Type
REMARK                         _______ _______ _______ _____ _____    ______ ____
ROOT
ATOM      1  C   UNL     1      -9.595  53.902  51.095  0.00  0.00    +0.000 A 
ATOM      2  C   UNL     1     -10.662  54.920  51.344  0.00  0.00    +0.000 A 
ATOM      3  C   UNL     1      -9.336  53.494  49.841  0.00  0.00    +0.000 A 
ATOM      4  O   UNL     1     -10.788  55.362  52.491  0.00  0.00    +0.000 OA
ATOM      5  N   UNL     1     -11.450  55.340  50.280  0.00  0.00    +0.000 N 
ATOM      6  C   UNL     1     -10.088  54.052  48.708  0.00  0.00    +0.000 A 
ATOM      7  C   UNL     1     -11.120  54.975  48.938  0.00  0.00    +0.000 A 
ATOM      8  C   UNL     1      -9.767  53.689  47.388  0.00  0.00    +0.000 A 
ATOM      9  C   UNL     1     -11.769  55.542  47.832  0.00  0.00    +0.000 A 
ATOM     10  C   UNL     1     -10.455  54.226  46.303  0.00  0.00    +0.000 A 
ATOM     11  C   UNL     1     -11.452  55.164  46.526  0.00  0.00    +0.000 A 
ENDROOT
BRANCH   1  17
ATOM     12  S   UNL     1      -6.517  53.233  53.447  0.00  0.00    +0.000 S 
ATOM     13  O   UNL     1      -6.207  54.357  54.310  0.00  0.00    +0.000 OA
ATOM     14  O   UNL     1      -5.448  52.493  52.804  0.00  0.00    +0.000 OA
ATOM     15  N   UNL     1      -7.518  53.765  52.289  0.00  0.00    +0.000 N 
ATOM     16  C   UNL     1      -7.379  52.074  54.440  0.00  0.00    +0.000 A 
ATOM     17  C   UNL     1      -8.768  53.401  52.265  0.00  0.00    +0.000 C 
ATOM     18  C   UNL     1      -8.727  51.884  54.188  0.00  0.00    +0.000 A 
ATOM     19  C   UNL     1      -6.705  51.365  55.437  0.00  0.00    +0.000 A 
ATOM     20  N   UNL     1      -9.390  52.603  53.196  0.00  0.00    +0.000 N 
ATOM     21  C   UNL     1      -9.436  51.003  55.011  0.00  0.00    +0.000 A 
ATOM     22  C   UNL     1      -7.415  50.463  56.227  0.00  0.00    +0.000 A 
ATOM     23  C   UNL     1      -8.783  50.290  56.020  0.00  0.00    +0.000 A 
ATOM     24  H   UNL     1      -7.176  54.372  51.593  0.00  0.00    +0.000 HD
ATOM     25  H   UNL     1     -10.371  52.535  53.159  0.00  0.00    +0.000 HD
ENDBRANCH   1  17
BRANCH   3  26
ATOM     26  O   UNL     1      -8.346  52.588  49.500  0.00  0.00    +0.000 OA
ATOM     27  H   UNL     1      -8.304  51.756  49.930  0.00  0.00    +0.000 HD
ENDBRANCH   3  26
BRANCH   5  28
ATOM     28  C   UNL     1     -12.538  56.285  50.563  0.00  0.00    +0.000 C 
BRANCH  28  29
ATOM     29  C   UNL     1     -13.845  55.669  51.090  0.00  0.00    +0.000 C 
BRANCH  29  30
ATOM     30  C   UNL     1     -14.732  56.573  51.962  0.00  0.00    +0.000 C 
ATOM     31  C   UNL     1     -13.916  57.486  52.873  0.00  0.00    +0.000 C 
ATOM     32  C   UNL     1     -15.624  57.420  51.045  0.00  0.00    +0.000 C 
ENDBRANCH  29  30
ENDBRANCH  28  29
ENDBRANCH   5  28
BRANCH  10  33
ATOM     33  O   UNL     1     -10.020  53.817  45.077  0.00  0.00    +0.000 OA
BRANCH  33  34
ATOM     34  C   UNL     1     -10.944  53.049  44.307  0.00  0.00    +0.000 C 
BRANCH  34  35
ATOM     35  C   UNL     1     -10.213  52.349  43.167  0.00  0.00    +0.000 C 
ATOM     36  O   UNL     1      -9.141  52.742  42.718  0.00  0.00    +0.000 OA
ATOM     37  N   UNL     1     -10.812  51.224  42.680  0.00  0.00    +0.000 N 
ATOM     38  H   UNL     1     -11.673  50.924  43.053  0.00  0.00    +0.000 HD
ATOM     39  H   UNL     1     -10.384  50.711  41.956  0.00  0.00    +0.000 HD
ENDBRANCH  34  35
ENDBRANCH  33  34
ENDBRANCH  10  33
TORSDOF 8
ENDMDL
MODEL 7
REMARK VINA RESULT:      -7.9      3.206      8.262
REMARK  Name = 338327
REMARK  10 active torsions:
REMARK  status: ('A' for Active; 'I' for Inactive)
REMARK    1  A    between atoms: C_6  and  C_10
REMARK    2  A    between atoms: C_14  and  O_18
REMARK    3  A    between atoms: N_17  and  C_21
REMARK    4  A    between atoms: C_21  and  C_24
REMARK    5  A    between atoms: C_24  and  C_27
REMARK    6  A    between atoms: C_25  and  O_28
REMARK    7  A    between atoms: C_27  and  C_29
REMARK    8  A    between atoms: C_27  and  C_30
REMARK    9  A    between atoms: O_28  and  C_31
REMARK   10  A    between atoms: C_31  and  C_32
REMARK                            x       y       z     vdW  Elec       q    Type
REMARK                         _______ _______ _______ _____ _____    ______ ____
ROOT
ATOM      1  C   UNL     1     -11.709  54.085  51.148  0.00  0.00    +0.000 A 
ATOM      2  C   UNL     1     -11.752  52.931  50.197  0.00  0.00    +0.000 A 
ATOM      3  C   UNL     1     -10.863  54.065  52.192  0.00  0.00    +0.000 A 
ATOM      4  O   UNL     1     -12.450  53.038  49.184  0.00  0.00    +0.000 OA
ATOM      5  N   UNL     1     -10.993  51.802  50.479  0.00  0.00    +0.000 N 
ATOM      6  C   UNL     1      -9.966  52.919  52.398  0.00  0.00    +0.000 A 
ATOM      7  C   UNL     1     -10.030  51.813  51.535  0.00  0.00    +0.000 A 
ATOM      8  C   UNL     1      -9.022  52.928  53.441  0.00  0.00    +0.000 A 
ATOM      9  C   UNL     1      -9.112  50.769  51.716  0.00  0.00    +0.000 A 
ATOM     10  C   UNL     1      -8.150  51.859  53.635  0.00  0.00    +0.000 A 
ATOM     11  C   UNL     1      -8.188  50.782  52.763  0.00  0.00    +0.000 A 
ENDROOT
BRANCH   1  17
ATOM     12  S   UNL     1     -13.378  57.100  49.258  0.00  0.00    +0.000 S 
ATOM     13  O   UNL     1     -14.481  56.696  48.406  0.00  0.00    +0.000 OA
ATOM     14  O   UNL     1     -12.426  58.091  48.794  0.00  0.00    +0.000 OA
ATOM     15  N   UNL     1     -12.551  55.765  49.656  0.00  0.00    +0.000 N 
ATOM     16  C   UNL     1     -14.099  57.765  50.711  0.00  0.00    +0.000 A 
ATOM     17  C   UNL     1     -12.578  55.299  50.872  0.00  0.00    +0.000 C 
ATOM     18  C   UNL     1     -13.970  57.041  51.885  0.00  0.00    +0.000 A 
ATOM     19  C   UNL     1     -14.763  58.993  50.667  0.00  0.00    +0.000 A 
ATOM     20  N   UNL     1     -13.312  55.813  51.914  0.00  0.00    +0.000 N 
ATOM     21  C   UNL     1     -14.589  57.535  53.038  0.00  0.00    +0.000 A 
ATOM     22  C   UNL     1     -15.344  59.491  51.832  0.00  0.00    +0.000 A 
ATOM     23  C   UNL     1     -15.265  58.757  53.014  0.00  0.00    +0.000 A 
ATOM     24  H   UNL     1     -12.021  55.300  48.969  0.00  0.00    +0.000 HD
ATOM     25  H   UNL     1     -13.378  55.278  52.737  0.00  0.00    +0.000 HD
ENDBRANCH   1  17
BRANCH   3  26
ATOM     26  O   UNL     1     -10.719  55.095  53.104  0.00  0.00    +0.000 OA
ATOM     27  H   UNL     1     -10.392  55.928  52.824  0.00  0.00    +0.000 HD
ENDBRANCH   3  26
BRANCH   5  28
ATOM     28  C   UNL     1     -11.106  50.655  49.570  0.00  0.00    +0.000 C 
BRANCH  28  29
ATOM     29  C   UNL     1     -10.189  50.682  48.334  0.00  0.00    +0.000 C 
BRANCH  29  30
ATOM     30  C   UNL     1     -10.878  50.632  46.961  0.00  0.00    +0.000 C 
ATOM     31  C   UNL     1     -12.358  50.273  47.065  0.00  0.00    +0.000 C 
ATOM     32  C   UNL     1     -10.724  51.999  46.283  0.00  0.00    +0.000 C 
ENDBRANCH  29  30
ENDBRANCH  28  29
ENDBRANCH   5  28
BRANCH  10  33
ATOM     33  O   UNL     1      -7.262  52.011  54.659  0.00  0.00    +0.000 OA
BRANCH  33  34
ATOM     34  C   UNL     1      -5.937  52.389  54.290  0.00  0.00    +0.000 C 
BRANCH  34  35
ATOM     35  C   UNL     1      -5.821  53.910  54.257  0.00  0.00    +0.000 C 
ATOM     36  O   UNL     1      -5.444  54.531  53.269  0.00  0.00    +0.000 OA
ATOM     37  N   UNL     1      -6.195  54.557  55.399  0.00  0.00    +0.000 N 
ATOM     38  H   UNL     1      -6.494  54.042  56.182  0.00  0.00    +0.000 HD
ATOM     39  H   UNL     1      -6.164  55.541  55.440  0.00  0.00    +0.000 HD
ENDBRANCH  34  35
ENDBRANCH  33  34
ENDBRANCH  10  33
TORSDOF 8
ENDMDL
MODEL 8
REMARK VINA RESULT:      -7.9      2.823      8.269
REMARK  Name = 338327
REMARK  10 active torsions:
REMARK  status: ('A' for Active; 'I' for Inactive)
REMARK    1  A    between atoms: C_6  and  C_10
REMARK    2  A    between atoms: C_14  and  O_18
REMARK    3  A    between atoms: N_17  and  C_21
REMARK    4  A    between atoms: C_21  and  C_24
REMARK    5  A    between atoms: C_24  and  C_27
REMARK    6  A    between atoms: C_25  and  O_28
REMARK    7  A    between atoms: C_27  and  C_29
REMARK    8  A    between atoms: C_27  and  C_30
REMARK    9  A    between atoms: O_28  and  C_31
REMARK   10  A    between atoms: C_31  and  C_32
REMARK                            x       y       z     vdW  Elec       q    Type
REMARK                         _______ _______ _______ _____ _____    ______ ____
ROOT
ATOM      1  C   UNL     1     -11.323  55.096  49.968  0.00  0.00    +0.000 A 
ATOM      2  C   UNL     1     -11.368  54.307  48.698  0.00  0.00    +0.000 A 
ATOM      3  C   UNL     1     -10.364  54.852  50.877  0.00  0.00    +0.000 A 
ATOM      4  O   UNL     1     -12.185  54.642  47.834  0.00  0.00    +0.000 OA
ATOM      5  N   UNL     1     -10.481  53.250  48.533  0.00  0.00    +0.000 N 
ATOM      6  C   UNL     1      -9.347  53.820  50.625  0.00  0.00    +0.000 A 
ATOM      7  C   UNL     1      -9.408  53.047  49.455  0.00  0.00    +0.000 A 
ATOM      8  C   UNL     1      -8.295  53.616  51.535  0.00  0.00    +0.000 A 
ATOM      9  C   UNL     1      -8.383  52.121  49.211  0.00  0.00    +0.000 A 
ATOM     10  C   UNL     1      -7.311  52.658  51.299  0.00  0.00    +0.000 A 
ATOM     11  C   UNL     1      -7.350  51.917  50.127  0.00  0.00    +0.000 A 
ENDROOT
BRANCH   1  17
ATOM     12  S   UNL     1     -13.327  58.431  49.411  0.00  0.00    +0.000 S 
ATOM     13  O   UNL     1     -14.373  58.306  48.415  0.00  0.00    +0.000 OA
ATOM     14  O   UNL     1     -12.495  59.619  49.446  0.00  0.00    +0.000 OA
ATOM     15  N   UNL     1     -12.351  57.146  49.263  0.00  0.00    +0.000 N 
ATOM     16  C   UNL     1     -14.122  58.352  50.972  0.00  0.00    +0.000 A 
ATOM     17  C   UNL     1     -12.326  56.217  50.175  0.00  0.00    +0.000 C 
ATOM     18  C   UNL     1     -13.912  57.224  51.747  0.00  0.00    +0.000 A 
ATOM     19  C   UNL     1     -14.923  59.411  51.406  0.00  0.00    +0.000 A 
ATOM     20  N   UNL     1     -13.117  56.171  51.299  0.00  0.00    +0.000 N 
ATOM     21  C   UNL     1     -14.586  57.126  52.968  0.00  0.00    +0.000 A 
ATOM     22  C   UNL     1     -15.561  59.316  52.641  0.00  0.00    +0.000 A 
ATOM     23  C   UNL     1     -15.400  58.169  53.417  0.00  0.00    +0.000 A 
ATOM     24  H   UNL     1     -11.769  57.067  48.473  0.00  0.00    +0.000 HD
ATOM     25  H   UNL     1     -13.122  55.338  51.823  0.00  0.00    +0.000 HD
ENDBRANCH   1  17
BRANCH   3  26
ATOM     26  O   UNL     1     -10.211  55.549  52.063  0.00  0.00    +0.000 OA
ATOM     27  H   UNL     1     -10.754  55.345  52.800  0.00  0.00    +0.000 HD
ENDBRANCH   3  26
BRANCH   5  28
ATOM     28  C   UNL     1     -10.592  52.446  47.310  0.00  0.00    +0.000 C 
BRANCH  28  29
ATOM     29  C   UNL     1     -10.292  53.181  45.992  0.00  0.00    +0.000 C 
BRANCH  29  30
ATOM     30  C   UNL     1      -8.830  53.589  45.745  0.00  0.00    +0.000 C 
ATOM     31  C   UNL     1      -8.431  53.466  44.277  0.00  0.00    +0.000 C 
ATOM     32  C   UNL     1      -8.637  55.036  46.215  0.00  0.00    +0.000 C 
ENDBRANCH  29  30
ENDBRANCH  28  29
ENDBRANCH   5  28
BRANCH  10  33
ATOM     33  O   UNL     1      -6.329  52.587  52.242  0.00  0.00    +0.000 OA
BRANCH  33  34
ATOM     34  C   UNL     1      -6.108  53.769  53.009  0.00  0.00    +0.000 C 
BRANCH  34  35
ATOM     35  C   UNL     1      -6.325  53.475  54.489  0.00  0.00    +0.000 C 
ATOM     36  O   UNL     1      -6.532  52.347  54.924  0.00  0.00    +0.000 OA
ATOM     37  N   UNL     1      -6.246  54.551  55.325  0.00  0.00    +0.000 N 
ATOM     38  H   UNL     1      -6.079  55.449  54.958  0.00  0.00    +0.000 HD
ATOM     39  H   UNL     1      -6.356  54.429  56.297  0.00  0.00    +0.000 HD
ENDBRANCH  34  35
ENDBRANCH  33  34
ENDBRANCH  10  33
TORSDOF 8
ENDMDL
MODEL 9
REMARK VINA RESULT:      -7.7      2.804      7.609
REMARK  Name = 338327
REMARK  10 active torsions:
REMARK  status: ('A' for Active; 'I' for Inactive)
REMARK    1  A    between atoms: C_6  and  C_10
REMARK    2  A    between atoms: C_14  and  O_18
REMARK    3  A    between atoms: N_17  and  C_21
REMARK    4  A    between atoms: C_21  and  C_24
REMARK    5  A    between atoms: C_24  and  C_27
REMARK    6  A    between atoms: C_25  and  O_28
REMARK    7  A    between atoms: C_27  and  C_29
REMARK    8  A    between atoms: C_27  and  C_30
REMARK    9  A    between atoms: O_28  and  C_31
REMARK   10  A    between atoms: C_31  and  C_32
REMARK                            x       y       z     vdW  Elec       q    Type
REMARK                         _______ _______ _______ _____ _____    ______ ____
ROOT
ATOM      1  C   UNL     1     -11.833  54.517  50.082  0.00  0.00    +0.000 A 
ATOM      2  C   UNL     1     -11.149  53.843  51.229  0.00  0.00    +0.000 A 
ATOM      3  C   UNL     1     -11.622  54.087  48.827  0.00  0.00    +0.000 A 
ATOM      4  O   UNL     1     -11.462  54.184  52.374  0.00  0.00    +0.000 OA
ATOM      5  N   UNL     1     -10.212  52.853  50.963  0.00  0.00    +0.000 N 
ATOM      6  C   UNL     1     -10.730  52.946  48.574  0.00  0.00    +0.000 A 
ATOM      7  C   UNL     1     -10.051  52.336  49.640  0.00  0.00    +0.000 A 
ATOM      8  C   UNL     1     -10.567  52.440  47.272  0.00  0.00    +0.000 A 
ATOM      9  C   UNL     1      -9.265  51.205  49.374  0.00  0.00    +0.000 A 
ATOM     10  C   UNL     1      -9.744  51.345  47.019  0.00  0.00    +0.000 A 
ATOM     11  C   UNL     1      -9.099  50.720  48.076  0.00  0.00    +0.000 A 
ENDROOT
BRANCH   1  17
ATOM     12  S   UNL     1     -15.117  56.380  51.174  0.00  0.00    +0.000 S 
ATOM     13  O   UNL     1     -15.224  56.549  52.610  0.00  0.00    +0.000 OA
ATOM     14  O   UNL     1     -16.283  56.002  50.398  0.00  0.00    +0.000 OA
ATOM     15  N   UNL     1     -13.957  55.285  50.893  0.00  0.00    +0.000 N 
ATOM     16  C   UNL     1     -14.593  57.926  50.535  0.00  0.00    +0.000 A 
ATOM     17  C   UNL     1     -12.819  55.637  50.367  0.00  0.00    +0.000 C 
ATOM     18  C   UNL     1     -13.306  58.013  50.029  0.00  0.00    +0.000 A 
ATOM     19  C   UNL     1     -15.465  59.018  50.533  0.00  0.00    +0.000 A 
ATOM     20  N   UNL     1     -12.443  56.919  50.045  0.00  0.00    +0.000 N 
ATOM     21  C   UNL     1     -12.859  59.256  49.569  0.00  0.00    +0.000 A 
ATOM     22  C   UNL     1     -15.018  60.242  50.038  0.00  0.00    +0.000 A 
ATOM     23  C   UNL     1     -13.711  60.362  49.565  0.00  0.00    +0.000 A 
ATOM     24  H   UNL     1     -14.115  54.341  51.123  0.00  0.00    +0.000 HD
ATOM     25  H   UNL     1     -11.501  57.076  49.809  0.00  0.00    +0.000 HD
ENDBRANCH   1  17
BRANCH   3  26
ATOM     26  O   UNL     1     -12.233  54.615  47.703  0.00  0.00    +0.000 OA
ATOM     27  H   UNL     1     -11.899  55.399  47.313  0.00  0.00    +0.000 HD
ENDBRANCH   3  26
BRANCH   5  28
ATOM     28  C   UNL     1      -9.502  52.257  52.101  0.00  0.00    +0.000 C 
BRANCH  28  29
ATOM     29  C   UNL     1      -8.138  52.881  52.446  0.00  0.00    +0.000 C 
BRANCH  29  30
ATOM     30  C   UNL     1      -8.006  53.527  53.835  0.00  0.00    +0.000 C 
ATOM     31  C   UNL     1      -6.655  53.237  54.486  0.00  0.00    +0.000 C 
ATOM     32  C   UNL     1      -8.197  55.042  53.693  0.00  0.00    +0.000 C 
ENDBRANCH  29  30
ENDBRANCH  28  29
ENDBRANCH   5  28
BRANCH  10  33
ATOM     33  O   UNL     1      -9.703  50.935  45.719  0.00  0.00    +0.000 OA
BRANCH  33  34
ATOM     34  C   UNL     1     -10.872  51.193  44.943  0.00  0.00    +0.000 C 
BRANCH  34  35
ATOM     35  C   UNL     1     -10.477  51.773  43.588  0.00  0.00    +0.000 C 
ATOM     36  O   UNL     1      -9.778  52.774  43.467  0.00  0.00    +0.000 OA
ATOM     37  N   UNL     1     -10.927  51.089  42.496  0.00  0.00    +0.000 N 
ATOM     38  H   UNL     1     -11.487  50.288  42.614  0.00  0.00    +0.000 HD
ATOM     39  H   UNL     1     -10.692  51.398  41.591  0.00  0.00    +0.000 HD
ENDBRANCH  34  35
ENDBRANCH  33  34
ENDBRANCH  10  33
TORSDOF 8
ENDMDL
