MODEL 1
REMARK VINA RESULT:      -9.1      0.000      0.000
REMARK  Name = 338265
REMARK  4 active torsions:
REMARK  status: ('A' for Active; 'I' for Inactive)
REMARK    1  A    between atoms: C_6  and  C_10
REMARK    2  A    between atoms: C_14  and  O_18
REMARK    3  A    between atoms: N_17  and  C_21
REMARK    4  A    between atoms: C_21  and  C_24
REMARK                            x       y       z     vdW  Elec       q    Type
REMARK                         _______ _______ _______ _____ _____    ______ ____
ROOT
ATOM      1  C   UNL     1     -10.001  54.671  51.056  0.00  0.00    +0.000 A 
ATOM      2  C   UNL     1     -11.301  55.252  51.509  0.00  0.00    +0.000 A 
ATOM      3  C   UNL     1      -9.710  54.630  49.745  0.00  0.00    +0.000 A 
ATOM      4  O   UNL     1     -11.435  55.514  52.709  0.00  0.00    +0.000 OA
ATOM      5  N   UNL     1     -12.305  55.473  50.579  0.00  0.00    +0.000 N 
ATOM      6  C   UNL     1     -10.691  55.126  48.762  0.00  0.00    +0.000 A 
ATOM      7  C   UNL     1     -11.987  55.498  49.181  0.00  0.00    +0.000 A 
ATOM      8  C   UNL     1     -10.340  55.235  47.403  0.00  0.00    +0.000 A 
ATOM      9  C   UNL     1     -12.902  55.943  48.213  0.00  0.00    +0.000 A 
ATOM     10  C   UNL     1     -11.250  55.721  46.467  0.00  0.00    +0.000 A 
ATOM     11  C   UNL     1     -12.530  56.072  46.871  0.00  0.00    +0.000 A 
ENDROOT
BRANCH   1  17
ATOM     12  S   UNL     1      -6.687  54.339  53.146  0.00  0.00    +0.000 S 
ATOM     13  O   UNL     1      -6.487  55.373  54.142  0.00  0.00    +0.000 OA
ATOM     14  O   UNL     1      -5.570  53.874  52.343  0.00  0.00    +0.000 OA
ATOM     15  N   UNL     1      -7.859  54.836  52.140  0.00  0.00    +0.000 N 
ATOM     16  C   UNL     1      -7.259  52.926  54.028  0.00  0.00    +0.000 A 
ATOM     17  C   UNL     1      -9.010  54.236  52.117  0.00  0.00    +0.000 C 
ATOM     18  C   UNL     1      -8.560  52.516  53.804  0.00  0.00    +0.000 A 
ATOM     19  C   UNL     1      -6.413  52.241  54.905  0.00  0.00    +0.000 A 
ATOM     20  N   UNL     1      -9.406  53.220  52.955  0.00  0.00    +0.000 N 
ATOM     21  C   UNL     1      -9.050  51.419  54.521  0.00  0.00    +0.000 A 
ATOM     22  C   UNL     1      -6.905  51.132  55.594  0.00  0.00    +0.000 A 
ATOM     23  C   UNL     1      -8.226  50.724  55.406  0.00  0.00    +0.000 A 
ATOM     24  H   UNL     1      -7.694  55.600  51.541  0.00  0.00    +0.000 HD
ATOM     25  H   UNL     1     -10.359  52.972  52.954  0.00  0.00    +0.000 HD
ENDBRANCH   1  17
BRANCH   3  26
ATOM     26  O   UNL     1      -8.510  54.182  49.225  0.00  0.00    +0.000 OA
ATOM     27  H   UNL     1      -8.450  53.322  48.858  0.00  0.00    +0.000 HD
ENDBRANCH   3  26
BRANCH   5  28
ATOM     28  C   UNL     1     -13.618  55.895  51.097  0.00  0.00    +0.000 C 
BRANCH  28  29
ATOM     29  C   UNL     1     -13.764  57.389  51.477  0.00  0.00    +0.000 C 
ATOM     30  C   UNL     1     -14.272  57.674  52.894  0.00  0.00    +0.000 C 
ATOM     31  C   UNL     1     -14.650  58.208  50.543  0.00  0.00    +0.000 C 
ATOM     32  C   UNL     1     -15.133  58.928  52.824  0.00  0.00    +0.000 C 
ATOM     33  C   UNL     1     -15.182  59.367  51.371  0.00  0.00    +0.000 C 
ENDBRANCH  28  29
ENDBRANCH   5  28
TORSDOF 4
ENDMDL
MODEL 2
REMARK VINA RESULT:      -8.8      1.410      4.439
REMARK  Name = 338265
REMARK  4 active torsions:
REMARK  status: ('A' for Active; 'I' for Inactive)
REMARK    1  A    between atoms: C_6  and  C_10
REMARK    2  A    between atoms: C_14  and  O_18
REMARK    3  A    between atoms: N_17  and  C_21
REMARK    4  A    between atoms: C_21  and  C_24
REMARK                            x       y       z     vdW  Elec       q    Type
REMARK                         _______ _______ _______ _____ _____    ______ ____
ROOT
ATOM      1  C   UNL     1     -10.295  55.156  50.899  0.00  0.00    +0.000 A 
ATOM      2  C   UNL     1      -9.916  54.998  49.461  0.00  0.00    +0.000 A 
ATOM      3  C   UNL     1     -11.501  55.652  51.219  0.00  0.00    +0.000 A 
ATOM      4  O   UNL     1      -8.925  54.311  49.192  0.00  0.00    +0.000 OA
ATOM      5  N   UNL     1     -10.680  55.622  48.487  0.00  0.00    +0.000 N 
ATOM      6  C   UNL     1     -12.429  56.067  50.152  0.00  0.00    +0.000 A 
ATOM      7  C   UNL     1     -11.997  56.091  48.808  0.00  0.00    +0.000 A 
ATOM      8  C   UNL     1     -13.750  56.439  50.465  0.00  0.00    +0.000 A 
ATOM      9  C   UNL     1     -12.902  56.515  47.821  0.00  0.00    +0.000 A 
ATOM     10  C   UNL     1     -14.644  56.813  49.464  0.00  0.00    +0.000 A 
ATOM     11  C   UNL     1     -14.218  56.855  48.144  0.00  0.00    +0.000 A 
ENDROOT
BRANCH   1  17
ATOM     12  S   UNL     1      -7.019  54.691  53.024  0.00  0.00    +0.000 S 
ATOM     13  O   UNL     1      -6.841  55.658  54.090  0.00  0.00    +0.000 OA
ATOM     14  O   UNL     1      -5.887  54.281  52.214  0.00  0.00    +0.000 OA
ATOM     15  N   UNL     1      -8.174  55.252  52.032  0.00  0.00    +0.000 N 
ATOM     16  C   UNL     1      -7.605  53.223  53.800  0.00  0.00    +0.000 A 
ATOM     17  C   UNL     1      -9.323  54.653  51.947  0.00  0.00    +0.000 C 
ATOM     18  C   UNL     1      -8.901  52.827  53.526  0.00  0.00    +0.000 A 
ATOM     19  C   UNL     1      -6.774  52.482  54.646  0.00  0.00    +0.000 A 
ATOM     20  N   UNL     1      -9.732  53.584  52.709  0.00  0.00    +0.000 N 
ATOM     21  C   UNL     1      -9.402  51.685  54.160  0.00  0.00    +0.000 A 
ATOM     22  C   UNL     1      -7.276  51.330  55.252  0.00  0.00    +0.000 A 
ATOM     23  C   UNL     1      -8.592  50.934  55.013  0.00  0.00    +0.000 A 
ATOM     24  H   UNL     1      -8.000  56.054  51.487  0.00  0.00    +0.000 HD
ATOM     25  H   UNL     1     -10.684  53.335  52.674  0.00  0.00    +0.000 HD
ENDBRANCH   1  17
BRANCH   3  26
ATOM     26  O   UNL     1     -11.978  55.770  52.512  0.00  0.00    +0.000 OA
ATOM     27  H   UNL     1     -12.852  55.499  52.714  0.00  0.00    +0.000 HD
ENDBRANCH   3  26
BRANCH   5  28
ATOM     28  C   UNL     1     -10.177  55.568  47.104  0.00  0.00    +0.000 C 
BRANCH  28  29
ATOM     29  C   UNL     1     -10.321  54.215  46.367  0.00  0.00    +0.000 C 
ATOM     30  C   UNL     1      -9.115  53.774  45.532  0.00  0.00    +0.000 C 
ATOM     31  C   UNL     1     -11.530  54.109  45.442  0.00  0.00    +0.000 C 
ATOM     32  C   UNL     1      -9.651  53.038  44.311  0.00  0.00    +0.000 C 
ATOM     33  C   UNL     1     -11.168  53.077  44.386  0.00  0.00    +0.000 C 
ENDBRANCH  28  29
ENDBRANCH   5  28
TORSDOF 4
ENDMDL
MODEL 3
REMARK VINA RESULT:      -8.7      2.596      7.879
REMARK  Name = 338265
REMARK  4 active torsions:
REMARK  status: ('A' for Active; 'I' for Inactive)
REMARK    1  A    between atoms: C_6  and  C_10
REMARK    2  A    between atoms: C_14  and  O_18
REMARK    3  A    between atoms: N_17  and  C_21
REMARK    4  A    between atoms: C_21  and  C_24
REMARK                            x       y       z     vdW  Elec       q    Type
REMARK                         _______ _______ _______ _____ _____    ______ ____
ROOT
ATOM      1  C   UNL     1     -10.149  54.370  52.241  0.00  0.00    +0.000 A 
ATOM      2  C   UNL     1      -8.769  54.933  52.128  0.00  0.00    +0.000 A 
ATOM      3  C   UNL     1     -10.365  53.280  52.994  0.00  0.00    +0.000 A 
ATOM      4  O   UNL     1      -8.639  56.065  51.651  0.00  0.00    +0.000 OA
ATOM      5  N   UNL     1      -7.691  54.173  52.556  0.00  0.00    +0.000 N 
ATOM      6  C   UNL     1      -9.233  52.626  53.677  0.00  0.00    +0.000 A 
ATOM      7  C   UNL     1      -7.911  53.048  53.418  0.00  0.00    +0.000 A 
ATOM      8  C   UNL     1      -9.464  51.582  54.592  0.00  0.00    +0.000 A 
ATOM      9  C   UNL     1      -6.857  52.385  54.068  0.00  0.00    +0.000 A 
ATOM     10  C   UNL     1      -8.406  50.969  55.259  0.00  0.00    +0.000 A 
ATOM     11  C   UNL     1      -7.104  51.368  54.994  0.00  0.00    +0.000 A 
ENDROOT
BRANCH   1  17
ATOM     12  S   UNL     1     -12.380  56.038  49.465  0.00  0.00    +0.000 S 
ATOM     13  O   UNL     1     -13.292  55.135  48.791  0.00  0.00    +0.000 OA
ATOM     14  O   UNL     1     -11.661  57.047  48.709  0.00  0.00    +0.000 OA
ATOM     15  N   UNL     1     -11.294  55.140  50.269  0.00  0.00    +0.000 N 
ATOM     16  C   UNL     1     -13.356  56.924  50.633  0.00  0.00    +0.000 A 
ATOM     17  C   UNL     1     -11.279  55.123  51.567  0.00  0.00    +0.000 C 
ATOM     18  C   UNL     1     -13.121  56.688  51.974  0.00  0.00    +0.000 A 
ATOM     19  C   UNL     1     -14.318  57.844  50.207  0.00  0.00    +0.000 A 
ATOM     20  N   UNL     1     -12.185  55.749  52.391  0.00  0.00    +0.000 N 
ATOM     21  C   UNL     1     -13.909  57.352  52.921  0.00  0.00    +0.000 A 
ATOM     22  C   UNL     1     -15.080  58.520  51.161  0.00  0.00    +0.000 A 
ATOM     23  C   UNL     1     -14.879  58.270  52.518  0.00  0.00    +0.000 A 
ATOM     24  H   UNL     1     -10.639  54.603  49.766  0.00  0.00    +0.000 HD
ATOM     25  H   UNL     1     -12.170  55.516  53.348  0.00  0.00    +0.000 HD
ENDBRANCH   1  17
BRANCH   3  26
ATOM     26  O   UNL     1     -11.610  52.723  53.225  0.00  0.00    +0.000 OA
ATOM     27  H   UNL     1     -12.098  52.968  53.986  0.00  0.00    +0.000 HD
ENDBRANCH   3  26
BRANCH   5  28
ATOM     28  C   UNL     1      -6.345  54.703  52.278  0.00  0.00    +0.000 C 
BRANCH  28  29
ATOM     29  C   UNL     1      -5.686  54.257  50.950  0.00  0.00    +0.000 C 
ATOM     30  C   UNL     1      -5.825  55.229  49.774  0.00  0.00    +0.000 C 
ATOM     31  C   UNL     1      -6.144  52.900  50.426  0.00  0.00    +0.000 C 
ATOM     32  C   UNL     1      -5.950  54.393  48.506  0.00  0.00    +0.000 C 
ATOM     33  C   UNL     1      -5.935  52.932  48.921  0.00  0.00    +0.000 C 
ENDBRANCH  28  29
ENDBRANCH   5  28
TORSDOF 4
ENDMDL
MODEL 4
REMARK VINA RESULT:      -8.6      3.803      8.046
REMARK  Name = 338265
REMARK  4 active torsions:
REMARK  status: ('A' for Active; 'I' for Inactive)
REMARK    1  A    between atoms: C_6  and  C_10
REMARK    2  A    between atoms: C_14  and  O_18
REMARK    3  A    between atoms: N_17  and  C_21
REMARK    4  A    between atoms: C_21  and  C_24
REMARK                            x       y       z     vdW  Elec       q    Type
REMARK                         _______ _______ _______ _____ _____    ______ ____
ROOT
ATOM      1  C   UNL     1     -12.463  54.335  49.944  0.00  0.00    +0.000 A 
ATOM      2  C   UNL     1     -12.186  54.123  48.491  0.00  0.00    +0.000 A 
ATOM      3  C   UNL     1     -11.910  53.518  50.854  0.00  0.00    +0.000 A 
ATOM      4  O   UNL     1     -12.487  55.025  47.703  0.00  0.00    +0.000 OA
ATOM      5  N   UNL     1     -11.608  52.932  48.078  0.00  0.00    +0.000 N 
ATOM      6  C   UNL     1     -11.061  52.396  50.411  0.00  0.00    +0.000 A 
ATOM      7  C   UNL     1     -10.955  52.089  49.037  0.00  0.00    +0.000 A 
ATOM      8  C   UNL     1     -10.349  51.629  51.353  0.00  0.00    +0.000 A 
ATOM      9  C   UNL     1     -10.156  50.999  48.654  0.00  0.00    +0.000 A 
ATOM     10  C   UNL     1      -9.528  50.581  50.946  0.00  0.00    +0.000 A 
ATOM     11  C   UNL     1      -9.435  50.264  49.599  0.00  0.00    +0.000 A 
ENDROOT
BRANCH   1  17
ATOM     12  S   UNL     1     -15.419  56.537  51.314  0.00  0.00    +0.000 S 
ATOM     13  O   UNL     1     -15.418  56.734  52.751  0.00  0.00    +0.000 OA
ATOM     14  O   UNL     1     -16.665  56.290  50.612  0.00  0.00    +0.000 OA
ATOM     15  N   UNL     1     -14.400  55.320  50.978  0.00  0.00    +0.000 N 
ATOM     16  C   UNL     1     -14.772  58.023  50.625  0.00  0.00    +0.000 A 
ATOM     17  C   UNL     1     -13.292  55.541  50.339  0.00  0.00    +0.000 C 
ATOM     18  C   UNL     1     -13.539  57.956  50.003  0.00  0.00    +0.000 A 
ATOM     19  C   UNL     1     -15.496  59.216  50.694  0.00  0.00    +0.000 A 
ATOM     20  N   UNL     1     -12.810  56.774  49.965  0.00  0.00    +0.000 N 
ATOM     21  C   UNL     1     -12.987  59.131  49.481  0.00  0.00    +0.000 A 
ATOM     22  C   UNL     1     -14.947  60.376  50.146  0.00  0.00    +0.000 A 
ATOM     23  C   UNL     1     -13.690  60.334  49.544  0.00  0.00    +0.000 A 
ATOM     24  H   UNL     1     -14.626  54.404  51.261  0.00  0.00    +0.000 HD
ATOM     25  H   UNL     1     -11.880  56.823  49.646  0.00  0.00    +0.000 HD
ENDBRANCH   1  17
BRANCH   3  26
ATOM     26  O   UNL     1     -12.041  53.669  52.223  0.00  0.00    +0.000 OA
ATOM     27  H   UNL     1     -12.221  52.923  52.760  0.00  0.00    +0.000 HD
ENDBRANCH   3  26
BRANCH   5  28
ATOM     28  C   UNL     1     -11.502  52.706  46.627  0.00  0.00    +0.000 C 
BRANCH  28  29
ATOM     29  C   UNL     1     -10.491  53.593  45.860  0.00  0.00    +0.000 C 
ATOM     30  C   UNL     1     -10.104  53.111  44.459  0.00  0.00    +0.000 C 
ATOM     31  C   UNL     1      -9.177  53.853  46.590  0.00  0.00    +0.000 C 
ATOM     32  C   UNL     1      -8.643  53.480  44.238  0.00  0.00    +0.000 C 
ATOM     33  C   UNL     1      -8.142  54.136  45.513  0.00  0.00    +0.000 C 
ENDBRANCH  28  29
ENDBRANCH   5  28
TORSDOF 4
ENDMDL
MODEL 5
REMARK VINA RESULT:      -8.6      4.014      7.550
REMARK  Name = 338265
REMARK  4 active torsions:
REMARK  status: ('A' for Active; 'I' for Inactive)
REMARK    1  A    between atoms: C_6  and  C_10
REMARK    2  A    between atoms: C_14  and  O_18
REMARK    3  A    between atoms: N_17  and  C_21
REMARK    4  A    between atoms: C_21  and  C_24
REMARK                            x       y       z     vdW  Elec       q    Type
REMARK                         _______ _______ _______ _____ _____    ______ ____
ROOT
ATOM      1  C   UNL     1     -11.487  56.015  48.680  0.00  0.00    +0.000 A 
ATOM      2  C   UNL     1     -11.719  55.588  47.266  0.00  0.00    +0.000 A 
ATOM      3  C   UNL     1     -10.380  55.614  49.324  0.00  0.00    +0.000 A 
ATOM      4  O   UNL     1     -12.597  56.169  46.619  0.00  0.00    +0.000 OA
ATOM      5  N   UNL     1     -10.951  54.564  46.734  0.00  0.00    +0.000 N 
ATOM      6  C   UNL     1      -9.417  54.729  48.643  0.00  0.00    +0.000 A 
ATOM      7  C   UNL     1      -9.731  54.179  47.381  0.00  0.00    +0.000 A 
ATOM      8  C   UNL     1      -8.180  54.429  49.245  0.00  0.00    +0.000 A 
ATOM      9  C   UNL     1      -8.800  53.320  46.774  0.00  0.00    +0.000 A 
ATOM     10  C   UNL     1      -7.253  53.610  48.604  0.00  0.00    +0.000 A 
ATOM     11  C   UNL     1      -7.565  53.054  47.372  0.00  0.00    +0.000 A 
ENDROOT
BRANCH   1  17
ATOM     12  S   UNL     1     -13.567  59.273  49.404  0.00  0.00    +0.000 S 
ATOM     13  O   UNL     1     -14.731  59.455  48.559  0.00  0.00    +0.000 OA
ATOM     14  O   UNL     1     -12.723  60.406  49.737  0.00  0.00    +0.000 OA
ATOM     15  N   UNL     1     -12.634  58.130  48.728  0.00  0.00    +0.000 N 
ATOM     16  C   UNL     1     -14.179  58.668  50.941  0.00  0.00    +0.000 A 
ATOM     17  C   UNL     1     -12.481  56.976  49.302  0.00  0.00    +0.000 C 
ATOM     18  C   UNL     1     -13.858  57.370  51.291  0.00  0.00    +0.000 A 
ATOM     19  C   UNL     1     -14.945  59.486  51.776  0.00  0.00    +0.000 A 
ATOM     20  N   UNL     1     -13.123  56.551  50.443  0.00  0.00    +0.000 N 
ATOM     21  C   UNL     1     -14.364  56.854  52.489  0.00  0.00    +0.000 A 
ATOM     22  C   UNL     1     -15.421  58.969  52.981  0.00  0.00    +0.000 A 
ATOM     23  C   UNL     1     -15.135  57.651  53.335  0.00  0.00    +0.000 A 
ATOM     24  H   UNL     1     -12.180  58.315  47.875  0.00  0.00    +0.000 HD
ATOM     25  H   UNL     1     -13.056  55.597  50.676  0.00  0.00    +0.000 HD
ENDBRANCH   1  17
BRANCH   3  26
ATOM     26  O   UNL     1     -10.033  56.010  50.603  0.00  0.00    +0.000 OA
ATOM     27  H   UNL     1      -9.292  56.568  50.735  0.00  0.00    +0.000 HD
ENDBRANCH   3  26
BRANCH   5  28
ATOM     28  C   UNL     1     -11.324  54.074  45.396  0.00  0.00    +0.000 C 
BRANCH  28  29
ATOM     29  C   UNL     1     -12.050  52.708  45.336  0.00  0.00    +0.000 C 
ATOM     30  C   UNL     1     -12.378  52.064  46.687  0.00  0.00    +0.000 C 
ATOM     31  C   UNL     1     -11.337  51.632  44.523  0.00  0.00    +0.000 C 
ATOM     32  C   UNL     1     -12.245  50.556  46.516  0.00  0.00    +0.000 C 
ATOM     33  C   UNL     1     -11.796  50.298  45.088  0.00  0.00    +0.000 C 
ENDBRANCH  28  29
ENDBRANCH   5  28
TORSDOF 4
ENDMDL
MODEL 6
REMARK VINA RESULT:      -8.5      4.057      7.685
REMARK  Name = 338265
REMARK  4 active torsions:
REMARK  status: ('A' for Active; 'I' for Inactive)
REMARK    1  A    between atoms: C_6  and  C_10
REMARK    2  A    between atoms: C_14  and  O_18
REMARK    3  A    between atoms: N_17  and  C_21
REMARK    4  A    between atoms: C_21  and  C_24
REMARK                            x       y       z     vdW  Elec       q    Type
REMARK                         _______ _______ _______ _____ _____    ______ ____
ROOT
ATOM      1  C   UNL     1     -11.002  55.650  48.586  0.00  0.00    +0.000 A 
ATOM      2  C   UNL     1     -11.455  55.285  47.209  0.00  0.00    +0.000 A 
ATOM      3  C   UNL     1      -9.737  55.399  48.959  0.00  0.00    +0.000 A 
ATOM      4  O   UNL     1     -12.525  55.752  46.805  0.00  0.00    +0.000 OA
ATOM      5  N   UNL     1     -10.668  54.442  46.438  0.00  0.00    +0.000 N 
ATOM      6  C   UNL     1      -8.814  54.735  48.020  0.00  0.00    +0.000 A 
ATOM      7  C   UNL     1      -9.296  54.225  46.795  0.00  0.00    +0.000 A 
ATOM      8  C   UNL     1      -7.449  54.607  48.338  0.00  0.00    +0.000 A 
ATOM      9  C   UNL     1      -8.393  53.577  45.937  0.00  0.00    +0.000 A 
ATOM     10  C   UNL     1      -6.562  54.001  47.451  0.00  0.00    +0.000 A 
ATOM     11  C   UNL     1      -7.035  53.483  46.254  0.00  0.00    +0.000 A 
ENDROOT
BRANCH   1  17
ATOM     12  S   UNL     1     -13.585  56.406  51.452  0.00  0.00    +0.000 S 
ATOM     13  O   UNL     1     -12.995  56.716  52.740  0.00  0.00    +0.000 OA
ATOM     14  O   UNL     1     -14.763  55.562  51.373  0.00  0.00    +0.000 OA
ATOM     15  N   UNL     1     -12.430  55.751  50.520  0.00  0.00    +0.000 N 
ATOM     16  C   UNL     1     -14.062  57.954  50.759  0.00  0.00    +0.000 A 
ATOM     17  C   UNL     1     -11.978  56.386  49.481  0.00  0.00    +0.000 C 
ATOM     18  C   UNL     1     -13.381  58.390  49.638  0.00  0.00    +0.000 A 
ATOM     19  C   UNL     1     -15.106  58.695  51.318  0.00  0.00    +0.000 A 
ATOM     20  N   UNL     1     -12.323  57.663  49.104  0.00  0.00    +0.000 N 
ATOM     21  C   UNL     1     -13.716  59.634  49.091  0.00  0.00    +0.000 A 
ATOM     22  C   UNL     1     -15.449  59.922  50.748  0.00  0.00    +0.000 A 
ATOM     23  C   UNL     1     -14.750  60.393  49.637  0.00  0.00    +0.000 A 
ATOM     24  H   UNL     1     -12.071  54.862  50.743  0.00  0.00    +0.000 HD
ATOM     25  H   UNL     1     -11.781  58.095  48.405  0.00  0.00    +0.000 HD
ENDBRANCH   1  17
BRANCH   3  26
ATOM     26  O   UNL     1      -9.196  55.761  50.179  0.00  0.00    +0.000 OA
ATOM     27  H   UNL     1      -9.350  55.230  50.935  0.00  0.00    +0.000 HD
ENDBRANCH   3  26
BRANCH   5  28
ATOM     28  C   UNL     1     -11.232  53.986  45.156  0.00  0.00    +0.000 C 
BRANCH  28  29
ATOM     29  C   UNL     1     -11.971  52.625  45.170  0.00  0.00    +0.000 C 
ATOM     30  C   UNL     1     -12.327  52.070  46.552  0.00  0.00    +0.000 C 
ATOM     31  C   UNL     1     -11.256  51.495  44.437  0.00  0.00    +0.000 C 
ATOM     32  C   UNL     1     -12.206  50.553  46.477  0.00  0.00    +0.000 C 
ATOM     33  C   UNL     1     -11.737  50.202  45.076  0.00  0.00    +0.000 C 
ENDBRANCH  28  29
ENDBRANCH   5  28
TORSDOF 4
ENDMDL
MODEL 7
REMARK VINA RESULT:      -8.4      2.966      7.573
REMARK  Name = 338265
REMARK  4 active torsions:
REMARK  status: ('A' for Active; 'I' for Inactive)
REMARK    1  A    between atoms: C_6  and  C_10
REMARK    2  A    between atoms: C_14  and  O_18
REMARK    3  A    between atoms: N_17  and  C_21
REMARK    4  A    between atoms: C_21  and  C_24
REMARK                            x       y       z     vdW  Elec       q    Type
REMARK                         _______ _______ _______ _____ _____    ______ ____
ROOT
ATOM      1  C   UNL     1     -11.525  54.045  51.240  0.00  0.00    +0.000 A 
ATOM      2  C   UNL     1     -10.606  54.158  52.413  0.00  0.00    +0.000 A 
ATOM      3  C   UNL     1     -11.610  52.884  50.571  0.00  0.00    +0.000 A 
ATOM      4  O   UNL     1     -10.733  55.135  53.160  0.00  0.00    +0.000 OA
ATOM      5  N   UNL     1      -9.650  53.176  52.623  0.00  0.00    +0.000 N 
ATOM      6  C   UNL     1     -10.773  51.741  50.978  0.00  0.00    +0.000 A 
ATOM      7  C   UNL     1      -9.776  51.909  51.964  0.00  0.00    +0.000 A 
ATOM      8  C   UNL     1     -10.965  50.476  50.390  0.00  0.00    +0.000 A 
ATOM      9  C   UNL     1      -8.982  50.803  52.308  0.00  0.00    +0.000 A 
ATOM     10  C   UNL     1     -10.195  49.382  50.781  0.00  0.00    +0.000 A 
ATOM     11  C   UNL     1      -9.202  49.547  51.736  0.00  0.00    +0.000 A 
ENDROOT
BRANCH   1  17
ATOM     12  S   UNL     1     -13.144  57.055  49.295  0.00  0.00    +0.000 S 
ATOM     13  O   UNL     1     -14.211  56.690  48.384  0.00  0.00    +0.000 OA
ATOM     14  O   UNL     1     -12.165  58.055  48.909  0.00  0.00    +0.000 OA
ATOM     15  N   UNL     1     -12.348  55.700  49.698  0.00  0.00    +0.000 N 
ATOM     16  C   UNL     1     -13.936  57.695  50.732  0.00  0.00    +0.000 A 
ATOM     17  C   UNL     1     -12.404  55.234  50.910  0.00  0.00    +0.000 C 
ATOM     18  C   UNL     1     -13.833  56.962  51.900  0.00  0.00    +0.000 A 
ATOM     19  C   UNL     1     -14.625  58.910  50.686  0.00  0.00    +0.000 A 
ATOM     20  N   UNL     1     -13.173  55.739  51.932  0.00  0.00    +0.000 N 
ATOM     21  C   UNL     1     -14.486  57.430  53.045  0.00  0.00    +0.000 A 
ATOM     22  C   UNL     1     -15.249  59.380  51.842  0.00  0.00    +0.000 A 
ATOM     23  C   UNL     1     -15.184  58.637  53.020  0.00  0.00    +0.000 A 
ATOM     24  H   UNL     1     -11.817  55.227  49.018  0.00  0.00    +0.000 HD
ATOM     25  H   UNL     1     -13.263  55.195  52.747  0.00  0.00    +0.000 HD
ENDBRANCH   1  17
BRANCH   3  26
ATOM     26  O   UNL     1     -12.479  52.650  49.520  0.00  0.00    +0.000 OA
ATOM     27  H   UNL     1     -13.401  52.595  49.679  0.00  0.00    +0.000 HD
ENDBRANCH   3  26
BRANCH   5  28
ATOM     28  C   UNL     1      -8.669  53.413  53.696  0.00  0.00    +0.000 C 
BRANCH  28  29
ATOM     29  C   UNL     1      -7.398  54.207  53.308  0.00  0.00    +0.000 C 
ATOM     30  C   UNL     1      -6.279  53.398  52.645  0.00  0.00    +0.000 C 
ATOM     31  C   UNL     1      -6.740  54.971  54.452  0.00  0.00    +0.000 C 
ATOM     32  C   UNL     1      -4.954  53.989  53.109  0.00  0.00    +0.000 C 
ATOM     33  C   UNL     1      -5.273  55.113  54.079  0.00  0.00    +0.000 C 
ENDBRANCH  28  29
ENDBRANCH   5  28
TORSDOF 4
ENDMDL
MODEL 8
REMARK VINA RESULT:      -8.3      3.368      7.356
REMARK  Name = 338265
REMARK  4 active torsions:
REMARK  status: ('A' for Active; 'I' for Inactive)
REMARK    1  A    between atoms: C_6  and  C_10
REMARK    2  A    between atoms: C_14  and  O_18
REMARK    3  A    between atoms: N_17  and  C_21
REMARK    4  A    between atoms: C_21  and  C_24
REMARK                            x       y       z     vdW  Elec       q    Type
REMARK                         _______ _______ _______ _____ _____    ______ ____
ROOT
ATOM      1  C   UNL     1     -11.658  55.826  48.729  0.00  0.00    +0.000 A 
ATOM      2  C   UNL     1     -10.765  55.057  49.648  0.00  0.00    +0.000 A 
ATOM      3  C   UNL     1     -11.672  55.538  47.418  0.00  0.00    +0.000 A 
ATOM      4  O   UNL     1     -10.955  55.158  50.865  0.00  0.00    +0.000 OA
ATOM      5  N   UNL     1      -9.761  54.265  49.111  0.00  0.00    +0.000 N 
ATOM      6  C   UNL     1     -10.781  54.489  46.889  0.00  0.00    +0.000 A 
ATOM      7  C   UNL     1      -9.809  53.898  47.726  0.00  0.00    +0.000 A 
ATOM      8  C   UNL     1     -10.896  54.068  45.551  0.00  0.00    +0.000 A 
ATOM      9  C   UNL     1      -8.962  52.919  47.181  0.00  0.00    +0.000 A 
ATOM     10  C   UNL     1     -10.075  53.063  45.044  0.00  0.00    +0.000 A 
ATOM     11  C   UNL     1      -9.107  52.492  45.858  0.00  0.00    +0.000 A 
ENDROOT
BRANCH   1  17
ATOM     12  S   UNL     1     -13.530  59.211  49.436  0.00  0.00    +0.000 S 
ATOM     13  O   UNL     1     -14.668  59.470  48.577  0.00  0.00    +0.000 OA
ATOM     14  O   UNL     1     -12.618  60.286  49.783  0.00  0.00    +0.000 OA
ATOM     15  N   UNL     1     -12.665  58.012  48.769  0.00  0.00    +0.000 N 
ATOM     16  C   UNL     1     -14.200  58.645  50.963  0.00  0.00    +0.000 A 
ATOM     17  C   UNL     1     -12.595  56.848  49.342  0.00  0.00    +0.000 C 
ATOM     18  C   UNL     1     -13.969  57.328  51.314  0.00  0.00    +0.000 A 
ATOM     19  C   UNL     1     -14.921  59.510  51.791  0.00  0.00    +0.000 A 
ATOM     20  N   UNL     1     -13.278  56.464  50.472  0.00  0.00    +0.000 N 
ATOM     21  C   UNL     1     -14.522  56.843  52.504  0.00  0.00    +0.000 A 
ATOM     22  C   UNL     1     -15.445  59.022  52.989  0.00  0.00    +0.000 A 
ATOM     23  C   UNL     1     -15.251  57.688  53.343  0.00  0.00    +0.000 A 
ATOM     24  H   UNL     1     -12.189  58.168  47.922  0.00  0.00    +0.000 HD
ATOM     25  H   UNL     1     -13.277  55.507  50.704  0.00  0.00    +0.000 HD
ENDBRANCH   1  17
BRANCH   3  26
ATOM     26  O   UNL     1     -12.511  56.136  46.495  0.00  0.00    +0.000 OA
ATOM     27  H   UNL     1     -12.358  57.021  46.228  0.00  0.00    +0.000 HD
ENDBRANCH   3  26
BRANCH   5  28
ATOM     28  C   UNL     1      -8.810  53.656  50.057  0.00  0.00    +0.000 C 
BRANCH  28  29
ATOM     29  C   UNL     1      -7.533  54.471  50.375  0.00  0.00    +0.000 C 
ATOM     30  C   UNL     1      -6.907  55.223  49.197  0.00  0.00    +0.000 C 
ATOM     31  C   UNL     1      -6.399  53.671  51.009  0.00  0.00    +0.000 C 
ATOM     32  C   UNL     1      -5.397  55.200  49.393  0.00  0.00    +0.000 C 
ATOM     33  C   UNL     1      -5.114  54.401  50.653  0.00  0.00    +0.000 C 
ENDBRANCH  28  29
ENDBRANCH   5  28
TORSDOF 4
ENDMDL
MODEL 9
REMARK VINA RESULT:      -8.2      1.561      2.159
REMARK  Name = 338265
REMARK  4 active torsions:
REMARK  status: ('A' for Active; 'I' for Inactive)
REMARK    1  A    between atoms: C_6  and  C_10
REMARK    2  A    between atoms: C_14  and  O_18
REMARK    3  A    between atoms: N_17  and  C_21
REMARK    4  A    between atoms: C_21  and  C_24
REMARK                            x       y       z     vdW  Elec       q    Type
REMARK                         _______ _______ _______ _____ _____    ______ ____
ROOT
ATOM      1  C   UNL     1     -10.376  54.351  50.722  0.00  0.00    +0.000 A 
ATOM      2  C   UNL     1     -11.592  55.002  51.298  0.00  0.00    +0.000 A 
ATOM      3  C   UNL     1     -10.148  54.416  49.400  0.00  0.00    +0.000 A 
ATOM      4  O   UNL     1     -11.647  55.152  52.523  0.00  0.00    +0.000 OA
ATOM      5  N   UNL     1     -12.609  55.409  50.448  0.00  0.00    +0.000 N 
ATOM      6  C   UNL     1     -11.117  55.099  48.523  0.00  0.00    +0.000 A 
ATOM      7  C   UNL     1     -12.351  55.547  49.044  0.00  0.00    +0.000 A 
ATOM      8  C   UNL     1     -10.817  55.312  47.164  0.00  0.00    +0.000 A 
ATOM      9  C   UNL     1     -13.259  56.171  48.174  0.00  0.00    +0.000 A 
ATOM     10  C   UNL     1     -11.714  55.974  46.330  0.00  0.00    +0.000 A 
ATOM     11  C   UNL     1     -12.935  56.399  46.833  0.00  0.00    +0.000 A 
ENDROOT
BRANCH   1  17
ATOM     12  S   UNL     1      -8.781  51.894  53.345  0.00  0.00    +0.000 S 
ATOM     13  O   UNL     1      -8.176  50.705  52.779  0.00  0.00    +0.000 OA
ATOM     14  O   UNL     1      -9.561  51.805  54.566  0.00  0.00    +0.000 OA
ATOM     15  N   UNL     1      -9.709  52.574  52.202  0.00  0.00    +0.000 N 
ATOM     16  C   UNL     1      -7.446  52.983  53.713  0.00  0.00    +0.000 A 
ATOM     17  C   UNL     1      -9.387  53.720  51.682  0.00  0.00    +0.000 C 
ATOM     18  C   UNL     1      -7.348  54.147  52.973  0.00  0.00    +0.000 A 
ATOM     19  C   UNL     1      -6.537  52.681  54.730  0.00  0.00    +0.000 A 
ATOM     20  N   UNL     1      -8.237  54.428  51.942  0.00  0.00    +0.000 N 
ATOM     21  C   UNL     1      -6.275  55.011  53.220  0.00  0.00    +0.000 A 
ATOM     22  C   UNL     1      -5.486  53.563  54.985  0.00  0.00    +0.000 A 
ATOM     23  C   UNL     1      -5.352  54.725  54.226  0.00  0.00    +0.000 A 
ATOM     24  H   UNL     1     -10.525  52.114  51.900  0.00  0.00    +0.000 HD
ATOM     25  H   UNL     1      -8.027  55.190  51.356  0.00  0.00    +0.000 HD
ENDBRANCH   1  17
BRANCH   3  26
ATOM     26  O   UNL     1      -9.021  53.914  48.776  0.00  0.00    +0.000 OA
ATOM     27  H   UNL     1      -8.708  54.309  47.986  0.00  0.00    +0.000 HD
ENDBRANCH   3  26
BRANCH   5  28
ATOM     28  C   UNL     1     -13.850  55.897  51.074  0.00  0.00    +0.000 C 
BRANCH  28  29
ATOM     29  C   UNL     1     -13.880  57.391  51.479  0.00  0.00    +0.000 C 
ATOM     30  C   UNL     1     -14.337  57.689  52.910  0.00  0.00    +0.000 C 
ATOM     31  C   UNL     1     -14.722  58.287  50.576  0.00  0.00    +0.000 C 
ATOM     32  C   UNL     1     -15.106  59.003  52.877  0.00  0.00    +0.000 C 
ATOM     33  C   UNL     1     -15.152  59.468  51.432  0.00  0.00    +0.000 C 
ENDBRANCH  28  29
ENDBRANCH   5  28
TORSDOF 4
ENDMDL
