MODEL 1
REMARK VINA RESULT:      -8.2      0.000      0.000
REMARK  Name = 338328
REMARK  12 active torsions:
REMARK  status: ('A' for Active; 'I' for Inactive)
REMARK    1  A    between atoms: C_6  and  C_10
REMARK    2  A    between atoms: C_14  and  O_18
REMARK    3  A    between atoms: N_17  and  C_21
REMARK    4  A    between atoms: C_21  and  C_24
REMARK    5  A    between atoms: C_24  and  C_27
REMARK    6  A    between atoms: C_25  and  N_28
REMARK    7  A    between atoms: C_27  and  C_29
REMARK    8  A    between atoms: C_27  and  C_30
REMARK    9  A    between atoms: C_27  and  C_31
REMARK   10  A    between atoms: N_28  and  C_32
REMARK   11  A    between atoms: C_32  and  C_33
REMARK   12  A    between atoms: C_33  and  O_34
REMARK                            x       y       z     vdW  Elec       q    Type
REMARK                         _______ _______ _______ _____ _____    ______ ____
ROOT
ATOM      1  C   UNL     1     -11.578  55.913  48.927  0.00  0.00    +0.000 A 
ATOM      2  C   UNL     1     -10.540  55.231  49.755  0.00  0.00    +0.000 A 
ATOM      3  C   UNL     1     -11.652  55.678  47.606  0.00  0.00    +0.000 A 
ATOM      4  O   UNL     1     -10.478  55.503  50.957  0.00  0.00    +0.000 OA
ATOM      5  N   UNL     1      -9.674  54.340  49.131  0.00  0.00    +0.000 N 
ATOM      6  C   UNL     1     -10.778  54.680  46.981  0.00  0.00    +0.000 A 
ATOM      7  C   UNL     1      -9.825  54.005  47.754  0.00  0.00    +0.000 A 
ATOM      8  C   UNL     1     -10.938  54.341  45.628  0.00  0.00    +0.000 A 
ATOM      9  C   UNL     1      -9.062  52.999  47.149  0.00  0.00    +0.000 A 
ATOM     10  C   UNL     1     -10.217  53.298  45.045  0.00  0.00    +0.000 A 
ATOM     11  C   UNL     1      -9.244  52.665  45.809  0.00  0.00    +0.000 A 
ENDROOT
BRANCH   1  17
ATOM     12  S   UNL     1     -13.579  59.227  49.523  0.00  0.00    +0.000 S 
ATOM     13  O   UNL     1     -14.698  59.341  48.612  0.00  0.00    +0.000 OA
ATOM     14  O   UNL     1     -12.757  60.385  49.826  0.00  0.00    +0.000 OA
ATOM     15  N   UNL     1     -12.587  58.074  48.977  0.00  0.00    +0.000 N 
ATOM     16  C   UNL     1     -14.246  58.695  51.055  0.00  0.00    +0.000 A 
ATOM     17  C   UNL     1     -12.502  56.920  49.570  0.00  0.00    +0.000 C 
ATOM     18  C   UNL     1     -14.000  57.390  51.451  0.00  0.00    +0.000 A 
ATOM     19  C   UNL     1     -15.007  59.577  51.824  0.00  0.00    +0.000 A 
ATOM     20  N   UNL     1     -13.167  56.557  50.716  0.00  0.00    +0.000 N 
ATOM     21  C   UNL     1     -14.552  56.957  52.658  0.00  0.00    +0.000 A 
ATOM     22  C   UNL     1     -15.545  59.135  53.021  0.00  0.00    +0.000 A 
ATOM     23  C   UNL     1     -15.323  57.821  53.438  0.00  0.00    +0.000 A 
ATOM     24  H   UNL     1     -12.037  58.249  48.180  0.00  0.00    +0.000 HD
ATOM     25  H   UNL     1     -13.041  55.637  51.042  0.00  0.00    +0.000 HD
ENDBRANCH   1  17
BRANCH   3  26
ATOM     26  O   UNL     1     -12.539  56.300  46.744  0.00  0.00    +0.000 OA
ATOM     27  H   UNL     1     -13.258  55.820  46.385  0.00  0.00    +0.000 HD
ENDBRANCH   3  26
BRANCH  10  28
ATOM     28  N   UNL     1     -10.502  52.968  43.718  0.00  0.00    +0.000 N 
ATOM     29  H   UNL     1     -11.427  52.947  43.383  0.00  0.00    +0.000 HD
BRANCH  28  30
ATOM     30  C   UNL     1      -9.368  52.655  42.842  0.00  0.00    +0.000 C 
BRANCH  30  31
ATOM     31  C   UNL     1      -9.611  51.300  42.178  0.00  0.00    +0.000 C 
BRANCH  31  32
ATOM     32  O   UNL     1     -10.954  50.875  42.393  0.00  0.00    +0.000 OA
ATOM     33  H   UNL     1     -11.385  50.717  41.539  0.00  0.00    +0.000 HD
ENDBRANCH  31  32
ENDBRANCH  30  31
ENDBRANCH  28  30
ENDBRANCH  10  28
BRANCH   5  34
ATOM     34  C   UNL     1      -8.677  53.655  49.956  0.00  0.00    +0.000 C 
BRANCH  34  35
ATOM     35  C   UNL     1      -7.377  54.455  50.181  0.00  0.00    +0.000 C 
BRANCH  35  36
ATOM     36  C   UNL     1      -6.974  54.607  51.673  0.00  0.00    +0.000 C 
ATOM     37  C   UNL     1      -7.285  56.020  52.203  0.00  0.00    +0.000 C 
ATOM     38  C   UNL     1      -7.782  53.593  52.508  0.00  0.00    +0.000 C 
ATOM     39  C   UNL     1      -5.477  54.309  51.851  0.00  0.00    +0.000 C 
ENDBRANCH  35  36
ENDBRANCH  34  35
ENDBRANCH   5  34
TORSDOF 9
ENDMDL
MODEL 2
REMARK VINA RESULT:      -8.1      2.539      7.628
REMARK  Name = 338328
REMARK  12 active torsions:
REMARK  status: ('A' for Active; 'I' for Inactive)
REMARK    1  A    between atoms: C_6  and  C_10
REMARK    2  A    between atoms: C_14  and  O_18
REMARK    3  A    between atoms: N_17  and  C_21
REMARK    4  A    between atoms: C_21  and  C_24
REMARK    5  A    between atoms: C_24  and  C_27
REMARK    6  A    between atoms: C_25  and  N_28
REMARK    7  A    between atoms: C_27  and  C_29
REMARK    8  A    between atoms: C_27  and  C_30
REMARK    9  A    between atoms: C_27  and  C_31
REMARK   10  A    between atoms: N_28  and  C_32
REMARK   11  A    between atoms: C_32  and  C_33
REMARK   12  A    between atoms: C_33  and  O_34
REMARK                            x       y       z     vdW  Elec       q    Type
REMARK                         _______ _______ _______ _____ _____    ______ ____
ROOT
ATOM      1  C   UNL     1     -10.662  54.474  48.574  0.00  0.00    +0.000 A 
ATOM      2  C   UNL     1     -10.096  54.081  49.899  0.00  0.00    +0.000 A 
ATOM      3  C   UNL     1     -11.783  55.213  48.510  0.00  0.00    +0.000 A 
ATOM      4  O   UNL     1      -9.088  53.369  49.917  0.00  0.00    +0.000 OA
ATOM      5  N   UNL     1     -10.741  54.516  51.051  0.00  0.00    +0.000 N 
ATOM      6  C   UNL     1     -12.407  55.722  49.736  0.00  0.00    +0.000 A 
ATOM      7  C   UNL     1     -11.863  55.392  50.984  0.00  0.00    +0.000 A 
ATOM      8  C   UNL     1     -13.502  56.597  49.667  0.00  0.00    +0.000 A 
ATOM      9  C   UNL     1     -12.429  55.959  52.132  0.00  0.00    +0.000 A 
ATOM     10  C   UNL     1     -14.025  57.205  50.809  0.00  0.00    +0.000 A 
ATOM     11  C   UNL     1     -13.506  56.838  52.045  0.00  0.00    +0.000 A 
ENDROOT
BRANCH   1  17
ATOM     12  S   UNL     1      -7.956  53.907  45.801  0.00  0.00    +0.000 S 
ATOM     13  O   UNL     1      -6.926  52.992  46.245  0.00  0.00    +0.000 OA
ATOM     14  O   UNL     1      -7.608  55.094  45.042  0.00  0.00    +0.000 OA
ATOM     15  N   UNL     1      -8.797  54.399  47.089  0.00  0.00    +0.000 N 
ATOM     16  C   UNL     1      -9.028  52.975  44.771  0.00  0.00    +0.000 A 
ATOM     17  C   UNL     1     -10.008  53.978  47.307  0.00  0.00    +0.000 C 
ATOM     18  C   UNL     1     -10.285  52.656  45.263  0.00  0.00    +0.000 A 
ATOM     19  C   UNL     1      -8.597  52.570  43.507  0.00  0.00    +0.000 A 
ATOM     20  N   UNL     1     -10.726  53.144  46.485  0.00  0.00    +0.000 N 
ATOM     21  C   UNL     1     -11.129  51.892  44.455  0.00  0.00    +0.000 A 
ATOM     22  C   UNL     1      -9.448  51.816  42.715  0.00  0.00    +0.000 A 
ATOM     23  C   UNL     1     -10.714  51.471  43.190  0.00  0.00    +0.000 A 
ATOM     24  H   UNL     1      -8.384  55.030  47.722  0.00  0.00    +0.000 HD
ATOM     25  H   UNL     1     -11.623  52.872  46.786  0.00  0.00    +0.000 HD
ENDBRANCH   1  17
BRANCH   3  26
ATOM     26  O   UNL     1     -12.418  55.579  47.336  0.00  0.00    +0.000 OA
ATOM     27  H   UNL     1     -12.602  56.481  47.165  0.00  0.00    +0.000 HD
ENDBRANCH   3  26
BRANCH  10  28
ATOM     28  N   UNL     1     -15.057  58.132  50.642  0.00  0.00    +0.000 N 
ATOM     29  H   UNL     1     -15.959  57.850  50.367  0.00  0.00    +0.000 HD
BRANCH  28  30
ATOM     30  C   UNL     1     -14.744  59.543  50.894  0.00  0.00    +0.000 C 
BRANCH  30  31
ATOM     31  C   UNL     1     -14.380  60.216  49.570  0.00  0.00    +0.000 C 
BRANCH  31  32
ATOM     32  O   UNL     1     -13.023  60.650  49.591  0.00  0.00    +0.000 OA
ATOM     33  H   UNL     1     -12.631  60.531  48.712  0.00  0.00    +0.000 HD
ENDBRANCH  31  32
ENDBRANCH  30  31
ENDBRANCH  28  30
ENDBRANCH  10  28
BRANCH   5  34
ATOM     34  C   UNL     1     -10.163  54.150  52.346  0.00  0.00    +0.000 C 
BRANCH  34  35
ATOM     35  C   UNL     1      -9.106  55.141  52.875  0.00  0.00    +0.000 C 
BRANCH  35  36
ATOM     36  C   UNL     1      -7.710  54.509  53.126  0.00  0.00    +0.000 C 
ATOM     37  C   UNL     1      -7.083  55.022  54.437  0.00  0.00    +0.000 C 
ATOM     38  C   UNL     1      -7.874  52.980  53.239  0.00  0.00    +0.000 C 
ATOM     39  C   UNL     1      -6.769  54.818  51.950  0.00  0.00    +0.000 C 
ENDBRANCH  35  36
ENDBRANCH  34  35
ENDBRANCH   5  34
TORSDOF 9
ENDMDL
MODEL 3
REMARK VINA RESULT:      -7.9      3.074      6.851
REMARK  Name = 338328
REMARK  12 active torsions:
REMARK  status: ('A' for Active; 'I' for Inactive)
REMARK    1  A    between atoms: C_6  and  C_10
REMARK    2  A    between atoms: C_14  and  O_18
REMARK    3  A    between atoms: N_17  and  C_21
REMARK    4  A    between atoms: C_21  and  C_24
REMARK    5  A    between atoms: C_24  and  C_27
REMARK    6  A    between atoms: C_25  and  N_28
REMARK    7  A    between atoms: C_27  and  C_29
REMARK    8  A    between atoms: C_27  and  C_30
REMARK    9  A    between atoms: C_27  and  C_31
REMARK   10  A    between atoms: N_28  and  C_32
REMARK   11  A    between atoms: C_32  and  C_33
REMARK   12  A    between atoms: C_33  and  O_34
REMARK                            x       y       z     vdW  Elec       q    Type
REMARK                         _______ _______ _______ _____ _____    ______ ____
ROOT
ATOM      1  C   UNL     1      -9.706  53.950  50.893  0.00  0.00    +0.000 A 
ATOM      2  C   UNL     1     -10.780  54.950  51.172  0.00  0.00    +0.000 A 
ATOM      3  C   UNL     1      -9.546  53.458  49.652  0.00  0.00    +0.000 A 
ATOM      4  O   UNL     1     -10.922  55.349  52.331  0.00  0.00    +0.000 OA
ATOM      5  N   UNL     1     -11.586  55.369  50.119  0.00  0.00    +0.000 N 
ATOM      6  C   UNL     1     -10.358  53.967  48.542  0.00  0.00    +0.000 A 
ATOM      7  C   UNL     1     -11.343  54.933  48.784  0.00  0.00    +0.000 A 
ATOM      8  C   UNL     1     -10.108  53.547  47.226  0.00  0.00    +0.000 A 
ATOM      9  C   UNL     1     -12.046  55.460  47.694  0.00  0.00    +0.000 A 
ATOM     10  C   UNL     1     -10.769  54.118  46.138  0.00  0.00    +0.000 A 
ATOM     11  C   UNL     1     -11.774  55.044  46.393  0.00  0.00    +0.000 A 
ENDROOT
BRANCH   1  17
ATOM     12  S   UNL     1      -6.592  53.433  53.210  0.00  0.00    +0.000 S 
ATOM     13  O   UNL     1      -6.355  54.591  54.046  0.00  0.00    +0.000 OA
ATOM     14  O   UNL     1      -5.480  52.738  52.586  0.00  0.00    +0.000 OA
ATOM     15  N   UNL     1      -7.611  53.852  52.029  0.00  0.00    +0.000 N 
ATOM     16  C   UNL     1      -7.390  52.249  54.228  0.00  0.00    +0.000 A 
ATOM     17  C   UNL     1      -8.846  53.444  52.025  0.00  0.00    +0.000 C 
ATOM     18  C   UNL     1      -8.737  52.006  54.006  0.00  0.00    +0.000 A 
ATOM     19  C   UNL     1      -6.670  51.597  55.230  0.00  0.00    +0.000 A 
ATOM     20  N   UNL     1      -9.413  52.598  52.948  0.00  0.00    +0.000 N 
ATOM     21  C   UNL     1      -9.381  51.083  54.832  0.00  0.00    +0.000 A 
ATOM     22  C   UNL     1      -7.321  50.680  56.039  0.00  0.00    +0.000 A 
ATOM     23  C   UNL     1      -8.679  50.425  55.846  0.00  0.00    +0.000 A 
ATOM     24  H   UNL     1      -7.290  54.426  51.297  0.00  0.00    +0.000 HD
ATOM     25  H   UNL     1     -10.371  52.397  52.850  0.00  0.00    +0.000 HD
ENDBRANCH   1  17
BRANCH   3  26
ATOM     26  O   UNL     1      -8.621  52.488  49.304  0.00  0.00    +0.000 OA
ATOM     27  H   UNL     1      -8.434  52.323  48.401  0.00  0.00    +0.000 HD
ENDBRANCH   3  26
BRANCH  10  28
ATOM     28  N   UNL     1     -10.396  53.707  44.857  0.00  0.00    +0.000 N 
ATOM     29  H   UNL     1     -10.116  54.357  44.172  0.00  0.00    +0.000 HD
BRANCH  28  30
ATOM     30  C   UNL     1     -10.436  52.270  44.570  0.00  0.00    +0.000 C 
BRANCH  30  31
ATOM     31  C   UNL     1     -10.124  52.048  43.090  0.00  0.00    +0.000 C 
BRANCH  31  32
ATOM     32  O   UNL     1     -10.989  51.055  42.545  0.00  0.00    +0.000 OA
ATOM     33  H   UNL     1     -11.430  51.407  41.756  0.00  0.00    +0.000 HD
ENDBRANCH  31  32
ENDBRANCH  30  31
ENDBRANCH  28  30
ENDBRANCH  10  28
BRANCH   5  34
ATOM     34  C   UNL     1     -12.618  56.370  50.396  0.00  0.00    +0.000 C 
BRANCH  34  35
ATOM     35  C   UNL     1     -13.976  55.782  50.830  0.00  0.00    +0.000 C 
BRANCH  35  36
ATOM     36  C   UNL     1     -15.071  56.848  51.109  0.00  0.00    +0.000 C 
ATOM     37  C   UNL     1     -16.461  56.365  50.652  0.00  0.00    +0.000 C 
ATOM     38  C   UNL     1     -15.129  57.110  52.627  0.00  0.00    +0.000 C 
ATOM     39  C   UNL     1     -14.723  58.164  50.395  0.00  0.00    +0.000 C 
ENDBRANCH  35  36
ENDBRANCH  34  35
ENDBRANCH   5  34
TORSDOF 9
ENDMDL
MODEL 4
REMARK VINA RESULT:      -7.9      2.960      6.016
REMARK  Name = 338328
REMARK  12 active torsions:
REMARK  status: ('A' for Active; 'I' for Inactive)
REMARK    1  A    between atoms: C_6  and  C_10
REMARK    2  A    between atoms: C_14  and  O_18
REMARK    3  A    between atoms: N_17  and  C_21
REMARK    4  A    between atoms: C_21  and  C_24
REMARK    5  A    between atoms: C_24  and  C_27
REMARK    6  A    between atoms: C_25  and  N_28
REMARK    7  A    between atoms: C_27  and  C_29
REMARK    8  A    between atoms: C_27  and  C_30
REMARK    9  A    between atoms: C_27  and  C_31
REMARK   10  A    between atoms: N_28  and  C_32
REMARK   11  A    between atoms: C_32  and  C_33
REMARK   12  A    between atoms: C_33  and  O_34
REMARK                            x       y       z     vdW  Elec       q    Type
REMARK                         _______ _______ _______ _____ _____    ______ ____
ROOT
ATOM      1  C   UNL     1     -12.175  54.275  50.240  0.00  0.00    +0.000 A 
ATOM      2  C   UNL     1     -11.952  53.751  48.860  0.00  0.00    +0.000 A 
ATOM      3  C   UNL     1     -11.647  53.638  51.299  0.00  0.00    +0.000 A 
ATOM      4  O   UNL     1     -12.487  54.340  47.917  0.00  0.00    +0.000 OA
ATOM      5  N   UNL     1     -11.172  52.611  48.701  0.00  0.00    +0.000 N 
ATOM      6  C   UNL     1     -10.767  52.481  51.105  0.00  0.00    +0.000 A 
ATOM      7  C   UNL     1     -10.519  52.002  49.812  0.00  0.00    +0.000 A 
ATOM      8  C   UNL     1     -10.113  51.891  52.198  0.00  0.00    +0.000 A 
ATOM      9  C   UNL     1      -9.611  50.949  49.650  0.00  0.00    +0.000 A 
ATOM     10  C   UNL     1      -9.165  50.882  52.026  0.00  0.00    +0.000 A 
ATOM     11  C   UNL     1      -8.959  50.386  50.744  0.00  0.00    +0.000 A 
ENDROOT
BRANCH   1  17
ATOM     12  S   UNL     1     -15.216  56.475  51.360  0.00  0.00    +0.000 S 
ATOM     13  O   UNL     1     -15.206  56.704  52.789  0.00  0.00    +0.000 OA
ATOM     14  O   UNL     1     -16.461  56.184  50.671  0.00  0.00    +0.000 OA
ATOM     15  N   UNL     1     -14.198  55.265  51.026  0.00  0.00    +0.000 N 
ATOM     16  C   UNL     1     -14.588  57.937  50.624  0.00  0.00    +0.000 A 
ATOM     17  C   UNL     1     -13.055  55.484  50.446  0.00  0.00    +0.000 C 
ATOM     18  C   UNL     1     -13.317  57.892  50.073  0.00  0.00    +0.000 A 
ATOM     19  C   UNL     1     -15.362  59.099  50.619  0.00  0.00    +0.000 A 
ATOM     20  N   UNL     1     -12.600  56.704  50.008  0.00  0.00    +0.000 N 
ATOM     21  C   UNL     1     -12.805  59.062  49.510  0.00  0.00    +0.000 A 
ATOM     22  C   UNL     1     -14.842  60.252  50.053  0.00  0.00    +0.000 A 
ATOM     23  C   UNL     1     -13.560  60.237  49.502  0.00  0.00    +0.000 A 
ATOM     24  H   UNL     1     -14.449  54.344  51.267  0.00  0.00    +0.000 HD
ATOM     25  H   UNL     1     -11.698  56.739  49.617  0.00  0.00    +0.000 HD
ENDBRANCH   1  17
BRANCH   3  26
ATOM     26  O   UNL     1     -11.842  54.008  52.619  0.00  0.00    +0.000 OA
ATOM     27  H   UNL     1     -12.442  54.696  52.828  0.00  0.00    +0.000 HD
ENDBRANCH   3  26
BRANCH  10  28
ATOM     28  N   UNL     1      -8.496  50.414  53.159  0.00  0.00    +0.000 N 
ATOM     29  H   UNL     1      -8.008  49.558  53.148  0.00  0.00    +0.000 HD
BRANCH  28  30
ATOM     30  C   UNL     1      -8.546  51.246  54.365  0.00  0.00    +0.000 C 
BRANCH  30  31
ATOM     31  C   UNL     1      -7.201  51.951  54.540  0.00  0.00    +0.000 C 
BRANCH  31  32
ATOM     32  O   UNL     1      -7.383  53.364  54.580  0.00  0.00    +0.000 OA
ATOM     33  H   UNL     1      -6.521  53.804  54.514  0.00  0.00    +0.000 HD
ENDBRANCH  31  32
ENDBRANCH  30  31
ENDBRANCH  28  30
ENDBRANCH  10  28
BRANCH   5  34
ATOM     34  C   UNL     1     -10.936  52.121  47.342  0.00  0.00    +0.000 C 
BRANCH  34  35
ATOM     35  C   UNL     1      -9.577  52.537  46.742  0.00  0.00    +0.000 C 
BRANCH  35  36
ATOM     36  C   UNL     1      -9.664  53.696  45.712  0.00  0.00    +0.000 C 
ATOM     37  C   UNL     1      -9.465  55.068  46.386  0.00  0.00    +0.000 C 
ATOM     38  C   UNL     1      -8.547  53.510  44.665  0.00  0.00    +0.000 C 
ATOM     39  C   UNL     1     -11.022  53.667  44.995  0.00  0.00    +0.000 C 
ENDBRANCH  35  36
ENDBRANCH  34  35
ENDBRANCH   5  34
TORSDOF 9
ENDMDL
MODEL 5
REMARK VINA RESULT:      -7.8      3.061      8.416
REMARK  Name = 338328
REMARK  12 active torsions:
REMARK  status: ('A' for Active; 'I' for Inactive)
REMARK    1  A    between atoms: C_6  and  C_10
REMARK    2  A    between atoms: C_14  and  O_18
REMARK    3  A    between atoms: N_17  and  C_21
REMARK    4  A    between atoms: C_21  and  C_24
REMARK    5  A    between atoms: C_24  and  C_27
REMARK    6  A    between atoms: C_25  and  N_28
REMARK    7  A    between atoms: C_27  and  C_29
REMARK    8  A    between atoms: C_27  and  C_30
REMARK    9  A    between atoms: C_27  and  C_31
REMARK   10  A    between atoms: N_28  and  C_32
REMARK   11  A    between atoms: C_32  and  C_33
REMARK   12  A    between atoms: C_33  and  O_34
REMARK                            x       y       z     vdW  Elec       q    Type
REMARK                         _______ _______ _______ _____ _____    ______ ____
ROOT
ATOM      1  C   UNL     1      -9.885  54.318  50.753  0.00  0.00    +0.000 A 
ATOM      2  C   UNL     1      -9.749  54.585  49.290  0.00  0.00    +0.000 A 
ATOM      3  C   UNL     1     -10.971  54.745  51.421  0.00  0.00    +0.000 A 
ATOM      4  O   UNL     1      -8.720  54.212  48.720  0.00  0.00    +0.000 OA
ATOM      5  N   UNL     1     -10.776  55.261  48.641  0.00  0.00    +0.000 N 
ATOM      6  C   UNL     1     -12.075  55.391  50.704  0.00  0.00    +0.000 A 
ATOM      7  C   UNL     1     -11.977  55.613  49.324  0.00  0.00    +0.000 A 
ATOM      8  C   UNL     1     -13.263  55.724  51.375  0.00  0.00    +0.000 A 
ATOM      9  C   UNL     1     -13.079  56.155  48.652  0.00  0.00    +0.000 A 
ATOM     10  C   UNL     1     -14.378  56.209  50.692  0.00  0.00    +0.000 A 
ATOM     11  C   UNL     1     -14.254  56.465  49.332  0.00  0.00    +0.000 A 
ENDROOT
BRANCH   1  17
ATOM     12  S   UNL     1      -8.009  51.742  53.030  0.00  0.00    +0.000 S 
ATOM     13  O   UNL     1      -7.862  50.461  52.371  0.00  0.00    +0.000 OA
ATOM     14  O   UNL     1      -8.361  51.808  54.437  0.00  0.00    +0.000 OA
ATOM     15  N   UNL     1      -9.110  52.610  52.226  0.00  0.00    +0.000 N 
ATOM     16  C   UNL     1      -6.461  52.551  52.882  0.00  0.00    +0.000 A 
ATOM     17  C   UNL     1      -8.766  53.626  51.493  0.00  0.00    +0.000 C 
ATOM     18  C   UNL     1      -6.370  53.624  52.008  0.00  0.00    +0.000 A 
ATOM     19  C   UNL     1      -5.368  52.099  53.622  0.00  0.00    +0.000 A 
ATOM     20  N   UNL     1      -7.489  54.115  51.349  0.00  0.00    +0.000 N 
ATOM     21  C   UNL     1      -5.132  54.253  51.870  0.00  0.00    +0.000 A 
ATOM     22  C   UNL     1      -4.146  52.736  53.478  0.00  0.00    +0.000 A 
ATOM     23  C   UNL     1      -4.024  53.811  52.596  0.00  0.00    +0.000 A 
ATOM     24  H   UNL     1     -10.061  52.364  52.295  0.00  0.00    +0.000 HD
ATOM     25  H   UNL     1      -7.359  54.871  50.732  0.00  0.00    +0.000 HD
ENDBRANCH   1  17
BRANCH   3  26
ATOM     26  O   UNL     1     -11.165  54.599  52.784  0.00  0.00    +0.000 OA
ATOM     27  H   UNL     1     -11.177  53.745  53.166  0.00  0.00    +0.000 HD
ENDBRANCH   3  26
BRANCH  10  28
ATOM     28  N   UNL     1     -15.548  56.429  51.423  0.00  0.00    +0.000 N 
ATOM     29  H   UNL     1     -16.417  56.083  51.115  0.00  0.00    +0.000 HD
BRANCH  28  30
ATOM     30  C   UNL     1     -15.432  57.197  52.667  0.00  0.00    +0.000 C 
BRANCH  30  31
ATOM     31  C   UNL     1     -15.159  58.661  52.326  0.00  0.00    +0.000 C 
BRANCH  31  32
ATOM     32  O   UNL     1     -14.012  59.130  53.030  0.00  0.00    +0.000 OA
ATOM     33  H   UNL     1     -14.270  59.846  53.631  0.00  0.00    +0.000 HD
ENDBRANCH  31  32
ENDBRANCH  30  31
ENDBRANCH  28  30
ENDBRANCH  10  28
BRANCH   5  34
ATOM     34  C   UNL     1     -10.648  55.493  47.201  0.00  0.00    +0.000 C 
BRANCH  34  35
ATOM     35  C   UNL     1     -11.370  54.454  46.320  0.00  0.00    +0.000 C 
BRANCH  35  36
ATOM     36  C   UNL     1     -10.419  53.467  45.591  0.00  0.00    +0.000 C 
ATOM     37  C   UNL     1      -9.019  54.076  45.384  0.00  0.00    +0.000 C 
ATOM     38  C   UNL     1     -10.267  52.199  46.455  0.00  0.00    +0.000 C 
ATOM     39  C   UNL     1     -11.012  53.067  44.230  0.00  0.00    +0.000 C 
ENDBRANCH  35  36
ENDBRANCH  34  35
ENDBRANCH   5  34
TORSDOF 9
ENDMDL
MODEL 6
REMARK VINA RESULT:      -7.8      2.343      2.896
REMARK  Name = 338328
REMARK  12 active torsions:
REMARK  status: ('A' for Active; 'I' for Inactive)
REMARK    1  A    between atoms: C_6  and  C_10
REMARK    2  A    between atoms: C_14  and  O_18
REMARK    3  A    between atoms: N_17  and  C_21
REMARK    4  A    between atoms: C_21  and  C_24
REMARK    5  A    between atoms: C_24  and  C_27
REMARK    6  A    between atoms: C_25  and  N_28
REMARK    7  A    between atoms: C_27  and  C_29
REMARK    8  A    between atoms: C_27  and  C_30
REMARK    9  A    between atoms: C_27  and  C_31
REMARK   10  A    between atoms: N_28  and  C_32
REMARK   11  A    between atoms: C_32  and  C_33
REMARK   12  A    between atoms: C_33  and  O_34
REMARK                            x       y       z     vdW  Elec       q    Type
REMARK                         _______ _______ _______ _____ _____    ______ ____
ROOT
ATOM      1  C   UNL     1     -12.247  54.383  49.669  0.00  0.00    +0.000 A 
ATOM      2  C   UNL     1     -11.656  53.543  50.753  0.00  0.00    +0.000 A 
ATOM      3  C   UNL     1     -11.946  54.136  48.382  0.00  0.00    +0.000 A 
ATOM      4  O   UNL     1     -11.924  53.826  51.924  0.00  0.00    +0.000 OA
ATOM      5  N   UNL     1     -10.813  52.497  50.397  0.00  0.00    +0.000 N 
ATOM      6  C   UNL     1     -11.114  52.982  48.024  0.00  0.00    +0.000 A 
ATOM      7  C   UNL     1     -10.585  52.164  49.030  0.00  0.00    +0.000 A 
ATOM      8  C   UNL     1     -10.902  52.648  46.677  0.00  0.00    +0.000 A 
ATOM      9  C   UNL     1      -9.864  51.024  48.657  0.00  0.00    +0.000 A 
ATOM     10  C   UNL     1     -10.234  51.479  46.310  0.00  0.00    +0.000 A 
ATOM     11  C   UNL     1      -9.676  50.698  47.316  0.00  0.00    +0.000 A 
ENDROOT
BRANCH   1  17
ATOM     12  S   UNL     1     -15.262  56.419  51.118  0.00  0.00    +0.000 S 
ATOM     13  O   UNL     1     -15.198  56.505  52.562  0.00  0.00    +0.000 OA
ATOM     14  O   UNL     1     -16.530  56.182  50.452  0.00  0.00    +0.000 OA
ATOM     15  N   UNL     1     -14.246  55.263  50.627  0.00  0.00    +0.000 N 
ATOM     16  C   UNL     1     -14.678  57.956  50.509  0.00  0.00    +0.000 A 
ATOM     17  C   UNL     1     -13.129  55.554  50.028  0.00  0.00    +0.000 C 
ATOM     18  C   UNL     1     -13.429  57.983  49.908  0.00  0.00    +0.000 A 
ATOM     19  C   UNL     1     -15.462  59.102  50.650  0.00  0.00    +0.000 A 
ATOM     20  N   UNL     1     -12.704  56.817  49.697  0.00  0.00    +0.000 N 
ATOM     21  C   UNL     1     -12.950  59.210  49.445  0.00  0.00    +0.000 A 
ATOM     22  C   UNL     1     -14.977  60.312  50.182  0.00  0.00    +0.000 A 
ATOM     23  C   UNL     1     -13.717  60.370  49.584  0.00  0.00    +0.000 A 
ATOM     24  H   UNL     1     -14.478  54.319  50.783  0.00  0.00    +0.000 HD
ATOM     25  H   UNL     1     -11.818  56.902  49.277  0.00  0.00    +0.000 HD
ENDBRANCH   1  17
BRANCH   3  26
ATOM     26  O   UNL     1     -12.394  54.888  47.311  0.00  0.00    +0.000 OA
ATOM     27  H   UNL     1     -11.914  55.644  47.036  0.00  0.00    +0.000 HD
ENDBRANCH   3  26
BRANCH  10  28
ATOM     28  N   UNL     1     -10.145  51.176  44.949  0.00  0.00    +0.000 N 
ATOM     29  H   UNL     1     -10.618  50.402  44.566  0.00  0.00    +0.000 HD
BRANCH  28  30
ATOM     30  C   UNL     1      -9.322  52.057  44.114  0.00  0.00    +0.000 C 
BRANCH  30  31
ATOM     31  C   UNL     1      -9.920  52.111  42.708  0.00  0.00    +0.000 C 
BRANCH  31  32
ATOM     32  O   UNL     1     -10.921  51.108  42.555  0.00  0.00    +0.000 OA
ATOM     33  H   UNL     1     -10.571  50.254  42.852  0.00  0.00    +0.000 HD
ENDBRANCH  31  32
ENDBRANCH  30  31
ENDBRANCH  28  30
ENDBRANCH  10  28
BRANCH   5  34
ATOM     34  C   UNL     1     -10.261  51.661  51.466  0.00  0.00    +0.000 C 
BRANCH  34  35
ATOM     35  C   UNL     1      -8.864  52.093  51.955  0.00  0.00    +0.000 C 
BRANCH  35  36
ATOM     36  C   UNL     1      -8.836  52.623  53.415  0.00  0.00    +0.000 C 
ATOM     37  C   UNL     1     -10.061  52.141  54.216  0.00  0.00    +0.000 C 
ATOM     38  C   UNL     1      -7.568  52.088  54.110  0.00  0.00    +0.000 C 
ATOM     39  C   UNL     1      -8.790  54.159  53.421  0.00  0.00    +0.000 C 
ENDBRANCH  35  36
ENDBRANCH  34  35
ENDBRANCH   5  34
TORSDOF 9
ENDMDL
MODEL 7
REMARK VINA RESULT:      -7.8      1.759      2.265
REMARK  Name = 338328
REMARK  12 active torsions:
REMARK  status: ('A' for Active; 'I' for Inactive)
REMARK    1  A    between atoms: C_6  and  C_10
REMARK    2  A    between atoms: C_14  and  O_18
REMARK    3  A    between atoms: N_17  and  C_21
REMARK    4  A    between atoms: C_21  and  C_24
REMARK    5  A    between atoms: C_24  and  C_27
REMARK    6  A    between atoms: C_25  and  N_28
REMARK    7  A    between atoms: C_27  and  C_29
REMARK    8  A    between atoms: C_27  and  C_30
REMARK    9  A    between atoms: C_27  and  C_31
REMARK   10  A    between atoms: N_28  and  C_32
REMARK   11  A    between atoms: C_32  and  C_33
REMARK   12  A    between atoms: C_33  and  O_34
REMARK                            x       y       z     vdW  Elec       q    Type
REMARK                         _______ _______ _______ _____ _____    ______ ____
ROOT
ATOM      1  C   UNL     1     -10.696  55.740  48.774  0.00  0.00    +0.000 A 
ATOM      2  C   UNL     1      -9.360  55.574  49.420  0.00  0.00    +0.000 A 
ATOM      3  C   UNL     1     -10.890  55.339  47.506  0.00  0.00    +0.000 A 
ATOM      4  O   UNL     1      -9.210  55.991  50.571  0.00  0.00    +0.000 OA
ATOM      5  N   UNL     1      -8.340  54.978  48.687  0.00  0.00    +0.000 N 
ATOM      6  C   UNL     1      -9.822  54.647  46.777  0.00  0.00    +0.000 A 
ATOM      7  C   UNL     1      -8.576  54.450  47.385  0.00  0.00    +0.000 A 
ATOM      8  C   UNL     1     -10.061  54.114  45.500  0.00  0.00    +0.000 A 
ATOM      9  C   UNL     1      -7.603  53.715  46.697  0.00  0.00    +0.000 A 
ATOM     10  C   UNL     1      -9.110  53.332  44.844  0.00  0.00    +0.000 A 
ATOM     11  C   UNL     1      -7.863  53.180  45.437  0.00  0.00    +0.000 A 
ENDROOT
BRANCH   1  17
ATOM     12  S   UNL     1     -13.498  56.376  51.436  0.00  0.00    +0.000 S 
ATOM     13  O   UNL     1     -12.935  56.682  52.735  0.00  0.00    +0.000 OA
ATOM     14  O   UNL     1     -14.652  55.503  51.322  0.00  0.00    +0.000 OA
ATOM     15  N   UNL     1     -12.335  55.747  50.507  0.00  0.00    +0.000 N 
ATOM     16  C   UNL     1     -13.984  57.911  50.740  0.00  0.00    +0.000 A 
ATOM     17  C   UNL     1     -11.810  56.425  49.530  0.00  0.00    +0.000 C 
ATOM     18  C   UNL     1     -13.231  58.414  49.690  0.00  0.00    +0.000 A 
ATOM     19  C   UNL     1     -15.091  58.587  51.254  0.00  0.00    +0.000 A 
ATOM     20  N   UNL     1     -12.189  57.684  49.134  0.00  0.00    +0.000 N 
ATOM     21  C   UNL     1     -13.601  59.648  49.151  0.00  0.00    +0.000 A 
ATOM     22  C   UNL     1     -15.450  59.807  50.707  0.00  0.00    +0.000 A 
ATOM     23  C   UNL     1     -14.702  60.344  49.657  0.00  0.00    +0.000 A 
ATOM     24  H   UNL     1     -12.019  54.832  50.685  0.00  0.00    +0.000 HD
ATOM     25  H   UNL     1     -11.683  58.101  48.399  0.00  0.00    +0.000 HD
ENDBRANCH   1  17
BRANCH   3  26
ATOM     26  O   UNL     1     -12.070  55.500  46.801  0.00  0.00    +0.000 OA
ATOM     27  H   UNL     1     -12.863  55.119  47.122  0.00  0.00    +0.000 HD
ENDBRANCH   3  26
BRANCH  10  28
ATOM     28  N   UNL     1      -9.463  52.767  43.616  0.00  0.00    +0.000 N 
ATOM     29  H   UNL     1     -10.293  53.024  43.153  0.00  0.00    +0.000 HD
BRANCH  28  30
ATOM     30  C   UNL     1      -8.547  51.775  43.042  0.00  0.00    +0.000 C 
BRANCH  30  31
ATOM     31  C   UNL     1      -9.363  50.615  42.473  0.00  0.00    +0.000 C 
BRANCH  31  32
ATOM     32  O   UNL     1     -10.741  50.970  42.392  0.00  0.00    +0.000 OA
ATOM     33  H   UNL     1     -11.101  51.078  43.286  0.00  0.00    +0.000 HD
ENDBRANCH  31  32
ENDBRANCH  30  31
ENDBRANCH  28  30
ENDBRANCH  10  28
BRANCH   5  34
ATOM     34  C   UNL     1      -7.041  54.794  49.338  0.00  0.00    +0.000 C 
BRANCH  34  35
ATOM     35  C   UNL     1      -6.957  53.556  50.254  0.00  0.00    +0.000 C 
BRANCH  35  36
ATOM     36  C   UNL     1      -5.970  53.710  51.443  0.00  0.00    +0.000 C 
ATOM     37  C   UNL     1      -6.465  54.758  52.459  0.00  0.00    +0.000 C 
ATOM     38  C   UNL     1      -5.857  52.354  52.169  0.00  0.00    +0.000 C 
ATOM     39  C   UNL     1      -4.578  54.110  50.928  0.00  0.00    +0.000 C 
ENDBRANCH  35  36
ENDBRANCH  34  35
ENDBRANCH   5  34
TORSDOF 9
ENDMDL
MODEL 8
REMARK VINA RESULT:      -7.8      2.998      7.834
REMARK  Name = 338328
REMARK  12 active torsions:
REMARK  status: ('A' for Active; 'I' for Inactive)
REMARK    1  A    between atoms: C_6  and  C_10
REMARK    2  A    between atoms: C_14  and  O_18
REMARK    3  A    between atoms: N_17  and  C_21
REMARK    4  A    between atoms: C_21  and  C_24
REMARK    5  A    between atoms: C_24  and  C_27
REMARK    6  A    between atoms: C_25  and  N_28
REMARK    7  A    between atoms: C_27  and  C_29
REMARK    8  A    between atoms: C_27  and  C_30
REMARK    9  A    between atoms: C_27  and  C_31
REMARK   10  A    between atoms: N_28  and  C_32
REMARK   11  A    between atoms: C_32  and  C_33
REMARK   12  A    between atoms: C_33  and  O_34
REMARK                            x       y       z     vdW  Elec       q    Type
REMARK                         _______ _______ _______ _____ _____    ______ ____
ROOT
ATOM      1  C   UNL     1      -9.920  54.906  50.697  0.00  0.00    +0.000 A 
ATOM      2  C   UNL     1      -9.597  54.857  49.240  0.00  0.00    +0.000 A 
ATOM      3  C   UNL     1     -11.053  55.492  51.120  0.00  0.00    +0.000 A 
ATOM      4  O   UNL     1      -8.529  54.346  48.893  0.00  0.00    +0.000 OA
ATOM      5  N   UNL     1     -10.502  55.410  48.341  0.00  0.00    +0.000 N 
ATOM      6  C   UNL     1     -12.029  56.004  50.151  0.00  0.00    +0.000 A 
ATOM      7  C   UNL     1     -11.755  55.930  48.779  0.00  0.00    +0.000 A 
ATOM      8  C   UNL     1     -13.268  56.502  50.584  0.00  0.00    +0.000 A 
ATOM      9  C   UNL     1     -12.739  56.350  47.876  0.00  0.00    +0.000 A 
ATOM     10  C   UNL     1     -14.267  56.863  49.680  0.00  0.00    +0.000 A 
ATOM     11  C   UNL     1     -13.969  56.827  48.323  0.00  0.00    +0.000 A 
ENDROOT
BRANCH   1  17
ATOM     12  S   UNL     1      -6.593  54.396  52.699  0.00  0.00    +0.000 S 
ATOM     13  O   UNL     1      -6.367  55.477  53.636  0.00  0.00    +0.000 OA
ATOM     14  O   UNL     1      -5.493  53.857  51.920  0.00  0.00    +0.000 OA
ATOM     15  N   UNL     1      -7.735  54.854  51.651  0.00  0.00    +0.000 N 
ATOM     16  C   UNL     1      -7.219  53.055  53.640  0.00  0.00    +0.000 A 
ATOM     17  C   UNL     1      -8.934  54.354  51.698  0.00  0.00    +0.000 C 
ATOM     18  C   UNL     1      -8.560  52.733  53.497  0.00  0.00    +0.000 A 
ATOM     19  C   UNL     1      -6.374  52.361  54.507  0.00  0.00    +0.000 A 
ATOM     20  N   UNL     1      -9.361  53.377  52.564  0.00  0.00    +0.000 N 
ATOM     21  C   UNL     1      -9.066  51.682  54.264  0.00  0.00    +0.000 A 
ATOM     22  C   UNL     1      -6.889  51.318  55.259  0.00  0.00    +0.000 A 
ATOM     23  C   UNL     1      -8.239  50.980  55.143  0.00  0.00    +0.000 A 
ATOM     24  H   UNL     1      -7.517  55.524  50.964  0.00  0.00    +0.000 HD
ATOM     25  H   UNL     1     -10.309  53.112  52.518  0.00  0.00    +0.000 HD
ENDBRANCH   1  17
BRANCH   3  26
ATOM     26  O   UNL     1     -11.415  55.640  52.447  0.00  0.00    +0.000 OA
ATOM     27  H   UNL     1     -12.258  55.354  52.737  0.00  0.00    +0.000 HD
ENDBRANCH   3  26
BRANCH  10  28
ATOM     28  N   UNL     1     -15.502  57.263  50.195  0.00  0.00    +0.000 N 
ATOM     29  H   UNL     1     -16.298  57.333  49.620  0.00  0.00    +0.000 HD
BRANCH  28  30
ATOM     30  C   UNL     1     -15.567  57.575  51.627  0.00  0.00    +0.000 C 
BRANCH  30  31
ATOM     31  C   UNL     1     -15.185  59.040  51.836  0.00  0.00    +0.000 C 
BRANCH  31  32
ATOM     32  O   UNL     1     -14.220  59.157  52.878  0.00  0.00    +0.000 OA
ATOM     33  H   UNL     1     -13.794  60.027  52.829  0.00  0.00    +0.000 HD
ENDBRANCH  31  32
ENDBRANCH  30  31
ENDBRANCH  28  30
ENDBRANCH  10  28
BRANCH   5  34
ATOM     34  C   UNL     1     -10.191  55.333  46.912  0.00  0.00    +0.000 C 
BRANCH  34  35
ATOM     35  C   UNL     1     -10.713  54.061  46.213  0.00  0.00    +0.000 C 
BRANCH  35  36
ATOM     36  C   UNL     1      -9.632  53.285  45.414  0.00  0.00    +0.000 C 
ATOM     37  C   UNL     1     -10.153  52.852  44.030  0.00  0.00    +0.000 C 
ATOM     38  C   UNL     1      -8.417  54.210  45.201  0.00  0.00    +0.000 C 
ATOM     39  C   UNL     1      -9.176  52.047  46.202  0.00  0.00    +0.000 C 
ENDBRANCH  35  36
ENDBRANCH  34  35
ENDBRANCH   5  34
TORSDOF 9
ENDMDL
MODEL 9
REMARK VINA RESULT:      -7.6      2.740      6.585
REMARK  Name = 338328
REMARK  12 active torsions:
REMARK  status: ('A' for Active; 'I' for Inactive)
REMARK    1  A    between atoms: C_6  and  C_10
REMARK    2  A    between atoms: C_14  and  O_18
REMARK    3  A    between atoms: N_17  and  C_21
REMARK    4  A    between atoms: C_21  and  C_24
REMARK    5  A    between atoms: C_24  and  C_27
REMARK    6  A    between atoms: C_25  and  N_28
REMARK    7  A    between atoms: C_27  and  C_29
REMARK    8  A    between atoms: C_27  and  C_30
REMARK    9  A    between atoms: C_27  and  C_31
REMARK   10  A    between atoms: N_28  and  C_32
REMARK   11  A    between atoms: C_32  and  C_33
REMARK   12  A    between atoms: C_33  and  O_34
REMARK                            x       y       z     vdW  Elec       q    Type
REMARK                         _______ _______ _______ _____ _____    ______ ____
ROOT
ATOM      1  C   UNL     1      -9.845  53.939  49.993  0.00  0.00    +0.000 A 
ATOM      2  C   UNL     1     -10.796  55.077  50.166  0.00  0.00    +0.000 A 
ATOM      3  C   UNL     1      -9.786  53.278  48.824  0.00  0.00    +0.000 A 
ATOM      4  O   UNL     1     -10.850  55.633  51.266  0.00  0.00    +0.000 OA
ATOM      5  N   UNL     1     -11.594  55.445  49.088  0.00  0.00    +0.000 N 
ATOM      6  C   UNL     1     -10.583  53.728  47.677  0.00  0.00    +0.000 A 
ATOM      7  C   UNL     1     -11.451  54.819  47.815  0.00  0.00    +0.000 A 
ATOM      8  C   UNL     1     -10.429  53.121  46.421  0.00  0.00    +0.000 A 
ATOM      9  C   UNL     1     -12.135  55.278  46.684  0.00  0.00    +0.000 A 
ATOM     10  C   UNL     1     -11.069  53.618  45.285  0.00  0.00    +0.000 A 
ATOM     11  C   UNL     1     -11.960  54.673  45.442  0.00  0.00    +0.000 A 
ENDROOT
BRANCH   1  17
ATOM     12  S   UNL     1      -8.315  51.635  52.766  0.00  0.00    +0.000 S 
ATOM     13  O   UNL     1      -7.384  50.678  52.205  0.00  0.00    +0.000 OA
ATOM     14  O   UNL     1      -9.248  51.233  53.803  0.00  0.00    +0.000 OA
ATOM     15  N   UNL     1      -9.189  52.268  51.563  0.00  0.00    +0.000 N 
ATOM     16  C   UNL     1      -7.340  52.914  53.465  0.00  0.00    +0.000 A 
ATOM     17  C   UNL     1      -8.999  53.489  51.160  0.00  0.00    +0.000 C 
ATOM     18  C   UNL     1      -7.315  54.140  52.816  0.00  0.00    +0.000 A 
ATOM     19  C   UNL     1      -6.614  52.674  54.632  0.00  0.00    +0.000 A 
ATOM     20  N   UNL     1      -8.115  54.386  51.708  0.00  0.00    +0.000 N 
ATOM     21  C   UNL     1      -6.519  55.151  53.357  0.00  0.00    +0.000 A 
ATOM     22  C   UNL     1      -5.832  53.689  55.160  0.00  0.00    +0.000 A 
ATOM     23  C   UNL     1      -5.779  54.928  54.520  0.00  0.00    +0.000 A 
ATOM     24  H   UNL     1      -9.879  51.717  51.127  0.00  0.00    +0.000 HD
ATOM     25  H   UNL     1      -8.043  55.271  51.283  0.00  0.00    +0.000 HD
ENDBRANCH   1  17
BRANCH   3  26
ATOM     26  O   UNL     1      -8.983  52.178  48.581  0.00  0.00    +0.000 OA
ATOM     27  H   UNL     1      -9.341  51.315  48.641  0.00  0.00    +0.000 HD
ENDBRANCH   3  26
BRANCH  10  28
ATOM     28  N   UNL     1     -10.791  53.009  44.059  0.00  0.00    +0.000 N 
ATOM     29  H   UNL     1     -11.410  53.087  43.297  0.00  0.00    +0.000 HD
BRANCH  28  30
ATOM     30  C   UNL     1      -9.541  52.251  43.950  0.00  0.00    +0.000 C 
BRANCH  30  31
ATOM     31  C   UNL     1      -9.632  51.310  42.748  0.00  0.00    +0.000 C 
BRANCH  31  32
ATOM     32  O   UNL     1     -10.995  51.022  42.446  0.00  0.00    +0.000 OA
ATOM     33  H   UNL     1     -11.105  50.066  42.327  0.00  0.00    +0.000 HD
ENDBRANCH  31  32
ENDBRANCH  30  31
ENDBRANCH  28  30
ENDBRANCH  10  28
BRANCH   5  34
ATOM     34  C   UNL     1     -12.503  56.580  49.258  0.00  0.00    +0.000 C 
BRANCH  34  35
ATOM     35  C   UNL     1     -13.945  56.190  49.640  0.00  0.00    +0.000 C 
BRANCH  35  36
ATOM     36  C   UNL     1     -14.575  57.083  50.744  0.00  0.00    +0.000 C 
ATOM     37  C   UNL     1     -14.500  58.578  50.375  0.00  0.00    +0.000 C 
ATOM     38  C   UNL     1     -16.061  56.701  50.899  0.00  0.00    +0.000 C 
ATOM     39  C   UNL     1     -13.863  56.848  52.086  0.00  0.00    +0.000 C 
ENDBRANCH  35  36
ENDBRANCH  34  35
ENDBRANCH   5  34
TORSDOF 9
ENDMDL
