MODEL 1
REMARK VINA RESULT:      -8.2      0.000      0.000
REMARK  Name = 338298
REMARK  5 active torsions:
REMARK  status: ('A' for Active; 'I' for Inactive)
REMARK    1  A    between atoms: C_6  and  C_10
REMARK    2  A    between atoms: C_14  and  O_18
REMARK    3  A    between atoms: N_17  and  C_21
REMARK    4  A    between atoms: C_21  and  C_24
REMARK    5  A    between atoms: C_24  and  C_27
REMARK                            x       y       z     vdW  Elec       q    Type
REMARK                         _______ _______ _______ _____ _____    ______ ____
ROOT
ATOM      1  C   UNL     1     -10.099  54.401  52.293  0.00  0.00    +0.000 A 
ATOM      2  C   UNL     1      -8.724  54.954  52.150  0.00  0.00    +0.000 A 
ATOM      3  C   UNL     1     -10.311  53.303  53.031  0.00  0.00    +0.000 A 
ATOM      4  O   UNL     1      -8.607  55.960  51.446  0.00  0.00    +0.000 OA
ATOM      5  N   UNL     1      -7.664  54.351  52.817  0.00  0.00    +0.000 N 
ATOM      6  C   UNL     1      -9.193  52.656  53.732  0.00  0.00    +0.000 A 
ATOM      7  C   UNL     1      -7.884  53.167  53.606  0.00  0.00    +0.000 A 
ATOM      8  C   UNL     1      -9.433  51.530  54.544  0.00  0.00    +0.000 A 
ATOM      9  C   UNL     1      -6.849  52.502  54.287  0.00  0.00    +0.000 A 
ATOM     10  C   UNL     1      -8.400  50.916  55.243  0.00  0.00    +0.000 A 
ATOM     11  C   UNL     1      -7.107  51.400  55.112  0.00  0.00    +0.000 A 
ENDROOT
BRANCH   1  17
ATOM     12  S   UNL     1     -12.407  55.945  49.513  0.00  0.00    +0.000 S 
ATOM     13  O   UNL     1     -13.312  54.980  48.926  0.00  0.00    +0.000 OA
ATOM     14  O   UNL     1     -11.736  56.920  48.678  0.00  0.00    +0.000 OA
ATOM     15  N   UNL     1     -11.273  55.124  50.331  0.00  0.00    +0.000 N 
ATOM     16  C   UNL     1     -13.362  56.872  50.661  0.00  0.00    +0.000 A 
ATOM     17  C   UNL     1     -11.245  55.143  51.630  0.00  0.00    +0.000 C 
ATOM     18  C   UNL     1     -13.105  56.693  52.010  0.00  0.00    +0.000 A 
ATOM     19  C   UNL     1     -14.334  57.767  50.206  0.00  0.00    +0.000 A 
ATOM     20  N   UNL     1     -12.152  55.781  52.451  0.00  0.00    +0.000 N 
ATOM     21  C   UNL     1     -13.896  57.386  52.932  0.00  0.00    +0.000 A 
ATOM     22  C   UNL     1     -15.093  58.476  51.135  0.00  0.00    +0.000 A 
ATOM     23  C   UNL     1     -14.879  58.280  52.499  0.00  0.00    +0.000 A 
ATOM     24  H   UNL     1     -10.598  54.606  49.837  0.00  0.00    +0.000 HD
ATOM     25  H   UNL     1     -12.121  55.577  53.413  0.00  0.00    +0.000 HD
ENDBRANCH   1  17
BRANCH   3  26
ATOM     26  O   UNL     1     -11.553  52.719  53.219  0.00  0.00    +0.000 OA
ATOM     27  H   UNL     1     -11.671  52.078  53.892  0.00  0.00    +0.000 HD
ENDBRANCH   3  26
BRANCH   5  28
ATOM     28  C   UNL     1      -6.291  54.858  52.580  0.00  0.00    +0.000 C 
BRANCH  28  29
ATOM     29  C   UNL     1      -5.503  54.186  51.441  0.00  0.00    +0.000 C 
BRANCH  29  30
ATOM     30  C   UNL     1      -5.535  54.955  50.151  0.00  0.00    +0.000 C 
ATOM     31  C   UNL     1      -6.379  54.558  48.970  0.00  0.00    +0.000 C 
ATOM     32  C   UNL     1      -4.894  54.330  48.939  0.00  0.00    +0.000 C 
ENDBRANCH  29  30
ENDBRANCH  28  29
ENDBRANCH   5  28
TORSDOF 5
ENDMDL
MODEL 2
REMARK VINA RESULT:      -8.0      2.584      7.810
REMARK  Name = 338298
REMARK  5 active torsions:
REMARK  status: ('A' for Active; 'I' for Inactive)
REMARK    1  A    between atoms: C_6  and  C_10
REMARK    2  A    between atoms: C_14  and  O_18
REMARK    3  A    between atoms: N_17  and  C_21
REMARK    4  A    between atoms: C_21  and  C_24
REMARK    5  A    between atoms: C_24  and  C_27
REMARK                            x       y       z     vdW  Elec       q    Type
REMARK                         _______ _______ _______ _____ _____    ______ ____
ROOT
ATOM      1  C   UNL     1     -10.050  54.806  50.893  0.00  0.00    +0.000 A 
ATOM      2  C   UNL     1     -11.367  55.346  51.329  0.00  0.00    +0.000 A 
ATOM      3  C   UNL     1      -9.754  54.718  49.588  0.00  0.00    +0.000 A 
ATOM      4  O   UNL     1     -11.569  55.384  52.545  0.00  0.00    +0.000 OA
ATOM      5  N   UNL     1     -12.276  55.798  50.380  0.00  0.00    +0.000 N 
ATOM      6  C   UNL     1     -10.715  55.188  48.580  0.00  0.00    +0.000 A 
ATOM      7  C   UNL     1     -11.967  55.702  48.977  0.00  0.00    +0.000 A 
ATOM      8  C   UNL     1     -10.377  55.137  47.214  0.00  0.00    +0.000 A 
ATOM      9  C   UNL     1     -12.855  56.124  47.971  0.00  0.00    +0.000 A 
ATOM     10  C   UNL     1     -11.254  55.602  46.240  0.00  0.00    +0.000 A 
ATOM     11  C   UNL     1     -12.494  56.092  46.619  0.00  0.00    +0.000 A 
ENDROOT
BRANCH   1  17
ATOM     12  S   UNL     1      -6.763  54.720  53.045  0.00  0.00    +0.000 S 
ATOM     13  O   UNL     1      -6.716  55.760  54.051  0.00  0.00    +0.000 OA
ATOM     14  O   UNL     1      -5.578  54.388  52.282  0.00  0.00    +0.000 OA
ATOM     15  N   UNL     1      -7.942  55.100  51.998  0.00  0.00    +0.000 N 
ATOM     16  C   UNL     1      -7.219  53.248  53.889  0.00  0.00    +0.000 A 
ATOM     17  C   UNL     1      -9.044  54.413  51.960  0.00  0.00    +0.000 C 
ATOM     18  C   UNL     1      -8.477  52.725  53.644  0.00  0.00    +0.000 A 
ATOM     19  C   UNL     1      -6.321  52.632  54.765  0.00  0.00    +0.000 A 
ATOM     20  N   UNL     1      -9.372  53.360  52.788  0.00  0.00    +0.000 N 
ATOM     21  C   UNL     1      -8.869  51.582  54.351  0.00  0.00    +0.000 A 
ATOM     22  C   UNL     1      -6.712  51.477  55.439  0.00  0.00    +0.000 A 
ATOM     23  C   UNL     1      -7.990  50.956  55.236  0.00  0.00    +0.000 A 
ATOM     24  H   UNL     1      -7.821  55.860  51.385  0.00  0.00    +0.000 HD
ATOM     25  H   UNL     1     -10.301  53.036  52.773  0.00  0.00    +0.000 HD
ENDBRANCH   1  17
BRANCH   3  26
ATOM     26  O   UNL     1      -8.557  54.230  49.092  0.00  0.00    +0.000 OA
ATOM     27  H   UNL     1      -8.554  53.476  48.537  0.00  0.00    +0.000 HD
ENDBRANCH   3  26
BRANCH   5  28
ATOM     28  C   UNL     1     -13.618  56.239  50.832  0.00  0.00    +0.000 C 
BRANCH  28  29
ATOM     29  C   UNL     1     -13.797  57.750  51.062  0.00  0.00    +0.000 C 
BRANCH  29  30
ATOM     30  C   UNL     1     -14.071  58.112  52.495  0.00  0.00    +0.000 C 
ATOM     31  C   UNL     1     -15.322  57.710  53.227  0.00  0.00    +0.000 C 
ATOM     32  C   UNL     1     -15.145  59.131  52.774  0.00  0.00    +0.000 C 
ENDBRANCH  29  30
ENDBRANCH  28  29
ENDBRANCH   5  28
TORSDOF 5
ENDMDL
MODEL 3
REMARK VINA RESULT:      -8.0      3.500      4.487
REMARK  Name = 338298
REMARK  5 active torsions:
REMARK  status: ('A' for Active; 'I' for Inactive)
REMARK    1  A    between atoms: C_6  and  C_10
REMARK    2  A    between atoms: C_14  and  O_18
REMARK    3  A    between atoms: N_17  and  C_21
REMARK    4  A    between atoms: C_21  and  C_24
REMARK    5  A    between atoms: C_24  and  C_27
REMARK                            x       y       z     vdW  Elec       q    Type
REMARK                         _______ _______ _______ _____ _____    ______ ____
ROOT
ATOM      1  C   UNL     1     -12.420  54.241  49.831  0.00  0.00    +0.000 A 
ATOM      2  C   UNL     1     -12.140  54.012  48.387  0.00  0.00    +0.000 A 
ATOM      3  C   UNL     1     -11.928  53.403  50.755  0.00  0.00    +0.000 A 
ATOM      4  O   UNL     1     -12.636  54.819  47.597  0.00  0.00    +0.000 OA
ATOM      5  N   UNL     1     -11.333  52.948  48.000  0.00  0.00    +0.000 N 
ATOM      6  C   UNL     1     -11.081  52.272  50.351  0.00  0.00    +0.000 A 
ATOM      7  C   UNL     1     -10.808  52.041  48.987  0.00  0.00    +0.000 A 
ATOM      8  C   UNL     1     -10.530  51.425  51.332  0.00  0.00    +0.000 A 
ATOM      9  C   UNL     1     -10.003  50.936  48.654  0.00  0.00    +0.000 A 
ATOM     10  C   UNL     1      -9.701  50.365  50.981  0.00  0.00    +0.000 A 
ATOM     11  C   UNL     1      -9.440  50.120  49.642  0.00  0.00    +0.000 A 
ENDROOT
BRANCH   1  17
ATOM     12  S   UNL     1     -15.322  56.483  51.241  0.00  0.00    +0.000 S 
ATOM     13  O   UNL     1     -15.275  56.634  52.680  0.00  0.00    +0.000 OA
ATOM     14  O   UNL     1     -16.590  56.282  50.569  0.00  0.00    +0.000 OA
ATOM     15  N   UNL     1     -14.344  55.253  50.842  0.00  0.00    +0.000 N 
ATOM     16  C   UNL     1     -14.654  57.965  50.574  0.00  0.00    +0.000 A 
ATOM     17  C   UNL     1     -13.223  55.468  50.223  0.00  0.00    +0.000 C 
ATOM     18  C   UNL     1     -13.421  57.895  49.950  0.00  0.00    +0.000 A 
ATOM     19  C   UNL     1     -15.369  59.163  50.668  0.00  0.00    +0.000 A 
ATOM     20  N   UNL     1     -12.709  56.702  49.884  0.00  0.00    +0.000 N 
ATOM     21  C   UNL     1     -12.857  59.080  49.463  0.00  0.00    +0.000 A 
ATOM     22  C   UNL     1     -14.810  60.330  50.151  0.00  0.00    +0.000 A 
ATOM     23  C   UNL     1     -13.550  60.289  49.554  0.00  0.00    +0.000 A 
ATOM     24  H   UNL     1     -14.604  54.332  51.072  0.00  0.00    +0.000 HD
ATOM     25  H   UNL     1     -11.775  56.741  49.574  0.00  0.00    +0.000 HD
ENDBRANCH   1  17
BRANCH   3  26
ATOM     26  O   UNL     1     -12.137  53.538  52.117  0.00  0.00    +0.000 OA
ATOM     27  H   UNL     1     -12.548  54.309  52.454  0.00  0.00    +0.000 HD
ENDBRANCH   3  26
BRANCH   5  28
ATOM     28  C   UNL     1     -11.151  52.681  46.553  0.00  0.00    +0.000 C 
BRANCH  28  29
ATOM     29  C   UNL     1     -10.262  53.675  45.783  0.00  0.00    +0.000 C 
BRANCH  29  30
ATOM     30  C   UNL     1      -8.975  54.000  46.487  0.00  0.00    +0.000 C 
ATOM     31  C   UNL     1      -8.687  55.338  47.112  0.00  0.00    +0.000 C 
ATOM     32  C   UNL     1      -8.025  54.960  45.817  0.00  0.00    +0.000 C 
ENDBRANCH  29  30
ENDBRANCH  28  29
ENDBRANCH   5  28
TORSDOF 5
ENDMDL
MODEL 4
REMARK VINA RESULT:      -8.0      3.180      7.126
REMARK  Name = 338298
REMARK  5 active torsions:
REMARK  status: ('A' for Active; 'I' for Inactive)
REMARK    1  A    between atoms: C_6  and  C_10
REMARK    2  A    between atoms: C_14  and  O_18
REMARK    3  A    between atoms: N_17  and  C_21
REMARK    4  A    between atoms: C_21  and  C_24
REMARK    5  A    between atoms: C_24  and  C_27
REMARK                            x       y       z     vdW  Elec       q    Type
REMARK                         _______ _______ _______ _____ _____    ______ ____
ROOT
ATOM      1  C   UNL     1     -10.204  55.169  50.852  0.00  0.00    +0.000 A 
ATOM      2  C   UNL     1      -9.745  55.142  49.436  0.00  0.00    +0.000 A 
ATOM      3  C   UNL     1     -11.432  55.614  51.156  0.00  0.00    +0.000 A 
ATOM      4  O   UNL     1      -8.599  54.731  49.239  0.00  0.00    +0.000 OA
ATOM      5  N   UNL     1     -10.608  55.542  48.423  0.00  0.00    +0.000 N 
ATOM      6  C   UNL     1     -12.346  56.045  50.088  0.00  0.00    +0.000 A 
ATOM      7  C   UNL     1     -11.926  56.026  48.742  0.00  0.00    +0.000 A 
ATOM      8  C   UNL     1     -13.650  56.466  50.412  0.00  0.00    +0.000 A 
ATOM      9  C   UNL     1     -12.835  56.463  47.761  0.00  0.00    +0.000 A 
ATOM     10  C   UNL     1     -14.547  56.851  49.421  0.00  0.00    +0.000 A 
ATOM     11  C   UNL     1     -14.138  56.852  48.096  0.00  0.00    +0.000 A 
ENDROOT
BRANCH   1  17
ATOM     12  S   UNL     1      -7.018  54.705  53.104  0.00  0.00    +0.000 S 
ATOM     13  O   UNL     1      -6.940  55.668  54.183  0.00  0.00    +0.000 OA
ATOM     14  O   UNL     1      -5.829  54.343  52.360  0.00  0.00    +0.000 OA
ATOM     15  N   UNL     1      -8.127  55.237  52.047  0.00  0.00    +0.000 N 
ATOM     16  C   UNL     1      -7.606  53.214  53.825  0.00  0.00    +0.000 A 
ATOM     17  C   UNL     1      -9.270  54.634  51.922  0.00  0.00    +0.000 C 
ATOM     18  C   UNL     1      -8.886  52.799  53.500  0.00  0.00    +0.000 A 
ATOM     19  C   UNL     1      -6.786  52.478  54.686  0.00  0.00    +0.000 A 
ATOM     20  N   UNL     1      -9.701  53.553  52.662  0.00  0.00    +0.000 N 
ATOM     21  C   UNL     1      -9.382  51.641  54.111  0.00  0.00    +0.000 A 
ATOM     22  C   UNL     1      -7.281  51.310  55.262  0.00  0.00    +0.000 A 
ATOM     23  C   UNL     1      -8.583  50.895  54.979  0.00  0.00    +0.000 A 
ATOM     24  H   UNL     1      -7.930  56.027  51.494  0.00  0.00    +0.000 HD
ATOM     25  H   UNL     1     -10.649  53.297  52.592  0.00  0.00    +0.000 HD
ENDBRANCH   1  17
BRANCH   3  26
ATOM     26  O   UNL     1     -11.943  55.676  52.441  0.00  0.00    +0.000 OA
ATOM     27  H   UNL     1     -11.715  56.391  53.001  0.00  0.00    +0.000 HD
ENDBRANCH   3  26
BRANCH   5  28
ATOM     28  C   UNL     1     -10.096  55.600  47.032  0.00  0.00    +0.000 C 
BRANCH  28  29
ATOM     29  C   UNL     1     -10.027  54.262  46.274  0.00  0.00    +0.000 C 
BRANCH  29  30
ATOM     30  C   UNL     1     -11.247  53.978  45.444  0.00  0.00    +0.000 C 
ATOM     31  C   UNL     1     -12.002  52.678  45.498  0.00  0.00    +0.000 C 
ATOM     32  C   UNL     1     -11.121  52.982  44.320  0.00  0.00    +0.000 C 
ENDBRANCH  29  30
ENDBRANCH  28  29
ENDBRANCH   5  28
TORSDOF 5
ENDMDL
MODEL 5
REMARK VINA RESULT:      -7.9      2.218      3.168
REMARK  Name = 338298
REMARK  5 active torsions:
REMARK  status: ('A' for Active; 'I' for Inactive)
REMARK    1  A    between atoms: C_6  and  C_10
REMARK    2  A    between atoms: C_14  and  O_18
REMARK    3  A    between atoms: N_17  and  C_21
REMARK    4  A    between atoms: C_21  and  C_24
REMARK    5  A    between atoms: C_24  and  C_27
REMARK                            x       y       z     vdW  Elec       q    Type
REMARK                         _______ _______ _______ _____ _____    ______ ____
ROOT
ATOM      1  C   UNL     1     -11.707  54.018  51.085  0.00  0.00    +0.000 A 
ATOM      2  C   UNL     1     -10.804  54.017  52.268  0.00  0.00    +0.000 A 
ATOM      3  C   UNL     1     -11.780  52.940  50.291  0.00  0.00    +0.000 A 
ATOM      4  O   UNL     1     -10.783  55.050  52.943  0.00  0.00    +0.000 OA
ATOM      5  N   UNL     1     -10.066  52.880  52.573  0.00  0.00    +0.000 N 
ATOM      6  C   UNL     1     -10.995  51.737  50.604  0.00  0.00    +0.000 A 
ATOM      7  C   UNL     1     -10.135  51.721  51.722  0.00  0.00    +0.000 A 
ATOM      8  C   UNL     1     -11.114  50.593  49.792  0.00  0.00    +0.000 A 
ATOM      9  C   UNL     1      -9.396  50.550  51.968  0.00  0.00    +0.000 A 
ATOM     10  C   UNL     1     -10.407  49.431  50.082  0.00  0.00    +0.000 A 
ATOM     11  C   UNL     1      -9.545  49.411  51.168  0.00  0.00    +0.000 A 
ENDROOT
BRANCH   1  17
ATOM     12  S   UNL     1     -13.371  57.085  49.279  0.00  0.00    +0.000 S 
ATOM     13  O   UNL     1     -14.484  56.710  48.432  0.00  0.00    +0.000 OA
ATOM     14  O   UNL     1     -12.419  58.083  48.835  0.00  0.00    +0.000 OA
ATOM     15  N   UNL     1     -12.547  55.735  49.638  0.00  0.00    +0.000 N 
ATOM     16  C   UNL     1     -14.077  57.718  50.758  0.00  0.00    +0.000 A 
ATOM     17  C   UNL     1     -12.571  55.241  50.839  0.00  0.00    +0.000 C 
ATOM     18  C   UNL     1     -13.939  56.968  51.913  0.00  0.00    +0.000 A 
ATOM     19  C   UNL     1     -14.739  58.949  50.751  0.00  0.00    +0.000 A 
ATOM     20  N   UNL     1     -13.297  55.733  51.903  0.00  0.00    +0.000 N 
ATOM     21  C   UNL     1     -14.543  57.438  53.085  0.00  0.00    +0.000 A 
ATOM     22  C   UNL     1     -15.309  59.421  51.931  0.00  0.00    +0.000 A 
ATOM     23  C   UNL     1     -15.217  58.661  53.097  0.00  0.00    +0.000 A 
ATOM     24  H   UNL     1     -12.023  55.285  48.937  0.00  0.00    +0.000 HD
ATOM     25  H   UNL     1     -13.366  55.173  52.709  0.00  0.00    +0.000 HD
ENDBRANCH   1  17
BRANCH   3  26
ATOM     26  O   UNL     1     -12.589  52.851  49.171  0.00  0.00    +0.000 OA
ATOM     27  H   UNL     1     -12.205  52.746  48.324  0.00  0.00    +0.000 HD
ENDBRANCH   3  26
BRANCH   5  28
ATOM     28  C   UNL     1      -9.100  52.937  53.697  0.00  0.00    +0.000 C 
BRANCH  28  29
ATOM     29  C   UNL     1      -7.707  53.508  53.371  0.00  0.00    +0.000 C 
BRANCH  29  30
ATOM     30  C   UNL     1      -7.392  54.781  54.104  0.00  0.00    +0.000 C 
ATOM     31  C   UNL     1      -7.064  56.076  53.413  0.00  0.00    +0.000 C 
ATOM     32  C   UNL     1      -5.971  55.282  54.071  0.00  0.00    +0.000 C 
ENDBRANCH  29  30
ENDBRANCH  28  29
ENDBRANCH   5  28
TORSDOF 5
ENDMDL
MODEL 6
REMARK VINA RESULT:      -7.7      2.960      4.826
REMARK  Name = 338298
REMARK  5 active torsions:
REMARK  status: ('A' for Active; 'I' for Inactive)
REMARK    1  A    between atoms: C_6  and  C_10
REMARK    2  A    between atoms: C_14  and  O_18
REMARK    3  A    between atoms: N_17  and  C_21
REMARK    4  A    between atoms: C_21  and  C_24
REMARK    5  A    between atoms: C_24  and  C_27
REMARK                            x       y       z     vdW  Elec       q    Type
REMARK                         _______ _______ _______ _____ _____    ______ ____
ROOT
ATOM      1  C   UNL     1     -11.483  55.907  48.853  0.00  0.00    +0.000 A 
ATOM      2  C   UNL     1     -10.476  55.283  49.756  0.00  0.00    +0.000 A 
ATOM      3  C   UNL     1     -11.536  55.561  47.559  0.00  0.00    +0.000 A 
ATOM      4  O   UNL     1     -10.483  55.662  50.930  0.00  0.00    +0.000 OA
ATOM      5  N   UNL     1      -9.617  54.309  49.263  0.00  0.00    +0.000 N 
ATOM      6  C   UNL     1     -10.623  54.537  47.031  0.00  0.00    +0.000 A 
ATOM      7  C   UNL     1      -9.664  53.937  47.872  0.00  0.00    +0.000 A 
ATOM      8  C   UNL     1     -10.718  54.145  45.681  0.00  0.00    +0.000 A 
ATOM      9  C   UNL     1      -8.806  52.973  47.312  0.00  0.00    +0.000 A 
ATOM     10  C   UNL     1      -9.889  53.158  45.161  0.00  0.00    +0.000 A 
ATOM     11  C   UNL     1      -8.931  52.575  45.976  0.00  0.00    +0.000 A 
ENDROOT
BRANCH   1  17
ATOM     12  S   UNL     1     -13.547  59.200  49.433  0.00  0.00    +0.000 S 
ATOM     13  O   UNL     1     -14.682  59.323  48.544  0.00  0.00    +0.000 OA
ATOM     14  O   UNL     1     -12.725  60.355  49.732  0.00  0.00    +0.000 OA
ATOM     15  N   UNL     1     -12.581  58.039  48.843  0.00  0.00    +0.000 N 
ATOM     16  C   UNL     1     -14.193  58.659  50.975  0.00  0.00    +0.000 A 
ATOM     17  C   UNL     1     -12.470  56.895  49.449  0.00  0.00    +0.000 C 
ATOM     18  C   UNL     1     -13.901  57.368  51.381  0.00  0.00    +0.000 A 
ATOM     19  C   UNL     1     -14.962  59.524  51.758  0.00  0.00    +0.000 A 
ATOM     20  N   UNL     1     -13.155  56.508  50.582  0.00  0.00    +0.000 N 
ATOM     21  C   UNL     1     -14.455  56.910  52.582  0.00  0.00    +0.000 A 
ATOM     22  C   UNL     1     -15.481  59.066  52.967  0.00  0.00    +0.000 A 
ATOM     23  C   UNL     1     -15.233  57.755  53.376  0.00  0.00    +0.000 A 
ATOM     24  H   UNL     1     -12.073  58.203  48.016  0.00  0.00    +0.000 HD
ATOM     25  H   UNL     1     -13.112  55.560  50.842  0.00  0.00    +0.000 HD
ENDBRANCH   1  17
BRANCH   3  26
ATOM     26  O   UNL     1     -12.436  56.088  46.649  0.00  0.00    +0.000 OA
ATOM     27  H   UNL     1     -12.232  56.085  45.734  0.00  0.00    +0.000 HD
ENDBRANCH   3  26
BRANCH   5  28
ATOM     28  C   UNL     1      -8.558  53.775  50.154  0.00  0.00    +0.000 C 
BRANCH  28  29
ATOM     29  C   UNL     1      -7.301  54.648  50.317  0.00  0.00    +0.000 C 
BRANCH  29  30
ATOM     30  C   UNL     1      -6.056  54.020  49.755  0.00  0.00    +0.000 C 
ATOM     31  C   UNL     1      -4.729  54.031  50.464  0.00  0.00    +0.000 C 
ATOM     32  C   UNL     1      -4.954  54.934  49.285  0.00  0.00    +0.000 C 
ENDBRANCH  29  30
ENDBRANCH  28  29
ENDBRANCH   5  28
TORSDOF 5
ENDMDL
MODEL 7
REMARK VINA RESULT:      -7.6      3.371      7.176
REMARK  Name = 338298
REMARK  5 active torsions:
REMARK  status: ('A' for Active; 'I' for Inactive)
REMARK    1  A    between atoms: C_6  and  C_10
REMARK    2  A    between atoms: C_14  and  O_18
REMARK    3  A    between atoms: N_17  and  C_21
REMARK    4  A    between atoms: C_21  and  C_24
REMARK    5  A    between atoms: C_24  and  C_27
REMARK                            x       y       z     vdW  Elec       q    Type
REMARK                         _______ _______ _______ _____ _____    ______ ____
ROOT
ATOM      1  C   UNL     1     -10.332  54.852  50.212  0.00  0.00    +0.000 A 
ATOM      2  C   UNL     1     -10.148  54.762  48.737  0.00  0.00    +0.000 A 
ATOM      3  C   UNL     1     -11.368  55.532  50.723  0.00  0.00    +0.000 A 
ATOM      4  O   UNL     1      -9.165  54.128  48.345  0.00  0.00    +0.000 OA
ATOM      5  N   UNL     1     -11.077  55.351  47.888  0.00  0.00    +0.000 N 
ATOM      6  C   UNL     1     -12.349  56.165  49.829  0.00  0.00    +0.000 A 
ATOM      7  C   UNL     1     -12.188  56.089  48.430  0.00  0.00    +0.000 A 
ATOM      8  C   UNL     1     -13.460  56.836  50.374  0.00  0.00    +0.000 A 
ATOM      9  C   UNL     1     -13.148  56.723  47.621  0.00  0.00    +0.000 A 
ATOM     10  C   UNL     1     -14.421  57.418  49.553  0.00  0.00    +0.000 A 
ATOM     11  C   UNL     1     -14.262  57.364  48.177  0.00  0.00    +0.000 A 
ENDROOT
BRANCH   1  17
ATOM     12  S   UNL     1      -8.430  51.922  52.011  0.00  0.00    +0.000 S 
ATOM     13  O   UNL     1      -7.404  51.320  51.186  0.00  0.00    +0.000 OA
ATOM     14  O   UNL     1      -9.287  51.091  52.832  0.00  0.00    +0.000 OA
ATOM     15  N   UNL     1      -9.377  52.816  51.046  0.00  0.00    +0.000 N 
ATOM     16  C   UNL     1      -7.593  52.995  53.121  0.00  0.00    +0.000 A 
ATOM     17  C   UNL     1      -9.352  54.114  51.106  0.00  0.00    +0.000 C 
ATOM     18  C   UNL     1      -7.759  54.359  52.952  0.00  0.00    +0.000 A 
ATOM     19  C   UNL     1      -6.802  52.469  54.147  0.00  0.00    +0.000 A 
ATOM     20  N   UNL     1      -8.529  54.871  51.913  0.00  0.00    +0.000 N 
ATOM     21  C   UNL     1      -7.054  55.223  53.798  0.00  0.00    +0.000 A 
ATOM     22  C   UNL     1      -6.131  53.340  55.003  0.00  0.00    +0.000 A 
ATOM     23  C   UNL     1      -6.252  54.718  54.824  0.00  0.00    +0.000 A 
ATOM     24  H   UNL     1      -9.978  52.370  50.406  0.00  0.00    +0.000 HD
ATOM     25  H   UNL     1      -8.485  55.840  51.742  0.00  0.00    +0.000 HD
ENDBRANCH   1  17
BRANCH   3  26
ATOM     26  O   UNL     1     -11.618  55.669  52.078  0.00  0.00    +0.000 OA
ATOM     27  H   UNL     1     -12.451  55.979  52.370  0.00  0.00    +0.000 HD
ENDBRANCH   3  26
BRANCH   5  28
ATOM     28  C   UNL     1     -10.819  55.334  46.428  0.00  0.00    +0.000 C 
BRANCH  28  29
ATOM     29  C   UNL     1     -11.495  54.203  45.630  0.00  0.00    +0.000 C 
BRANCH  29  30
ATOM     30  C   UNL     1     -10.563  53.081  45.270  0.00  0.00    +0.000 C 
ATOM     31  C   UNL     1      -9.237  53.290  44.591  0.00  0.00    +0.000 C 
ATOM     32  C   UNL     1     -10.398  52.740  43.812  0.00  0.00    +0.000 C 
ENDBRANCH  29  30
ENDBRANCH  28  29
ENDBRANCH   5  28
TORSDOF 5
ENDMDL
MODEL 8
REMARK VINA RESULT:      -7.5      2.808      8.052
REMARK  Name = 338298
REMARK  5 active torsions:
REMARK  status: ('A' for Active; 'I' for Inactive)
REMARK    1  A    between atoms: C_6  and  C_10
REMARK    2  A    between atoms: C_14  and  O_18
REMARK    3  A    between atoms: N_17  and  C_21
REMARK    4  A    between atoms: C_21  and  C_24
REMARK    5  A    between atoms: C_24  and  C_27
REMARK                            x       y       z     vdW  Elec       q    Type
REMARK                         _______ _______ _______ _____ _____    ______ ____
ROOT
ATOM      1  C   UNL     1      -9.787  53.998  50.554  0.00  0.00    +0.000 A 
ATOM      2  C   UNL     1     -10.985  54.413  51.334  0.00  0.00    +0.000 A 
ATOM      3  C   UNL     1      -9.726  54.230  49.235  0.00  0.00    +0.000 A 
ATOM      4  O   UNL     1     -10.971  54.154  52.540  0.00  0.00    +0.000 OA
ATOM      5  N   UNL     1     -12.025  55.080  50.698  0.00  0.00    +0.000 N 
ATOM      6  C   UNL     1     -10.827  54.928  48.556  0.00  0.00    +0.000 A 
ATOM      7  C   UNL     1     -11.969  55.328  49.281  0.00  0.00    +0.000 A 
ATOM      8  C   UNL     1     -10.734  55.210  47.180  0.00  0.00    +0.000 A 
ATOM      9  C   UNL     1     -13.000  55.979  48.580  0.00  0.00    +0.000 A 
ATOM     10  C   UNL     1     -11.746  55.896  46.517  0.00  0.00    +0.000 A 
ATOM     11  C   UNL     1     -12.880  56.277  47.217  0.00  0.00    +0.000 A 
ENDROOT
BRANCH   1  17
ATOM     12  S   UNL     1      -7.769  51.607  52.931  0.00  0.00    +0.000 S 
ATOM     13  O   UNL     1      -7.475  50.324  52.330  0.00  0.00    +0.000 OA
ATOM     14  O   UNL     1      -8.178  51.687  54.319  0.00  0.00    +0.000 OA
ATOM     15  N   UNL     1      -8.911  52.324  52.031  0.00  0.00    +0.000 N 
ATOM     16  C   UNL     1      -6.291  52.550  52.811  0.00  0.00    +0.000 A 
ATOM     17  C   UNL     1      -8.629  53.359  51.299  0.00  0.00    +0.000 C 
ATOM     18  C   UNL     1      -6.278  53.625  51.939  0.00  0.00    +0.000 A 
ATOM     19  C   UNL     1      -5.180  52.219  53.592  0.00  0.00    +0.000 A 
ATOM     20  N   UNL     1      -7.382  53.930  51.149  0.00  0.00    +0.000 N 
ATOM     21  C   UNL     1      -5.089  54.349  51.797  0.00  0.00    +0.000 A 
ATOM     22  C   UNL     1      -4.012  52.968  53.465  0.00  0.00    +0.000 A 
ATOM     23  C   UNL     1      -3.965  54.030  52.561  0.00  0.00    +0.000 A 
ATOM     24  H   UNL     1      -9.829  51.970  52.040  0.00  0.00    +0.000 HD
ATOM     25  H   UNL     1      -7.267  54.599  50.437  0.00  0.00    +0.000 HD
ENDBRANCH   1  17
BRANCH   3  26
ATOM     26  O   UNL     1      -8.655  53.879  48.431  0.00  0.00    +0.000 OA
ATOM     27  H   UNL     1      -8.357  52.991  48.410  0.00  0.00    +0.000 HD
ENDBRANCH   3  26
BRANCH   5  28
ATOM     28  C   UNL     1     -13.250  55.395  51.474  0.00  0.00    +0.000 C 
BRANCH  28  29
ATOM     29  C   UNL     1     -13.262  56.747  52.209  0.00  0.00    +0.000 C 
BRANCH  29  30
ATOM     30  C   UNL     1     -14.541  57.516  52.035  0.00  0.00    +0.000 C 
ATOM     31  C   UNL     1     -14.639  59.009  52.189  0.00  0.00    +0.000 C 
ATOM     32  C   UNL     1     -15.183  58.109  53.262  0.00  0.00    +0.000 C 
ENDBRANCH  29  30
ENDBRANCH  28  29
ENDBRANCH   5  28
TORSDOF 5
ENDMDL
MODEL 9
REMARK VINA RESULT:      -7.5      2.588      4.148
REMARK  Name = 338298
REMARK  5 active torsions:
REMARK  status: ('A' for Active; 'I' for Inactive)
REMARK    1  A    between atoms: C_6  and  C_10
REMARK    2  A    between atoms: C_14  and  O_18
REMARK    3  A    between atoms: N_17  and  C_21
REMARK    4  A    between atoms: C_21  and  C_24
REMARK    5  A    between atoms: C_24  and  C_27
REMARK                            x       y       z     vdW  Elec       q    Type
REMARK                         _______ _______ _______ _____ _____    ______ ____
ROOT
ATOM      1  C   UNL     1     -11.776  53.953  50.757  0.00  0.00    +0.000 A 
ATOM      2  C   UNL     1     -10.878  53.832  51.938  0.00  0.00    +0.000 A 
ATOM      3  C   UNL     1     -11.862  52.953  49.868  0.00  0.00    +0.000 A 
ATOM      4  O   UNL     1     -10.844  54.799  52.703  0.00  0.00    +0.000 OA
ATOM      5  N   UNL     1     -10.158  52.661  52.141  0.00  0.00    +0.000 N 
ATOM      6  C   UNL     1     -11.097  51.715  50.074  0.00  0.00    +0.000 A 
ATOM      7  C   UNL     1     -10.241  51.584  51.188  0.00  0.00    +0.000 A 
ATOM      8  C   UNL     1     -11.230  50.651  49.161  0.00  0.00    +0.000 A 
ATOM      9  C   UNL     1      -9.522  50.384  51.329  0.00  0.00    +0.000 A 
ATOM     10  C   UNL     1     -10.542  49.456  49.346  0.00  0.00    +0.000 A 
ATOM     11  C   UNL     1      -9.685  49.325  50.429  0.00  0.00    +0.000 A 
ENDROOT
BRANCH   1  17
ATOM     12  S   UNL     1     -13.389  57.194  49.228  0.00  0.00    +0.000 S 
ATOM     13  O   UNL     1     -14.508  56.912  48.353  0.00  0.00    +0.000 OA
ATOM     14  O   UNL     1     -12.422  58.212  48.873  0.00  0.00    +0.000 OA
ATOM     15  N   UNL     1     -12.588  55.804  49.467  0.00  0.00    +0.000 N 
ATOM     16  C   UNL     1     -14.086  57.705  50.758  0.00  0.00    +0.000 A 
ATOM     17  C   UNL     1     -12.620  55.208  50.620  0.00  0.00    +0.000 C 
ATOM     18  C   UNL     1     -13.960  56.855  51.843  0.00  0.00    +0.000 A 
ATOM     19  C   UNL     1     -14.729  58.943  50.860  0.00  0.00    +0.000 A 
ATOM     20  N   UNL     1     -13.339  55.616  51.724  0.00  0.00    +0.000 N 
ATOM     21  C   UNL     1     -14.557  57.230  53.052  0.00  0.00    +0.000 A 
ATOM     22  C   UNL     1     -15.291  59.319  52.077  0.00  0.00    +0.000 A 
ATOM     23  C   UNL     1     -15.211  58.458  53.173  0.00  0.00    +0.000 A 
ATOM     24  H   UNL     1     -12.071  55.409  48.728  0.00  0.00    +0.000 HD
ATOM     25  H   UNL     1     -13.417  54.988  52.478  0.00  0.00    +0.000 HD
ENDBRANCH   1  17
BRANCH   3  26
ATOM     26  O   UNL     1     -12.668  52.978  48.743  0.00  0.00    +0.000 OA
ATOM     27  H   UNL     1     -13.599  53.021  48.835  0.00  0.00    +0.000 HD
ENDBRANCH   3  26
BRANCH   5  28
ATOM     28  C   UNL     1      -9.196  52.601  53.268  0.00  0.00    +0.000 C 
BRANCH  28  29
ATOM     29  C   UNL     1      -9.657  51.826  54.517  0.00  0.00    +0.000 C 
BRANCH  29  30
ATOM     30  C   UNL     1      -8.837  50.600  54.799  0.00  0.00    +0.000 C 
ATOM     31  C   UNL     1      -9.144  49.635  55.913  0.00  0.00    +0.000 C 
ATOM     32  C   UNL     1      -7.990  50.587  56.046  0.00  0.00    +0.000 C 
ENDBRANCH  29  30
ENDBRANCH  28  29
ENDBRANCH   5  28
TORSDOF 5
ENDMDL
