MODEL 1
REMARK VINA RESULT:      -7.8      0.000      0.000
REMARK  Name = 338529
REMARK  9 active torsions:
REMARK  status: ('A' for Active; 'I' for Inactive)
REMARK    1  A    between atoms: C_6  and  C_10
REMARK    2  A    between atoms: C_14  and  O_18
REMARK    3  A    between atoms: N_17  and  C_21
REMARK    4  A    between atoms: C_21  and  C_24
REMARK    5  A    between atoms: C_24  and  C_27
REMARK    6  A    between atoms: C_27  and  C_28
REMARK    7  A    between atoms: C_28  and  O_30
REMARK    8  A    between atoms: O_30  and  C_31
REMARK    9  A    between atoms: C_31  and  C_32
REMARK                            x       y       z     vdW  Elec       q    Type
REMARK                         _______ _______ _______ _____ _____    ______ ____
ROOT
ATOM      1  C   UNL     1     -10.089  54.406  52.264  0.00  0.00    +0.000 A 
ATOM      2  C   UNL     1      -8.713  54.964  52.126  0.00  0.00    +0.000 A 
ATOM      3  C   UNL     1     -10.296  53.307  53.009  0.00  0.00    +0.000 A 
ATOM      4  O   UNL     1      -8.566  56.021  51.505  0.00  0.00    +0.000 OA
ATOM      5  N   UNL     1      -7.650  54.282  52.702  0.00  0.00    +0.000 N 
ATOM      6  C   UNL     1      -9.174  52.653  53.700  0.00  0.00    +0.000 A 
ATOM      7  C   UNL     1      -7.862  53.130  53.519  0.00  0.00    +0.000 A 
ATOM      8  C   UNL     1      -9.405  51.560  54.555  0.00  0.00    +0.000 A 
ATOM      9  C   UNL     1      -6.810  52.480  54.186  0.00  0.00    +0.000 A 
ATOM     10  C   UNL     1      -8.355  50.950  55.237  0.00  0.00    +0.000 A 
ATOM     11  C   UNL     1      -7.057  51.408  55.050  0.00  0.00    +0.000 A 
ENDROOT
BRANCH   1  17
ATOM     12  S   UNL     1     -12.428  55.924  49.496  0.00  0.00    +0.000 S 
ATOM     13  O   UNL     1     -13.334  54.955  48.920  0.00  0.00    +0.000 OA
ATOM     14  O   UNL     1     -11.769  56.903  48.655  0.00  0.00    +0.000 OA
ATOM     15  N   UNL     1     -11.288  55.115  50.312  0.00  0.00    +0.000 N 
ATOM     16  C   UNL     1     -13.384  56.848  50.646  0.00  0.00    +0.000 A 
ATOM     17  C   UNL     1     -11.242  55.143  51.610  0.00  0.00    +0.000 C 
ATOM     18  C   UNL     1     -13.114  56.679  51.994  0.00  0.00    +0.000 A 
ATOM     19  C   UNL     1     -14.370  57.727  50.190  0.00  0.00    +0.000 A 
ATOM     20  N   UNL     1     -12.138  55.790  52.433  0.00  0.00    +0.000 N 
ATOM     21  C   UNL     1     -13.910  57.364  52.917  0.00  0.00    +0.000 A 
ATOM     22  C   UNL     1     -15.130  58.432  51.121  0.00  0.00    +0.000 A 
ATOM     23  C   UNL     1     -14.907  58.243  52.484  0.00  0.00    +0.000 A 
ATOM     24  H   UNL     1     -10.617  54.592  49.816  0.00  0.00    +0.000 HD
ATOM     25  H   UNL     1     -12.083  55.612  53.399  0.00  0.00    +0.000 HD
ENDBRANCH   1  17
BRANCH   3  26
ATOM     26  O   UNL     1     -11.535  52.729  53.219  0.00  0.00    +0.000 OA
ATOM     27  H   UNL     1     -12.310  53.255  53.184  0.00  0.00    +0.000 HD
ENDBRANCH   3  26
BRANCH   5  28
ATOM     28  C   UNL     1      -6.313  54.841  52.496  0.00  0.00    +0.000 C 
BRANCH  28  29
ATOM     29  C   UNL     1      -5.537  54.186  51.352  0.00  0.00    +0.000 C 
BRANCH  29  30
ATOM     30  C   UNL     1      -5.647  54.909  50.006  0.00  0.00    +0.000 C 
BRANCH  30  31
ATOM     31  C   UNL     1      -6.662  54.212  49.129  0.00  0.00    +0.000 C 
ATOM     32  O   UNL     1      -7.040  53.058  49.282  0.00  0.00    +0.000 OA
BRANCH  31  33
ATOM     33  O   UNL     1      -7.016  55.020  48.091  0.00  0.00    +0.000 OA
BRANCH  33  34
ATOM     34  C   UNL     1      -8.409  55.369  48.054  0.00  0.00    +0.000 C 
ATOM     35  C   UNL     1      -8.884  55.215  46.620  0.00  0.00    +0.000 C 
ENDBRANCH  33  34
ENDBRANCH  31  33
ENDBRANCH  30  31
ENDBRANCH  29  30
ENDBRANCH  28  29
ENDBRANCH   5  28
TORSDOF 8
ENDMDL
MODEL 2
REMARK VINA RESULT:      -7.6      2.570      5.159
REMARK  Name = 338529
REMARK  9 active torsions:
REMARK  status: ('A' for Active; 'I' for Inactive)
REMARK    1  A    between atoms: C_6  and  C_10
REMARK    2  A    between atoms: C_14  and  O_18
REMARK    3  A    between atoms: N_17  and  C_21
REMARK    4  A    between atoms: C_21  and  C_24
REMARK    5  A    between atoms: C_24  and  C_27
REMARK    6  A    between atoms: C_27  and  C_28
REMARK    7  A    between atoms: C_28  and  O_30
REMARK    8  A    between atoms: O_30  and  C_31
REMARK    9  A    between atoms: C_31  and  C_32
REMARK                            x       y       z     vdW  Elec       q    Type
REMARK                         _______ _______ _______ _____ _____    ______ ____
ROOT
ATOM      1  C   UNL     1     -11.509  55.941  48.804  0.00  0.00    +0.000 A 
ATOM      2  C   UNL     1     -10.473  55.304  49.667  0.00  0.00    +0.000 A 
ATOM      3  C   UNL     1     -11.610  55.595  47.510  0.00  0.00    +0.000 A 
ATOM      4  O   UNL     1     -10.458  55.579  50.870  0.00  0.00    +0.000 OA
ATOM      5  N   UNL     1      -9.567  54.424  49.092  0.00  0.00    +0.000 N 
ATOM      6  C   UNL     1     -10.709  54.583  46.937  0.00  0.00    +0.000 A 
ATOM      7  C   UNL     1      -9.683  54.027  47.724  0.00  0.00    +0.000 A 
ATOM      8  C   UNL     1     -10.876  54.152  45.608  0.00  0.00    +0.000 A 
ATOM      9  C   UNL     1      -8.834  53.069  47.147  0.00  0.00    +0.000 A 
ATOM     10  C   UNL     1     -10.048  53.174  45.063  0.00  0.00    +0.000 A 
ATOM     11  C   UNL     1      -9.025  52.635  45.832  0.00  0.00    +0.000 A 
ENDROOT
BRANCH   1  17
ATOM     12  S   UNL     1     -13.551  59.232  49.469  0.00  0.00    +0.000 S 
ATOM     13  O   UNL     1     -14.698  59.377  48.600  0.00  0.00    +0.000 OA
ATOM     14  O   UNL     1     -12.718  60.375  49.783  0.00  0.00    +0.000 OA
ATOM     15  N   UNL     1     -12.602  58.075  48.850  0.00  0.00    +0.000 N 
ATOM     16  C   UNL     1     -14.184  58.666  51.008  0.00  0.00    +0.000 A 
ATOM     17  C   UNL     1     -12.479  56.921  49.435  0.00  0.00    +0.000 C 
ATOM     18  C   UNL     1     -13.891  57.367  51.389  0.00  0.00    +0.000 A 
ATOM     19  C   UNL     1     -14.947  59.521  51.808  0.00  0.00    +0.000 A 
ATOM     20  N   UNL     1     -13.141  56.524  50.576  0.00  0.00    +0.000 N 
ATOM     21  C   UNL     1     -14.442  56.889  52.583  0.00  0.00    +0.000 A 
ATOM     22  C   UNL     1     -15.458  59.043  53.013  0.00  0.00    +0.000 A 
ATOM     23  C   UNL     1     -15.213  57.725  53.396  0.00  0.00    +0.000 A 
ATOM     24  H   UNL     1     -12.109  58.249  48.015  0.00  0.00    +0.000 HD
ATOM     25  H   UNL     1     -13.079  55.576  50.834  0.00  0.00    +0.000 HD
ENDBRANCH   1  17
BRANCH   3  26
ATOM     26  O   UNL     1     -12.551  56.109  46.635  0.00  0.00    +0.000 OA
ATOM     27  H   UNL     1     -13.465  55.980  46.801  0.00  0.00    +0.000 HD
ENDBRANCH   3  26
BRANCH   5  28
ATOM     28  C   UNL     1      -8.537  53.864  49.968  0.00  0.00    +0.000 C 
BRANCH  28  29
ATOM     29  C   UNL     1      -7.192  54.587  49.883  0.00  0.00    +0.000 C 
BRANCH  29  30
ATOM     30  C   UNL     1      -6.563  54.933  51.237  0.00  0.00    +0.000 C 
BRANCH  30  31
ATOM     31  C   UNL     1      -7.200  56.185  51.795  0.00  0.00    +0.000 C 
ATOM     32  O   UNL     1      -7.604  57.122  51.119  0.00  0.00    +0.000 OA
BRANCH  31  33
ATOM     33  O   UNL     1      -7.168  56.160  53.156  0.00  0.00    +0.000 OA
BRANCH  33  34
ATOM     34  C   UNL     1      -7.404  54.867  53.735  0.00  0.00    +0.000 C 
ATOM     35  C   UNL     1      -6.366  54.652  54.823  0.00  0.00    +0.000 C 
ENDBRANCH  33  34
ENDBRANCH  31  33
ENDBRANCH  30  31
ENDBRANCH  29  30
ENDBRANCH  28  29
ENDBRANCH   5  28
TORSDOF 8
ENDMDL
MODEL 3
REMARK VINA RESULT:      -7.5      3.031      4.337
REMARK  Name = 338529
REMARK  9 active torsions:
REMARK  status: ('A' for Active; 'I' for Inactive)
REMARK    1  A    between atoms: C_6  and  C_10
REMARK    2  A    between atoms: C_14  and  O_18
REMARK    3  A    between atoms: N_17  and  C_21
REMARK    4  A    between atoms: C_21  and  C_24
REMARK    5  A    between atoms: C_24  and  C_27
REMARK    6  A    between atoms: C_27  and  C_28
REMARK    7  A    between atoms: C_28  and  O_30
REMARK    8  A    between atoms: O_30  and  C_31
REMARK    9  A    between atoms: C_31  and  C_32
REMARK                            x       y       z     vdW  Elec       q    Type
REMARK                         _______ _______ _______ _____ _____    ______ ____
ROOT
ATOM      1  C   UNL     1     -12.524  54.259  49.645  0.00  0.00    +0.000 A 
ATOM      2  C   UNL     1     -12.001  54.211  48.249  0.00  0.00    +0.000 A 
ATOM      3  C   UNL     1     -12.234  53.267  50.504  0.00  0.00    +0.000 A 
ATOM      4  O   UNL     1     -12.213  55.176  47.508  0.00  0.00    +0.000 OA
ATOM      5  N   UNL     1     -11.294  53.093  47.834  0.00  0.00    +0.000 N 
ATOM      6  C   UNL     1     -11.395  52.135  50.080  0.00  0.00    +0.000 A 
ATOM      7  C   UNL     1     -10.955  52.046  48.746  0.00  0.00    +0.000 A 
ATOM      8  C   UNL     1     -11.014  51.147  51.005  0.00  0.00    +0.000 A 
ATOM      9  C   UNL     1     -10.161  50.950  48.369  0.00  0.00    +0.000 A 
ATOM     10  C   UNL     1     -10.196  50.086  50.623  0.00  0.00    +0.000 A 
ATOM     11  C   UNL     1      -9.772  49.987  49.305  0.00  0.00    +0.000 A 
ENDROOT
BRANCH   1  17
ATOM     12  S   UNL     1     -15.397  56.454  51.182  0.00  0.00    +0.000 S 
ATOM     13  O   UNL     1     -15.323  56.565  52.621  0.00  0.00    +0.000 OA
ATOM     14  O   UNL     1     -16.676  56.275  50.524  0.00  0.00    +0.000 OA
ATOM     15  N   UNL     1     -14.425  55.243  50.725  0.00  0.00    +0.000 N 
ATOM     16  C   UNL     1     -14.743  57.959  50.551  0.00  0.00    +0.000 A 
ATOM     17  C   UNL     1     -13.319  55.473  50.083  0.00  0.00    +0.000 C 
ATOM     18  C   UNL     1     -13.523  57.909  49.896  0.00  0.00    +0.000 A 
ATOM     19  C   UNL     1     -15.454  59.152  50.707  0.00  0.00    +0.000 A 
ATOM     20  N   UNL     1     -12.821  56.716  49.760  0.00  0.00    +0.000 N 
ATOM     21  C   UNL     1     -12.967  59.111  49.445  0.00  0.00    +0.000 A 
ATOM     22  C   UNL     1     -14.905  60.335  50.219  0.00  0.00    +0.000 A 
ATOM     23  C   UNL     1     -13.657  60.316  49.597  0.00  0.00    +0.000 A 
ATOM     24  H   UNL     1     -14.676  54.315  50.938  0.00  0.00    +0.000 HD
ATOM     25  H   UNL     1     -11.903  56.764  49.409  0.00  0.00    +0.000 HD
ENDBRANCH   1  17
BRANCH   3  26
ATOM     26  O   UNL     1     -12.650  53.231  51.823  0.00  0.00    +0.000 OA
ATOM     27  H   UNL     1     -12.338  52.557  52.395  0.00  0.00    +0.000 HD
ENDBRANCH   3  26
BRANCH   5  28
ATOM     28  C   UNL     1     -10.845  53.070  46.441  0.00  0.00    +0.000 C 
BRANCH  28  29
ATOM     29  C   UNL     1      -9.358  53.383  46.263  0.00  0.00    +0.000 C 
BRANCH  29  30
ATOM     30  C   UNL     1      -9.012  54.876  46.267  0.00  0.00    +0.000 C 
BRANCH  30  31
ATOM     31  C   UNL     1      -8.425  55.264  47.605  0.00  0.00    +0.000 C 
ATOM     32  O   UNL     1      -8.988  55.961  48.437  0.00  0.00    +0.000 OA
BRANCH  31  33
ATOM     33  O   UNL     1      -7.145  54.809  47.703  0.00  0.00    +0.000 OA
BRANCH  33  34
ATOM     34  C   UNL     1      -6.731  54.472  49.036  0.00  0.00    +0.000 C 
ATOM     35  C   UNL     1      -7.302  53.104  49.365  0.00  0.00    +0.000 C 
ENDBRANCH  33  34
ENDBRANCH  31  33
ENDBRANCH  30  31
ENDBRANCH  29  30
ENDBRANCH  28  29
ENDBRANCH   5  28
TORSDOF 8
ENDMDL
MODEL 4
REMARK VINA RESULT:      -7.4      2.961      7.097
REMARK  Name = 338529
REMARK  9 active torsions:
REMARK  status: ('A' for Active; 'I' for Inactive)
REMARK    1  A    between atoms: C_6  and  C_10
REMARK    2  A    between atoms: C_14  and  O_18
REMARK    3  A    between atoms: N_17  and  C_21
REMARK    4  A    between atoms: C_21  and  C_24
REMARK    5  A    between atoms: C_24  and  C_27
REMARK    6  A    between atoms: C_27  and  C_28
REMARK    7  A    between atoms: C_28  and  O_30
REMARK    8  A    between atoms: O_30  and  C_31
REMARK    9  A    between atoms: C_31  and  C_32
REMARK                            x       y       z     vdW  Elec       q    Type
REMARK                         _______ _______ _______ _____ _____    ______ ____
ROOT
ATOM      1  C   UNL     1     -11.067  54.594  48.251  0.00  0.00    +0.000 A 
ATOM      2  C   UNL     1     -10.787  54.146  49.645  0.00  0.00    +0.000 A 
ATOM      3  C   UNL     1     -11.994  55.541  48.024  0.00  0.00    +0.000 A 
ATOM      4  O   UNL     1      -9.873  53.337  49.831  0.00  0.00    +0.000 OA
ATOM      5  N   UNL     1     -11.556  54.653  50.682  0.00  0.00    +0.000 N 
ATOM      6  C   UNL     1     -12.731  56.146  49.144  0.00  0.00    +0.000 A 
ATOM      7  C   UNL     1     -12.524  55.680  50.456  0.00  0.00    +0.000 A 
ATOM      8  C   UNL     1     -13.632  57.201  48.916  0.00  0.00    +0.000 A 
ATOM      9  C   UNL     1     -13.248  56.272  51.504  0.00  0.00    +0.000 A 
ATOM     10  C   UNL     1     -14.314  57.802  49.971  0.00  0.00    +0.000 A 
ATOM     11  C   UNL     1     -14.124  57.335  51.265  0.00  0.00    +0.000 A 
ENDROOT
BRANCH   1  17
ATOM     12  S   UNL     1      -8.042  53.922  45.835  0.00  0.00    +0.000 S 
ATOM     13  O   UNL     1      -7.055  53.025  46.393  0.00  0.00    +0.000 OA
ATOM     14  O   UNL     1      -7.630  55.092  45.086  0.00  0.00    +0.000 OA
ATOM     15  N   UNL     1      -9.005  54.413  47.041  0.00  0.00    +0.000 N 
ATOM     16  C   UNL     1      -8.996  52.953  44.722  0.00  0.00    +0.000 A 
ATOM     17  C   UNL     1     -10.239  54.015  47.120  0.00  0.00    +0.000 C 
ATOM     18  C   UNL     1     -10.309  52.679  45.066  0.00  0.00    +0.000 A 
ATOM     19  C   UNL     1      -8.430  52.497  43.528  0.00  0.00    +0.000 A 
ATOM     20  N   UNL     1     -10.855  53.129  46.264  0.00  0.00    +0.000 N 
ATOM     21  C   UNL     1     -11.057  51.857  44.215  0.00  0.00    +0.000 A 
ATOM     22  C   UNL     1      -9.199  51.711  42.672  0.00  0.00    +0.000 A 
ATOM     23  C   UNL     1     -10.508  51.383  43.020  0.00  0.00    +0.000 A 
ATOM     24  H   UNL     1      -8.649  55.024  47.726  0.00  0.00    +0.000 HD
ATOM     25  H   UNL     1     -11.744  52.791  46.517  0.00  0.00    +0.000 HD
ENDBRANCH   1  17
BRANCH   3  26
ATOM     26  O   UNL     1     -12.309  56.041  46.773  0.00  0.00    +0.000 OA
ATOM     27  H   UNL     1     -11.626  56.322  46.195  0.00  0.00    +0.000 HD
ENDBRANCH   3  26
BRANCH   5  28
ATOM     28  C   UNL     1     -11.278  54.144  52.026  0.00  0.00    +0.000 C 
BRANCH  28  29
ATOM     29  C   UNL     1     -10.293  55.003  52.822  0.00  0.00    +0.000 C 
BRANCH  29  30
ATOM     30  C   UNL     1      -8.930  54.350  53.072  0.00  0.00    +0.000 C 
BRANCH  30  31
ATOM     31  C   UNL     1      -7.827  55.356  52.834  0.00  0.00    +0.000 C 
ATOM     32  O   UNL     1      -7.297  56.029  53.709  0.00  0.00    +0.000 OA
BRANCH  31  33
ATOM     33  O   UNL     1      -7.582  55.475  51.500  0.00  0.00    +0.000 OA
BRANCH  33  34
ATOM     34  C   UNL     1      -7.588  56.824  51.009  0.00  0.00    +0.000 C 
ATOM     35  C   UNL     1      -8.654  56.919  49.933  0.00  0.00    +0.000 C 
ENDBRANCH  33  34
ENDBRANCH  31  33
ENDBRANCH  30  31
ENDBRANCH  29  30
ENDBRANCH  28  29
ENDBRANCH   5  28
TORSDOF 8
ENDMDL
MODEL 5
REMARK VINA RESULT:      -7.3      2.860      6.968
REMARK  Name = 338529
REMARK  9 active torsions:
REMARK  status: ('A' for Active; 'I' for Inactive)
REMARK    1  A    between atoms: C_6  and  C_10
REMARK    2  A    between atoms: C_14  and  O_18
REMARK    3  A    between atoms: N_17  and  C_21
REMARK    4  A    between atoms: C_21  and  C_24
REMARK    5  A    between atoms: C_24  and  C_27
REMARK    6  A    between atoms: C_27  and  C_28
REMARK    7  A    between atoms: C_28  and  O_30
REMARK    8  A    between atoms: O_30  and  C_31
REMARK    9  A    between atoms: C_31  and  C_32
REMARK                            x       y       z     vdW  Elec       q    Type
REMARK                         _______ _______ _______ _____ _____    ______ ____
ROOT
ATOM      1  C   UNL     1     -10.241  55.192  50.814  0.00  0.00    +0.000 A 
ATOM      2  C   UNL     1      -9.824  55.132  49.383  0.00  0.00    +0.000 A 
ATOM      3  C   UNL     1     -11.461  55.652  51.138  0.00  0.00    +0.000 A 
ATOM      4  O   UNL     1      -8.731  54.627  49.109  0.00  0.00    +0.000 OA
ATOM      5  N   UNL     1     -10.676  55.638  48.413  0.00  0.00    +0.000 N 
ATOM      6  C   UNL     1     -12.395  56.090  50.091  0.00  0.00    +0.000 A 
ATOM      7  C   UNL     1     -11.986  56.103  48.743  0.00  0.00    +0.000 A 
ATOM      8  C   UNL     1     -13.704  56.482  50.423  0.00  0.00    +0.000 A 
ATOM      9  C   UNL     1     -12.899  56.534  47.766  0.00  0.00    +0.000 A 
ATOM     10  C   UNL     1     -14.608  56.871  49.437  0.00  0.00    +0.000 A 
ATOM     11  C   UNL     1     -14.203  56.900  48.109  0.00  0.00    +0.000 A 
ENDROOT
BRANCH   1  17
ATOM     12  S   UNL     1      -7.028  54.756  53.034  0.00  0.00    +0.000 S 
ATOM     13  O   UNL     1      -6.943  55.718  54.110  0.00  0.00    +0.000 OA
ATOM     14  O   UNL     1      -5.847  54.395  52.276  0.00  0.00    +0.000 OA
ATOM     15  N   UNL     1      -8.153  55.274  51.991  0.00  0.00    +0.000 N 
ATOM     16  C   UNL     1      -7.597  53.264  53.769  0.00  0.00    +0.000 A 
ATOM     17  C   UNL     1      -9.292  54.660  51.871  0.00  0.00    +0.000 C 
ATOM     18  C   UNL     1      -8.877  52.836  53.456  0.00  0.00    +0.000 A 
ATOM     19  C   UNL     1      -6.763  52.544  54.629  0.00  0.00    +0.000 A 
ATOM     20  N   UNL     1      -9.700  53.571  52.608  0.00  0.00    +0.000 N 
ATOM     21  C   UNL     1      -9.360  51.683  54.084  0.00  0.00    +0.000 A 
ATOM     22  C   UNL     1      -7.244  51.377  55.217  0.00  0.00    +0.000 A 
ATOM     23  C   UNL     1      -8.545  50.952  54.953  0.00  0.00    +0.000 A 
ATOM     24  H   UNL     1      -7.971  56.068  51.439  0.00  0.00    +0.000 HD
ATOM     25  H   UNL     1     -10.641  53.291  52.530  0.00  0.00    +0.000 HD
ENDBRANCH   1  17
BRANCH   3  26
ATOM     26  O   UNL     1     -11.949  55.724  52.431  0.00  0.00    +0.000 OA
ATOM     27  H   UNL     1     -11.372  55.933  53.139  0.00  0.00    +0.000 HD
ENDBRANCH   3  26
BRANCH   5  28
ATOM     28  C   UNL     1     -10.202  55.604  47.028  0.00  0.00    +0.000 C 
BRANCH  28  29
ATOM     29  C   UNL     1     -10.332  54.233  46.363  0.00  0.00    +0.000 C 
BRANCH  29  30
ATOM     30  C   UNL     1     -11.636  54.017  45.588  0.00  0.00    +0.000 C 
BRANCH  30  31
ATOM     31  C   UNL     1     -11.520  52.785  44.719  0.00  0.00    +0.000 C 
ATOM     32  O   UNL     1     -12.044  51.707  44.966  0.00  0.00    +0.000 OA
BRANCH  31  33
ATOM     33  O   UNL     1     -10.670  53.023  43.682  0.00  0.00    +0.000 OA
BRANCH  33  34
ATOM     34  C   UNL     1      -9.834  51.911  43.328  0.00  0.00    +0.000 C 
ATOM     35  C   UNL     1      -8.648  52.455  42.551  0.00  0.00    +0.000 C 
ENDBRANCH  33  34
ENDBRANCH  31  33
ENDBRANCH  30  31
ENDBRANCH  29  30
ENDBRANCH  28  29
ENDBRANCH   5  28
TORSDOF 8
ENDMDL
MODEL 6
REMARK VINA RESULT:      -7.3      2.436      7.755
REMARK  Name = 338529
REMARK  9 active torsions:
REMARK  status: ('A' for Active; 'I' for Inactive)
REMARK    1  A    between atoms: C_6  and  C_10
REMARK    2  A    between atoms: C_14  and  O_18
REMARK    3  A    between atoms: N_17  and  C_21
REMARK    4  A    between atoms: C_21  and  C_24
REMARK    5  A    between atoms: C_24  and  C_27
REMARK    6  A    between atoms: C_27  and  C_28
REMARK    7  A    between atoms: C_28  and  O_30
REMARK    8  A    between atoms: O_30  and  C_31
REMARK    9  A    between atoms: C_31  and  C_32
REMARK                            x       y       z     vdW  Elec       q    Type
REMARK                         _______ _______ _______ _____ _____    ______ ____
ROOT
ATOM      1  C   UNL     1      -9.696  54.154  50.478  0.00  0.00    +0.000 A 
ATOM      2  C   UNL     1     -10.879  55.035  50.695  0.00  0.00    +0.000 A 
ATOM      3  C   UNL     1      -9.386  53.741  49.237  0.00  0.00    +0.000 A 
ATOM      4  O   UNL     1     -11.090  55.467  51.833  0.00  0.00    +0.000 OA
ATOM      5  N   UNL     1     -11.696  55.342  49.617  0.00  0.00    +0.000 N 
ATOM      6  C   UNL     1     -10.202  54.158  48.087  0.00  0.00    +0.000 A 
ATOM      7  C   UNL     1     -11.361  54.931  48.290  0.00  0.00    +0.000 A 
ATOM      8  C   UNL     1      -9.824  53.804  46.780  0.00  0.00    +0.000 A 
ATOM      9  C   UNL     1     -12.124  55.309  47.173  0.00  0.00    +0.000 A 
ATOM     10  C   UNL     1     -10.572  54.217  45.680  0.00  0.00    +0.000 A 
ATOM     11  C   UNL     1     -11.724  54.967  45.878  0.00  0.00    +0.000 A 
ENDROOT
BRANCH   1  17
ATOM     12  S   UNL     1      -6.610  54.033  52.907  0.00  0.00    +0.000 S 
ATOM     13  O   UNL     1      -6.524  55.183  53.779  0.00  0.00    +0.000 OA
ATOM     14  O   UNL     1      -5.415  53.484  52.297  0.00  0.00    +0.000 OA
ATOM     15  N   UNL     1      -7.660  54.382  51.725  0.00  0.00    +0.000 N 
ATOM     16  C   UNL     1      -7.284  52.739  53.886  0.00  0.00    +0.000 A 
ATOM     17  C   UNL     1      -8.822  53.802  51.666  0.00  0.00    +0.000 C 
ATOM     18  C   UNL     1      -8.568  52.310  53.595  0.00  0.00    +0.000 A 
ATOM     19  C   UNL     1      -6.525  52.169  54.912  0.00  0.00    +0.000 A 
ATOM     20  N   UNL     1      -9.316  52.896  52.579  0.00  0.00    +0.000 N 
ATOM     21  C   UNL     1      -9.135  51.323  54.408  0.00  0.00    +0.000 A 
ATOM     22  C   UNL     1      -7.089  51.160  55.690  0.00  0.00    +0.000 A 
ATOM     23  C   UNL     1      -8.397  50.744  55.445  0.00  0.00    +0.000 A 
ATOM     24  H   UNL     1      -7.415  55.044  51.040  0.00  0.00    +0.000 HD
ATOM     25  H   UNL     1     -10.265  52.645  52.506  0.00  0.00    +0.000 HD
ENDBRANCH   1  17
BRANCH   3  26
ATOM     26  O   UNL     1      -8.297  52.944  48.929  0.00  0.00    +0.000 OA
ATOM     27  H   UNL     1      -8.179  52.630  48.055  0.00  0.00    +0.000 HD
ENDBRANCH   3  26
BRANCH   5  28
ATOM     28  C   UNL     1     -12.874  56.167  49.890  0.00  0.00    +0.000 C 
BRANCH  28  29
ATOM     29  C   UNL     1     -12.677  57.651  49.575  0.00  0.00    +0.000 C 
BRANCH  29  30
ATOM     30  C   UNL     1     -13.897  58.344  48.958  0.00  0.00    +0.000 C 
BRANCH  30  31
ATOM     31  C   UNL     1     -14.205  59.614  49.718  0.00  0.00    +0.000 C 
ATOM     32  O   UNL     1     -14.592  60.656  49.206  0.00  0.00    +0.000 OA
BRANCH  31  33
ATOM     33  O   UNL     1     -13.894  59.457  51.035  0.00  0.00    +0.000 OA
BRANCH  33  34
ATOM     34  C   UNL     1     -15.022  59.208  51.889  0.00  0.00    +0.000 C 
ATOM     35  C   UNL     1     -14.634  58.104  52.855  0.00  0.00    +0.000 C 
ENDBRANCH  33  34
ENDBRANCH  31  33
ENDBRANCH  30  31
ENDBRANCH  29  30
ENDBRANCH  28  29
ENDBRANCH   5  28
TORSDOF 8
ENDMDL
MODEL 7
REMARK VINA RESULT:      -7.2      1.979      2.575
REMARK  Name = 338529
REMARK  9 active torsions:
REMARK  status: ('A' for Active; 'I' for Inactive)
REMARK    1  A    between atoms: C_6  and  C_10
REMARK    2  A    between atoms: C_14  and  O_18
REMARK    3  A    between atoms: N_17  and  C_21
REMARK    4  A    between atoms: C_21  and  C_24
REMARK    5  A    between atoms: C_24  and  C_27
REMARK    6  A    between atoms: C_27  and  C_28
REMARK    7  A    between atoms: C_28  and  O_30
REMARK    8  A    between atoms: O_30  and  C_31
REMARK    9  A    between atoms: C_31  and  C_32
REMARK                            x       y       z     vdW  Elec       q    Type
REMARK                         _______ _______ _______ _____ _____    ______ ____
ROOT
ATOM      1  C   UNL     1     -11.443  54.086  51.285  0.00  0.00    +0.000 A 
ATOM      2  C   UNL     1     -10.448  54.205  52.389  0.00  0.00    +0.000 A 
ATOM      3  C   UNL     1     -11.567  52.928  50.616  0.00  0.00    +0.000 A 
ATOM      4  O   UNL     1     -10.414  55.253  53.041  0.00  0.00    +0.000 OA
ATOM      5  N   UNL     1      -9.601  53.138  52.648  0.00  0.00    +0.000 N 
ATOM      6  C   UNL     1     -10.734  51.769  50.970  0.00  0.00    +0.000 A 
ATOM      7  C   UNL     1      -9.743  51.892  51.963  0.00  0.00    +0.000 A 
ATOM      8  C   UNL     1     -10.929  50.530  50.334  0.00  0.00    +0.000 A 
ATOM      9  C   UNL     1      -8.957  50.770  52.274  0.00  0.00    +0.000 A 
ATOM     10  C   UNL     1     -10.165  49.418  50.680  0.00  0.00    +0.000 A 
ATOM     11  C   UNL     1      -9.178  49.540  51.648  0.00  0.00    +0.000 A 
ENDROOT
BRANCH   1  17
ATOM     12  S   UNL     1     -13.219  57.006  49.346  0.00  0.00    +0.000 S 
ATOM     13  O   UNL     1     -14.317  56.558  48.519  0.00  0.00    +0.000 OA
ATOM     14  O   UNL     1     -12.303  58.021  48.865  0.00  0.00    +0.000 OA
ATOM     15  N   UNL     1     -12.350  55.707  49.768  0.00  0.00    +0.000 N 
ATOM     16  C   UNL     1     -13.955  57.677  50.795  0.00  0.00    +0.000 A 
ATOM     17  C   UNL     1     -12.348  55.267  50.991  0.00  0.00    +0.000 C 
ATOM     18  C   UNL     1     -13.787  56.986  51.984  0.00  0.00    +0.000 A 
ATOM     19  C   UNL     1     -14.670  58.875  50.728  0.00  0.00    +0.000 A 
ATOM     20  N   UNL     1     -13.083  55.787  52.033  0.00  0.00    +0.000 N 
ATOM     21  C   UNL     1     -14.421  57.479  53.129  0.00  0.00    +0.000 A 
ATOM     22  C   UNL     1     -15.264  59.375  51.884  0.00  0.00    +0.000 A 
ATOM     23  C   UNL     1     -15.148  58.673  53.082  0.00  0.00    +0.000 A 
ATOM     24  H   UNL     1     -11.814  55.241  49.086  0.00  0.00    +0.000 HD
ATOM     25  H   UNL     1     -13.112  55.274  52.873  0.00  0.00    +0.000 HD
ENDBRANCH   1  17
BRANCH   3  26
ATOM     26  O   UNL     1     -12.476  52.710  49.595  0.00  0.00    +0.000 OA
ATOM     27  H   UNL     1     -13.333  53.085  49.643  0.00  0.00    +0.000 HD
ENDBRANCH   3  26
BRANCH   5  28
ATOM     28  C   UNL     1      -8.607  53.321  53.707  0.00  0.00    +0.000 C 
BRANCH  28  29
ATOM     29  C   UNL     1      -7.445  54.236  53.316  0.00  0.00    +0.000 C 
BRANCH  29  30
ATOM     30  C   UNL     1      -6.457  53.626  52.317  0.00  0.00    +0.000 C 
BRANCH  30  31
ATOM     31  C   UNL     1      -6.306  54.539  51.121  0.00  0.00    +0.000 C 
ATOM     32  O   UNL     1      -5.338  54.552  50.373  0.00  0.00    +0.000 OA
BRANCH  31  33
ATOM     33  O   UNL     1      -7.354  55.406  51.060  0.00  0.00    +0.000 OA
BRANCH  33  34
ATOM     34  C   UNL     1      -8.033  55.433  49.795  0.00  0.00    +0.000 C 
ATOM     35  C   UNL     1      -8.863  56.703  49.744  0.00  0.00    +0.000 C 
ENDBRANCH  33  34
ENDBRANCH  31  33
ENDBRANCH  30  31
ENDBRANCH  29  30
ENDBRANCH  28  29
ENDBRANCH   5  28
TORSDOF 8
ENDMDL
MODEL 8
REMARK VINA RESULT:      -7.2      2.499      5.293
REMARK  Name = 338529
REMARK  9 active torsions:
REMARK  status: ('A' for Active; 'I' for Inactive)
REMARK    1  A    between atoms: C_6  and  C_10
REMARK    2  A    between atoms: C_14  and  O_18
REMARK    3  A    between atoms: N_17  and  C_21
REMARK    4  A    between atoms: C_21  and  C_24
REMARK    5  A    between atoms: C_24  and  C_27
REMARK    6  A    between atoms: C_27  and  C_28
REMARK    7  A    between atoms: C_28  and  O_30
REMARK    8  A    between atoms: O_30  and  C_31
REMARK    9  A    between atoms: C_31  and  C_32
REMARK                            x       y       z     vdW  Elec       q    Type
REMARK                         _______ _______ _______ _____ _____    ______ ____
ROOT
ATOM      1  C   UNL     1     -10.701  55.731  48.432  0.00  0.00    +0.000 A 
ATOM      2  C   UNL     1      -9.287  55.648  48.899  0.00  0.00    +0.000 A 
ATOM      3  C   UNL     1     -11.052  55.184  47.256  0.00  0.00    +0.000 A 
ATOM      4  O   UNL     1      -9.011  56.086  50.021  0.00  0.00    +0.000 OA
ATOM      5  N   UNL     1      -8.335  55.082  48.065  0.00  0.00    +0.000 N 
ATOM      6  C   UNL     1     -10.052  54.494  46.427  0.00  0.00    +0.000 A 
ATOM      7  C   UNL     1      -8.701  54.472  46.825  0.00  0.00    +0.000 A 
ATOM      8  C   UNL     1     -10.437  53.840  45.243  0.00  0.00    +0.000 A 
ATOM      9  C   UNL     1      -7.768  53.811  46.009  0.00  0.00    +0.000 A 
ATOM     10  C   UNL     1      -9.505  53.159  44.464  0.00  0.00    +0.000 A 
ATOM     11  C   UNL     1      -8.170  53.147  44.846  0.00  0.00    +0.000 A 
ENDROOT
BRANCH   1  17
ATOM     12  S   UNL     1     -13.311  56.209  51.330  0.00  0.00    +0.000 S 
ATOM     13  O   UNL     1     -12.698  56.479  52.611  0.00  0.00    +0.000 OA
ATOM     14  O   UNL     1     -14.450  55.317  51.234  0.00  0.00    +0.000 OA
ATOM     15  N   UNL     1     -12.159  55.658  50.334  0.00  0.00    +0.000 N 
ATOM     16  C   UNL     1     -13.869  57.763  50.727  0.00  0.00    +0.000 A 
ATOM     17  C   UNL     1     -11.730  56.376  49.339  0.00  0.00    +0.000 C 
ATOM     18  C   UNL     1     -13.217  58.304  49.632  0.00  0.00    +0.000 A 
ATOM     19  C   UNL     1     -14.946  58.407  51.343  0.00  0.00    +0.000 A 
ATOM     20  N   UNL     1     -12.138  57.657  49.038  0.00  0.00    +0.000 N 
ATOM     21  C   UNL     1     -13.615  59.568  49.185  0.00  0.00    +0.000 A 
ATOM     22  C   UNL     1     -15.356  59.648  50.863  0.00  0.00    +0.000 A 
ATOM     23  C   UNL     1     -14.685  60.233  49.791  0.00  0.00    +0.000 A 
ATOM     24  H   UNL     1     -11.777  54.763  50.485  0.00  0.00    +0.000 HD
ATOM     25  H   UNL     1     -11.630  58.149  48.353  0.00  0.00    +0.000 HD
ENDBRANCH   1  17
BRANCH   3  26
ATOM     26  O   UNL     1     -12.339  55.186  46.747  0.00  0.00    +0.000 OA
ATOM     27  H   UNL     1     -13.002  55.708  47.154  0.00  0.00    +0.000 HD
ENDBRANCH   3  26
BRANCH   5  28
ATOM     28  C   UNL     1      -6.953  55.069  48.545  0.00  0.00    +0.000 C 
BRANCH  28  29
ATOM     29  C   UNL     1      -6.617  53.871  49.436  0.00  0.00    +0.000 C 
BRANCH  29  30
ATOM     30  C   UNL     1      -6.109  54.234  50.835  0.00  0.00    +0.000 C 
BRANCH  30  31
ATOM     31  C   UNL     1      -6.986  53.588  51.884  0.00  0.00    +0.000 C 
ATOM     32  O   UNL     1      -8.077  53.080  51.663  0.00  0.00    +0.000 OA
BRANCH  31  33
ATOM     33  O   UNL     1      -6.431  53.745  53.117  0.00  0.00    +0.000 OA
BRANCH  33  34
ATOM     34  C   UNL     1      -6.322  55.108  53.555  0.00  0.00    +0.000 C 
ATOM     35  C   UNL     1      -7.665  55.514  54.135  0.00  0.00    +0.000 C 
ENDBRANCH  33  34
ENDBRANCH  31  33
ENDBRANCH  30  31
ENDBRANCH  29  30
ENDBRANCH  28  29
ENDBRANCH   5  28
TORSDOF 8
ENDMDL
MODEL 9
REMARK VINA RESULT:      -7.2      3.048      5.186
REMARK  Name = 338529
REMARK  9 active torsions:
REMARK  status: ('A' for Active; 'I' for Inactive)
REMARK    1  A    between atoms: C_6  and  C_10
REMARK    2  A    between atoms: C_14  and  O_18
REMARK    3  A    between atoms: N_17  and  C_21
REMARK    4  A    between atoms: C_21  and  C_24
REMARK    5  A    between atoms: C_24  and  C_27
REMARK    6  A    between atoms: C_27  and  C_28
REMARK    7  A    between atoms: C_28  and  O_30
REMARK    8  A    between atoms: O_30  and  C_31
REMARK    9  A    between atoms: C_31  and  C_32
REMARK                            x       y       z     vdW  Elec       q    Type
REMARK                         _______ _______ _______ _____ _____    ______ ____
ROOT
ATOM      1  C   UNL     1     -11.990  54.667  48.554  0.00  0.00    +0.000 A 
ATOM      2  C   UNL     1     -11.322  53.579  49.324  0.00  0.00    +0.000 A 
ATOM      3  C   UNL     1     -11.875  54.709  47.216  0.00  0.00    +0.000 A 
ATOM      4  O   UNL     1     -11.514  53.518  50.543  0.00  0.00    +0.000 OA
ATOM      5  N   UNL     1     -10.516  52.674  48.649  0.00  0.00    +0.000 N 
ATOM      6  C   UNL     1     -11.102  53.682  46.501  0.00  0.00    +0.000 A 
ATOM      7  C   UNL     1     -10.410  52.692  47.224  0.00  0.00    +0.000 A 
ATOM      8  C   UNL     1     -11.060  53.672  45.095  0.00  0.00    +0.000 A 
ATOM      9  C   UNL     1      -9.674  51.729  46.515  0.00  0.00    +0.000 A 
ATOM     10  C   UNL     1     -10.355  52.688  44.407  0.00  0.00    +0.000 A 
ATOM     11  C   UNL     1      -9.660  51.719  45.117  0.00  0.00    +0.000 A 
ENDROOT
BRANCH   1  17
ATOM     12  S   UNL     1     -14.811  56.147  50.853  0.00  0.00    +0.000 S 
ATOM     13  O   UNL     1     -14.501  56.064  52.263  0.00  0.00    +0.000 OA
ATOM     14  O   UNL     1     -16.151  55.864  50.378  0.00  0.00    +0.000 OA
ATOM     15  N   UNL     1     -13.784  55.179  50.060  0.00  0.00    +0.000 N 
ATOM     16  C   UNL     1     -14.481  57.809  50.387  0.00  0.00    +0.000 A 
ATOM     17  C   UNL     1     -12.848  55.668  49.303  0.00  0.00    +0.000 C 
ATOM     18  C   UNL     1     -13.399  58.044  49.555  0.00  0.00    +0.000 A 
ATOM     19  C   UNL     1     -15.304  58.842  50.844  0.00  0.00    +0.000 A 
ATOM     20  N   UNL     1     -12.581  57.007  49.118  0.00  0.00    +0.000 N 
ATOM     21  C   UNL     1     -13.092  59.369  49.229  0.00  0.00    +0.000 A 
ATOM     22  C   UNL     1     -15.008  60.154  50.481  0.00  0.00    +0.000 A 
ATOM     23  C   UNL     1     -13.898  60.418  49.681  0.00  0.00    +0.000 A 
ATOM     24  H   UNL     1     -13.870  54.203  50.152  0.00  0.00    +0.000 HD
ATOM     25  H   UNL     1     -11.753  57.247  48.643  0.00  0.00    +0.000 HD
ENDBRANCH   1  17
BRANCH   3  26
ATOM     26  O   UNL     1     -12.475  55.662  46.411  0.00  0.00    +0.000 OA
ATOM     27  H   UNL     1     -11.968  56.368  46.062  0.00  0.00    +0.000 HD
ENDBRANCH   3  26
BRANCH   5  28
ATOM     28  C   UNL     1      -9.841  51.655  49.455  0.00  0.00    +0.000 C 
BRANCH  28  29
ATOM     29  C   UNL     1      -8.571  52.153  50.147  0.00  0.00    +0.000 C 
BRANCH  29  30
ATOM     30  C   UNL     1      -7.411  52.480  49.201  0.00  0.00    +0.000 C 
BRANCH  30  31
ATOM     31  C   UNL     1      -7.262  53.978  49.068  0.00  0.00    +0.000 C 
ATOM     32  O   UNL     1      -7.969  54.802  49.635  0.00  0.00    +0.000 OA
BRANCH  31  33
ATOM     33  O   UNL     1      -6.298  54.273  48.153  0.00  0.00    +0.000 OA
BRANCH  33  34
ATOM     34  C   UNL     1      -6.481  53.653  46.871  0.00  0.00    +0.000 C 
ATOM     35  C   UNL     1      -7.369  54.563  46.042  0.00  0.00    +0.000 C 
ENDBRANCH  33  34
ENDBRANCH  31  33
ENDBRANCH  30  31
ENDBRANCH  29  30
ENDBRANCH  28  29
ENDBRANCH   5  28
TORSDOF 8
ENDMDL
