MODEL 1
REMARK VINA RESULT:      -8.6      0.000      0.000
REMARK  Name = 338168
REMARK  5 active torsions:
REMARK  status: ('A' for Active; 'I' for Inactive)
REMARK    1  A    between atoms: C_6  and  C_10
REMARK    2  A    between atoms: C_14  and  O_18
REMARK    3  A    between atoms: N_17  and  C_21
REMARK    4  A    between atoms: C_21  and  C_24
REMARK    5  A    between atoms: C_24  and  C_27
REMARK                            x       y       z     vdW  Elec       q    Type
REMARK                         _______ _______ _______ _____ _____    ______ ____
ROOT
ATOM      1  C   UNL     1      -9.990  54.542  52.362  0.00  0.00    +0.000 A 
ATOM      2  C   UNL     1      -8.597  55.051  52.253  0.00  0.00    +0.000 A 
ATOM      3  C   UNL     1     -10.244  53.409  53.037  0.00  0.00    +0.000 A 
ATOM      4  O   UNL     1      -8.400  56.002  51.494  0.00  0.00    +0.000 OA
ATOM      5  N   UNL     1      -7.601  54.464  53.033  0.00  0.00    +0.000 N 
ATOM      6  C   UNL     1      -9.165  52.697  53.730  0.00  0.00    +0.000 A 
ATOM      7  C   UNL     1      -7.861  53.235  53.743  0.00  0.00    +0.000 A 
ATOM      8  C   UNL     1      -9.445  51.506  54.423  0.00  0.00    +0.000 A 
ATOM      9  C   UNL     1      -6.870  52.546  54.464  0.00  0.00    +0.000 A 
ATOM     10  C   UNL     1      -8.454  50.869  55.147  0.00  0.00    +0.000 A 
ATOM     11  C   UNL     1      -7.169  51.379  55.178  0.00  0.00    +0.000 A 
ATOM     12  F   UNL     1      -8.743  49.757  55.836  0.00  0.00    +0.000 F 
ENDROOT
BRANCH   1  18
ATOM     13  S   UNL     1     -12.376  55.779  49.429  0.00  0.00    +0.000 S 
ATOM     14  O   UNL     1     -13.046  54.532  49.143  0.00  0.00    +0.000 OA
ATOM     15  O   UNL     1     -11.942  56.674  48.378  0.00  0.00    +0.000 OA
ATOM     16  N   UNL     1     -11.053  55.457  50.356  0.00  0.00    +0.000 N 
ATOM     17  C   UNL     1     -13.370  56.684  50.535  0.00  0.00    +0.000 A 
ATOM     18  C   UNL     1     -11.130  55.277  51.734  0.00  0.00    +0.000 C 
ATOM     19  C   UNL     1     -13.110  56.552  51.895  0.00  0.00    +0.000 A 
ATOM     20  C   UNL     1     -14.366  57.533  50.052  0.00  0.00    +0.000 A 
ATOM     21  N   UNL     1     -12.119  55.722  52.447  0.00  0.00    +0.000 N 
ATOM     22  C   UNL     1     -13.860  57.320  52.786  0.00  0.00    +0.000 A 
ATOM     23  C   UNL     1     -15.118  58.276  50.956  0.00  0.00    +0.000 A 
ATOM     24  C   UNL     1     -14.861  58.178  52.322  0.00  0.00    +0.000 A 
ATOM     25  H   UNL     1     -10.173  55.390  49.919  0.00  0.00    +0.000 HD
ATOM     26  H   UNL     1     -12.176  55.474  53.398  0.00  0.00    +0.000 HD
ENDBRANCH   1  18
BRANCH   3  27
ATOM     27  O   UNL     1     -11.499  52.837  53.173  0.00  0.00    +0.000 OA
ATOM     28  H   UNL     1     -12.092  53.159  53.824  0.00  0.00    +0.000 HD
ENDBRANCH   3  27
BRANCH   5  29
ATOM     29  C   UNL     1      -6.223  55.006  52.967  0.00  0.00    +0.000 C 
BRANCH  29  30
ATOM     30  C   UNL     1      -5.220  54.226  52.097  0.00  0.00    +0.000 C 
BRANCH  30  31
ATOM     31  C   UNL     1      -5.344  54.524  50.630  0.00  0.00    +0.000 C 
ATOM     32  C   UNL     1      -6.149  53.682  49.675  0.00  0.00    +0.000 C 
ATOM     33  C   UNL     1      -4.649  53.605  49.657  0.00  0.00    +0.000 C 
ENDBRANCH  30  31
ENDBRANCH  29  30
ENDBRANCH   5  29
TORSDOF 5
ENDMDL
MODEL 2
REMARK VINA RESULT:      -8.3      3.831      5.416
REMARK  Name = 338168
REMARK  5 active torsions:
REMARK  status: ('A' for Active; 'I' for Inactive)
REMARK    1  A    between atoms: C_6  and  C_10
REMARK    2  A    between atoms: C_14  and  O_18
REMARK    3  A    between atoms: N_17  and  C_21
REMARK    4  A    between atoms: C_21  and  C_24
REMARK    5  A    between atoms: C_24  and  C_27
REMARK                            x       y       z     vdW  Elec       q    Type
REMARK                         _______ _______ _______ _____ _____    ______ ____
ROOT
ATOM      1  C   UNL     1     -11.494  55.800  48.973  0.00  0.00    +0.000 A 
ATOM      2  C   UNL     1     -10.414  55.114  49.731  0.00  0.00    +0.000 A 
ATOM      3  C   UNL     1     -11.667  55.547  47.665  0.00  0.00    +0.000 A 
ATOM      4  O   UNL     1     -10.199  55.499  50.882  0.00  0.00    +0.000 OA
ATOM      5  N   UNL     1      -9.732  54.058  49.127  0.00  0.00    +0.000 N 
ATOM      6  C   UNL     1     -10.840  54.545  46.985  0.00  0.00    +0.000 A 
ATOM      7  C   UNL     1      -9.897  53.794  47.718  0.00  0.00    +0.000 A 
ATOM      8  C   UNL     1     -11.026  54.300  45.613  0.00  0.00    +0.000 A 
ATOM      9  C   UNL     1      -9.164  52.809  47.035  0.00  0.00    +0.000 A 
ATOM     10  C   UNL     1     -10.309  53.302  44.978  0.00  0.00    +0.000 A 
ATOM     11  C   UNL     1      -9.382  52.550  45.676  0.00  0.00    +0.000 A 
ATOM     12  F   UNL     1     -10.525  53.051  43.679  0.00  0.00    +0.000 F 
ENDROOT
BRANCH   1  18
ATOM     13  S   UNL     1     -13.528  59.186  49.445  0.00  0.00    +0.000 S 
ATOM     14  O   UNL     1     -14.518  59.001  48.409  0.00  0.00    +0.000 OA
ATOM     15  O   UNL     1     -12.894  60.466  49.678  0.00  0.00    +0.000 OA
ATOM     16  N   UNL     1     -12.319  58.092  49.211  0.00  0.00    +0.000 N 
ATOM     17  C   UNL     1     -14.213  58.638  50.949  0.00  0.00    +0.000 A 
ATOM     18  C   UNL     1     -12.408  56.773  49.645  0.00  0.00    +0.000 C 
ATOM     19  C   UNL     1     -13.965  57.325  51.332  0.00  0.00    +0.000 A 
ATOM     20  C   UNL     1     -14.953  59.513  51.744  0.00  0.00    +0.000 A 
ATOM     21  N   UNL     1     -13.222  56.396  50.584  0.00  0.00    +0.000 N 
ATOM     22  C   UNL     1     -14.457  56.895  52.564  0.00  0.00    +0.000 A 
ATOM     23  C   UNL     1     -15.454  59.062  52.961  0.00  0.00    +0.000 A 
ATOM     24  C   UNL     1     -15.200  57.757  53.377  0.00  0.00    +0.000 A 
ATOM     25  H   UNL     1     -11.501  58.383  48.745  0.00  0.00    +0.000 HD
ATOM     26  H   UNL     1     -13.320  55.436  50.777  0.00  0.00    +0.000 HD
ENDBRANCH   1  18
BRANCH   3  27
ATOM     27  O   UNL     1     -12.624  56.153  46.865  0.00  0.00    +0.000 OA
ATOM     28  H   UNL     1     -13.532  56.080  47.085  0.00  0.00    +0.000 HD
ENDBRANCH   3  27
BRANCH   5  29
ATOM     29  C   UNL     1      -8.694  53.337  49.901  0.00  0.00    +0.000 C 
BRANCH  29  30
ATOM     30  C   UNL     1      -7.478  54.166  50.355  0.00  0.00    +0.000 C 
BRANCH  30  31
ATOM     31  C   UNL     1      -6.785  54.878  49.228  0.00  0.00    +0.000 C 
ATOM     32  C   UNL     1      -5.847  54.197  48.266  0.00  0.00    +0.000 C 
ATOM     33  C   UNL     1      -5.297  55.098  49.335  0.00  0.00    +0.000 C 
ENDBRANCH  30  31
ENDBRANCH  29  30
ENDBRANCH   5  29
TORSDOF 5
ENDMDL
MODEL 3
REMARK VINA RESULT:      -8.3      3.859      7.416
REMARK  Name = 338168
REMARK  5 active torsions:
REMARK  status: ('A' for Active; 'I' for Inactive)
REMARK    1  A    between atoms: C_6  and  C_10
REMARK    2  A    between atoms: C_14  and  O_18
REMARK    3  A    between atoms: N_17  and  C_21
REMARK    4  A    between atoms: C_21  and  C_24
REMARK    5  A    between atoms: C_24  and  C_27
REMARK                            x       y       z     vdW  Elec       q    Type
REMARK                         _______ _______ _______ _____ _____    ______ ____
ROOT
ATOM      1  C   UNL     1     -10.170  55.102  50.832  0.00  0.00    +0.000 A 
ATOM      2  C   UNL     1      -9.815  55.158  49.390  0.00  0.00    +0.000 A 
ATOM      3  C   UNL     1     -11.359  55.564  51.254  0.00  0.00    +0.000 A 
ATOM      4  O   UNL     1      -8.656  54.870  49.081  0.00  0.00    +0.000 OA
ATOM      5  N   UNL     1     -10.802  55.492  48.464  0.00  0.00    +0.000 N 
ATOM      6  C   UNL     1     -12.345  56.066  50.292  0.00  0.00    +0.000 A 
ATOM      7  C   UNL     1     -12.074  56.009  48.909  0.00  0.00    +0.000 A 
ATOM      8  C   UNL     1     -13.582  56.557  50.751  0.00  0.00    +0.000 A 
ATOM      9  C   UNL     1     -13.070  56.454  48.022  0.00  0.00    +0.000 A 
ATOM     10  C   UNL     1     -14.551  56.959  49.850  0.00  0.00    +0.000 A 
ATOM     11  C   UNL     1     -14.309  56.908  48.489  0.00  0.00    +0.000 A 
ATOM     12  F   UNL     1     -15.739  57.386  50.298  0.00  0.00    +0.000 F 
ENDROOT
BRANCH   1  18
ATOM     13  S   UNL     1      -6.879  54.891  53.057  0.00  0.00    +0.000 S 
ATOM     14  O   UNL     1      -7.150  55.984  53.964  0.00  0.00    +0.000 OA
ATOM     15  O   UNL     1      -5.561  54.663  52.505  0.00  0.00    +0.000 OA
ATOM     16  N   UNL     1      -7.917  55.004  51.783  0.00  0.00    +0.000 N 
ATOM     17  C   UNL     1      -7.411  53.417  53.816  0.00  0.00    +0.000 A 
ATOM     18  C   UNL     1      -9.223  54.529  51.837  0.00  0.00    +0.000 C 
ATOM     19  C   UNL     1      -8.697  52.971  53.531  0.00  0.00    +0.000 A 
ATOM     20  C   UNL     1      -6.549  52.706  54.651  0.00  0.00    +0.000 A 
ATOM     21  N   UNL     1      -9.610  53.633  52.694  0.00  0.00    +0.000 N 
ATOM     22  C   UNL     1      -9.110  51.759  54.084  0.00  0.00    +0.000 A 
ATOM     23  C   UNL     1      -6.985  51.510  55.212  0.00  0.00    +0.000 A 
ATOM     24  C   UNL     1      -8.261  51.030  54.923  0.00  0.00    +0.000 A 
ATOM     25  H   UNL     1      -7.600  55.425  50.951  0.00  0.00    +0.000 HD
ATOM     26  H   UNL     1     -10.568  53.412  52.758  0.00  0.00    +0.000 HD
ENDBRANCH   1  18
BRANCH   3  27
ATOM     27  O   UNL     1     -11.774  55.582  52.576  0.00  0.00    +0.000 OA
ATOM     28  H   UNL     1     -11.253  56.014  53.225  0.00  0.00    +0.000 HD
ENDBRANCH   3  27
BRANCH   5  29
ATOM     29  C   UNL     1     -10.464  55.495  47.021  0.00  0.00    +0.000 C 
BRANCH  29  30
ATOM     30  C   UNL     1     -10.303  54.118  46.351  0.00  0.00    +0.000 C 
BRANCH  30  31
ATOM     31  C   UNL     1     -11.283  53.879  45.237  0.00  0.00    +0.000 C 
ATOM     32  C   UNL     1     -12.044  52.591  45.061  0.00  0.00    +0.000 C 
ATOM     33  C   UNL     1     -10.896  52.912  44.147  0.00  0.00    +0.000 C 
ENDBRANCH  30  31
ENDBRANCH  29  30
ENDBRANCH   5  29
TORSDOF 5
ENDMDL
MODEL 4
REMARK VINA RESULT:      -8.2      3.992      5.832
REMARK  Name = 338168
REMARK  5 active torsions:
REMARK  status: ('A' for Active; 'I' for Inactive)
REMARK    1  A    between atoms: C_6  and  C_10
REMARK    2  A    between atoms: C_14  and  O_18
REMARK    3  A    between atoms: N_17  and  C_21
REMARK    4  A    between atoms: C_21  and  C_24
REMARK    5  A    between atoms: C_24  and  C_27
REMARK                            x       y       z     vdW  Elec       q    Type
REMARK                         _______ _______ _______ _____ _____    ______ ____
ROOT
ATOM      1  C   UNL     1     -11.513  55.854  48.898  0.00  0.00    +0.000 A 
ATOM      2  C   UNL     1     -10.374  55.216  49.609  0.00  0.00    +0.000 A 
ATOM      3  C   UNL     1     -11.749  55.568  47.606  0.00  0.00    +0.000 A 
ATOM      4  O   UNL     1     -10.109  55.631  50.740  0.00  0.00    +0.000 OA
ATOM      5  N   UNL     1      -9.693  54.168  48.990  0.00  0.00    +0.000 N 
ATOM      6  C   UNL     1     -10.929  54.577  46.902  0.00  0.00    +0.000 A 
ATOM      7  C   UNL     1      -9.926  53.870  47.597  0.00  0.00    +0.000 A 
ATOM      8  C   UNL     1     -11.181  54.297  45.547  0.00  0.00    +0.000 A 
ATOM      9  C   UNL     1      -9.200  52.892  46.895  0.00  0.00    +0.000 A 
ATOM     10  C   UNL     1     -10.469  53.308  44.893  0.00  0.00    +0.000 A 
ATOM     11  C   UNL     1      -9.483  52.599  45.555  0.00  0.00    +0.000 A 
ATOM     12  F   UNL     1     -10.746  53.023  43.614  0.00  0.00    +0.000 F 
ENDROOT
BRANCH   1  18
ATOM     13  S   UNL     1     -13.527  59.237  49.468  0.00  0.00    +0.000 S 
ATOM     14  O   UNL     1     -14.523  59.084  48.432  0.00  0.00    +0.000 OA
ATOM     15  O   UNL     1     -12.886  60.507  49.733  0.00  0.00    +0.000 OA
ATOM     16  N   UNL     1     -12.325  58.143  49.200  0.00  0.00    +0.000 N 
ATOM     17  C   UNL     1     -14.209  58.652  50.960  0.00  0.00    +0.000 A 
ATOM     18  C   UNL     1     -12.419  56.813  49.600  0.00  0.00    +0.000 C 
ATOM     19  C   UNL     1     -13.967  57.328  51.307  0.00  0.00    +0.000 A 
ATOM     20  C   UNL     1     -14.941  59.510  51.781  0.00  0.00    +0.000 A 
ATOM     21  N   UNL     1     -13.231  56.416  50.531  0.00  0.00    +0.000 N 
ATOM     22  C   UNL     1     -14.455  56.868  52.530  0.00  0.00    +0.000 A 
ATOM     23  C   UNL     1     -15.440  59.029  52.988  0.00  0.00    +0.000 A 
ATOM     24  C   UNL     1     -15.191  57.712  53.368  0.00  0.00    +0.000 A 
ATOM     25  H   UNL     1     -11.508  58.441  48.738  0.00  0.00    +0.000 HD
ATOM     26  H   UNL     1     -13.334  55.451  50.699  0.00  0.00    +0.000 HD
ENDBRANCH   1  18
BRANCH   3  27
ATOM     27  O   UNL     1     -12.765  56.128  46.848  0.00  0.00    +0.000 OA
ATOM     28  H   UNL     1     -13.272  56.836  47.194  0.00  0.00    +0.000 HD
ENDBRANCH   3  27
BRANCH   5  29
ATOM     29  C   UNL     1      -8.593  53.495  49.720  0.00  0.00    +0.000 C 
BRANCH  29  30
ATOM     30  C   UNL     1      -8.997  52.349  50.666  0.00  0.00    +0.000 C 
BRANCH  30  31
ATOM     31  C   UNL     1     -10.347  51.767  50.356  0.00  0.00    +0.000 C 
ATOM     32  C   UNL     1     -11.553  51.947  51.240  0.00  0.00    +0.000 C 
ATOM     33  C   UNL     1     -10.840  50.625  51.208  0.00  0.00    +0.000 C 
ENDBRANCH  30  31
ENDBRANCH  29  30
ENDBRANCH   5  29
TORSDOF 5
ENDMDL
MODEL 5
REMARK VINA RESULT:      -8.2      3.683      7.279
REMARK  Name = 338168
REMARK  5 active torsions:
REMARK  status: ('A' for Active; 'I' for Inactive)
REMARK    1  A    between atoms: C_6  and  C_10
REMARK    2  A    between atoms: C_14  and  O_18
REMARK    3  A    between atoms: N_17  and  C_21
REMARK    4  A    between atoms: C_21  and  C_24
REMARK    5  A    between atoms: C_24  and  C_27
REMARK                            x       y       z     vdW  Elec       q    Type
REMARK                         _______ _______ _______ _____ _____    ______ ____
ROOT
ATOM      1  C   UNL     1     -10.182  55.433  50.468  0.00  0.00    +0.000 A 
ATOM      2  C   UNL     1     -10.339  55.676  49.010  0.00  0.00    +0.000 A 
ATOM      3  C   UNL     1     -11.221  55.620  51.300  0.00  0.00    +0.000 A 
ATOM      4  O   UNL     1      -9.320  55.642  48.318  0.00  0.00    +0.000 OA
ATOM      5  N   UNL     1     -11.618  55.889  48.495  0.00  0.00    +0.000 N 
ATOM      6  C   UNL     1     -12.535  56.002  50.775  0.00  0.00    +0.000 A 
ATOM      7  C   UNL     1     -12.733  56.113  49.383  0.00  0.00    +0.000 A 
ATOM      8  C   UNL     1     -13.609  56.205  51.660  0.00  0.00    +0.000 A 
ATOM      9  C   UNL     1     -14.023  56.430  48.922  0.00  0.00    +0.000 A 
ATOM     10  C   UNL     1     -14.873  56.487  51.172  0.00  0.00    +0.000 A 
ATOM     11  C   UNL     1     -15.092  56.597  49.811  0.00  0.00    +0.000 A 
ATOM     12  F   UNL     1     -15.896  56.638  52.024  0.00  0.00    +0.000 F 
ENDROOT
BRANCH   1  18
ATOM     13  S   UNL     1      -6.604  53.694  50.477  0.00  0.00    +0.000 S 
ATOM     14  O   UNL     1      -5.889  54.648  49.660  0.00  0.00    +0.000 OA
ATOM     15  O   UNL     1      -6.416  52.267  50.331  0.00  0.00    +0.000 OA
ATOM     16  N   UNL     1      -8.219  53.980  50.315  0.00  0.00    +0.000 N 
ATOM     17  C   UNL     1      -6.338  54.108  52.147  0.00  0.00    +0.000 A 
ATOM     18  C   UNL     1      -8.879  54.970  51.036  0.00  0.00    +0.000 C 
ATOM     19  C   UNL     1      -7.275  54.927  52.768  0.00  0.00    +0.000 A 
ATOM     20  C   UNL     1      -5.233  53.599  52.829  0.00  0.00    +0.000 A 
ATOM     21  N   UNL     1      -8.412  55.465  52.142  0.00  0.00    +0.000 N 
ATOM     22  C   UNL     1      -7.104  55.213  54.122  0.00  0.00    +0.000 A 
ATOM     23  C   UNL     1      -5.066  53.912  54.175  0.00  0.00    +0.000 A 
ATOM     24  C   UNL     1      -6.005  54.711  54.825  0.00  0.00    +0.000 A 
ATOM     25  H   UNL     1      -8.736  53.429  49.685  0.00  0.00    +0.000 HD
ATOM     26  H   UNL     1      -8.866  56.237  52.552  0.00  0.00    +0.000 HD
ENDBRANCH   1  18
BRANCH   3  27
ATOM     27  O   UNL     1     -11.171  55.448  52.675  0.00  0.00    +0.000 OA
ATOM     28  H   UNL     1     -11.898  55.708  53.206  0.00  0.00    +0.000 HD
ENDBRANCH   3  27
BRANCH   5  29
ATOM     29  C   UNL     1     -11.782  56.078  47.034  0.00  0.00    +0.000 C 
BRANCH  29  30
ATOM     30  C   UNL     1     -12.081  54.813  46.208  0.00  0.00    +0.000 C 
BRANCH  30  31
ATOM     31  C   UNL     1     -10.859  54.212  45.573  0.00  0.00    +0.000 C 
ATOM     32  C   UNL     1     -10.911  53.109  44.549  0.00  0.00    +0.000 C 
ATOM     33  C   UNL     1     -10.479  52.805  45.956  0.00  0.00    +0.000 C 
ENDBRANCH  30  31
ENDBRANCH  29  30
ENDBRANCH   5  29
TORSDOF 5
ENDMDL
MODEL 6
REMARK VINA RESULT:      -8.0      3.522      7.955
REMARK  Name = 338168
REMARK  5 active torsions:
REMARK  status: ('A' for Active; 'I' for Inactive)
REMARK    1  A    between atoms: C_6  and  C_10
REMARK    2  A    between atoms: C_14  and  O_18
REMARK    3  A    between atoms: N_17  and  C_21
REMARK    4  A    between atoms: C_21  and  C_24
REMARK    5  A    between atoms: C_24  and  C_27
REMARK                            x       y       z     vdW  Elec       q    Type
REMARK                         _______ _______ _______ _____ _____    ______ ____
ROOT
ATOM      1  C   UNL     1      -9.975  54.427  50.705  0.00  0.00    +0.000 A 
ATOM      2  C   UNL     1     -11.105  55.351  50.984  0.00  0.00    +0.000 A 
ATOM      3  C   UNL     1      -9.764  53.975  49.457  0.00  0.00    +0.000 A 
ATOM      4  O   UNL     1     -11.347  55.608  52.166  0.00  0.00    +0.000 OA
ATOM      5  N   UNL     1     -11.804  55.907  49.913  0.00  0.00    +0.000 N 
ATOM      6  C   UNL     1     -10.604  54.437  48.347  0.00  0.00    +0.000 A 
ATOM      7  C   UNL     1     -11.599  55.411  48.573  0.00  0.00    +0.000 A 
ATOM      8  C   UNL     1     -10.378  53.945  47.048  0.00  0.00    +0.000 A 
ATOM      9  C   UNL     1     -12.344  55.862  47.470  0.00  0.00    +0.000 A 
ATOM     10  C   UNL     1     -11.109  54.433  45.980  0.00  0.00    +0.000 A 
ATOM     11  C   UNL     1     -12.087  55.390  46.177  0.00  0.00    +0.000 A 
ATOM     12  F   UNL     1     -10.856  53.986  44.742  0.00  0.00    +0.000 F 
ENDROOT
BRANCH   1  18
ATOM     13  S   UNL     1      -6.756  54.543  53.040  0.00  0.00    +0.000 S 
ATOM     14  O   UNL     1      -7.082  55.719  53.814  0.00  0.00    +0.000 OA
ATOM     15  O   UNL     1      -5.416  54.291  52.556  0.00  0.00    +0.000 OA
ATOM     16  N   UNL     1      -7.753  54.491  51.729  0.00  0.00    +0.000 N 
ATOM     17  C   UNL     1      -7.280  53.146  53.937  0.00  0.00    +0.000 A 
ATOM     18  C   UNL     1      -9.050  53.990  51.794  0.00  0.00    +0.000 C 
ATOM     19  C   UNL     1      -8.545  52.638  53.663  0.00  0.00    +0.000 A 
ATOM     20  C   UNL     1      -6.431  52.551  54.871  0.00  0.00    +0.000 A 
ATOM     21  N   UNL     1      -9.445  53.182  52.731  0.00  0.00    +0.000 N 
ATOM     22  C   UNL     1      -8.949  51.482  54.331  0.00  0.00    +0.000 A 
ATOM     23  C   UNL     1      -6.858  51.411  55.544  0.00  0.00    +0.000 A 
ATOM     24  C   UNL     1      -8.112  50.870  55.269  0.00  0.00    +0.000 A 
ATOM     25  H   UNL     1      -7.419  54.827  50.867  0.00  0.00    +0.000 HD
ATOM     26  H   UNL     1     -10.399  52.944  52.789  0.00  0.00    +0.000 HD
ENDBRANCH   1  18
BRANCH   3  27
ATOM     27  O   UNL     1      -8.758  53.091  49.098  0.00  0.00    +0.000 OA
ATOM     28  H   UNL     1      -8.232  52.687  49.760  0.00  0.00    +0.000 HD
ENDBRANCH   3  27
BRANCH   5  29
ATOM     29  C   UNL     1     -12.896  56.870  50.189  0.00  0.00    +0.000 C 
BRANCH  29  30
ATOM     30  C   UNL     1     -14.270  56.269  50.537  0.00  0.00    +0.000 C 
BRANCH  30  31
ATOM     31  C   UNL     1     -15.200  57.248  51.197  0.00  0.00    +0.000 C 
ATOM     32  C   UNL     1     -14.760  58.238  52.243  0.00  0.00    +0.000 C 
ATOM     33  C   UNL     1     -15.552  57.027  52.646  0.00  0.00    +0.000 C 
ENDBRANCH  30  31
ENDBRANCH  29  30
ENDBRANCH   5  29
TORSDOF 5
ENDMDL
MODEL 7
REMARK VINA RESULT:      -8.0      3.243      4.331
REMARK  Name = 338168
REMARK  5 active torsions:
REMARK  status: ('A' for Active; 'I' for Inactive)
REMARK    1  A    between atoms: C_6  and  C_10
REMARK    2  A    between atoms: C_14  and  O_18
REMARK    3  A    between atoms: N_17  and  C_21
REMARK    4  A    between atoms: C_21  and  C_24
REMARK    5  A    between atoms: C_24  and  C_27
REMARK                            x       y       z     vdW  Elec       q    Type
REMARK                         _______ _______ _______ _____ _____    ______ ____
ROOT
ATOM      1  C   UNL     1     -12.142  54.376  50.286  0.00  0.00    +0.000 A 
ATOM      2  C   UNL     1     -11.945  53.875  48.900  0.00  0.00    +0.000 A 
ATOM      3  C   UNL     1     -11.635  53.696  51.328  0.00  0.00    +0.000 A 
ATOM      4  O   UNL     1     -12.561  54.448  47.999  0.00  0.00    +0.000 OA
ATOM      5  N   UNL     1     -11.056  52.823  48.682  0.00  0.00    +0.000 N 
ATOM      6  C   UNL     1     -10.828  52.492  51.109  0.00  0.00    +0.000 A 
ATOM      7  C   UNL     1     -10.525  52.075  49.796  0.00  0.00    +0.000 A 
ATOM      8  C   UNL     1     -10.314  51.785  52.211  0.00  0.00    +0.000 A 
ATOM      9  C   UNL     1      -9.704  50.945  49.634  0.00  0.00    +0.000 A 
ATOM     10  C   UNL     1      -9.485  50.695  52.017  0.00  0.00    +0.000 A 
ATOM     11  C   UNL     1      -9.171  50.270  50.739  0.00  0.00    +0.000 A 
ATOM     12  F   UNL     1      -8.969  50.054  53.075  0.00  0.00    +0.000 F 
ENDROOT
BRANCH   1  18
ATOM     13  S   UNL     1     -14.434  56.917  52.314  0.00  0.00    +0.000 S 
ATOM     14  O   UNL     1     -13.502  57.276  53.358  0.00  0.00    +0.000 OA
ATOM     15  O   UNL     1     -15.835  56.677  52.587  0.00  0.00    +0.000 OA
ATOM     16  N   UNL     1     -13.862  55.576  51.546  0.00  0.00    +0.000 N 
ATOM     17  C   UNL     1     -14.325  58.116  51.057  0.00  0.00    +0.000 A 
ATOM     18  C   UNL     1     -12.894  55.640  50.548  0.00  0.00    +0.000 C 
ATOM     19  C   UNL     1     -13.464  57.864  49.995  0.00  0.00    +0.000 A 
ATOM     20  C   UNL     1     -15.107  59.269  51.116  0.00  0.00    +0.000 A 
ATOM     21  N   UNL     1     -12.655  56.721  49.870  0.00  0.00    +0.000 N 
ATOM     22  C   UNL     1     -13.415  58.789  48.952  0.00  0.00    +0.000 A 
ATOM     23  C   UNL     1     -15.031  60.193  50.078  0.00  0.00    +0.000 A 
ATOM     24  C   UNL     1     -14.193  59.950  48.991  0.00  0.00    +0.000 A 
ATOM     25  H   UNL     1     -14.219  54.695  51.804  0.00  0.00    +0.000 HD
ATOM     26  H   UNL     1     -11.889  56.740  49.252  0.00  0.00    +0.000 HD
ENDBRANCH   1  18
BRANCH   3  27
ATOM     27  O   UNL     1     -11.785  54.062  52.656  0.00  0.00    +0.000 OA
ATOM     28  H   UNL     1     -12.091  54.922  52.873  0.00  0.00    +0.000 HD
ENDBRANCH   3  27
BRANCH   5  29
ATOM     29  C   UNL     1     -10.817  52.359  47.295  0.00  0.00    +0.000 C 
BRANCH  29  30
ATOM     30  C   UNL     1      -9.480  52.773  46.653  0.00  0.00    +0.000 C 
BRANCH  30  31
ATOM     31  C   UNL     1      -9.478  54.184  46.136  0.00  0.00    +0.000 C 
ATOM     32  C   UNL     1      -8.234  54.901  45.681  0.00  0.00    +0.000 C 
ATOM     33  C   UNL     1      -8.861  55.255  46.999  0.00  0.00    +0.000 C 
ENDBRANCH  30  31
ENDBRANCH  29  30
ENDBRANCH   5  29
TORSDOF 5
ENDMDL
MODEL 8
REMARK VINA RESULT:      -7.9      4.880      7.785
REMARK  Name = 338168
REMARK  5 active torsions:
REMARK  status: ('A' for Active; 'I' for Inactive)
REMARK    1  A    between atoms: C_6  and  C_10
REMARK    2  A    between atoms: C_14  and  O_18
REMARK    3  A    between atoms: N_17  and  C_21
REMARK    4  A    between atoms: C_21  and  C_24
REMARK    5  A    between atoms: C_24  and  C_27
REMARK                            x       y       z     vdW  Elec       q    Type
REMARK                         _______ _______ _______ _____ _____    ______ ____
ROOT
ATOM      1  C   UNL     1     -11.395  54.371  47.925  0.00  0.00    +0.000 A 
ATOM      2  C   UNL     1     -11.507  53.553  49.162  0.00  0.00    +0.000 A 
ATOM      3  C   UNL     1     -12.030  55.551  47.836  0.00  0.00    +0.000 A 
ATOM      4  O   UNL     1     -11.037  52.413  49.131  0.00  0.00    +0.000 OA
ATOM      5  N   UNL     1     -12.093  54.118  50.294  0.00  0.00    +0.000 N 
ATOM      6  C   UNL     1     -12.785  56.078  48.977  0.00  0.00    +0.000 A 
ATOM      7  C   UNL     1     -12.795  55.375  50.200  0.00  0.00    +0.000 A 
ATOM      8  C   UNL     1     -13.453  57.311  48.864  0.00  0.00    +0.000 A 
ATOM      9  C   UNL     1     -13.490  55.944  51.282  0.00  0.00    +0.000 A 
ATOM     10  C   UNL     1     -14.101  57.857  49.957  0.00  0.00    +0.000 A 
ATOM     11  C   UNL     1     -14.123  57.188  51.167  0.00  0.00    +0.000 A 
ATOM     12  F   UNL     1     -14.700  59.050  49.847  0.00  0.00    +0.000 F 
ENDROOT
BRANCH   1  18
ATOM     13  S   UNL     1      -8.175  54.062  45.610  0.00  0.00    +0.000 S 
ATOM     14  O   UNL     1      -7.337  53.282  46.492  0.00  0.00    +0.000 OA
ATOM     15  O   UNL     1      -7.651  55.162  44.829  0.00  0.00    +0.000 OA
ATOM     16  N   UNL     1      -9.438  54.657  46.484  0.00  0.00    +0.000 N 
ATOM     17  C   UNL     1      -8.983  52.965  44.525  0.00  0.00    +0.000 A 
ATOM     18  C   UNL     1     -10.574  53.905  46.766  0.00  0.00    +0.000 C 
ATOM     19  C   UNL     1     -10.250  52.518  44.883  0.00  0.00    +0.000 A 
ATOM     20  C   UNL     1      -8.376  52.586  43.328  0.00  0.00    +0.000 A 
ATOM     21  N   UNL     1     -10.920  52.867  46.068  0.00  0.00    +0.000 N 
ATOM     22  C   UNL     1     -10.931  51.689  43.992  0.00  0.00    +0.000 A 
ATOM     23  C   UNL     1      -9.061  51.741  42.460  0.00  0.00    +0.000 A 
ATOM     24  C   UNL     1     -10.341  51.299  42.786  0.00  0.00    +0.000 A 
ATOM     25  H   UNL     1      -9.386  55.581  46.820  0.00  0.00    +0.000 HD
ATOM     26  H   UNL     1     -11.672  52.310  46.376  0.00  0.00    +0.000 HD
ENDBRANCH   1  18
BRANCH   3  27
ATOM     27  O   UNL     1     -12.012  56.374  46.720  0.00  0.00    +0.000 OA
ATOM     28  H   UNL     1     -12.099  57.302  46.821  0.00  0.00    +0.000 HD
ENDBRANCH   3  27
BRANCH   5  29
ATOM     29  C   UNL     1     -12.157  53.324  51.543  0.00  0.00    +0.000 C 
BRANCH  29  30
ATOM     30  C   UNL     1     -10.897  53.335  52.428  0.00  0.00    +0.000 C 
BRANCH  30  31
ATOM     31  C   UNL     1     -10.344  54.713  52.662  0.00  0.00    +0.000 C 
ATOM     32  C   UNL     1      -9.107  55.239  51.984  0.00  0.00    +0.000 C 
ATOM     33  C   UNL     1      -9.053  54.839  53.431  0.00  0.00    +0.000 C 
ENDBRANCH  30  31
ENDBRANCH  29  30
ENDBRANCH   5  29
TORSDOF 5
ENDMDL
MODEL 9
REMARK VINA RESULT:      -7.9      3.728      8.188
REMARK  Name = 338168
REMARK  5 active torsions:
REMARK  status: ('A' for Active; 'I' for Inactive)
REMARK    1  A    between atoms: C_6  and  C_10
REMARK    2  A    between atoms: C_14  and  O_18
REMARK    3  A    between atoms: N_17  and  C_21
REMARK    4  A    between atoms: C_21  and  C_24
REMARK    5  A    between atoms: C_24  and  C_27
REMARK                            x       y       z     vdW  Elec       q    Type
REMARK                         _______ _______ _______ _____ _____    ______ ____
ROOT
ATOM      1  C   UNL     1      -9.128  54.830  50.083  0.00  0.00    +0.000 A 
ATOM      2  C   UNL     1     -10.470  55.397  50.382  0.00  0.00    +0.000 A 
ATOM      3  C   UNL     1      -8.864  54.324  48.866  0.00  0.00    +0.000 A 
ATOM      4  O   UNL     1     -10.707  55.702  51.553  0.00  0.00    +0.000 OA
ATOM      5  N   UNL     1     -11.369  55.593  49.334  0.00  0.00    +0.000 N 
ATOM      6  C   UNL     1      -9.871  54.384  47.802  0.00  0.00    +0.000 A 
ATOM      7  C   UNL     1     -11.102  55.033  48.031  0.00  0.00    +0.000 A 
ATOM      8  C   UNL     1      -9.583  53.839  46.537  0.00  0.00    +0.000 A 
ATOM      9  C   UNL     1     -12.015  55.112  46.965  0.00  0.00    +0.000 A 
ATOM     10  C   UNL     1     -10.492  53.961  45.501  0.00  0.00    +0.000 A 
ATOM     11  C   UNL     1     -11.704  54.596  45.701  0.00  0.00    +0.000 A 
ATOM     12  F   UNL     1     -10.189  53.473  44.290  0.00  0.00    +0.000 F 
ENDROOT
BRANCH   1  18
ATOM     13  S   UNL     1      -7.182  55.979  53.356  0.00  0.00    +0.000 S 
ATOM     14  O   UNL     1      -8.117  55.505  54.352  0.00  0.00    +0.000 OA
ATOM     15  O   UNL     1      -6.519  57.259  53.476  0.00  0.00    +0.000 OA
ATOM     16  N   UNL     1      -7.934  55.968  51.891  0.00  0.00    +0.000 N 
ATOM     17  C   UNL     1      -5.963  54.756  53.136  0.00  0.00    +0.000 A 
ATOM     18  C   UNL     1      -8.049  54.817  51.117  0.00  0.00    +0.000 C 
ATOM     19  C   UNL     1      -6.153  53.829  52.117  0.00  0.00    +0.000 A 
ATOM     20  C   UNL     1      -4.825  54.744  53.944  0.00  0.00    +0.000 A 
ATOM     21  N   UNL     1      -7.269  53.790  51.264  0.00  0.00    +0.000 N 
ATOM     22  C   UNL     1      -5.152  52.883  51.893  0.00  0.00    +0.000 A 
ATOM     23  C   UNL     1      -3.847  53.781  53.721  0.00  0.00    +0.000 A 
ATOM     24  C   UNL     1      -4.004  52.856  52.690  0.00  0.00    +0.000 A 
ATOM     25  H   UNL     1      -8.317  56.808  51.549  0.00  0.00    +0.000 HD
ATOM     26  H   UNL     1      -7.463  52.964  50.765  0.00  0.00    +0.000 HD
ENDBRANCH   1  18
BRANCH   3  27
ATOM     27  O   UNL     1      -7.659  53.749  48.496  0.00  0.00    +0.000 OA
ATOM     28  H   UNL     1      -7.190  53.211  49.105  0.00  0.00    +0.000 HD
ENDBRANCH   3  27
BRANCH   5  29
ATOM     29  C   UNL     1     -12.685  56.208  49.622  0.00  0.00    +0.000 C 
BRANCH  29  30
ATOM     30  C   UNL     1     -12.771  57.740  49.488  0.00  0.00    +0.000 C 
BRANCH  30  31
ATOM     31  C   UNL     1     -14.126  58.294  49.827  0.00  0.00    +0.000 C 
ATOM     32  C   UNL     1     -14.455  59.763  49.797  0.00  0.00    +0.000 C 
ATOM     33  C   UNL     1     -14.276  59.064  51.115  0.00  0.00    +0.000 C 
ENDBRANCH  30  31
ENDBRANCH  29  30
ENDBRANCH   5  29
TORSDOF 5
ENDMDL
