MODEL 1
REMARK VINA RESULT:      -8.1      0.000      0.000
REMARK  Name = 338251
REMARK  6 active torsions:
REMARK  status: ('A' for Active; 'I' for Inactive)
REMARK    1  A    between atoms: C_7  and  O_9
REMARK    2  A    between atoms: C_10  and  C_12
REMARK    3  A    between atoms: N_11  and  C_14
REMARK    4  A    between atoms: C_14  and  C_18
REMARK    5  A    between atoms: C_18  and  C_21
REMARK    6  A    between atoms: C_19  and  O_22
REMARK                            x       y       z     vdW  Elec       q    Type
REMARK                         _______ _______ _______ _____ _____    ______ ____
ROOT
ATOM      1  F   UNL     1      -4.824  54.184  48.780  0.00  0.00    +0.000 F 
ATOM      2  C   UNL     1      -6.043  54.223  48.227  0.00  0.00    +0.000 A 
ATOM      3  C   UNL     1      -7.118  54.693  48.972  0.00  0.00    +0.000 A 
ATOM      4  C   UNL     1      -6.211  53.811  46.918  0.00  0.00    +0.000 A 
ATOM      5  C   UNL     1      -8.405  54.761  48.408  0.00  0.00    +0.000 A 
ATOM      6  C   UNL     1      -7.484  53.850  46.352  0.00  0.00    +0.000 A 
ATOM      7  C   UNL     1      -9.559  55.305  49.149  0.00  0.00    +0.000 A 
ATOM      8  C   UNL     1      -8.596  54.300  47.089  0.00  0.00    +0.000 A 
ATOM      9  C   UNL     1     -10.771  55.379  48.575  0.00  0.00    +0.000 A 
ATOM     10  N   UNL     1      -9.913  54.295  46.527  0.00  0.00    +0.000 N 
ATOM     11  C   UNL     1     -10.999  54.863  47.198  0.00  0.00    +0.000 A 
ATOM     12  O   UNL     1     -12.120  54.944  46.693  0.00  0.00    +0.000 OA
ENDROOT
BRANCH   9  13
ATOM     13  C   UNL     1     -11.897  56.000  49.275  0.00  0.00    +0.000 A 
ATOM     14  N   UNL     1     -12.619  55.225  50.102  0.00  0.00    +0.000 NA
ATOM     15  N   UNL     1     -12.108  57.319  49.044  0.00  0.00    +0.000 NA
ATOM     16  C   UNL     1     -13.617  55.860  50.722  0.00  0.00    +0.000 A 
ATOM     17  C   UNL     1     -13.131  57.900  49.694  0.00  0.00    +0.000 A 
ATOM     18  C   UNL     1     -13.947  57.200  50.584  0.00  0.00    +0.000 A 
ATOM     19  C   UNL     1     -13.406  59.249  49.482  0.00  0.00    +0.000 A 
ATOM     20  C   UNL     1     -15.006  57.849  51.260  0.00  0.00    +0.000 A 
ATOM     21  C   UNL     1     -14.454  59.904  50.146  0.00  0.00    +0.000 A 
ATOM     22  C   UNL     1     -15.252  59.203  51.041  0.00  0.00    +0.000 A 
BRANCH  16  23
ATOM     23  O   UNL     1     -14.333  55.043  51.544  0.00  0.00    +0.000 OA
ATOM     24  H   UNL     1     -15.269  55.073  51.535  0.00  0.00    +0.000 HD
ENDBRANCH  16  23
ENDBRANCH   9  13
BRANCH   7  25
ATOM     25  O   UNL     1      -9.353  55.762  50.441  0.00  0.00    +0.000 OA
ATOM     26  H   UNL     1      -8.713  55.349  50.987  0.00  0.00    +0.000 HD
ENDBRANCH   7  25
BRANCH  10  27
ATOM     27  C   UNL     1     -10.152  53.721  45.193  0.00  0.00    +0.000 C 
BRANCH  27  28
ATOM     28  C   UNL     1     -10.277  52.184  45.173  0.00  0.00    +0.000 C 
BRANCH  28  29
ATOM     29  C   UNL     1     -11.725  51.754  45.175  0.00  0.00    +0.000 C 
ATOM     30  C   UNL     1     -12.431  51.450  46.467  0.00  0.00    +0.000 C 
ATOM     31  C   UNL     1     -12.097  50.337  45.515  0.00  0.00    +0.000 C 
ENDBRANCH  28  29
ENDBRANCH  27  28
ENDBRANCH  10  27
TORSDOF 6
ENDMDL
MODEL 2
REMARK VINA RESULT:      -8.1      3.946      5.783
REMARK  Name = 338251
REMARK  6 active torsions:
REMARK  status: ('A' for Active; 'I' for Inactive)
REMARK    1  A    between atoms: C_7  and  O_9
REMARK    2  A    between atoms: C_10  and  C_12
REMARK    3  A    between atoms: N_11  and  C_14
REMARK    4  A    between atoms: C_14  and  C_18
REMARK    5  A    between atoms: C_18  and  C_21
REMARK    6  A    between atoms: C_19  and  O_22
REMARK                            x       y       z     vdW  Elec       q    Type
REMARK                         _______ _______ _______ _____ _____    ______ ____
ROOT
ATOM      1  F   UNL     1      -8.433  49.915  55.991  0.00  0.00    +0.000 F 
ATOM      2  C   UNL     1      -8.259  50.982  55.200  0.00  0.00    +0.000 A 
ATOM      3  C   UNL     1      -9.347  51.513  54.517  0.00  0.00    +0.000 A 
ATOM      4  C   UNL     1      -7.003  51.549  55.087  0.00  0.00    +0.000 A 
ATOM      5  C   UNL     1      -9.194  52.644  53.694  0.00  0.00    +0.000 A 
ATOM      6  C   UNL     1      -6.829  52.656  54.257  0.00  0.00    +0.000 A 
ATOM      7  C   UNL     1     -10.334  53.269  52.998  0.00  0.00    +0.000 A 
ATOM      8  C   UNL     1      -7.907  53.202  53.535  0.00  0.00    +0.000 A 
ATOM      9  C   UNL     1     -10.160  54.362  52.238  0.00  0.00    +0.000 A 
ATOM     10  N   UNL     1      -7.723  54.307  52.645  0.00  0.00    +0.000 N 
ATOM     11  C   UNL     1      -8.806  54.942  52.029  0.00  0.00    +0.000 A 
ATOM     12  O   UNL     1      -8.672  55.947  51.329  0.00  0.00    +0.000 OA
ENDROOT
BRANCH   9  13
ATOM     13  C   UNL     1     -11.303  55.037  51.619  0.00  0.00    +0.000 A 
ATOM     14  N   UNL     1     -11.531  54.803  50.315  0.00  0.00    +0.000 NA
ATOM     15  N   UNL     1     -12.053  55.830  52.422  0.00  0.00    +0.000 NA
ATOM     16  C   UNL     1     -12.599  55.433  49.820  0.00  0.00    +0.000 A 
ATOM     17  C   UNL     1     -13.112  56.442  51.864  0.00  0.00    +0.000 A 
ATOM     18  C   UNL     1     -13.454  56.271  50.522  0.00  0.00    +0.000 A 
ATOM     19  C   UNL     1     -13.909  57.284  52.636  0.00  0.00    +0.000 A 
ATOM     20  C   UNL     1     -14.584  56.920  49.973  0.00  0.00    +0.000 A 
ATOM     21  C   UNL     1     -15.032  57.934  52.104  0.00  0.00    +0.000 A 
ATOM     22  C   UNL     1     -15.373  57.747  50.771  0.00  0.00    +0.000 A 
BRANCH  16  23
ATOM     23  O   UNL     1     -12.795  55.182  48.496  0.00  0.00    +0.000 OA
ATOM     24  H   UNL     1     -12.527  55.811  47.855  0.00  0.00    +0.000 HD
ENDBRANCH  16  23
ENDBRANCH   9  13
BRANCH   7  25
ATOM     25  O   UNL     1     -11.592  52.714  53.171  0.00  0.00    +0.000 OA
ATOM     26  H   UNL     1     -11.803  52.274  53.972  0.00  0.00    +0.000 HD
ENDBRANCH   7  25
BRANCH  10  27
ATOM     27  C   UNL     1      -6.376  54.838  52.383  0.00  0.00    +0.000 C 
BRANCH  27  28
ATOM     28  C   UNL     1      -5.593  54.078  51.293  0.00  0.00    +0.000 C 
BRANCH  28  29
ATOM     29  C   UNL     1      -5.475  54.902  50.032  0.00  0.00    +0.000 C 
ATOM     30  C   UNL     1      -6.413  54.672  48.878  0.00  0.00    +0.000 C 
ATOM     31  C   UNL     1      -4.967  54.279  48.761  0.00  0.00    +0.000 C 
ENDBRANCH  28  29
ENDBRANCH  27  28
ENDBRANCH  10  27
TORSDOF 6
ENDMDL
MODEL 3
REMARK VINA RESULT:      -8.1      2.212      4.398
REMARK  Name = 338251
REMARK  6 active torsions:
REMARK  status: ('A' for Active; 'I' for Inactive)
REMARK    1  A    between atoms: C_7  and  O_9
REMARK    2  A    between atoms: C_10  and  C_12
REMARK    3  A    between atoms: N_11  and  C_14
REMARK    4  A    between atoms: C_14  and  C_18
REMARK    5  A    between atoms: C_18  and  C_21
REMARK    6  A    between atoms: C_19  and  O_22
REMARK                            x       y       z     vdW  Elec       q    Type
REMARK                         _______ _______ _______ _____ _____    ______ ____
ROOT
ATOM      1  F   UNL     1     -10.828  52.855  43.668  0.00  0.00    +0.000 F 
ATOM      2  C   UNL     1     -10.529  53.270  44.906  0.00  0.00    +0.000 A 
ATOM      3  C   UNL     1     -11.313  54.246  45.509  0.00  0.00    +0.000 A 
ATOM      4  C   UNL     1      -9.455  52.710  45.572  0.00  0.00    +0.000 A 
ATOM      5  C   UNL     1     -11.031  54.686  46.815  0.00  0.00    +0.000 A 
ATOM      6  C   UNL     1      -9.146  53.152  46.857  0.00  0.00    +0.000 A 
ATOM      7  C   UNL     1     -11.872  55.679  47.509  0.00  0.00    +0.000 A 
ATOM      8  C   UNL     1      -9.908  54.155  47.486  0.00  0.00    +0.000 A 
ATOM      9  C   UNL     1     -11.590  56.062  48.765  0.00  0.00    +0.000 A 
ATOM     10  N   UNL     1      -9.565  54.646  48.786  0.00  0.00    +0.000 N 
ATOM     11  C   UNL     1     -10.390  55.541  49.473  0.00  0.00    +0.000 A 
ATOM     12  O   UNL     1     -10.154  55.905  50.626  0.00  0.00    +0.000 OA
ENDROOT
BRANCH   9  13
ATOM     13  C   UNL     1     -12.474  56.979  49.488  0.00  0.00    +0.000 A 
ATOM     14  N   UNL     1     -12.805  58.131  48.880  0.00  0.00    +0.000 NA
ATOM     15  N   UNL     1     -12.904  56.579  50.709  0.00  0.00    +0.000 NA
ATOM     16  C   UNL     1     -13.629  58.910  49.585  0.00  0.00    +0.000 A 
ATOM     17  C   UNL     1     -13.727  57.409  51.372  0.00  0.00    +0.000 A 
ATOM     18  C   UNL     1     -14.147  58.629  50.841  0.00  0.00    +0.000 A 
ATOM     19  C   UNL     1     -14.186  57.059  52.640  0.00  0.00    +0.000 A 
ATOM     20  C   UNL     1     -15.024  59.471  51.563  0.00  0.00    +0.000 A 
ATOM     21  C   UNL     1     -15.056  57.885  53.367  0.00  0.00    +0.000 A 
ATOM     22  C   UNL     1     -15.481  59.090  52.824  0.00  0.00    +0.000 A 
BRANCH  16  23
ATOM     23  O   UNL     1     -13.936  60.072  48.944  0.00  0.00    +0.000 OA
ATOM     24  H   UNL     1     -14.824  60.253  48.702  0.00  0.00    +0.000 HD
ENDBRANCH  16  23
ENDBRANCH   9  13
BRANCH   7  25
ATOM     25  O   UNL     1     -12.976  56.185  46.840  0.00  0.00    +0.000 OA
ATOM     26  H   UNL     1     -13.503  56.848  47.242  0.00  0.00    +0.000 HD
ENDBRANCH   7  25
BRANCH  10  27
ATOM     27  C   UNL     1      -8.341  54.183  49.459  0.00  0.00    +0.000 C 
BRANCH  27  28
ATOM     28  C   UNL     1      -7.131  55.125  49.298  0.00  0.00    +0.000 C 
BRANCH  28  29
ATOM     29  C   UNL     1      -6.086  54.520  48.390  0.00  0.00    +0.000 C 
ATOM     30  C   UNL     1      -5.695  53.075  48.530  0.00  0.00    +0.000 C 
ATOM     31  C   UNL     1      -4.730  54.155  48.928  0.00  0.00    +0.000 C 
ENDBRANCH  28  29
ENDBRANCH  27  28
ENDBRANCH  10  27
TORSDOF 6
ENDMDL
MODEL 4
REMARK VINA RESULT:      -7.9      1.896      4.137
REMARK  Name = 338251
REMARK  6 active torsions:
REMARK  status: ('A' for Active; 'I' for Inactive)
REMARK    1  A    between atoms: C_7  and  O_9
REMARK    2  A    between atoms: C_10  and  C_12
REMARK    3  A    between atoms: N_11  and  C_14
REMARK    4  A    between atoms: C_14  and  C_18
REMARK    5  A    between atoms: C_18  and  C_21
REMARK    6  A    between atoms: C_19  and  O_22
REMARK                            x       y       z     vdW  Elec       q    Type
REMARK                         _______ _______ _______ _____ _____    ______ ____
ROOT
ATOM      1  F   UNL     1      -9.491  52.599  43.267  0.00  0.00    +0.000 F 
ATOM      2  C   UNL     1      -9.253  53.158  44.461  0.00  0.00    +0.000 A 
ATOM      3  C   UNL     1     -10.283  53.811  45.129  0.00  0.00    +0.000 A 
ATOM      4  C   UNL     1      -7.992  53.064  45.019  0.00  0.00    +0.000 A 
ATOM      5  C   UNL     1     -10.063  54.391  46.392  0.00  0.00    +0.000 A 
ATOM      6  C   UNL     1      -7.752  53.653  46.259  0.00  0.00    +0.000 A 
ATOM      7  C   UNL     1     -11.144  55.043  47.154  0.00  0.00    +0.000 A 
ATOM      8  C   UNL     1      -8.768  54.340  46.949  0.00  0.00    +0.000 A 
ATOM      9  C   UNL     1     -10.909  55.567  48.369  0.00  0.00    +0.000 A 
ATOM     10  N   UNL     1      -8.512  54.989  48.199  0.00  0.00    +0.000 N 
ATOM     11  C   UNL     1      -9.542  55.556  48.956  0.00  0.00    +0.000 A 
ATOM     12  O   UNL     1      -9.352  56.041  50.073  0.00  0.00    +0.000 OA
ENDROOT
BRANCH   9  13
ATOM     13  C   UNL     1     -11.998  56.135  49.166  0.00  0.00    +0.000 A 
ATOM     14  N   UNL     1     -12.633  55.318  50.022  0.00  0.00    +0.000 NA
ATOM     15  N   UNL     1     -12.264  57.452  48.986  0.00  0.00    +0.000 NA
ATOM     16  C   UNL     1     -13.602  55.905  50.731  0.00  0.00    +0.000 A 
ATOM     17  C   UNL     1     -13.253  57.984  49.725  0.00  0.00    +0.000 A 
ATOM     18  C   UNL     1     -13.980  57.237  50.653  0.00  0.00    +0.000 A 
ATOM     19  C   UNL     1     -13.584  59.329  49.570  0.00  0.00    +0.000 A 
ATOM     20  C   UNL     1     -15.005  57.835  51.421  0.00  0.00    +0.000 A 
ATOM     21  C   UNL     1     -14.599  59.934  50.326  0.00  0.00    +0.000 A 
ATOM     22  C   UNL     1     -15.306  59.186  51.258  0.00  0.00    +0.000 A 
BRANCH  16  23
ATOM     23  O   UNL     1     -14.229  55.046  51.581  0.00  0.00    +0.000 OA
ATOM     24  H   UNL     1     -15.133  55.174  51.793  0.00  0.00    +0.000 HD
ENDBRANCH  16  23
ENDBRANCH   9  13
BRANCH   7  25
ATOM     25  O   UNL     1     -12.413  55.077  46.597  0.00  0.00    +0.000 OA
ATOM     26  H   UNL     1     -13.150  55.311  47.126  0.00  0.00    +0.000 HD
ENDBRANCH   7  25
BRANCH  10  27
ATOM     27  C   UNL     1      -7.148  55.039  48.748  0.00  0.00    +0.000 C 
BRANCH  27  28
ATOM     28  C   UNL     1      -6.797  53.871  49.691  0.00  0.00    +0.000 C 
BRANCH  28  29
ATOM     29  C   UNL     1      -6.110  54.367  50.941  0.00  0.00    +0.000 C 
ATOM     30  C   UNL     1      -4.640  54.126  51.154  0.00  0.00    +0.000 C 
ATOM     31  C   UNL     1      -5.650  53.395  51.994  0.00  0.00    +0.000 C 
ENDBRANCH  28  29
ENDBRANCH  27  28
ENDBRANCH  10  27
TORSDOF 6
ENDMDL
MODEL 5
REMARK VINA RESULT:      -7.9      3.155      7.692
REMARK  Name = 338251
REMARK  6 active torsions:
REMARK  status: ('A' for Active; 'I' for Inactive)
REMARK    1  A    between atoms: C_7  and  O_9
REMARK    2  A    between atoms: C_10  and  C_12
REMARK    3  A    between atoms: N_11  and  C_14
REMARK    4  A    between atoms: C_14  and  C_18
REMARK    5  A    between atoms: C_18  and  C_21
REMARK    6  A    between atoms: C_19  and  O_22
REMARK                            x       y       z     vdW  Elec       q    Type
REMARK                         _______ _______ _______ _____ _____    ______ ____
ROOT
ATOM      1  F   UNL     1     -15.400  58.837  50.599  0.00  0.00    +0.000 F 
ATOM      2  C   UNL     1     -14.453  57.894  50.683  0.00  0.00    +0.000 A 
ATOM      3  C   UNL     1     -13.839  57.435  49.524  0.00  0.00    +0.000 A 
ATOM      4  C   UNL     1     -14.090  57.401  51.922  0.00  0.00    +0.000 A 
ATOM      5  C   UNL     1     -12.829  56.458  49.587  0.00  0.00    +0.000 A 
ATOM      6  C   UNL     1     -13.108  56.415  52.001  0.00  0.00    +0.000 A 
ATOM      7  C   UNL     1     -12.116  55.987  48.385  0.00  0.00    +0.000 A 
ATOM      8  C   UNL     1     -12.483  55.915  50.843  0.00  0.00    +0.000 A 
ATOM      9  C   UNL     1     -11.139  55.069  48.480  0.00  0.00    +0.000 A 
ATOM     10  N   UNL     1     -11.510  54.868  50.915  0.00  0.00    +0.000 N 
ATOM     11  C   UNL     1     -10.788  54.459  49.790  0.00  0.00    +0.000 A 
ATOM     12  O   UNL     1      -9.887  53.620  49.852  0.00  0.00    +0.000 OA
ENDROOT
BRANCH   9  13
ATOM     13  C   UNL     1     -10.369  54.666  47.301  0.00  0.00    +0.000 A 
ATOM     14  N   UNL     1      -9.059  54.964  47.283  0.00  0.00    +0.000 NA
ATOM     15  N   UNL     1     -11.042  54.004  46.329  0.00  0.00    +0.000 NA
ATOM     16  C   UNL     1      -8.414  54.551  46.189  0.00  0.00    +0.000 A 
ATOM     17  C   UNL     1     -10.339  53.618  45.250  0.00  0.00    +0.000 A 
ATOM     18  C   UNL     1      -8.972  53.865  45.120  0.00  0.00    +0.000 A 
ATOM     19  C   UNL     1     -10.982  52.950  44.210  0.00  0.00    +0.000 A 
ATOM     20  C   UNL     1      -8.263  53.432  43.976  0.00  0.00    +0.000 A 
ATOM     21  C   UNL     1     -10.290  52.515  43.070  0.00  0.00    +0.000 A 
ATOM     22  C   UNL     1      -8.926  52.752  42.956  0.00  0.00    +0.000 A 
BRANCH  16  23
ATOM     23  O   UNL     1      -7.092  54.878  46.200  0.00  0.00    +0.000 OA
ATOM     24  H   UNL     1      -6.443  54.203  46.160  0.00  0.00    +0.000 HD
ENDBRANCH  16  23
ENDBRANCH   9  13
BRANCH   7  25
ATOM     25  O   UNL     1     -12.461  56.536  47.160  0.00  0.00    +0.000 OA
ATOM     26  H   UNL     1     -12.817  57.402  47.119  0.00  0.00    +0.000 HD
ENDBRANCH   7  25
BRANCH  10  27
ATOM     27  C   UNL     1     -11.211  54.215  52.199  0.00  0.00    +0.000 C 
BRANCH  27  28
ATOM     28  C   UNL     1     -10.316  55.044  53.142  0.00  0.00    +0.000 C 
BRANCH  28  29
ATOM     29  C   UNL     1      -8.874  54.603  53.053  0.00  0.00    +0.000 C 
ATOM     30  C   UNL     1      -7.827  55.232  53.931  0.00  0.00    +0.000 C 
ATOM     31  C   UNL     1      -7.836  55.512  52.455  0.00  0.00    +0.000 C 
ENDBRANCH  28  29
ENDBRANCH  27  28
ENDBRANCH  10  27
TORSDOF 6
ENDMDL
MODEL 6
REMARK VINA RESULT:      -7.8      2.404      7.372
REMARK  Name = 338251
REMARK  6 active torsions:
REMARK  status: ('A' for Active; 'I' for Inactive)
REMARK    1  A    between atoms: C_7  and  O_9
REMARK    2  A    between atoms: C_10  and  C_12
REMARK    3  A    between atoms: N_11  and  C_14
REMARK    4  A    between atoms: C_14  and  C_18
REMARK    5  A    between atoms: C_18  and  C_21
REMARK    6  A    between atoms: C_19  and  O_22
REMARK                            x       y       z     vdW  Elec       q    Type
REMARK                         _______ _______ _______ _____ _____    ______ ____
ROOT
ATOM      1  F   UNL     1      -9.887  54.806  53.667  0.00  0.00    +0.000 F 
ATOM      2  C   UNL     1     -10.506  55.035  52.501  0.00  0.00    +0.000 A 
ATOM      3  C   UNL     1      -9.868  54.705  51.311  0.00  0.00    +0.000 A 
ATOM      4  C   UNL     1     -11.776  55.580  52.500  0.00  0.00    +0.000 A 
ATOM      5  C   UNL     1     -10.504  54.918  50.075  0.00  0.00    +0.000 A 
ATOM      6  C   UNL     1     -12.411  55.820  51.282  0.00  0.00    +0.000 A 
ATOM      7  C   UNL     1      -9.882  54.530  48.795  0.00  0.00    +0.000 A 
ATOM      8  C   UNL     1     -11.781  55.518  50.060  0.00  0.00    +0.000 A 
ATOM      9  C   UNL     1     -10.525  54.726  47.631  0.00  0.00    +0.000 A 
ATOM     10  N   UNL     1     -12.410  55.808  48.807  0.00  0.00    +0.000 N 
ATOM     11  C   UNL     1     -11.855  55.390  47.593  0.00  0.00    +0.000 A 
ATOM     12  O   UNL     1     -12.426  55.556  46.514  0.00  0.00    +0.000 OA
ENDROOT
BRANCH   9  13
ATOM     13  C   UNL     1      -9.949  54.261  46.368  0.00  0.00    +0.000 A 
ATOM     14  N   UNL     1      -8.849  54.888  45.918  0.00  0.00    +0.000 NA
ATOM     15  N   UNL     1     -10.566  53.217  45.763  0.00  0.00    +0.000 NA
ATOM     16  C   UNL     1      -8.365  54.400  44.772  0.00  0.00    +0.000 A 
ATOM     17  C   UNL     1     -10.035  52.775  44.609  0.00  0.00    +0.000 A 
ATOM     18  C   UNL     1      -8.890  53.341  44.047  0.00  0.00    +0.000 A 
ATOM     19  C   UNL     1     -10.638  51.716  43.933  0.00  0.00    +0.000 A 
ATOM     20  C   UNL     1      -8.353  52.840  42.839  0.00  0.00    +0.000 A 
ATOM     21  C   UNL     1     -10.115  51.210  42.734  0.00  0.00    +0.000 A 
ATOM     22  C   UNL     1      -8.967  51.770  42.189  0.00  0.00    +0.000 A 
BRANCH  16  23
ATOM     23  O   UNL     1      -7.257  55.064  44.342  0.00  0.00    +0.000 OA
ATOM     24  H   UNL     1      -7.189  55.331  43.445  0.00  0.00    +0.000 HD
ENDBRANCH  16  23
ENDBRANCH   9  13
BRANCH   7  25
ATOM     25  O   UNL     1      -8.631  53.935  48.827  0.00  0.00    +0.000 OA
ATOM     26  H   UNL     1      -8.189  53.732  48.026  0.00  0.00    +0.000 HD
ENDBRANCH   7  25
BRANCH  10  27
ATOM     27  C   UNL     1     -13.693  56.527  48.765  0.00  0.00    +0.000 C 
BRANCH  27  28
ATOM     28  C   UNL     1     -13.581  58.007  48.346  0.00  0.00    +0.000 C 
BRANCH  28  29
ATOM     29  C   UNL     1     -13.461  58.908  49.553  0.00  0.00    +0.000 C 
ATOM     30  C   UNL     1     -14.562  58.965  50.577  0.00  0.00    +0.000 C 
ATOM     31  C   UNL     1     -14.318  60.139  49.671  0.00  0.00    +0.000 C 
ENDBRANCH  28  29
ENDBRANCH  27  28
ENDBRANCH  10  27
TORSDOF 6
ENDMDL
MODEL 7
REMARK VINA RESULT:      -7.5      4.018      6.731
REMARK  Name = 338251
REMARK  6 active torsions:
REMARK  status: ('A' for Active; 'I' for Inactive)
REMARK    1  A    between atoms: C_7  and  O_9
REMARK    2  A    between atoms: C_10  and  C_12
REMARK    3  A    between atoms: N_11  and  C_14
REMARK    4  A    between atoms: C_14  and  C_18
REMARK    5  A    between atoms: C_18  and  C_21
REMARK    6  A    between atoms: C_19  and  O_22
REMARK                            x       y       z     vdW  Elec       q    Type
REMARK                         _______ _______ _______ _____ _____    ______ ____
ROOT
ATOM      1  F   UNL     1     -15.764  57.214  50.248  0.00  0.00    +0.000 F 
ATOM      2  C   UNL     1     -14.553  56.819  49.834  0.00  0.00    +0.000 A 
ATOM      3  C   UNL     1     -13.585  56.481  50.773  0.00  0.00    +0.000 A 
ATOM      4  C   UNL     1     -14.288  56.739  48.480  0.00  0.00    +0.000 A 
ATOM      5  C   UNL     1     -12.311  56.047  50.363  0.00  0.00    +0.000 A 
ATOM      6  C   UNL     1     -13.024  56.333  48.057  0.00  0.00    +0.000 A 
ATOM      7  C   UNL     1     -11.277  55.627  51.328  0.00  0.00    +0.000 A 
ATOM      8  C   UNL     1     -12.016  56.006  48.984  0.00  0.00    +0.000 A 
ATOM      9  C   UNL     1     -10.078  55.194  50.905  0.00  0.00    +0.000 A 
ATOM     10  N   UNL     1     -10.701  55.636  48.555  0.00  0.00    +0.000 N 
ATOM     11  C   UNL     1      -9.736  55.180  49.457  0.00  0.00    +0.000 A 
ATOM     12  O   UNL     1      -8.630  54.777  49.094  0.00  0.00    +0.000 OA
ENDROOT
BRANCH   9  13
ATOM     13  C   UNL     1      -9.082  54.693  51.855  0.00  0.00    +0.000 A 
ATOM     14  N   UNL     1      -8.041  55.492  52.144  0.00  0.00    +0.000 NA
ATOM     15  N   UNL     1      -9.306  53.464  52.382  0.00  0.00    +0.000 NA
ATOM     16  C   UNL     1      -7.183  54.981  53.031  0.00  0.00    +0.000 A 
ATOM     17  C   UNL     1      -8.404  53.003  53.265  0.00  0.00    +0.000 A 
ATOM     18  C   UNL     1      -7.285  53.743  53.650  0.00  0.00    +0.000 A 
ATOM     19  C   UNL     1      -8.571  51.738  53.826  0.00  0.00    +0.000 A 
ATOM     20  C   UNL     1      -6.365  53.230  54.593  0.00  0.00    +0.000 A 
ATOM     21  C   UNL     1      -7.665  51.218  54.762  0.00  0.00    +0.000 A 
ATOM     22  C   UNL     1      -6.563  51.968  55.150  0.00  0.00    +0.000 A 
BRANCH  16  23
ATOM     23  O   UNL     1      -6.137  55.812  53.293  0.00  0.00    +0.000 OA
ATOM     24  H   UNL     1      -5.313  55.676  52.868  0.00  0.00    +0.000 HD
ENDBRANCH  16  23
ENDBRANCH   9  13
BRANCH   7  25
ATOM     25  O   UNL     1     -11.586  55.664  52.679  0.00  0.00    +0.000 OA
ATOM     26  H   UNL     1     -11.751  54.867  53.143  0.00  0.00    +0.000 HD
ENDBRANCH   7  25
BRANCH  10  27
ATOM     27  C   UNL     1     -10.340  55.688  47.130  0.00  0.00    +0.000 C 
BRANCH  27  28
ATOM     28  C   UNL     1     -10.198  54.308  46.458  0.00  0.00    +0.000 C 
BRANCH  28  29
ATOM     29  C   UNL     1     -11.394  53.999  45.588  0.00  0.00    +0.000 C 
ATOM     30  C   UNL     1     -12.033  52.638  45.622  0.00  0.00    +0.000 C 
ATOM     31  C   UNL     1     -11.259  53.073  44.410  0.00  0.00    +0.000 C 
ENDBRANCH  28  29
ENDBRANCH  27  28
ENDBRANCH  10  27
TORSDOF 6
ENDMDL
MODEL 8
REMARK VINA RESULT:      -7.4      3.898      6.537
REMARK  Name = 338251
REMARK  6 active torsions:
REMARK  status: ('A' for Active; 'I' for Inactive)
REMARK    1  A    between atoms: C_7  and  O_9
REMARK    2  A    between atoms: C_10  and  C_12
REMARK    3  A    between atoms: N_11  and  C_14
REMARK    4  A    between atoms: C_14  and  C_18
REMARK    5  A    between atoms: C_18  and  C_21
REMARK    6  A    between atoms: C_19  and  O_22
REMARK                            x       y       z     vdW  Elec       q    Type
REMARK                         _______ _______ _______ _____ _____    ______ ____
ROOT
ATOM      1  F   UNL     1     -15.818  57.761  50.415  0.00  0.00    +0.000 F 
ATOM      2  C   UNL     1     -14.693  57.214  49.936  0.00  0.00    +0.000 A 
ATOM      3  C   UNL     1     -13.746  56.711  50.821  0.00  0.00    +0.000 A 
ATOM      4  C   UNL     1     -14.497  57.143  48.570  0.00  0.00    +0.000 A 
ATOM      5  C   UNL     1     -12.565  56.115  50.343  0.00  0.00    +0.000 A 
ATOM      6  C   UNL     1     -13.321  56.577  48.080  0.00  0.00    +0.000 A 
ATOM      7  C   UNL     1     -11.564  55.520  51.248  0.00  0.00    +0.000 A 
ATOM      8  C   UNL     1     -12.334  56.079  48.951  0.00  0.00    +0.000 A 
ATOM      9  C   UNL     1     -10.456  54.937  50.760  0.00  0.00    +0.000 A 
ATOM     10  N   UNL     1     -11.104  55.543  48.454  0.00  0.00    +0.000 N 
ATOM     11  C   UNL     1     -10.178  54.924  49.299  0.00  0.00    +0.000 A 
ATOM     12  O   UNL     1      -9.156  54.381  48.875  0.00  0.00    +0.000 OA
ENDROOT
BRANCH   9  13
ATOM     13  C   UNL     1      -9.505  54.268  51.650  0.00  0.00    +0.000 A 
ATOM     14  N   UNL     1      -9.476  52.925  51.632  0.00  0.00    +0.000 NA
ATOM     15  N   UNL     1      -8.714  55.065  52.410  0.00  0.00    +0.000 NA
ATOM     16  C   UNL     1      -8.573  52.381  52.452  0.00  0.00    +0.000 A 
ATOM     17  C   UNL     1      -7.829  54.458  53.219  0.00  0.00    +0.000 A 
ATOM     18  C   UNL     1      -7.700  53.070  53.282  0.00  0.00    +0.000 A 
ATOM     19  C   UNL     1      -7.001  55.225  54.036  0.00  0.00    +0.000 A 
ATOM     20  C   UNL     1      -6.748  52.468  54.135  0.00  0.00    +0.000 A 
ATOM     21  C   UNL     1      -6.052  54.640  54.888  0.00  0.00    +0.000 A 
ATOM     22  C   UNL     1      -5.922  53.259  54.933  0.00  0.00    +0.000 A 
BRANCH  16  23
ATOM     23  O   UNL     1      -8.577  51.019  52.414  0.00  0.00    +0.000 OA
ATOM     24  H   UNL     1      -7.779  50.545  52.540  0.00  0.00    +0.000 HD
ENDBRANCH  16  23
ENDBRANCH   9  13
BRANCH   7  25
ATOM     25  O   UNL     1     -11.809  55.555  52.612  0.00  0.00    +0.000 OA
ATOM     26  H   UNL     1     -11.541  54.839  53.154  0.00  0.00    +0.000 HD
ENDBRANCH   7  25
BRANCH  10  27
ATOM     27  C   UNL     1     -10.797  55.592  47.016  0.00  0.00    +0.000 C 
BRANCH  27  28
ATOM     28  C   UNL     1     -11.435  54.458  46.189  0.00  0.00    +0.000 C 
BRANCH  28  29
ATOM     29  C   UNL     1     -10.382  53.646  45.471  0.00  0.00    +0.000 C 
ATOM     30  C   UNL     1     -10.710  52.927  44.192  0.00  0.00    +0.000 C 
ATOM     31  C   UNL     1     -10.463  52.144  45.450  0.00  0.00    +0.000 C 
ENDBRANCH  28  29
ENDBRANCH  27  28
ENDBRANCH  10  27
TORSDOF 6
ENDMDL
MODEL 9
REMARK VINA RESULT:      -7.3      2.626      7.030
REMARK  Name = 338251
REMARK  6 active torsions:
REMARK  status: ('A' for Active; 'I' for Inactive)
REMARK    1  A    between atoms: C_7  and  O_9
REMARK    2  A    between atoms: C_10  and  C_12
REMARK    3  A    between atoms: N_11  and  C_14
REMARK    4  A    between atoms: C_14  and  C_18
REMARK    5  A    between atoms: C_18  and  C_21
REMARK    6  A    between atoms: C_19  and  O_22
REMARK                            x       y       z     vdW  Elec       q    Type
REMARK                         _______ _______ _______ _____ _____    ______ ____
ROOT
ATOM      1  F   UNL     1      -7.992  53.549  54.038  0.00  0.00    +0.000 F 
ATOM      2  C   UNL     1      -8.863  53.950  53.103  0.00  0.00    +0.000 A 
ATOM      3  C   UNL     1      -8.783  53.421  51.820  0.00  0.00    +0.000 A 
ATOM      4  C   UNL     1      -9.839  54.872  53.433  0.00  0.00    +0.000 A 
ATOM      5  C   UNL     1      -9.698  53.813  50.826  0.00  0.00    +0.000 A 
ATOM      6  C   UNL     1     -10.738  55.289  52.453  0.00  0.00    +0.000 A 
ATOM      7  C   UNL     1      -9.680  53.234  49.470  0.00  0.00    +0.000 A 
ATOM      8  C   UNL     1     -10.669  54.789  51.139  0.00  0.00    +0.000 A 
ATOM      9  C   UNL     1     -10.582  53.612  48.549  0.00  0.00    +0.000 A 
ATOM     10  N   UNL     1     -11.559  55.251  50.118  0.00  0.00    +0.000 N 
ATOM     11  C   UNL     1     -11.588  54.665  48.849  0.00  0.00    +0.000 A 
ATOM     12  O   UNL     1     -12.407  54.993  47.989  0.00  0.00    +0.000 OA
ENDROOT
BRANCH   9  13
ATOM     13  C   UNL     1     -10.622  52.974  47.231  0.00  0.00    +0.000 A 
ATOM     14  N   UNL     1     -11.539  52.011  47.035  0.00  0.00    +0.000 NA
ATOM     15  N   UNL     1      -9.739  53.424  46.307  0.00  0.00    +0.000 NA
ATOM     16  C   UNL     1     -11.534  51.486  45.806  0.00  0.00    +0.000 A 
ATOM     17  C   UNL     1      -9.780  52.853  45.091  0.00  0.00    +0.000 A 
ATOM     18  C   UNL     1     -10.692  51.848  44.765  0.00  0.00    +0.000 A 
ATOM     19  C   UNL     1      -8.883  53.262  44.106  0.00  0.00    +0.000 A 
ATOM     20  C   UNL     1     -10.713  51.281  43.470  0.00  0.00    +0.000 A 
ATOM     21  C   UNL     1      -8.894  52.707  42.817  0.00  0.00    +0.000 A 
ATOM     22  C   UNL     1      -9.815  51.718  42.498  0.00  0.00    +0.000 A 
BRANCH  16  23
ATOM     23  O   UNL     1     -12.468  50.509  45.645  0.00  0.00    +0.000 OA
ATOM     24  H   UNL     1     -12.267  49.625  45.884  0.00  0.00    +0.000 HD
ENDBRANCH  16  23
ENDBRANCH   9  13
BRANCH   7  25
ATOM     25  O   UNL     1      -8.726  52.271  49.181  0.00  0.00    +0.000 OA
ATOM     26  H   UNL     1      -8.936  51.362  49.271  0.00  0.00    +0.000 HD
ENDBRANCH   7  25
BRANCH  10  27
ATOM     27  C   UNL     1     -12.508  56.341  50.394  0.00  0.00    +0.000 C 
BRANCH  27  28
ATOM     28  C   UNL     1     -13.837  55.883  51.029  0.00  0.00    +0.000 C 
BRANCH  28  29
ATOM     29  C   UNL     1     -14.648  57.065  51.507  0.00  0.00    +0.000 C 
ATOM     30  C   UNL     1     -14.294  57.768  52.788  0.00  0.00    +0.000 C 
ATOM     31  C   UNL     1     -15.543  56.937  52.709  0.00  0.00    +0.000 C 
ENDBRANCH  28  29
ENDBRANCH  27  28
ENDBRANCH  10  27
TORSDOF 6
ENDMDL
