MODEL 1
REMARK VINA RESULT:      -7.6      0.000      0.000
REMARK  Name = 338048
REMARK  8 active torsions:
REMARK  status: ('A' for Active; 'I' for Inactive)
REMARK    1  A    between atoms: C_6  and  C_10
REMARK    2  A    between atoms: C_14  and  O_18
REMARK    3  A    between atoms: N_17  and  C_21
REMARK    4  A    between atoms: C_21  and  C_24
REMARK    5  A    between atoms: C_24  and  C_27
REMARK    6  A    between atoms: C_27  and  C_28
REMARK    7  A    between atoms: C_27  and  C_29
REMARK    8  A    between atoms: C_28  and  C_30
REMARK                            x       y       z     vdW  Elec       q    Type
REMARK                         _______ _______ _______ _____ _____    ______ ____
ROOT
ATOM      1  C   UNL     1     -10.131  54.387  52.332  0.00  0.00    +0.000 A 
ATOM      2  C   UNL     1      -8.753  54.962  52.246  0.00  0.00    +0.000 A 
ATOM      3  C   UNL     1     -10.360  53.286  53.066  0.00  0.00    +0.000 A 
ATOM      4  O   UNL     1      -8.600  56.045  51.669  0.00  0.00    +0.000 OA
ATOM      5  N   UNL     1      -7.703  54.271  52.829  0.00  0.00    +0.000 N 
ATOM      6  C   UNL     1      -9.252  52.622  53.767  0.00  0.00    +0.000 A 
ATOM      7  C   UNL     1      -7.936  53.104  53.622  0.00  0.00    +0.000 A 
ATOM      8  C   UNL     1      -9.492  51.506  54.588  0.00  0.00    +0.000 A 
ATOM      9  C   UNL     1      -6.898  52.447  54.299  0.00  0.00    +0.000 A 
ATOM     10  C   UNL     1      -8.453  50.887  55.277  0.00  0.00    +0.000 A 
ATOM     11  C   UNL     1      -7.156  51.359  55.133  0.00  0.00    +0.000 A 
ENDROOT
BRANCH   1  17
ATOM     12  S   UNL     1     -12.357  55.943  49.499  0.00  0.00    +0.000 S 
ATOM     13  O   UNL     1     -13.261  54.986  48.882  0.00  0.00    +0.000 OA
ATOM     14  O   UNL     1     -11.654  56.918  48.682  0.00  0.00    +0.000 OA
ATOM     15  N   UNL     1     -11.252  55.108  50.340  0.00  0.00    +0.000 N 
ATOM     16  C   UNL     1     -13.330  56.873  50.629  0.00  0.00    +0.000 A 
ATOM     17  C   UNL     1     -11.262  55.111  51.639  0.00  0.00    +0.000 C 
ATOM     18  C   UNL     1     -13.117  56.667  51.981  0.00  0.00    +0.000 A 
ATOM     19  C   UNL     1     -14.266  57.797  50.162  0.00  0.00    +0.000 A 
ATOM     20  N   UNL     1     -12.194  55.731  52.438  0.00  0.00    +0.000 N 
ATOM     21  C   UNL     1     -13.907  57.370  52.896  0.00  0.00    +0.000 A 
ATOM     22  C   UNL     1     -15.027  58.513  51.085  0.00  0.00    +0.000 A 
ATOM     23  C   UNL     1     -14.852  58.295  52.450  0.00  0.00    +0.000 A 
ATOM     24  H   UNL     1     -10.565  54.592  49.860  0.00  0.00    +0.000 HD
ATOM     25  H   UNL     1     -12.209  55.499  53.394  0.00  0.00    +0.000 HD
ENDBRANCH   1  17
BRANCH   3  26
ATOM     26  O   UNL     1     -11.607  52.712  53.250  0.00  0.00    +0.000 OA
ATOM     27  H   UNL     1     -12.054  52.321  52.524  0.00  0.00    +0.000 HD
ENDBRANCH   3  26
BRANCH   5  28
ATOM     28  C   UNL     1      -6.345  54.801  52.634  0.00  0.00    +0.000 C 
BRANCH  28  29
ATOM     29  C   UNL     1      -5.808  54.508  51.225  0.00  0.00    +0.000 C 
BRANCH  29  30
ATOM     30  C   UNL     1      -5.678  53.004  50.889  0.00  0.00    +0.000 C 
ATOM     31  C   UNL     1      -4.254  52.710  50.404  0.00  0.00    +0.000 C 
BRANCH  30  32
ATOM     32  C   UNL     1      -6.721  52.482  49.878  0.00  0.00    +0.000 C 
ATOM     33  C   UNL     1      -7.692  51.444  50.428  0.00  0.00    +0.000 C 
ENDBRANCH  30  32
ENDBRANCH  29  30
ENDBRANCH  28  29
ENDBRANCH   5  28
TORSDOF 6
ENDMDL
MODEL 2
REMARK VINA RESULT:      -7.6      2.546      8.024
REMARK  Name = 338048
REMARK  8 active torsions:
REMARK  status: ('A' for Active; 'I' for Inactive)
REMARK    1  A    between atoms: C_6  and  C_10
REMARK    2  A    between atoms: C_14  and  O_18
REMARK    3  A    between atoms: N_17  and  C_21
REMARK    4  A    between atoms: C_21  and  C_24
REMARK    5  A    between atoms: C_24  and  C_27
REMARK    6  A    between atoms: C_27  and  C_28
REMARK    7  A    between atoms: C_27  and  C_29
REMARK    8  A    between atoms: C_28  and  C_30
REMARK                            x       y       z     vdW  Elec       q    Type
REMARK                         _______ _______ _______ _____ _____    ______ ____
ROOT
ATOM      1  C   UNL     1      -9.921  54.796  51.052  0.00  0.00    +0.000 A 
ATOM      2  C   UNL     1     -11.258  55.251  51.542  0.00  0.00    +0.000 A 
ATOM      3  C   UNL     1      -9.643  54.806  49.738  0.00  0.00    +0.000 A 
ATOM      4  O   UNL     1     -11.436  55.351  52.762  0.00  0.00    +0.000 OA
ATOM      5  N   UNL     1     -12.240  55.561  50.615  0.00  0.00    +0.000 N 
ATOM      6  C   UNL     1     -10.662  55.238  48.771  0.00  0.00    +0.000 A 
ATOM      7  C   UNL     1     -11.953  55.586  49.215  0.00  0.00    +0.000 A 
ATOM      8  C   UNL     1     -10.359  55.312  47.399  0.00  0.00    +0.000 A 
ATOM      9  C   UNL     1     -12.905  55.991  48.269  0.00  0.00    +0.000 A 
ATOM     10  C   UNL     1     -11.309  55.746  46.479  0.00  0.00    +0.000 A 
ATOM     11  C   UNL     1     -12.582  56.086  46.915  0.00  0.00    +0.000 A 
ENDROOT
BRANCH   1  17
ATOM     12  S   UNL     1      -6.506  54.593  52.977  0.00  0.00    +0.000 S 
ATOM     13  O   UNL     1      -6.331  55.650  53.959  0.00  0.00    +0.000 OA
ATOM     14  O   UNL     1      -5.394  54.181  52.138  0.00  0.00    +0.000 OA
ATOM     15  N   UNL     1      -7.733  55.016  52.007  0.00  0.00    +0.000 N 
ATOM     16  C   UNL     1      -6.982  53.162  53.881  0.00  0.00    +0.000 A 
ATOM     17  C   UNL     1      -8.874  54.397  52.067  0.00  0.00    +0.000 C 
ATOM     18  C   UNL     1      -8.286  52.720  53.745  0.00  0.00    +0.000 A 
ATOM     19  C   UNL     1      -6.058  52.497  54.688  0.00  0.00    +0.000 A 
ATOM     20  N   UNL     1      -9.206  53.399  52.953  0.00  0.00    +0.000 N 
ATOM     21  C   UNL     1      -8.694  51.606  54.486  0.00  0.00    +0.000 A 
ATOM     22  C   UNL     1      -6.469  51.370  55.399  0.00  0.00    +0.000 A 
ATOM     23  C   UNL     1      -7.787  50.929  55.303  0.00  0.00    +0.000 A 
ATOM     24  H   UNL     1      -7.612  55.752  51.364  0.00  0.00    +0.000 HD
ATOM     25  H   UNL     1     -10.154  53.150  53.031  0.00  0.00    +0.000 HD
ENDBRANCH   1  17
BRANCH   3  26
ATOM     26  O   UNL     1      -8.419  54.454  49.193  0.00  0.00    +0.000 OA
ATOM     27  H   UNL     1      -7.804  55.120  48.955  0.00  0.00    +0.000 HD
ENDBRANCH   3  26
BRANCH   5  28
ATOM     28  C   UNL     1     -13.577  55.898  51.125  0.00  0.00    +0.000 C 
BRANCH  28  29
ATOM     29  C   UNL     1     -13.676  57.367  51.560  0.00  0.00    +0.000 C 
BRANCH  29  30
ATOM     30  C   UNL     1     -15.115  57.935  51.576  0.00  0.00    +0.000 C 
ATOM     31  C   UNL     1     -16.068  56.929  50.920  0.00  0.00    +0.000 C 
BRANCH  30  32
ATOM     32  C   UNL     1     -15.259  59.330  50.932  0.00  0.00    +0.000 C 
ATOM     33  C   UNL     1     -14.088  59.765  50.062  0.00  0.00    +0.000 C 
ENDBRANCH  30  32
ENDBRANCH  29  30
ENDBRANCH  28  29
ENDBRANCH   5  28
TORSDOF 6
ENDMDL
MODEL 3
REMARK VINA RESULT:      -7.6      3.526      4.814
REMARK  Name = 338048
REMARK  8 active torsions:
REMARK  status: ('A' for Active; 'I' for Inactive)
REMARK    1  A    between atoms: C_6  and  C_10
REMARK    2  A    between atoms: C_14  and  O_18
REMARK    3  A    between atoms: N_17  and  C_21
REMARK    4  A    between atoms: C_21  and  C_24
REMARK    5  A    between atoms: C_24  and  C_27
REMARK    6  A    between atoms: C_27  and  C_28
REMARK    7  A    between atoms: C_27  and  C_29
REMARK    8  A    between atoms: C_28  and  C_30
REMARK                            x       y       z     vdW  Elec       q    Type
REMARK                         _______ _______ _______ _____ _____    ______ ____
ROOT
ATOM      1  C   UNL     1     -12.259  54.251  50.241  0.00  0.00    +0.000 A 
ATOM      2  C   UNL     1     -11.987  53.893  48.815  0.00  0.00    +0.000 A 
ATOM      3  C   UNL     1     -11.707  53.536  51.235  0.00  0.00    +0.000 A 
ATOM      4  O   UNL     1     -12.406  54.646  47.927  0.00  0.00    +0.000 OA
ATOM      5  N   UNL     1     -11.263  52.744  48.540  0.00  0.00    +0.000 N 
ATOM      6  C   UNL     1     -10.853  52.380  50.927  0.00  0.00    +0.000 A 
ATOM      7  C   UNL     1     -10.661  51.982  49.589  0.00  0.00    +0.000 A 
ATOM      8  C   UNL     1     -10.220  51.665  51.959  0.00  0.00    +0.000 A 
ATOM      9  C   UNL     1      -9.845  50.872  49.326  0.00  0.00    +0.000 A 
ATOM     10  C   UNL     1      -9.388  50.585  51.675  0.00  0.00    +0.000 A 
ATOM     11  C   UNL     1      -9.200  50.190  50.358  0.00  0.00    +0.000 A 
ENDROOT
BRANCH   1  17
ATOM     12  S   UNL     1     -15.285  56.487  51.360  0.00  0.00    +0.000 S 
ATOM     13  O   UNL     1     -15.320  56.740  52.790  0.00  0.00    +0.000 OA
ATOM     14  O   UNL     1     -16.513  56.200  50.636  0.00  0.00    +0.000 OA
ATOM     15  N   UNL     1     -14.256  55.262  51.099  0.00  0.00    +0.000 N 
ATOM     16  C   UNL     1     -14.620  57.938  50.623  0.00  0.00    +0.000 A 
ATOM     17  C   UNL     1     -13.104  55.470  50.534  0.00  0.00    +0.000 C 
ATOM     18  C   UNL     1     -13.347  57.861  50.088  0.00  0.00    +0.000 A 
ATOM     19  C   UNL     1     -15.373  59.112  50.572  0.00  0.00    +0.000 A 
ATOM     20  N   UNL     1     -12.597  56.691  50.160  0.00  0.00    +0.000 N 
ATOM     21  C   UNL     1     -12.785  59.015  49.532  0.00  0.00    +0.000 A 
ATOM     22  C   UNL     1     -14.813  60.248  49.989  0.00  0.00    +0.000 A 
ATOM     23  C   UNL     1     -13.518  60.201  49.475  0.00  0.00    +0.000 A 
ATOM     24  H   UNL     1     -14.507  54.351  51.372  0.00  0.00    +0.000 HD
ATOM     25  H   UNL     1     -11.642  56.741  49.927  0.00  0.00    +0.000 HD
ENDBRANCH   1  17
BRANCH   3  26
ATOM     26  O   UNL     1     -11.856  53.821  52.582  0.00  0.00    +0.000 OA
ATOM     27  H   UNL     1     -12.180  53.164  53.167  0.00  0.00    +0.000 HD
ENDBRANCH   3  26
BRANCH   5  28
ATOM     28  C   UNL     1     -11.106  52.357  47.130  0.00  0.00    +0.000 C 
BRANCH  28  29
ATOM     29  C   UNL     1      -9.832  52.945  46.508  0.00  0.00    +0.000 C 
BRANCH  29  30
ATOM     30  C   UNL     1     -10.030  53.560  45.103  0.00  0.00    +0.000 C 
ATOM     31  C   UNL     1     -11.476  53.336  44.647  0.00  0.00    +0.000 C 
BRANCH  30  32
ATOM     32  C   UNL     1      -9.033  53.058  44.038  0.00  0.00    +0.000 C 
ATOM     33  C   UNL     1      -9.663  52.596  42.729  0.00  0.00    +0.000 C 
ENDBRANCH  30  32
ENDBRANCH  29  30
ENDBRANCH  28  29
ENDBRANCH   5  28
TORSDOF 6
ENDMDL
MODEL 4
REMARK VINA RESULT:      -7.6      3.275      7.056
REMARK  Name = 338048
REMARK  8 active torsions:
REMARK  status: ('A' for Active; 'I' for Inactive)
REMARK    1  A    between atoms: C_6  and  C_10
REMARK    2  A    between atoms: C_14  and  O_18
REMARK    3  A    between atoms: N_17  and  C_21
REMARK    4  A    between atoms: C_21  and  C_24
REMARK    5  A    between atoms: C_24  and  C_27
REMARK    6  A    between atoms: C_27  and  C_28
REMARK    7  A    between atoms: C_27  and  C_29
REMARK    8  A    between atoms: C_28  and  C_30
REMARK                            x       y       z     vdW  Elec       q    Type
REMARK                         _______ _______ _______ _____ _____    ______ ____
ROOT
ATOM      1  C   UNL     1     -10.305  55.190  50.809  0.00  0.00    +0.000 A 
ATOM      2  C   UNL     1      -9.895  55.077  49.375  0.00  0.00    +0.000 A 
ATOM      3  C   UNL     1     -11.521  55.661  51.130  0.00  0.00    +0.000 A 
ATOM      4  O   UNL     1      -8.823  54.522  49.109  0.00  0.00    +0.000 OA
ATOM      5  N   UNL     1     -10.737  55.583  48.398  0.00  0.00    +0.000 N 
ATOM      6  C   UNL     1     -12.446  56.097  50.074  0.00  0.00    +0.000 A 
ATOM      7  C   UNL     1     -12.038  56.077  48.726  0.00  0.00    +0.000 A 
ATOM      8  C   UNL     1     -13.744  56.532  50.397  0.00  0.00    +0.000 A 
ATOM      9  C   UNL     1     -12.941  56.502  47.742  0.00  0.00    +0.000 A 
ATOM     10  C   UNL     1     -14.637  56.921  49.403  0.00  0.00    +0.000 A 
ATOM     11  C   UNL     1     -14.235  56.904  48.075  0.00  0.00    +0.000 A 
ENDROOT
BRANCH   1  17
ATOM     12  S   UNL     1      -7.068  54.771  52.990  0.00  0.00    +0.000 S 
ATOM     13  O   UNL     1      -6.958  55.752  54.056  0.00  0.00    +0.000 OA
ATOM     14  O   UNL     1      -5.897  54.395  52.217  0.00  0.00    +0.000 OA
ATOM     15  N   UNL     1      -8.202  55.291  51.955  0.00  0.00    +0.000 N 
ATOM     16  C   UNL     1      -7.642  53.292  53.745  0.00  0.00    +0.000 A 
ATOM     17  C   UNL     1      -9.354  54.696  51.875  0.00  0.00    +0.000 C 
ATOM     18  C   UNL     1      -8.938  52.891  53.470  0.00  0.00    +0.000 A 
ATOM     19  C   UNL     1      -6.801  52.549  54.575  0.00  0.00    +0.000 A 
ATOM     20  N   UNL     1      -9.776  53.645  52.656  0.00  0.00    +0.000 N 
ATOM     21  C   UNL     1      -9.426  51.737  54.092  0.00  0.00    +0.000 A 
ATOM     22  C   UNL     1      -7.289  51.385  55.166  0.00  0.00    +0.000 A 
ATOM     23  C   UNL     1      -8.603  50.983  54.929  0.00  0.00    +0.000 A 
ATOM     24  H   UNL     1      -8.015  56.067  51.379  0.00  0.00    +0.000 HD
ATOM     25  H   UNL     1     -10.732  53.413  52.637  0.00  0.00    +0.000 HD
ENDBRANCH   1  17
BRANCH   3  26
ATOM     26  O   UNL     1     -12.010  55.753  52.422  0.00  0.00    +0.000 OA
ATOM     27  H   UNL     1     -12.635  56.417  52.641  0.00  0.00    +0.000 HD
ENDBRANCH   3  26
BRANCH   5  28
ATOM     28  C   UNL     1     -10.260  55.560  47.007  0.00  0.00    +0.000 C 
BRANCH  28  29
ATOM     29  C   UNL     1     -10.677  54.277  46.274  0.00  0.00    +0.000 C 
BRANCH  29  30
ATOM     30  C   UNL     1      -9.519  53.540  45.561  0.00  0.00    +0.000 C 
ATOM     31  C   UNL     1      -8.305  54.472  45.463  0.00  0.00    +0.000 C 
BRANCH  30  32
ATOM     32  C   UNL     1      -9.882  52.964  44.177  0.00  0.00    +0.000 C 
ATOM     33  C   UNL     1      -8.713  52.810  43.212  0.00  0.00    +0.000 C 
ENDBRANCH  30  32
ENDBRANCH  29  30
ENDBRANCH  28  29
ENDBRANCH   5  28
TORSDOF 6
ENDMDL
MODEL 5
REMARK VINA RESULT:      -7.5      2.720      8.177
REMARK  Name = 338048
REMARK  8 active torsions:
REMARK  status: ('A' for Active; 'I' for Inactive)
REMARK    1  A    between atoms: C_6  and  C_10
REMARK    2  A    between atoms: C_14  and  O_18
REMARK    3  A    between atoms: N_17  and  C_21
REMARK    4  A    between atoms: C_21  and  C_24
REMARK    5  A    between atoms: C_24  and  C_27
REMARK    6  A    between atoms: C_27  and  C_28
REMARK    7  A    between atoms: C_27  and  C_29
REMARK    8  A    between atoms: C_28  and  C_30
REMARK                            x       y       z     vdW  Elec       q    Type
REMARK                         _______ _______ _______ _____ _____    ______ ____
ROOT
ATOM      1  C   UNL     1      -9.895  54.126  50.626  0.00  0.00    +0.000 A 
ATOM      2  C   UNL     1     -11.067  54.577  51.438  0.00  0.00    +0.000 A 
ATOM      3  C   UNL     1      -9.846  54.379  49.308  0.00  0.00    +0.000 A 
ATOM      4  O   UNL     1     -11.022  54.442  52.666  0.00  0.00    +0.000 OA
ATOM      5  N   UNL     1     -12.151  55.144  50.787  0.00  0.00    +0.000 N 
ATOM      6  C   UNL     1     -10.959  55.077  48.649  0.00  0.00    +0.000 A 
ATOM      7  C   UNL     1     -12.107  55.429  49.387  0.00  0.00    +0.000 A 
ATOM      8  C   UNL     1     -10.889  55.402  47.283  0.00  0.00    +0.000 A 
ATOM      9  C   UNL     1     -13.154  56.090  48.730  0.00  0.00    +0.000 A 
ATOM     10  C   UNL     1     -11.926  56.087  46.656  0.00  0.00    +0.000 A 
ATOM     11  C   UNL     1     -13.059  56.432  47.380  0.00  0.00    +0.000 A 
ENDROOT
BRANCH   1  17
ATOM     12  S   UNL     1      -7.893  51.744  53.019  0.00  0.00    +0.000 S 
ATOM     13  O   UNL     1      -7.676  50.417  52.466  0.00  0.00    +0.000 OA
ATOM     14  O   UNL     1      -8.243  51.906  54.420  0.00  0.00    +0.000 OA
ATOM     15  N   UNL     1      -9.039  52.468  52.132  0.00  0.00    +0.000 N 
ATOM     16  C   UNL     1      -6.384  52.617  52.796  0.00  0.00    +0.000 A 
ATOM     17  C   UNL     1      -8.743  53.449  51.333  0.00  0.00    +0.000 C 
ATOM     18  C   UNL     1      -6.363  53.635  51.860  0.00  0.00    +0.000 A 
ATOM     19  C   UNL     1      -5.261  52.294  53.560  0.00  0.00    +0.000 A 
ATOM     20  N   UNL     1      -7.481  53.939  51.090  0.00  0.00    +0.000 N 
ATOM     21  C   UNL     1      -5.161  54.316  51.641  0.00  0.00    +0.000 A 
ATOM     22  C   UNL     1      -4.077  52.999  53.353  0.00  0.00    +0.000 A 
ATOM     23  C   UNL     1      -4.026  54.005  52.390  0.00  0.00    +0.000 A 
ATOM     24  H   UNL     1      -9.972  52.161  52.199  0.00  0.00    +0.000 HD
ATOM     25  H   UNL     1      -7.362  54.544  50.324  0.00  0.00    +0.000 HD
ENDBRANCH   1  17
BRANCH   3  26
ATOM     26  O   UNL     1      -8.782  54.049  48.485  0.00  0.00    +0.000 OA
ATOM     27  H   UNL     1      -8.928  53.890  47.573  0.00  0.00    +0.000 HD
ENDBRANCH   3  26
BRANCH   5  28
ATOM     28  C   UNL     1     -13.335  55.476  51.595  0.00  0.00    +0.000 C 
BRANCH  28  29
ATOM     29  C   UNL     1     -13.202  56.845  52.278  0.00  0.00    +0.000 C 
BRANCH  29  30
ATOM     30  C   UNL     1     -14.550  57.520  52.626  0.00  0.00    +0.000 C 
ATOM     31  C   UNL     1     -15.687  56.800  51.890  0.00  0.00    +0.000 C 
BRANCH  30  32
ATOM     32  C   UNL     1     -14.595  59.038  52.355  0.00  0.00    +0.000 C 
ATOM     33  C   UNL     1     -14.689  59.431  50.886  0.00  0.00    +0.000 C 
ENDBRANCH  30  32
ENDBRANCH  29  30
ENDBRANCH  28  29
ENDBRANCH   5  28
TORSDOF 6
ENDMDL
MODEL 6
REMARK VINA RESULT:      -7.5      2.934      4.934
REMARK  Name = 338048
REMARK  8 active torsions:
REMARK  status: ('A' for Active; 'I' for Inactive)
REMARK    1  A    between atoms: C_6  and  C_10
REMARK    2  A    between atoms: C_14  and  O_18
REMARK    3  A    between atoms: N_17  and  C_21
REMARK    4  A    between atoms: C_21  and  C_24
REMARK    5  A    between atoms: C_24  and  C_27
REMARK    6  A    between atoms: C_27  and  C_28
REMARK    7  A    between atoms: C_27  and  C_29
REMARK    8  A    between atoms: C_28  and  C_30
REMARK                            x       y       z     vdW  Elec       q    Type
REMARK                         _______ _______ _______ _____ _____    ______ ____
ROOT
ATOM      1  C   UNL     1     -11.471  55.920  48.863  0.00  0.00    +0.000 A 
ATOM      2  C   UNL     1     -10.476  55.295  49.788  0.00  0.00    +0.000 A 
ATOM      3  C   UNL     1     -11.504  55.569  47.567  0.00  0.00    +0.000 A 
ATOM      4  O   UNL     1     -10.556  55.545  50.996  0.00  0.00    +0.000 OA
ATOM      5  N   UNL     1      -9.514  54.448  49.261  0.00  0.00    +0.000 N 
ATOM      6  C   UNL     1     -10.543  54.587  47.043  0.00  0.00    +0.000 A 
ATOM      7  C   UNL     1      -9.546  54.057  47.886  0.00  0.00    +0.000 A 
ATOM      8  C   UNL     1     -10.611  54.166  45.703  0.00  0.00    +0.000 A 
ATOM      9  C   UNL     1      -8.641  53.126  47.357  0.00  0.00    +0.000 A 
ATOM     10  C   UNL     1      -9.723  53.217  45.205  0.00  0.00    +0.000 A 
ATOM     11  C   UNL     1      -8.738  52.697  46.033  0.00  0.00    +0.000 A 
ENDROOT
BRANCH   1  17
ATOM     12  S   UNL     1     -13.550  59.201  49.429  0.00  0.00    +0.000 S 
ATOM     13  O   UNL     1     -14.687  59.327  48.533  0.00  0.00    +0.000 OA
ATOM     14  O   UNL     1     -12.728  60.359  49.738  0.00  0.00    +0.000 OA
ATOM     15  N   UNL     1     -12.580  58.045  48.838  0.00  0.00    +0.000 N 
ATOM     16  C   UNL     1     -14.199  58.649  50.966  0.00  0.00    +0.000 A 
ATOM     17  C   UNL     1     -12.477  56.894  49.432  0.00  0.00    +0.000 C 
ATOM     18  C   UNL     1     -13.919  57.350  51.352  0.00  0.00    +0.000 A 
ATOM     19  C   UNL     1     -14.953  59.510  51.765  0.00  0.00    +0.000 A 
ATOM     20  N   UNL     1     -13.182  56.492  50.542  0.00  0.00    +0.000 N 
ATOM     21  C   UNL     1     -14.459  56.880  52.554  0.00  0.00    +0.000 A 
ATOM     22  C   UNL     1     -15.461  59.038  52.975  0.00  0.00    +0.000 A 
ATOM     23  C   UNL     1     -15.219  57.722  53.366  0.00  0.00    +0.000 A 
ATOM     24  H   UNL     1     -12.064  58.217  48.018  0.00  0.00    +0.000 HD
ATOM     25  H   UNL     1     -13.164  55.537  50.778  0.00  0.00    +0.000 HD
ENDBRANCH   1  17
BRANCH   3  26
ATOM     26  O   UNL     1     -12.420  56.051  46.647  0.00  0.00    +0.000 OA
ATOM     27  H   UNL     1     -13.302  55.731  46.652  0.00  0.00    +0.000 HD
ENDBRANCH   3  26
BRANCH   5  28
ATOM     28  C   UNL     1      -8.482  53.936  50.175  0.00  0.00    +0.000 C 
BRANCH  28  29
ATOM     29  C   UNL     1      -7.287  54.894  50.291  0.00  0.00    +0.000 C 
BRANCH  29  30
ATOM     30  C   UNL     1      -6.646  54.950  51.697  0.00  0.00    +0.000 C 
ATOM     31  C   UNL     1      -6.620  53.541  52.303  0.00  0.00    +0.000 C 
BRANCH  30  32
ATOM     32  C   UNL     1      -7.309  55.952  52.664  0.00  0.00    +0.000 C 
ATOM     33  C   UNL     1      -7.628  55.401  54.049  0.00  0.00    +0.000 C 
ENDBRANCH  30  32
ENDBRANCH  29  30
ENDBRANCH  28  29
ENDBRANCH   5  28
TORSDOF 6
ENDMDL
MODEL 7
REMARK VINA RESULT:      -7.5      1.979      3.129
REMARK  Name = 338048
REMARK  8 active torsions:
REMARK  status: ('A' for Active; 'I' for Inactive)
REMARK    1  A    between atoms: C_6  and  C_10
REMARK    2  A    between atoms: C_14  and  O_18
REMARK    3  A    between atoms: N_17  and  C_21
REMARK    4  A    between atoms: C_21  and  C_24
REMARK    5  A    between atoms: C_24  and  C_27
REMARK    6  A    between atoms: C_27  and  C_28
REMARK    7  A    between atoms: C_27  and  C_29
REMARK    8  A    between atoms: C_28  and  C_30
REMARK                            x       y       z     vdW  Elec       q    Type
REMARK                         _______ _______ _______ _____ _____    ______ ____
ROOT
ATOM      1  C   UNL     1     -11.596  53.984  51.178  0.00  0.00    +0.000 A 
ATOM      2  C   UNL     1     -10.691  54.032  52.367  0.00  0.00    +0.000 A 
ATOM      3  C   UNL     1     -11.682  52.866  50.438  0.00  0.00    +0.000 A 
ATOM      4  O   UNL     1     -10.731  55.028  53.100  0.00  0.00    +0.000 OA
ATOM      5  N   UNL     1      -9.854  52.956  52.615  0.00  0.00    +0.000 N 
ATOM      6  C   UNL     1     -10.864  51.692  50.776  0.00  0.00    +0.000 A 
ATOM      7  C   UNL     1      -9.944  51.757  51.841  0.00  0.00    +0.000 A 
ATOM      8  C   UNL     1     -10.994  50.498  50.046  0.00  0.00    +0.000 A 
ATOM      9  C   UNL     1      -9.175  50.622  52.137  0.00  0.00    +0.000 A 
ATOM     10  C   UNL     1     -10.244  49.372  50.375  0.00  0.00    +0.000 A 
ATOM     11  C   UNL     1      -9.335  49.435  51.422  0.00  0.00    +0.000 A 
ENDROOT
BRANCH   1  17
ATOM     12  S   UNL     1     -13.165  57.044  49.285  0.00  0.00    +0.000 S 
ATOM     13  O   UNL     1     -14.238  56.675  48.378  0.00  0.00    +0.000 OA
ATOM     14  O   UNL     1     -12.185  58.044  48.894  0.00  0.00    +0.000 OA
ATOM     15  N   UNL     1     -12.365  55.691  49.682  0.00  0.00    +0.000 N 
ATOM     16  C   UNL     1     -13.943  57.672  50.731  0.00  0.00    +0.000 A 
ATOM     17  C   UNL     1     -12.460  55.187  50.875  0.00  0.00    +0.000 C 
ATOM     18  C   UNL     1     -13.879  56.905  51.880  0.00  0.00    +0.000 A 
ATOM     19  C   UNL     1     -14.582  58.913  50.706  0.00  0.00    +0.000 A 
ATOM     20  N   UNL     1     -13.256  55.661  51.891  0.00  0.00    +0.000 N 
ATOM     21  C   UNL     1     -14.525  57.370  53.030  0.00  0.00    +0.000 A 
ATOM     22  C   UNL     1     -15.197  59.379  51.867  0.00  0.00    +0.000 A 
ATOM     23  C   UNL     1     -15.174  58.605  53.026  0.00  0.00    +0.000 A 
ATOM     24  H   UNL     1     -11.800  55.246  49.009  0.00  0.00    +0.000 HD
ATOM     25  H   UNL     1     -13.392  55.085  52.677  0.00  0.00    +0.000 HD
ENDBRANCH   1  17
BRANCH   3  26
ATOM     26  O   UNL     1     -12.529  52.707  49.354  0.00  0.00    +0.000 OA
ATOM     27  H   UNL     1     -13.253  52.114  49.408  0.00  0.00    +0.000 HD
ENDBRANCH   3  26
BRANCH   5  28
ATOM     28  C   UNL     1      -8.896  53.076  53.724  0.00  0.00    +0.000 C 
BRANCH  28  29
ATOM     29  C   UNL     1      -7.557  53.672  53.267  0.00  0.00    +0.000 C 
BRANCH  29  30
ATOM     30  C   UNL     1      -7.016  54.802  54.175  0.00  0.00    +0.000 C 
ATOM     31  C   UNL     1      -7.201  56.153  53.475  0.00  0.00    +0.000 C 
BRANCH  30  32
ATOM     32  C   UNL     1      -5.553  54.613  54.629  0.00  0.00    +0.000 C 
ATOM     33  C   UNL     1      -4.759  53.581  53.839  0.00  0.00    +0.000 C 
ENDBRANCH  30  32
ENDBRANCH  29  30
ENDBRANCH  28  29
ENDBRANCH   5  28
TORSDOF 6
ENDMDL
MODEL 8
REMARK VINA RESULT:      -7.3      3.306      4.657
REMARK  Name = 338048
REMARK  8 active torsions:
REMARK  status: ('A' for Active; 'I' for Inactive)
REMARK    1  A    between atoms: C_6  and  C_10
REMARK    2  A    between atoms: C_14  and  O_18
REMARK    3  A    between atoms: N_17  and  C_21
REMARK    4  A    between atoms: C_21  and  C_24
REMARK    5  A    between atoms: C_24  and  C_27
REMARK    6  A    between atoms: C_27  and  C_28
REMARK    7  A    between atoms: C_27  and  C_29
REMARK    8  A    between atoms: C_28  and  C_30
REMARK                            x       y       z     vdW  Elec       q    Type
REMARK                         _______ _______ _______ _____ _____    ______ ____
ROOT
ATOM      1  C   UNL     1     -11.346  55.298  49.523  0.00  0.00    +0.000 A 
ATOM      2  C   UNL     1     -11.400  54.655  48.174  0.00  0.00    +0.000 A 
ATOM      3  C   UNL     1     -10.384  54.959  50.396  0.00  0.00    +0.000 A 
ATOM      4  O   UNL     1     -12.218  55.080  47.350  0.00  0.00    +0.000 OA
ATOM      5  N   UNL     1     -10.521  53.622  47.891  0.00  0.00    +0.000 N 
ATOM      6  C   UNL     1      -9.392  53.934  50.041  0.00  0.00    +0.000 A 
ATOM      7  C   UNL     1      -9.485  53.260  48.807  0.00  0.00    +0.000 A 
ATOM      8  C   UNL     1      -8.343  53.618  50.923  0.00  0.00    +0.000 A 
ATOM      9  C   UNL     1      -8.528  52.284  48.497  0.00  0.00    +0.000 A 
ATOM     10  C   UNL     1      -7.384  52.668  50.584  0.00  0.00    +0.000 A 
ATOM     11  C   UNL     1      -7.476  52.002  49.370  0.00  0.00    +0.000 A 
ENDROOT
BRANCH   1  17
ATOM     12  S   UNL     1     -13.338  58.677  49.382  0.00  0.00    +0.000 S 
ATOM     13  O   UNL     1     -14.415  58.674  48.407  0.00  0.00    +0.000 OA
ATOM     14  O   UNL     1     -12.495  59.850  49.540  0.00  0.00    +0.000 OA
ATOM     15  N   UNL     1     -12.376  57.413  49.062  0.00  0.00    +0.000 N 
ATOM     16  C   UNL     1     -14.097  58.416  50.946  0.00  0.00    +0.000 A 
ATOM     17  C   UNL     1     -12.350  56.380  49.851  0.00  0.00    +0.000 C 
ATOM     18  C   UNL     1     -13.886  57.197  51.567  0.00  0.00    +0.000 A 
ATOM     19  C   UNL     1     -14.865  59.421  51.536  0.00  0.00    +0.000 A 
ATOM     20  N   UNL     1     -13.133  56.194  50.965  0.00  0.00    +0.000 N 
ATOM     21  C   UNL     1     -14.512  56.956  52.794  0.00  0.00    +0.000 A 
ATOM     22  C   UNL     1     -15.461  59.179  52.772  0.00  0.00    +0.000 A 
ATOM     23  C   UNL     1     -15.289  57.946  53.398  0.00  0.00    +0.000 A 
ATOM     24  H   UNL     1     -11.806  57.427  48.260  0.00  0.00    +0.000 HD
ATOM     25  H   UNL     1     -13.163  55.295  51.363  0.00  0.00    +0.000 HD
ENDBRANCH   1  17
BRANCH   3  26
ATOM     26  O   UNL     1     -10.220  55.534  51.645  0.00  0.00    +0.000 OA
ATOM     27  H   UNL     1     -10.738  55.238  52.369  0.00  0.00    +0.000 HD
ENDBRANCH   3  26
BRANCH   5  28
ATOM     28  C   UNL     1     -10.670  52.935  46.599  0.00  0.00    +0.000 C 
BRANCH  28  29
ATOM     29  C   UNL     1     -10.164  53.790  45.428  0.00  0.00    +0.000 C 
BRANCH  29  30
ATOM     30  C   UNL     1      -8.716  53.473  44.983  0.00  0.00    +0.000 C 
ATOM     31  C   UNL     1      -7.821  54.688  45.253  0.00  0.00    +0.000 C 
BRANCH  30  32
ATOM     32  C   UNL     1      -8.585  53.009  43.517  0.00  0.00    +0.000 C 
ATOM     33  C   UNL     1      -9.886  52.568  42.859  0.00  0.00    +0.000 C 
ENDBRANCH  30  32
ENDBRANCH  29  30
ENDBRANCH  28  29
ENDBRANCH   5  28
TORSDOF 6
ENDMDL
MODEL 9
REMARK VINA RESULT:      -7.3      3.475      7.158
REMARK  Name = 338048
REMARK  8 active torsions:
REMARK  status: ('A' for Active; 'I' for Inactive)
REMARK    1  A    between atoms: C_6  and  C_10
REMARK    2  A    between atoms: C_14  and  O_18
REMARK    3  A    between atoms: N_17  and  C_21
REMARK    4  A    between atoms: C_21  and  C_24
REMARK    5  A    between atoms: C_24  and  C_27
REMARK    6  A    between atoms: C_27  and  C_28
REMARK    7  A    between atoms: C_27  and  C_29
REMARK    8  A    between atoms: C_28  and  C_30
REMARK                            x       y       z     vdW  Elec       q    Type
REMARK                         _______ _______ _______ _____ _____    ______ ____
ROOT
ATOM      1  C   UNL     1     -10.477  54.793  50.459  0.00  0.00    +0.000 A 
ATOM      2  C   UNL     1     -10.143  54.748  49.002  0.00  0.00    +0.000 A 
ATOM      3  C   UNL     1     -11.618  55.366  50.874  0.00  0.00    +0.000 A 
ATOM      4  O   UNL     1      -9.151  54.104  48.643  0.00  0.00    +0.000 OA
ATOM      5  N   UNL     1     -10.966  55.414  48.107  0.00  0.00    +0.000 N 
ATOM      6  C   UNL     1     -12.535  55.977  49.901  0.00  0.00    +0.000 A 
ATOM      7  C   UNL     1     -12.189  56.017  48.536  0.00  0.00    +0.000 A 
ATOM      8  C   UNL     1     -13.762  56.522  50.320  0.00  0.00    +0.000 A 
ATOM      9  C   UNL     1     -13.082  56.610  47.631  0.00  0.00    +0.000 A 
ATOM     10  C   UNL     1     -14.648  57.078  49.403  0.00  0.00    +0.000 A 
ATOM     11  C   UNL     1     -14.308  57.121  48.058  0.00  0.00    +0.000 A 
ENDROOT
BRANCH   1  17
ATOM     12  S   UNL     1      -9.036  52.210  53.039  0.00  0.00    +0.000 S 
ATOM     13  O   UNL     1      -8.399  51.062  52.415  0.00  0.00    +0.000 OA
ATOM     14  O   UNL     1      -9.879  52.033  54.210  0.00  0.00    +0.000 OA
ATOM     15  N   UNL     1      -9.912  52.967  51.905  0.00  0.00    +0.000 N 
ATOM     16  C   UNL     1      -7.734  53.278  53.540  0.00  0.00    +0.000 A 
ATOM     17  C   UNL     1      -9.541  54.121  51.437  0.00  0.00    +0.000 C 
ATOM     18  C   UNL     1      -7.575  54.465  52.848  0.00  0.00    +0.000 A 
ATOM     19  C   UNL     1      -6.911  52.934  54.613  0.00  0.00    +0.000 A 
ATOM     20  N   UNL     1      -8.388  54.793  51.768  0.00  0.00    +0.000 N 
ATOM     21  C   UNL     1      -6.520  55.311  53.207  0.00  0.00    +0.000 A 
ATOM     22  C   UNL     1      -5.881  53.799  54.980  0.00  0.00    +0.000 A 
ATOM     23  C   UNL     1      -5.682  54.983  54.273  0.00  0.00    +0.000 A 
ATOM     24  H   UNL     1     -10.736  52.547  51.566  0.00  0.00    +0.000 HD
ATOM     25  H   UNL     1      -8.122  55.555  51.205  0.00  0.00    +0.000 HD
ENDBRANCH   1  17
BRANCH   3  26
ATOM     26  O   UNL     1     -12.039  55.409  52.193  0.00  0.00    +0.000 OA
ATOM     27  H   UNL     1     -12.492  54.677  52.565  0.00  0.00    +0.000 HD
ENDBRANCH   3  26
BRANCH   5  28
ATOM     28  C   UNL     1     -10.554  55.447  46.696  0.00  0.00    +0.000 C 
BRANCH  28  29
ATOM     29  C   UNL     1     -11.130  54.268  45.898  0.00  0.00    +0.000 C 
BRANCH  29  30
ATOM     30  C   UNL     1     -10.067  53.373  45.221  0.00  0.00    +0.000 C 
ATOM     31  C   UNL     1      -8.726  54.116  45.176  0.00  0.00    +0.000 C 
BRANCH  30  32
ATOM     32  C   UNL     1     -10.459  52.862  43.819  0.00  0.00    +0.000 C 
ATOM     33  C   UNL     1      -9.496  51.853  43.204  0.00  0.00    +0.000 C 
ENDBRANCH  30  32
ENDBRANCH  29  30
ENDBRANCH  28  29
ENDBRANCH   5  28
TORSDOF 6
ENDMDL
