MODEL 1
REMARK VINA RESULT:      -8.2      0.000      0.000
REMARK  Name = 338298
REMARK  5 active torsions:
REMARK  status: ('A' for Active; 'I' for Inactive)
REMARK    1  A    between atoms: C_6  and  C_10
REMARK    2  A    between atoms: C_14  and  O_18
REMARK    3  A    between atoms: N_17  and  C_21
REMARK    4  A    between atoms: C_21  and  C_24
REMARK    5  A    between atoms: C_24  and  C_27
REMARK                            x       y       z     vdW  Elec       q    Type
REMARK                         _______ _______ _______ _____ _____    ______ ____
ROOT
ATOM      1  C   UNL     1     -10.099  54.390  52.297  0.00  0.00    +0.000 A 
ATOM      2  C   UNL     1      -8.721  54.931  52.145  0.00  0.00    +0.000 A 
ATOM      3  C   UNL     1     -10.316  53.295  53.043  0.00  0.00    +0.000 A 
ATOM      4  O   UNL     1      -8.604  55.939  51.443  0.00  0.00    +0.000 OA
ATOM      5  N   UNL     1      -7.661  54.321  52.802  0.00  0.00    +0.000 N 
ATOM      6  C   UNL     1      -9.198  52.644  53.739  0.00  0.00    +0.000 A 
ATOM      7  C   UNL     1      -7.885  53.141  53.598  0.00  0.00    +0.000 A 
ATOM      8  C   UNL     1      -9.442  51.528  54.561  0.00  0.00    +0.000 A 
ATOM      9  C   UNL     1      -6.851  52.472  54.276  0.00  0.00    +0.000 A 
ATOM     10  C   UNL     1      -8.409  50.910  55.258  0.00  0.00    +0.000 A 
ATOM     11  C   UNL     1      -7.114  51.382  55.112  0.00  0.00    +0.000 A 
ENDROOT
BRANCH   1  17
ATOM     12  S   UNL     1     -12.399  55.963  49.526  0.00  0.00    +0.000 S 
ATOM     13  O   UNL     1     -13.308  55.003  48.933  0.00  0.00    +0.000 OA
ATOM     14  O   UNL     1     -11.726  56.942  48.699  0.00  0.00    +0.000 OA
ATOM     15  N   UNL     1     -11.268  55.132  50.338  0.00  0.00    +0.000 N 
ATOM     16  C   UNL     1     -13.352  56.882  50.683  0.00  0.00    +0.000 A 
ATOM     17  C   UNL     1     -11.243  55.135  51.638  0.00  0.00    +0.000 C 
ATOM     18  C   UNL     1     -13.098  56.687  52.028  0.00  0.00    +0.000 A 
ATOM     19  C   UNL     1     -14.315  57.788  50.234  0.00  0.00    +0.000 A 
ATOM     20  N   UNL     1     -12.152  55.766  52.463  0.00  0.00    +0.000 N 
ATOM     21  C   UNL     1     -13.887  57.379  52.959  0.00  0.00    +0.000 A 
ATOM     22  C   UNL     1     -15.070  58.493  51.169  0.00  0.00    +0.000 A 
ATOM     23  C   UNL     1     -14.861  58.283  52.528  0.00  0.00    +0.000 A 
ATOM     24  H   UNL     1     -10.591  54.618  49.840  0.00  0.00    +0.000 HD
ATOM     25  H   UNL     1     -12.128  55.549  53.423  0.00  0.00    +0.000 HD
ENDBRANCH   1  17
BRANCH   3  26
ATOM     26  O   UNL     1     -11.560  52.723  53.241  0.00  0.00    +0.000 OA
ATOM     27  H   UNL     1     -11.636  51.800  53.377  0.00  0.00    +0.000 HD
ENDBRANCH   3  26
BRANCH   5  28
ATOM     28  C   UNL     1      -6.285  54.815  52.553  0.00  0.00    +0.000 C 
BRANCH  28  29
ATOM     29  C   UNL     1      -5.513  54.139  51.405  0.00  0.00    +0.000 C 
BRANCH  29  30
ATOM     30  C   UNL     1      -5.492  54.943  50.137  0.00  0.00    +0.000 C 
ATOM     31  C   UNL     1      -6.388  54.662  48.962  0.00  0.00    +0.000 C 
ATOM     32  C   UNL     1      -4.933  54.294  48.898  0.00  0.00    +0.000 C 
ENDBRANCH  29  30
ENDBRANCH  28  29
ENDBRANCH   5  28
TORSDOF 5
ENDMDL
MODEL 2
REMARK VINA RESULT:      -8.0      2.584      7.806
REMARK  Name = 338298
REMARK  5 active torsions:
REMARK  status: ('A' for Active; 'I' for Inactive)
REMARK    1  A    between atoms: C_6  and  C_10
REMARK    2  A    between atoms: C_14  and  O_18
REMARK    3  A    between atoms: N_17  and  C_21
REMARK    4  A    between atoms: C_21  and  C_24
REMARK    5  A    between atoms: C_24  and  C_27
REMARK                            x       y       z     vdW  Elec       q    Type
REMARK                         _______ _______ _______ _____ _____    ______ ____
ROOT
ATOM      1  C   UNL     1     -10.045  54.815  50.892  0.00  0.00    +0.000 A 
ATOM      2  C   UNL     1     -11.369  55.343  51.321  0.00  0.00    +0.000 A 
ATOM      3  C   UNL     1      -9.742  54.734  49.586  0.00  0.00    +0.000 A 
ATOM      4  O   UNL     1     -11.573  55.385  52.537  0.00  0.00    +0.000 OA
ATOM      5  N   UNL     1     -12.281  55.782  50.369  0.00  0.00    +0.000 N 
ATOM      6  C   UNL     1     -10.703  55.197  48.575  0.00  0.00    +0.000 A 
ATOM      7  C   UNL     1     -11.964  55.692  48.967  0.00  0.00    +0.000 A 
ATOM      8  C   UNL     1     -10.354  55.157  47.212  0.00  0.00    +0.000 A 
ATOM      9  C   UNL     1     -12.850  56.109  47.958  0.00  0.00    +0.000 A 
ATOM     10  C   UNL     1     -11.231  55.617  46.235  0.00  0.00    +0.000 A 
ATOM     11  C   UNL     1     -12.479  56.090  46.609  0.00  0.00    +0.000 A 
ENDROOT
BRANCH   1  17
ATOM     12  S   UNL     1      -6.763  54.741  53.051  0.00  0.00    +0.000 S 
ATOM     13  O   UNL     1      -6.726  55.780  54.060  0.00  0.00    +0.000 OA
ATOM     14  O   UNL     1      -5.575  54.416  52.291  0.00  0.00    +0.000 OA
ATOM     15  N   UNL     1      -7.940  55.117  52.002  0.00  0.00    +0.000 N 
ATOM     16  C   UNL     1      -7.218  53.265  53.891  0.00  0.00    +0.000 A 
ATOM     17  C   UNL     1      -9.043  54.429  51.960  0.00  0.00    +0.000 C 
ATOM     18  C   UNL     1      -8.473  52.741  53.643  0.00  0.00    +0.000 A 
ATOM     19  C   UNL     1      -6.316  52.649  54.762  0.00  0.00    +0.000 A 
ATOM     20  N   UNL     1      -9.370  53.377  52.790  0.00  0.00    +0.000 N 
ATOM     21  C   UNL     1      -8.863  51.591  54.346  0.00  0.00    +0.000 A 
ATOM     22  C   UNL     1      -6.704  51.490  55.430  0.00  0.00    +0.000 A 
ATOM     23  C   UNL     1      -7.977  50.967  55.227  0.00  0.00    +0.000 A 
ATOM     24  H   UNL     1      -7.819  55.877  51.386  0.00  0.00    +0.000 HD
ATOM     25  H   UNL     1     -10.299  53.054  52.777  0.00  0.00    +0.000 HD
ENDBRANCH   1  17
BRANCH   3  26
ATOM     26  O   UNL     1      -8.538  54.260  49.096  0.00  0.00    +0.000 OA
ATOM     27  H   UNL     1      -7.753  54.756  49.218  0.00  0.00    +0.000 HD
ENDBRANCH   3  26
BRANCH   5  28
ATOM     28  C   UNL     1     -13.630  56.207  50.814  0.00  0.00    +0.000 C 
BRANCH  28  29
ATOM     29  C   UNL     1     -13.836  57.717  51.029  0.00  0.00    +0.000 C 
BRANCH  29  30
ATOM     30  C   UNL     1     -14.066  58.096  52.464  0.00  0.00    +0.000 C 
ATOM     31  C   UNL     1     -15.309  57.731  53.228  0.00  0.00    +0.000 C 
ATOM     32  C   UNL     1     -15.107  59.144  52.760  0.00  0.00    +0.000 C 
ENDBRANCH  29  30
ENDBRANCH  28  29
ENDBRANCH   5  28
TORSDOF 5
ENDMDL
MODEL 3
REMARK VINA RESULT:      -8.0      3.535      4.525
REMARK  Name = 338298
REMARK  5 active torsions:
REMARK  status: ('A' for Active; 'I' for Inactive)
REMARK    1  A    between atoms: C_6  and  C_10
REMARK    2  A    between atoms: C_14  and  O_18
REMARK    3  A    between atoms: N_17  and  C_21
REMARK    4  A    between atoms: C_21  and  C_24
REMARK    5  A    between atoms: C_24  and  C_27
REMARK                            x       y       z     vdW  Elec       q    Type
REMARK                         _______ _______ _______ _____ _____    ______ ____
ROOT
ATOM      1  C   UNL     1     -12.463  54.265  49.781  0.00  0.00    +0.000 A 
ATOM      2  C   UNL     1     -12.178  54.063  48.334  0.00  0.00    +0.000 A 
ATOM      3  C   UNL     1     -11.979  53.404  50.691  0.00  0.00    +0.000 A 
ATOM      4  O   UNL     1     -12.659  54.896  47.561  0.00  0.00    +0.000 OA
ATOM      5  N   UNL     1     -11.382  53.000  47.927  0.00  0.00    +0.000 N 
ATOM      6  C   UNL     1     -11.138  52.277  50.265  0.00  0.00    +0.000 A 
ATOM      7  C   UNL     1     -10.865  52.069  48.897  0.00  0.00    +0.000 A 
ATOM      8  C   UNL     1     -10.591  51.411  51.231  0.00  0.00    +0.000 A 
ATOM      9  C   UNL     1     -10.065  50.968  48.544  0.00  0.00    +0.000 A 
ATOM     10  C   UNL     1      -9.765  50.355  50.861  0.00  0.00    +0.000 A 
ATOM     11  C   UNL     1      -9.506  50.133  49.517  0.00  0.00    +0.000 A 
ENDROOT
BRANCH   1  17
ATOM     12  S   UNL     1     -15.349  56.494  51.246  0.00  0.00    +0.000 S 
ATOM     13  O   UNL     1     -15.277  56.637  52.685  0.00  0.00    +0.000 OA
ATOM     14  O   UNL     1     -16.625  56.297  50.590  0.00  0.00    +0.000 OA
ATOM     15  N   UNL     1     -14.376  55.267  50.825  0.00  0.00    +0.000 N 
ATOM     16  C   UNL     1     -14.688  57.981  50.577  0.00  0.00    +0.000 A 
ATOM     17  C   UNL     1     -13.259  55.485  50.195  0.00  0.00    +0.000 C 
ATOM     18  C   UNL     1     -13.463  57.914  49.940  0.00  0.00    +0.000 A 
ATOM     19  C   UNL     1     -15.405  59.174  50.683  0.00  0.00    +0.000 A 
ATOM     20  N   UNL     1     -12.749  56.723  49.861  0.00  0.00    +0.000 N 
ATOM     21  C   UNL     1     -12.906  59.104  49.447  0.00  0.00    +0.000 A 
ATOM     22  C   UNL     1     -14.855  60.343  50.161  0.00  0.00    +0.000 A 
ATOM     23  C   UNL     1     -13.605  60.308  49.551  0.00  0.00    +0.000 A 
ATOM     24  H   UNL     1     -14.634  54.343  51.050  0.00  0.00    +0.000 HD
ATOM     25  H   UNL     1     -11.818  56.765  49.545  0.00  0.00    +0.000 HD
ENDBRANCH   1  17
BRANCH   3  26
ATOM     26  O   UNL     1     -12.191  53.513  52.054  0.00  0.00    +0.000 OA
ATOM     27  H   UNL     1     -11.477  53.714  52.625  0.00  0.00    +0.000 HD
ENDBRANCH   3  26
BRANCH   5  28
ATOM     28  C   UNL     1     -11.197  52.760  46.475  0.00  0.00    +0.000 C 
BRANCH  28  29
ATOM     29  C   UNL     1     -10.233  53.710  45.742  0.00  0.00    +0.000 C 
BRANCH  29  30
ATOM     30  C   UNL     1      -8.961  53.976  46.494  0.00  0.00    +0.000 C 
ATOM     31  C   UNL     1      -8.655  55.286  47.168  0.00  0.00    +0.000 C 
ATOM     32  C   UNL     1      -7.965  54.927  45.883  0.00  0.00    +0.000 C 
ENDBRANCH  29  30
ENDBRANCH  28  29
ENDBRANCH   5  28
TORSDOF 5
ENDMDL
MODEL 4
REMARK VINA RESULT:      -8.0      3.178      7.118
REMARK  Name = 338298
REMARK  5 active torsions:
REMARK  status: ('A' for Active; 'I' for Inactive)
REMARK    1  A    between atoms: C_6  and  C_10
REMARK    2  A    between atoms: C_14  and  O_18
REMARK    3  A    between atoms: N_17  and  C_21
REMARK    4  A    between atoms: C_21  and  C_24
REMARK    5  A    between atoms: C_24  and  C_27
REMARK                            x       y       z     vdW  Elec       q    Type
REMARK                         _______ _______ _______ _____ _____    ______ ____
ROOT
ATOM      1  C   UNL     1     -10.262  55.219  50.829  0.00  0.00    +0.000 A 
ATOM      2  C   UNL     1      -9.800  55.188  49.415  0.00  0.00    +0.000 A 
ATOM      3  C   UNL     1     -11.492  55.668  51.127  0.00  0.00    +0.000 A 
ATOM      4  O   UNL     1      -8.658  54.762  49.222  0.00  0.00    +0.000 OA
ATOM      5  N   UNL     1     -10.655  55.594  48.398  0.00  0.00    +0.000 N 
ATOM      6  C   UNL     1     -12.400  56.101  50.056  0.00  0.00    +0.000 A 
ATOM      7  C   UNL     1     -11.973  56.083  48.712  0.00  0.00    +0.000 A 
ATOM      8  C   UNL     1     -13.705  56.520  50.374  0.00  0.00    +0.000 A 
ATOM      9  C   UNL     1     -12.877  56.520  47.727  0.00  0.00    +0.000 A 
ATOM     10  C   UNL     1     -14.597  56.905  49.378  0.00  0.00    +0.000 A 
ATOM     11  C   UNL     1     -14.180  56.907  48.056  0.00  0.00    +0.000 A 
ENDROOT
BRANCH   1  17
ATOM     12  S   UNL     1      -7.094  54.761  53.109  0.00  0.00    +0.000 S 
ATOM     13  O   UNL     1      -7.044  55.709  54.203  0.00  0.00    +0.000 OA
ATOM     14  O   UNL     1      -5.893  54.425  52.373  0.00  0.00    +0.000 OA
ATOM     15  N   UNL     1      -8.197  55.296  52.047  0.00  0.00    +0.000 N 
ATOM     16  C   UNL     1      -7.675  53.253  53.801  0.00  0.00    +0.000 A 
ATOM     17  C   UNL     1      -9.336  54.684  51.902  0.00  0.00    +0.000 C 
ATOM     18  C   UNL     1      -8.946  52.831  53.457  0.00  0.00    +0.000 A 
ATOM     19  C   UNL     1      -6.853  52.512  54.653  0.00  0.00    +0.000 A 
ATOM     20  N   UNL     1      -9.762  53.589  52.625  0.00  0.00    +0.000 N 
ATOM     21  C   UNL     1      -9.435  51.654  54.043  0.00  0.00    +0.000 A 
ATOM     22  C   UNL     1      -7.339  51.328  55.203  0.00  0.00    +0.000 A 
ATOM     23  C   UNL     1      -8.630  50.904  54.904  0.00  0.00    +0.000 A 
ATOM     24  H   UNL     1      -8.003  56.094  51.505  0.00  0.00    +0.000 HD
ATOM     25  H   UNL     1     -10.708  53.328  52.546  0.00  0.00    +0.000 HD
ENDBRANCH   1  17
BRANCH   3  26
ATOM     26  O   UNL     1     -12.006  55.732  52.411  0.00  0.00    +0.000 OA
ATOM     27  H   UNL     1     -12.122  56.562  52.829  0.00  0.00    +0.000 HD
ENDBRANCH   3  26
BRANCH   5  28
ATOM     28  C   UNL     1     -10.137  55.651  47.009  0.00  0.00    +0.000 C 
BRANCH  28  29
ATOM     29  C   UNL     1     -10.045  54.311  46.258  0.00  0.00    +0.000 C 
BRANCH  29  30
ATOM     30  C   UNL     1     -11.278  53.976  45.469  0.00  0.00    +0.000 C 
ATOM     31  C   UNL     1     -11.981  52.649  45.553  0.00  0.00    +0.000 C 
ATOM     32  C   UNL     1     -11.151  52.980  44.346  0.00  0.00    +0.000 C 
ENDBRANCH  29  30
ENDBRANCH  28  29
ENDBRANCH   5  28
TORSDOF 5
ENDMDL
MODEL 5
REMARK VINA RESULT:      -7.9      2.227      3.165
REMARK  Name = 338298
REMARK  5 active torsions:
REMARK  status: ('A' for Active; 'I' for Inactive)
REMARK    1  A    between atoms: C_6  and  C_10
REMARK    2  A    between atoms: C_14  and  O_18
REMARK    3  A    between atoms: N_17  and  C_21
REMARK    4  A    between atoms: C_21  and  C_24
REMARK    5  A    between atoms: C_24  and  C_27
REMARK                            x       y       z     vdW  Elec       q    Type
REMARK                         _______ _______ _______ _____ _____    ______ ____
ROOT
ATOM      1  C   UNL     1     -11.696  54.006  51.076  0.00  0.00    +0.000 A 
ATOM      2  C   UNL     1     -10.799  54.008  52.263  0.00  0.00    +0.000 A 
ATOM      3  C   UNL     1     -11.767  52.923  50.286  0.00  0.00    +0.000 A 
ATOM      4  O   UNL     1     -10.789  55.040  52.939  0.00  0.00    +0.000 OA
ATOM      5  N   UNL     1     -10.056  52.875  52.573  0.00  0.00    +0.000 N 
ATOM      6  C   UNL     1     -10.983  51.722  50.607  0.00  0.00    +0.000 A 
ATOM      7  C   UNL     1     -10.122  51.713  51.725  0.00  0.00    +0.000 A 
ATOM      8  C   UNL     1     -11.104  50.574  49.802  0.00  0.00    +0.000 A 
ATOM      9  C   UNL     1      -9.385  50.542  51.979  0.00  0.00    +0.000 A 
ATOM     10  C   UNL     1     -10.398  49.413  50.100  0.00  0.00    +0.000 A 
ATOM     11  C   UNL     1      -9.538  49.399  51.187  0.00  0.00    +0.000 A 
ENDROOT
BRANCH   1  17
ATOM     12  S   UNL     1     -13.342  57.075  49.256  0.00  0.00    +0.000 S 
ATOM     13  O   UNL     1     -14.452  56.699  48.405  0.00  0.00    +0.000 OA
ATOM     14  O   UNL     1     -12.387  58.071  48.818  0.00  0.00    +0.000 OA
ATOM     15  N   UNL     1     -12.524  55.724  49.621  0.00  0.00    +0.000 N 
ATOM     16  C   UNL     1     -14.056  57.708  50.733  0.00  0.00    +0.000 A 
ATOM     17  C   UNL     1     -12.558  55.226  50.822  0.00  0.00    +0.000 C 
ATOM     18  C   UNL     1     -13.928  56.956  51.886  0.00  0.00    +0.000 A 
ATOM     19  C   UNL     1     -14.710  58.942  50.721  0.00  0.00    +0.000 A 
ATOM     20  N   UNL     1     -13.294  55.718  51.880  0.00  0.00    +0.000 N 
ATOM     21  C   UNL     1     -14.537  57.430  53.058  0.00  0.00    +0.000 A 
ATOM     22  C   UNL     1     -15.282  59.417  51.899  0.00  0.00    +0.000 A 
ATOM     23  C   UNL     1     -15.202  58.658  53.063  0.00  0.00    +0.000 A 
ATOM     24  H   UNL     1     -11.993  55.274  48.924  0.00  0.00    +0.000 HD
ATOM     25  H   UNL     1     -13.375  55.156  52.683  0.00  0.00    +0.000 HD
ENDBRANCH   1  17
BRANCH   3  26
ATOM     26  O   UNL     1     -12.572  52.830  49.164  0.00  0.00    +0.000 OA
ATOM     27  H   UNL     1     -13.253  52.188  49.127  0.00  0.00    +0.000 HD
ENDBRANCH   3  26
BRANCH   5  28
ATOM     28  C   UNL     1      -9.093  52.937  53.698  0.00  0.00    +0.000 C 
BRANCH  28  29
ATOM     29  C   UNL     1      -7.700  53.508  53.376  0.00  0.00    +0.000 C 
BRANCH  29  30
ATOM     30  C   UNL     1      -7.379  54.770  54.122  0.00  0.00    +0.000 C 
ATOM     31  C   UNL     1      -7.042  56.071  53.444  0.00  0.00    +0.000 C 
ATOM     32  C   UNL     1      -5.955  55.264  54.096  0.00  0.00    +0.000 C 
ENDBRANCH  29  30
ENDBRANCH  28  29
ENDBRANCH   5  28
TORSDOF 5
ENDMDL
MODEL 6
REMARK VINA RESULT:      -7.8      2.662      7.900
REMARK  Name = 338298
REMARK  5 active torsions:
REMARK  status: ('A' for Active; 'I' for Inactive)
REMARK    1  A    between atoms: C_6  and  C_10
REMARK    2  A    between atoms: C_14  and  O_18
REMARK    3  A    between atoms: N_17  and  C_21
REMARK    4  A    between atoms: C_21  and  C_24
REMARK    5  A    between atoms: C_24  and  C_27
REMARK                            x       y       z     vdW  Elec       q    Type
REMARK                         _______ _______ _______ _____ _____    ______ ____
ROOT
ATOM      1  C   UNL     1     -10.289  55.102  50.377  0.00  0.00    +0.000 A 
ATOM      2  C   UNL     1     -11.378  55.324  51.366  0.00  0.00    +0.000 A 
ATOM      3  C   UNL     1     -10.487  55.387  49.080  0.00  0.00    +0.000 A 
ATOM      4  O   UNL     1     -11.119  55.037  52.538  0.00  0.00    +0.000 OA
ATOM      5  N   UNL     1     -12.592  55.857  50.952  0.00  0.00    +0.000 N 
ATOM      6  C   UNL     1     -11.770  55.949  48.635  0.00  0.00    +0.000 A 
ATOM      7  C   UNL     1     -12.814  56.158  49.561  0.00  0.00    +0.000 A 
ATOM      8  C   UNL     1     -11.950  56.294  47.282  0.00  0.00    +0.000 A 
ATOM      9  C   UNL     1     -14.025  56.687  49.080  0.00  0.00    +0.000 A 
ATOM     10  C   UNL     1     -13.141  56.858  46.839  0.00  0.00    +0.000 A 
ATOM     11  C   UNL     1     -14.178  57.051  47.738  0.00  0.00    +0.000 A 
ENDROOT
BRANCH   1  17
ATOM     12  S   UNL     1      -7.070  52.887  50.796  0.00  0.00    +0.000 S 
ATOM     13  O   UNL     1      -6.060  53.163  49.796  0.00  0.00    +0.000 OA
ATOM     14  O   UNL     1      -7.352  51.524  51.196  0.00  0.00    +0.000 OA
ATOM     15  N   UNL     1      -8.458  53.555  50.289  0.00  0.00    +0.000 N 
ATOM     16  C   UNL     1      -6.552  53.721  52.254  0.00  0.00    +0.000 A 
ATOM     17  C   UNL     1      -8.949  54.604  50.879  0.00  0.00    +0.000 C 
ATOM     18  C   UNL     1      -7.282  54.823  52.661  0.00  0.00    +0.000 A 
ATOM     19  C   UNL     1      -5.447  53.257  52.971  0.00  0.00    +0.000 A 
ATOM     20  N   UNL     1      -8.367  55.288  51.926  0.00  0.00    +0.000 N 
ATOM     21  C   UNL     1      -6.846  55.524  53.796  0.00  0.00    +0.000 A 
ATOM     22  C   UNL     1      -5.044  53.944  54.114  0.00  0.00    +0.000 A 
ATOM     23  C   UNL     1      -5.739  55.079  54.521  0.00  0.00    +0.000 A 
ATOM     24  H   UNL     1      -8.936  53.161  49.523  0.00  0.00    +0.000 HD
ATOM     25  H   UNL     1      -8.745  56.164  52.169  0.00  0.00    +0.000 HD
ENDBRANCH   1  17
BRANCH   3  26
ATOM     26  O   UNL     1      -9.534  55.214  48.092  0.00  0.00    +0.000 OA
ATOM     27  H   UNL     1      -9.614  54.509  47.480  0.00  0.00    +0.000 HD
ENDBRANCH   3  26
BRANCH   5  28
ATOM     28  C   UNL     1     -13.696  55.972  51.936  0.00  0.00    +0.000 C 
BRANCH  28  29
ATOM     29  C   UNL     1     -13.835  57.328  52.652  0.00  0.00    +0.000 C 
BRANCH  29  30
ATOM     30  C   UNL     1     -15.087  58.074  52.292  0.00  0.00    +0.000 C 
ATOM     31  C   UNL     1     -15.091  59.359  51.510  0.00  0.00    +0.000 C 
ATOM     32  C   UNL     1     -15.355  59.383  52.988  0.00  0.00    +0.000 C 
ENDBRANCH  29  30
ENDBRANCH  28  29
ENDBRANCH   5  28
TORSDOF 5
ENDMDL
MODEL 7
REMARK VINA RESULT:      -7.7      3.254      4.900
REMARK  Name = 338298
REMARK  5 active torsions:
REMARK  status: ('A' for Active; 'I' for Inactive)
REMARK    1  A    between atoms: C_6  and  C_10
REMARK    2  A    between atoms: C_14  and  O_18
REMARK    3  A    between atoms: N_17  and  C_21
REMARK    4  A    between atoms: C_21  and  C_24
REMARK    5  A    between atoms: C_24  and  C_27
REMARK                            x       y       z     vdW  Elec       q    Type
REMARK                         _______ _______ _______ _____ _____    ______ ____
ROOT
ATOM      1  C   UNL     1     -11.372  56.097  48.719  0.00  0.00    +0.000 A 
ATOM      2  C   UNL     1     -10.212  55.654  49.539  0.00  0.00    +0.000 A 
ATOM      3  C   UNL     1     -11.520  55.649  47.462  0.00  0.00    +0.000 A 
ATOM      4  O   UNL     1     -10.146  56.110  50.683  0.00  0.00    +0.000 OA
ATOM      5  N   UNL     1      -9.298  54.749  49.014  0.00  0.00    +0.000 N 
ATOM      6  C   UNL     1     -10.556  54.693  46.900  0.00  0.00    +0.000 A 
ATOM      7  C   UNL     1      -9.448  54.270  47.664  0.00  0.00    +0.000 A 
ATOM      8  C   UNL     1     -10.749  54.189  45.601  0.00  0.00    +0.000 A 
ATOM      9  C   UNL     1      -8.549  53.364  47.073  0.00  0.00    +0.000 A 
ATOM     10  C   UNL     1      -9.870  53.259  45.055  0.00  0.00    +0.000 A 
ATOM     11  C   UNL     1      -8.769  52.850  45.791  0.00  0.00    +0.000 A 
ENDROOT
BRANCH   1  17
ATOM     12  S   UNL     1     -13.585  59.265  49.433  0.00  0.00    +0.000 S 
ATOM     13  O   UNL     1     -14.741  59.354  48.566  0.00  0.00    +0.000 OA
ATOM     14  O   UNL     1     -12.817  60.449  49.755  0.00  0.00    +0.000 OA
ATOM     15  N   UNL     1     -12.573  58.172  48.792  0.00  0.00    +0.000 N 
ATOM     16  C   UNL     1     -14.176  58.642  50.967  0.00  0.00    +0.000 A 
ATOM     17  C   UNL     1     -12.397  57.014  49.356  0.00  0.00    +0.000 C 
ATOM     18  C   UNL     1     -13.816  57.355  51.324  0.00  0.00    +0.000 A 
ATOM     19  C   UNL     1     -14.967  59.445  51.791  0.00  0.00    +0.000 A 
ATOM     20  N   UNL     1     -13.046  56.557  50.484  0.00  0.00    +0.000 N 
ATOM     21  C   UNL     1     -14.324  56.833  52.523  0.00  0.00    +0.000 A 
ATOM     22  C   UNL     1     -15.439  58.925  52.994  0.00  0.00    +0.000 A 
ATOM     23  C   UNL     1     -15.123  57.619  53.355  0.00  0.00    +0.000 A 
ATOM     24  H   UNL     1     -12.085  58.389  47.964  0.00  0.00    +0.000 HD
ATOM     25  H   UNL     1     -12.958  55.603  50.710  0.00  0.00    +0.000 HD
ENDBRANCH   1  17
BRANCH   3  26
ATOM     26  O   UNL     1     -12.566  56.006  46.628  0.00  0.00    +0.000 OA
ATOM     27  H   UNL     1     -13.128  56.718  46.859  0.00  0.00    +0.000 HD
ENDBRANCH   3  26
BRANCH   5  28
ATOM     28  C   UNL     1      -8.097  54.402  49.811  0.00  0.00    +0.000 C 
BRANCH  28  29
ATOM     29  C   UNL     1      -6.922  55.395  49.744  0.00  0.00    +0.000 C 
BRANCH  29  30
ATOM     30  C   UNL     1      -5.678  54.816  49.135  0.00  0.00    +0.000 C 
ATOM     31  C   UNL     1      -5.390  53.341  49.081  0.00  0.00    +0.000 C 
ATOM     32  C   UNL     1      -4.653  54.211  50.059  0.00  0.00    +0.000 C 
ENDBRANCH  29  30
ENDBRANCH  28  29
ENDBRANCH   5  28
TORSDOF 5
ENDMDL
MODEL 8
REMARK VINA RESULT:      -7.5      3.876      4.991
REMARK  Name = 338298
REMARK  5 active torsions:
REMARK  status: ('A' for Active; 'I' for Inactive)
REMARK    1  A    between atoms: C_6  and  C_10
REMARK    2  A    between atoms: C_14  and  O_18
REMARK    3  A    between atoms: N_17  and  C_21
REMARK    4  A    between atoms: C_21  and  C_24
REMARK    5  A    between atoms: C_24  and  C_27
REMARK                            x       y       z     vdW  Elec       q    Type
REMARK                         _______ _______ _______ _____ _____    ______ ____
ROOT
ATOM      1  C   UNL     1     -12.311  54.332  50.032  0.00  0.00    +0.000 A 
ATOM      2  C   UNL     1     -11.983  54.073  48.603  0.00  0.00    +0.000 A 
ATOM      3  C   UNL     1     -11.812  53.539  50.993  0.00  0.00    +0.000 A 
ATOM      4  O   UNL     1     -12.480  54.846  47.780  0.00  0.00    +0.000 OA
ATOM      5  N   UNL     1     -11.133  53.027  48.266  0.00  0.00    +0.000 N 
ATOM      6  C   UNL     1     -10.914  52.430  50.642  0.00  0.00    +0.000 A 
ATOM      7  C   UNL     1     -10.600  52.168  49.292  0.00  0.00    +0.000 A 
ATOM      8  C   UNL     1     -10.354  51.636  51.661  0.00  0.00    +0.000 A 
ATOM      9  C   UNL     1      -9.746  51.087  49.012  0.00  0.00    +0.000 A 
ATOM     10  C   UNL     1      -9.475  50.600  51.362  0.00  0.00    +0.000 A 
ATOM     11  C   UNL     1      -9.175  50.325  50.037  0.00  0.00    +0.000 A 
ENDROOT
BRANCH   1  17
ATOM     12  S   UNL     1     -15.339  56.501  51.284  0.00  0.00    +0.000 S 
ATOM     13  O   UNL     1     -15.343  56.690  52.720  0.00  0.00    +0.000 OA
ATOM     14  O   UNL     1     -16.574  56.237  50.576  0.00  0.00    +0.000 OA
ATOM     15  N   UNL     1     -14.305  55.297  50.951  0.00  0.00    +0.000 N 
ATOM     16  C   UNL     1     -14.699  57.988  50.600  0.00  0.00    +0.000 A 
ATOM     17  C   UNL     1     -13.168  55.536  50.367  0.00  0.00    +0.000 C 
ATOM     18  C   UNL     1     -13.443  57.946  50.023  0.00  0.00    +0.000 A 
ATOM     19  C   UNL     1     -15.461  59.158  50.632  0.00  0.00    +0.000 A 
ATOM     20  N   UNL     1     -12.685  56.780  50.017  0.00  0.00    +0.000 N 
ATOM     21  C   UNL     1     -12.904  59.139  49.519  0.00  0.00    +0.000 A 
ATOM     22  C   UNL     1     -14.927  60.329  50.099  0.00  0.00    +0.000 A 
ATOM     23  C   UNL     1     -13.649  60.320  49.550  0.00  0.00    +0.000 A 
ATOM     24  H   UNL     1     -14.542  54.372  51.193  0.00  0.00    +0.000 HD
ATOM     25  H   UNL     1     -11.742  56.846  49.745  0.00  0.00    +0.000 HD
ENDBRANCH   1  17
BRANCH   3  26
ATOM     26  O   UNL     1     -12.061  53.704  52.344  0.00  0.00    +0.000 OA
ATOM     27  H   UNL     1     -11.601  53.185  52.973  0.00  0.00    +0.000 HD
ENDBRANCH   3  26
BRANCH   5  28
ATOM     28  C   UNL     1     -10.904  52.726  46.832  0.00  0.00    +0.000 C 
BRANCH  28  29
ATOM     29  C   UNL     1     -12.018  51.946  46.111  0.00  0.00    +0.000 C 
BRANCH  29  30
ATOM     30  C   UNL     1     -11.944  50.461  46.316  0.00  0.00    +0.000 C 
ATOM     31  C   UNL     1     -10.774  49.621  45.882  0.00  0.00    +0.000 C 
ATOM     32  C   UNL     1     -12.058  49.573  45.104  0.00  0.00    +0.000 C 
ENDBRANCH  29  30
ENDBRANCH  28  29
ENDBRANCH   5  28
TORSDOF 5
ENDMDL
MODEL 9
REMARK VINA RESULT:      -7.5      2.685      3.994
REMARK  Name = 338298
REMARK  5 active torsions:
REMARK  status: ('A' for Active; 'I' for Inactive)
REMARK    1  A    between atoms: C_6  and  C_10
REMARK    2  A    between atoms: C_14  and  O_18
REMARK    3  A    between atoms: N_17  and  C_21
REMARK    4  A    between atoms: C_21  and  C_24
REMARK    5  A    between atoms: C_24  and  C_27
REMARK                            x       y       z     vdW  Elec       q    Type
REMARK                         _______ _______ _______ _____ _____    ______ ____
ROOT
ATOM      1  C   UNL     1     -11.216  55.206  49.752  0.00  0.00    +0.000 A 
ATOM      2  C   UNL     1     -11.186  54.565  48.409  0.00  0.00    +0.000 A 
ATOM      3  C   UNL     1     -10.328  54.846  50.692  0.00  0.00    +0.000 A 
ATOM      4  O   UNL     1     -12.035  54.949  47.601  0.00  0.00    +0.000 OA
ATOM      5  N   UNL     1     -10.215  53.616  48.117  0.00  0.00    +0.000 N 
ATOM      6  C   UNL     1      -9.299  53.841  50.389  0.00  0.00    +0.000 A 
ATOM      7  C   UNL     1      -9.262  53.220  49.123  0.00  0.00    +0.000 A 
ATOM      8  C   UNL     1      -8.339  53.509  51.363  0.00  0.00    +0.000 A 
ATOM      9  C   UNL     1      -8.265  52.256  48.890  0.00  0.00    +0.000 A 
ATOM     10  C   UNL     1      -7.335  52.585  51.094  0.00  0.00    +0.000 A 
ATOM     11  C   UNL     1      -7.301  51.958  49.858  0.00  0.00    +0.000 A 
ENDROOT
BRANCH   1  17
ATOM     12  S   UNL     1     -13.242  58.551  49.372  0.00  0.00    +0.000 S 
ATOM     13  O   UNL     1     -14.280  58.472  48.365  0.00  0.00    +0.000 OA
ATOM     14  O   UNL     1     -12.426  59.741  49.491  0.00  0.00    +0.000 OA
ATOM     15  N   UNL     1     -12.252  57.286  49.156  0.00  0.00    +0.000 N 
ATOM     16  C   UNL     1     -14.053  58.365  50.920  0.00  0.00    +0.000 A 
ATOM     17  C   UNL     1     -12.232  56.301  50.005  0.00  0.00    +0.000 C 
ATOM     18  C   UNL     1     -13.838  57.195  51.626  0.00  0.00    +0.000 A 
ATOM     19  C   UNL     1     -14.868  59.387  51.411  0.00  0.00    +0.000 A 
ATOM     20  N   UNL     1     -13.042  56.176  51.116  0.00  0.00    +0.000 N 
ATOM     21  C   UNL     1     -14.520  57.018  52.839  0.00  0.00    +0.000 A 
ATOM     22  C   UNL     1     -15.515  59.211  52.632  0.00  0.00    +0.000 A 
ATOM     23  C   UNL     1     -15.345  58.026  53.341  0.00  0.00    +0.000 A 
ATOM     24  H   UNL     1     -11.656  57.262  48.372  0.00  0.00    +0.000 HD
ATOM     25  H   UNL     1     -13.055  55.307  51.578  0.00  0.00    +0.000 HD
ENDBRANCH   1  17
BRANCH   3  26
ATOM     26  O   UNL     1     -10.280  55.387  51.965  0.00  0.00    +0.000 OA
ATOM     27  H   UNL     1     -10.904  56.036  52.222  0.00  0.00    +0.000 HD
ENDBRANCH   3  26
BRANCH   5  28
ATOM     28  C   UNL     1     -10.268  52.918  46.809  0.00  0.00    +0.000 C 
BRANCH  28  29
ATOM     29  C   UNL     1      -9.833  53.735  45.580  0.00  0.00    +0.000 C 
BRANCH  29  30
ATOM     30  C   UNL     1      -8.356  53.692  45.318  0.00  0.00    +0.000 C 
ATOM     31  C   UNL     1      -7.345  54.439  46.144  0.00  0.00    +0.000 C 
ATOM     32  C   UNL     1      -7.698  54.931  44.769  0.00  0.00    +0.000 C 
ENDBRANCH  29  30
ENDBRANCH  28  29
ENDBRANCH   5  28
TORSDOF 5
ENDMDL
