MODEL 1
REMARK VINA RESULT:      -8.3      0.000      0.000
REMARK  Name = 338640
REMARK  5 active torsions:
REMARK  status: ('A' for Active; 'I' for Inactive)
REMARK    1  A    between atoms: C_6  and  C_10
REMARK    2  A    between atoms: C_14  and  O_18
REMARK    3  A    between atoms: C_21  and  O_25
REMARK    4  A    between atoms: O_25  and  C_28
REMARK    5  A    between atoms: C_28  and  C_29
REMARK                            x       y       z     vdW  Elec       q    Type
REMARK                         _______ _______ _______ _____ _____    ______ ____
ROOT
ATOM      1  C   UNL     1     -10.082  54.258  52.310  0.00  0.00    +0.000 A 
ATOM      2  C   UNL     1      -8.670  54.746  52.231  0.00  0.00    +0.000 A 
ATOM      3  C   UNL     1     -10.381  53.194  53.072  0.00  0.00    +0.000 A 
ATOM      4  O   UNL     1      -8.515  55.861  51.722  0.00  0.00    +0.000 OA
ATOM      5  N   UNL     1      -7.652  53.967  52.774  0.00  0.00    +0.000 N 
ATOM      6  C   UNL     1      -9.328  52.493  53.811  0.00  0.00    +0.000 A 
ATOM      7  C   UNL     1      -7.981  52.868  53.654  0.00  0.00    +0.000 A 
ATOM      8  C   UNL     1      -6.334  54.429  52.647  0.00  0.00    +0.000 C 
ATOM      9  C   UNL     1      -9.674  51.442  54.684  0.00  0.00    +0.000 A 
ATOM     10  C   UNL     1      -7.016  52.143  54.380  0.00  0.00    +0.000 A 
ATOM     11  O   UNL     1      -5.436  54.276  53.470  0.00  0.00    +0.000 OA
ATOM     12  C   UNL     1      -8.705  50.769  55.419  0.00  0.00    +0.000 A 
ATOM     13  C   UNL     1      -7.375  51.122  55.267  0.00  0.00    +0.000 A 
ENDROOT
BRANCH   1  19
ATOM     14  S   UNL     1     -12.302  55.849  49.480  0.00  0.00    +0.000 S 
ATOM     15  O   UNL     1     -13.193  54.866  48.897  0.00  0.00    +0.000 OA
ATOM     16  O   UNL     1     -11.617  56.809  48.635  0.00  0.00    +0.000 OA
ATOM     17  N   UNL     1     -11.182  55.050  50.333  0.00  0.00    +0.000 N 
ATOM     18  C   UNL     1     -13.276  56.790  50.595  0.00  0.00    +0.000 A 
ATOM     19  C   UNL     1     -11.194  55.049  51.634  0.00  0.00    +0.000 C 
ATOM     20  C   UNL     1     -13.066  56.603  51.952  0.00  0.00    +0.000 A 
ATOM     21  C   UNL     1     -14.221  57.695  50.103  0.00  0.00    +0.000 A 
ATOM     22  N   UNL     1     -12.122  55.694  52.424  0.00  0.00    +0.000 N 
ATOM     23  C   UNL     1     -13.885  57.307  52.846  0.00  0.00    +0.000 A 
ATOM     24  C   UNL     1     -15.002  58.413  51.004  0.00  0.00    +0.000 A 
ATOM     25  C   UNL     1     -14.843  58.212  52.374  0.00  0.00    +0.000 A 
ATOM     26  H   UNL     1     -10.476  54.554  49.857  0.00  0.00    +0.000 HD
ATOM     27  H   UNL     1     -12.116  55.499  53.388  0.00  0.00    +0.000 HD
ENDBRANCH   1  19
BRANCH   3  28
ATOM     28  O   UNL     1     -11.659  52.702  53.267  0.00  0.00    +0.000 OA
ATOM     29  H   UNL     1     -11.785  51.900  53.737  0.00  0.00    +0.000 HD
ENDBRANCH   3  28
BRANCH   8  30
ATOM     30  O   UNL     1      -6.130  55.181  51.520  0.00  0.00    +0.000 OA
BRANCH  30  31
ATOM     31  C   UNL     1      -5.346  54.558  50.490  0.00  0.00    +0.000 C 
ATOM     32  C   UNL     1      -5.900  54.958  49.131  0.00  0.00    +0.000 C 
ENDBRANCH  30  31
ENDBRANCH   8  30
TORSDOF 4
ENDMDL
MODEL 2
REMARK VINA RESULT:      -8.2      3.302      5.298
REMARK  Name = 338640
REMARK  5 active torsions:
REMARK  status: ('A' for Active; 'I' for Inactive)
REMARK    1  A    between atoms: C_6  and  C_10
REMARK    2  A    between atoms: C_14  and  O_18
REMARK    3  A    between atoms: C_21  and  O_25
REMARK    4  A    between atoms: O_25  and  C_28
REMARK    5  A    between atoms: C_28  and  C_29
REMARK                            x       y       z     vdW  Elec       q    Type
REMARK                         _______ _______ _______ _____ _____    ______ ____
ROOT
ATOM      1  C   UNL     1     -11.486  56.240  48.595  0.00  0.00    +0.000 A 
ATOM      2  C   UNL     1     -10.230  55.796  49.274  0.00  0.00    +0.000 A 
ATOM      3  C   UNL     1     -11.804  55.749  47.388  0.00  0.00    +0.000 A 
ATOM      4  O   UNL     1     -10.132  56.092  50.471  0.00  0.00    +0.000 OA
ATOM      5  N   UNL     1      -9.300  55.045  48.559  0.00  0.00    +0.000 N 
ATOM      6  C   UNL     1     -10.916  54.794  46.720  0.00  0.00    +0.000 A 
ATOM      7  C   UNL     1      -9.676  54.457  47.294  0.00  0.00    +0.000 A 
ATOM      8  C   UNL     1      -8.113  54.680  49.209  0.00  0.00    +0.000 C 
ATOM      9  C   UNL     1     -11.314  54.211  45.500  0.00  0.00    +0.000 A 
ATOM     10  C   UNL     1      -8.862  53.547  46.593  0.00  0.00    +0.000 A 
ATOM     11  O   UNL     1      -7.494  53.632  49.041  0.00  0.00    +0.000 OA
ATOM     12  C   UNL     1     -10.509  53.285  44.848  0.00  0.00    +0.000 A 
ATOM     13  C   UNL     1      -9.282  52.952  45.398  0.00  0.00    +0.000 A 
ENDROOT
BRANCH   1  19
ATOM     14  S   UNL     1     -13.624  59.410  49.520  0.00  0.00    +0.000 S 
ATOM     15  O   UNL     1     -14.783  59.530  48.658  0.00  0.00    +0.000 OA
ATOM     16  O   UNL     1     -12.852  60.583  49.878  0.00  0.00    +0.000 OA
ATOM     17  N   UNL     1     -12.618  58.340  48.840  0.00  0.00    +0.000 N 
ATOM     18  C   UNL     1     -14.208  58.733  51.030  0.00  0.00    +0.000 A 
ATOM     19  C   UNL     1     -12.465  57.145  49.333  0.00  0.00    +0.000 C 
ATOM     20  C   UNL     1     -13.877  57.419  51.321  0.00  0.00    +0.000 A 
ATOM     21  C   UNL     1     -14.976  59.518  51.895  0.00  0.00    +0.000 A 
ATOM     22  N   UNL     1     -13.112  56.651  50.445  0.00  0.00    +0.000 N 
ATOM     23  C   UNL     1     -14.393  56.857  52.497  0.00  0.00    +0.000 A 
ATOM     24  C   UNL     1     -15.453  58.956  53.076  0.00  0.00    +0.000 A 
ATOM     25  C   UNL     1     -15.172  57.623  53.372  0.00  0.00    +0.000 A 
ATOM     26  H   UNL     1     -12.110  58.598  48.037  0.00  0.00    +0.000 HD
ATOM     27  H   UNL     1     -13.029  55.689  50.633  0.00  0.00    +0.000 HD
ENDBRANCH   1  19
BRANCH   3  28
ATOM     28  O   UNL     1     -12.969  56.041  46.702  0.00  0.00    +0.000 OA
ATOM     29  H   UNL     1     -13.742  55.533  46.854  0.00  0.00    +0.000 HD
ENDBRANCH   3  28
BRANCH   8  30
ATOM     30  O   UNL     1      -7.717  55.582  50.161  0.00  0.00    +0.000 OA
BRANCH  30  31
ATOM     31  C   UNL     1      -6.795  55.085  51.145  0.00  0.00    +0.000 C 
ATOM     32  C   UNL     1      -7.237  55.554  52.523  0.00  0.00    +0.000 C 
ENDBRANCH  30  31
ENDBRANCH   8  30
TORSDOF 4
ENDMDL
MODEL 3
REMARK VINA RESULT:      -8.2      3.516      5.588
REMARK  Name = 338640
REMARK  5 active torsions:
REMARK  status: ('A' for Active; 'I' for Inactive)
REMARK    1  A    between atoms: C_6  and  C_10
REMARK    2  A    between atoms: C_14  and  O_18
REMARK    3  A    between atoms: C_21  and  O_25
REMARK    4  A    between atoms: O_25  and  C_28
REMARK    5  A    between atoms: C_28  and  C_29
REMARK                            x       y       z     vdW  Elec       q    Type
REMARK                         _______ _______ _______ _____ _____    ______ ____
ROOT
ATOM      1  C   UNL     1     -10.698  55.421  48.101  0.00  0.00    +0.000 A 
ATOM      2  C   UNL     1      -9.267  55.189  48.464  0.00  0.00    +0.000 A 
ATOM      3  C   UNL     1     -11.177  54.958  46.936  0.00  0.00    +0.000 A 
ATOM      4  O   UNL     1      -8.967  55.418  49.641  0.00  0.00    +0.000 OA
ATOM      5  N   UNL     1      -8.395  54.686  47.502  0.00  0.00    +0.000 N 
ATOM      6  C   UNL     1     -10.298  54.244  46.005  0.00  0.00    +0.000 A 
ATOM      7  C   UNL     1      -8.924  54.121  46.281  0.00  0.00    +0.000 A 
ATOM      8  C   UNL     1      -7.049  54.520  47.859  0.00  0.00    +0.000 C 
ATOM      9  C   UNL     1     -10.840  53.677  44.834  0.00  0.00    +0.000 A 
ATOM     10  C   UNL     1      -8.131  53.438  45.339  0.00  0.00    +0.000 A 
ATOM     11  O   UNL     1      -6.304  53.629  47.460  0.00  0.00    +0.000 OA
ATOM     12  C   UNL     1     -10.042  52.973  43.940  0.00  0.00    +0.000 A 
ATOM     13  C   UNL     1      -8.687  52.853  44.195  0.00  0.00    +0.000 A 
ENDROOT
BRANCH   1  19
ATOM     14  S   UNL     1     -12.978  55.871  51.275  0.00  0.00    +0.000 S 
ATOM     15  O   UNL     1     -12.182  56.117  52.461  0.00  0.00    +0.000 OA
ATOM     16  O   UNL     1     -14.124  54.985  51.333  0.00  0.00    +0.000 OA
ATOM     17  N   UNL     1     -11.982  55.321  50.124  0.00  0.00    +0.000 N 
ATOM     18  C   UNL     1     -13.594  57.433  50.769  0.00  0.00    +0.000 A 
ATOM     19  C   UNL     1     -11.641  56.064  49.111  0.00  0.00    +0.000 C 
ATOM     20  C   UNL     1     -13.059  57.999  49.623  0.00  0.00    +0.000 A 
ATOM     21  C   UNL     1     -14.598  58.061  51.513  0.00  0.00    +0.000 A 
ATOM     22  N   UNL     1     -12.057  57.360  48.896  0.00  0.00    +0.000 N 
ATOM     23  C   UNL     1     -13.506  59.275  49.250  0.00  0.00    +0.000 A 
ATOM     24  C   UNL     1     -15.056  59.312  51.110  0.00  0.00    +0.000 A 
ATOM     25  C   UNL     1     -14.503  59.924  49.987  0.00  0.00    +0.000 A 
ATOM     26  H   UNL     1     -11.627  54.405  50.190  0.00  0.00    +0.000 HD
ATOM     27  H   UNL     1     -11.616  57.869  48.179  0.00  0.00    +0.000 HD
ENDBRANCH   1  19
BRANCH   3  28
ATOM     28  O   UNL     1     -12.496  55.060  46.532  0.00  0.00    +0.000 OA
ATOM     29  H   UNL     1     -13.110  55.540  47.053  0.00  0.00    +0.000 HD
ENDBRANCH   3  28
BRANCH   8  30
ATOM     30  O   UNL     1      -6.625  55.417  48.803  0.00  0.00    +0.000 OA
BRANCH  30  31
ATOM     31  C   UNL     1      -5.367  55.114  49.428  0.00  0.00    +0.000 C 
ATOM     32  C   UNL     1      -5.624  54.554  50.820  0.00  0.00    +0.000 C 
ENDBRANCH  30  31
ENDBRANCH   8  30
TORSDOF 4
ENDMDL
MODEL 4
REMARK VINA RESULT:      -8.0      3.912      5.876
REMARK  Name = 338640
REMARK  5 active torsions:
REMARK  status: ('A' for Active; 'I' for Inactive)
REMARK    1  A    between atoms: C_6  and  C_10
REMARK    2  A    between atoms: C_14  and  O_18
REMARK    3  A    between atoms: C_21  and  O_25
REMARK    4  A    between atoms: O_25  and  C_28
REMARK    5  A    between atoms: C_28  and  C_29
REMARK                            x       y       z     vdW  Elec       q    Type
REMARK                         _______ _______ _______ _____ _____    ______ ____
ROOT
ATOM      1  C   UNL     1     -10.738  55.605  48.763  0.00  0.00    +0.000 A 
ATOM      2  C   UNL     1     -11.025  55.094  47.387  0.00  0.00    +0.000 A 
ATOM      3  C   UNL     1      -9.497  55.515  49.265  0.00  0.00    +0.000 A 
ATOM      4  O   UNL     1     -12.110  55.433  46.903  0.00  0.00    +0.000 OA
ATOM      5  N   UNL     1     -10.057  54.340  46.727  0.00  0.00    +0.000 N 
ATOM      6  C   UNL     1      -8.424  54.898  48.482  0.00  0.00    +0.000 A 
ATOM      7  C   UNL     1      -8.705  54.309  47.235  0.00  0.00    +0.000 A 
ATOM      8  C   UNL     1     -10.371  53.838  45.456  0.00  0.00    +0.000 C 
ATOM      9  C   UNL     1      -7.107  54.904  48.982  0.00  0.00    +0.000 A 
ATOM     10  C   UNL     1      -7.631  53.719  46.540  0.00  0.00    +0.000 A 
ATOM     11  O   UNL     1      -9.584  53.699  44.524  0.00  0.00    +0.000 OA
ATOM     12  C   UNL     1      -6.059  54.349  48.258  0.00  0.00    +0.000 A 
ATOM     13  C   UNL     1      -6.323  53.758  47.034  0.00  0.00    +0.000 A 
ENDROOT
BRANCH   1  19
ATOM     14  S   UNL     1     -13.533  56.351  51.428  0.00  0.00    +0.000 S 
ATOM     15  O   UNL     1     -12.955  56.672  52.718  0.00  0.00    +0.000 OA
ATOM     16  O   UNL     1     -14.702  55.498  51.341  0.00  0.00    +0.000 OA
ATOM     17  N   UNL     1     -12.367  55.691  50.521  0.00  0.00    +0.000 N 
ATOM     18  C   UNL     1     -13.992  57.883  50.706  0.00  0.00    +0.000 A 
ATOM     19  C   UNL     1     -11.823  56.345  49.536  0.00  0.00    +0.000 C 
ATOM     20  C   UNL     1     -13.240  58.346  49.639  0.00  0.00    +0.000 A 
ATOM     21  C   UNL     1     -15.090  58.588  51.207  0.00  0.00    +0.000 A 
ATOM     22  N   UNL     1     -12.147  57.629  49.154  0.00  0.00    +0.000 N 
ATOM     23  C   UNL     1     -13.566  59.598  49.099  0.00  0.00    +0.000 A 
ATOM     24  C   UNL     1     -15.423  59.814  50.638  0.00  0.00    +0.000 A 
ATOM     25  C   UNL     1     -14.656  60.325  49.592  0.00  0.00    +0.000 A 
ATOM     26  H   UNL     1     -12.063  54.775  50.717  0.00  0.00    +0.000 HD
ATOM     27  H   UNL     1     -11.567  58.071  48.494  0.00  0.00    +0.000 HD
ENDBRANCH   1  19
BRANCH   3  28
ATOM     28  O   UNL     1      -9.110  56.013  50.497  0.00  0.00    +0.000 OA
ATOM     29  H   UNL     1      -9.617  56.683  50.911  0.00  0.00    +0.000 HD
ENDBRANCH   3  28
BRANCH   8  30
ATOM     30  O   UNL     1     -11.706  53.584  45.289  0.00  0.00    +0.000 OA
BRANCH  30  31
ATOM     31  C   UNL     1     -12.059  52.202  45.112  0.00  0.00    +0.000 C 
ATOM     32  C   UNL     1     -12.499  51.624  46.449  0.00  0.00    +0.000 C 
ENDBRANCH  30  31
ENDBRANCH   8  30
TORSDOF 4
ENDMDL
MODEL 5
REMARK VINA RESULT:      -8.0      2.074      2.717
REMARK  Name = 338640
REMARK  5 active torsions:
REMARK  status: ('A' for Active; 'I' for Inactive)
REMARK    1  A    between atoms: C_6  and  C_10
REMARK    2  A    between atoms: C_14  and  O_18
REMARK    3  A    between atoms: C_21  and  O_25
REMARK    4  A    between atoms: O_25  and  C_28
REMARK    5  A    between atoms: C_28  and  C_29
REMARK                            x       y       z     vdW  Elec       q    Type
REMARK                         _______ _______ _______ _____ _____    ______ ____
ROOT
ATOM      1  C   UNL     1     -11.326  54.131  51.285  0.00  0.00    +0.000 A 
ATOM      2  C   UNL     1     -10.292  54.231  52.361  0.00  0.00    +0.000 A 
ATOM      3  C   UNL     1     -11.517  52.966  50.647  0.00  0.00    +0.000 A 
ATOM      4  O   UNL     1     -10.346  55.246  53.065  0.00  0.00    +0.000 OA
ATOM      5  N   UNL     1      -9.396  53.181  52.541  0.00  0.00    +0.000 N 
ATOM      6  C   UNL     1     -10.703  51.795  50.983  0.00  0.00    +0.000 A 
ATOM      7  C   UNL     1      -9.650  51.906  51.909  0.00  0.00    +0.000 A 
ATOM      8  C   UNL     1      -8.411  53.321  53.529  0.00  0.00    +0.000 C 
ATOM      9  C   UNL     1     -10.985  50.555  50.376  0.00  0.00    +0.000 A 
ATOM     10  C   UNL     1      -8.895  50.747  52.176  0.00  0.00    +0.000 A 
ATOM     11  O   UNL     1      -7.957  52.418  54.226  0.00  0.00    +0.000 OA
ATOM     12  C   UNL     1     -10.250  49.418  50.686  0.00  0.00    +0.000 A 
ATOM     13  C   UNL     1      -9.205  49.515  51.589  0.00  0.00    +0.000 A 
ENDROOT
BRANCH   1  19
ATOM     14  S   UNL     1     -13.165  57.024  49.355  0.00  0.00    +0.000 S 
ATOM     15  O   UNL     1     -14.243  56.505  48.537  0.00  0.00    +0.000 OA
ATOM     16  O   UNL     1     -12.295  58.066  48.846  0.00  0.00    +0.000 OA
ATOM     17  N   UNL     1     -12.237  55.771  49.792  0.00  0.00    +0.000 N 
ATOM     18  C   UNL     1     -13.918  57.679  50.797  0.00  0.00    +0.000 A 
ATOM     19  C   UNL     1     -12.248  55.312  51.010  0.00  0.00    +0.000 C 
ATOM     20  C   UNL     1     -13.751  56.988  51.986  0.00  0.00    +0.000 A 
ATOM     21  C   UNL     1     -14.653  58.867  50.721  0.00  0.00    +0.000 A 
ATOM     22  N   UNL     1     -13.018  55.804  52.041  0.00  0.00    +0.000 N 
ATOM     23  C   UNL     1     -14.403  57.476  53.127  0.00  0.00    +0.000 A 
ATOM     24  C   UNL     1     -15.265  59.358  51.871  0.00  0.00    +0.000 A 
ATOM     25  C   UNL     1     -15.151  58.658  53.071  0.00  0.00    +0.000 A 
ATOM     26  H   UNL     1     -11.652  55.348  49.123  0.00  0.00    +0.000 HD
ATOM     27  H   UNL     1     -13.053  55.283  52.875  0.00  0.00    +0.000 HD
ENDBRANCH   1  19
BRANCH   3  28
ATOM     28  O   UNL     1     -12.487  52.747  49.685  0.00  0.00    +0.000 OA
ATOM     29  H   UNL     1     -13.095  53.427  49.470  0.00  0.00    +0.000 HD
ENDBRANCH   3  28
BRANCH   8  30
ATOM     30  O   UNL     1      -8.032  54.622  53.735  0.00  0.00    +0.000 OA
BRANCH  30  31
ATOM     31  C   UNL     1      -6.861  54.809  54.545  0.00  0.00    +0.000 C 
ATOM     32  C   UNL     1      -5.645  54.943  53.641  0.00  0.00    +0.000 C 
ENDBRANCH  30  31
ENDBRANCH   8  30
TORSDOF 4
ENDMDL
MODEL 6
REMARK VINA RESULT:      -8.0      2.460      7.002
REMARK  Name = 338640
REMARK  5 active torsions:
REMARK  status: ('A' for Active; 'I' for Inactive)
REMARK    1  A    between atoms: C_6  and  C_10
REMARK    2  A    between atoms: C_14  and  O_18
REMARK    3  A    between atoms: C_21  and  O_25
REMARK    4  A    between atoms: O_25  and  C_28
REMARK    5  A    between atoms: C_28  and  C_29
REMARK                            x       y       z     vdW  Elec       q    Type
REMARK                         _______ _______ _______ _____ _____    ______ ____
ROOT
ATOM      1  C   UNL     1     -10.265  55.119  50.914  0.00  0.00    +0.000 A 
ATOM      2  C   UNL     1      -9.941  55.002  49.459  0.00  0.00    +0.000 A 
ATOM      3  C   UNL     1     -11.456  55.604  51.298  0.00  0.00    +0.000 A 
ATOM      4  O   UNL     1      -8.944  54.324  49.184  0.00  0.00    +0.000 OA
ATOM      5  N   UNL     1     -10.788  55.592  48.525  0.00  0.00    +0.000 N 
ATOM      6  C   UNL     1     -12.435  56.040  50.299  0.00  0.00    +0.000 A 
ATOM      7  C   UNL     1     -12.099  56.044  48.932  0.00  0.00    +0.000 A 
ATOM      8  C   UNL     1     -10.435  55.503  47.171  0.00  0.00    +0.000 C 
ATOM      9  C   UNL     1     -13.717  56.450  50.715  0.00  0.00    +0.000 A 
ATOM     10  C   UNL     1     -13.079  56.491  48.024  0.00  0.00    +0.000 A 
ATOM     11  O   UNL     1     -11.217  55.400  46.230  0.00  0.00    +0.000 OA
ATOM     12  C   UNL     1     -14.679  56.849  49.795  0.00  0.00    +0.000 A 
ATOM     13  C   UNL     1     -14.359  56.867  48.448  0.00  0.00    +0.000 A 
ENDROOT
BRANCH   1  19
ATOM     14  S   UNL     1      -7.014  54.679  53.085  0.00  0.00    +0.000 S 
ATOM     15  O   UNL     1      -6.950  55.671  54.140  0.00  0.00    +0.000 OA
ATOM     16  O   UNL     1      -5.823  54.329  52.335  0.00  0.00    +0.000 OA
ATOM     17  N   UNL     1      -8.142  55.161  52.029  0.00  0.00    +0.000 N 
ATOM     18  C   UNL     1      -7.566  53.196  53.842  0.00  0.00    +0.000 A 
ATOM     19  C   UNL     1      -9.297  54.565  51.952  0.00  0.00    +0.000 C 
ATOM     20  C   UNL     1      -8.856  52.772  53.568  0.00  0.00    +0.000 A 
ATOM     21  C   UNL     1      -6.709  52.483  54.686  0.00  0.00    +0.000 A 
ATOM     22  N   UNL     1      -9.697  53.497  52.726  0.00  0.00    +0.000 N 
ATOM     23  C   UNL     1      -9.321  51.621  54.220  0.00  0.00    +0.000 A 
ATOM     24  C   UNL     1      -7.174  51.323  55.298  0.00  0.00    +0.000 A 
ATOM     25  C   UNL     1      -8.482  50.898  55.075  0.00  0.00    +0.000 A 
ATOM     26  H   UNL     1      -7.952  55.920  51.432  0.00  0.00    +0.000 HD
ATOM     27  H   UNL     1     -10.642  53.228  52.681  0.00  0.00    +0.000 HD
ENDBRANCH   1  19
BRANCH   3  28
ATOM     28  O   UNL     1     -11.882  55.694  52.611  0.00  0.00    +0.000 OA
ATOM     29  H   UNL     1     -12.682  55.282  52.873  0.00  0.00    +0.000 HD
ENDBRANCH   3  28
BRANCH   8  30
ATOM     30  O   UNL     1      -9.082  55.444  46.967  0.00  0.00    +0.000 OA
BRANCH  30  31
ATOM     31  C   UNL     1      -8.658  54.694  45.817  0.00  0.00    +0.000 C 
ATOM     32  C   UNL     1      -7.189  54.331  45.973  0.00  0.00    +0.000 C 
ENDBRANCH  30  31
ENDBRANCH   8  30
TORSDOF 4
ENDMDL
MODEL 7
REMARK VINA RESULT:      -7.9      1.561      2.267
REMARK  Name = 338640
REMARK  5 active torsions:
REMARK  status: ('A' for Active; 'I' for Inactive)
REMARK    1  A    between atoms: C_6  and  C_10
REMARK    2  A    between atoms: C_14  and  O_18
REMARK    3  A    between atoms: C_21  and  O_25
REMARK    4  A    between atoms: O_25  and  C_28
REMARK    5  A    between atoms: C_28  and  C_29
REMARK                            x       y       z     vdW  Elec       q    Type
REMARK                         _______ _______ _______ _____ _____    ______ ____
ROOT
ATOM      1  C   UNL     1     -10.175  54.285  52.183  0.00  0.00    +0.000 A 
ATOM      2  C   UNL     1      -8.752  54.745  52.185  0.00  0.00    +0.000 A 
ATOM      3  C   UNL     1     -10.539  53.232  52.930  0.00  0.00    +0.000 A 
ATOM      4  O   UNL     1      -8.545  55.855  51.681  0.00  0.00    +0.000 OA
ATOM      5  N   UNL     1      -7.782  53.950  52.791  0.00  0.00    +0.000 N 
ATOM      6  C   UNL     1      -9.546  52.514  53.733  0.00  0.00    +0.000 A 
ATOM      7  C   UNL     1      -8.184  52.863  53.654  0.00  0.00    +0.000 A 
ATOM      8  C   UNL     1      -6.451  54.386  52.740  0.00  0.00    +0.000 C 
ATOM      9  C   UNL     1      -9.963  51.475  54.588  0.00  0.00    +0.000 A 
ATOM     10  C   UNL     1      -7.279  52.123  54.438  0.00  0.00    +0.000 A 
ATOM     11  O   UNL     1      -5.606  54.220  53.615  0.00  0.00    +0.000 OA
ATOM     12  C   UNL     1      -9.053  50.787  55.382  0.00  0.00    +0.000 A 
ATOM     13  C   UNL     1      -7.709  51.114  55.307  0.00  0.00    +0.000 A 
ENDROOT
BRANCH   1  19
ATOM     14  S   UNL     1     -13.430  56.385  51.496  0.00  0.00    +0.000 S 
ATOM     15  O   UNL     1     -13.277  57.752  51.951  0.00  0.00    +0.000 OA
ATOM     16  O   UNL     1     -14.673  55.672  51.719  0.00  0.00    +0.000 OA
ATOM     17  N   UNL     1     -12.233  55.515  52.153  0.00  0.00    +0.000 N 
ATOM     18  C   UNL     1     -13.194  56.420  49.758  0.00  0.00    +0.000 A 
ATOM     19  C   UNL     1     -11.230  55.095  51.439  0.00  0.00    +0.000 C 
ATOM     20  C   UNL     1     -12.023  55.877  49.253  0.00  0.00    +0.000 A 
ATOM     21  C   UNL     1     -14.175  56.978  48.932  0.00  0.00    +0.000 A 
ATOM     22  N   UNL     1     -11.056  55.328  50.091  0.00  0.00    +0.000 N 
ATOM     23  C   UNL     1     -11.804  55.960  47.870  0.00  0.00    +0.000 A 
ATOM     24  C   UNL     1     -13.958  57.021  47.558  0.00  0.00    +0.000 A 
ATOM     25  C   UNL     1     -12.769  56.523  47.028  0.00  0.00    +0.000 A 
ATOM     26  H   UNL     1     -12.266  55.297  53.112  0.00  0.00    +0.000 HD
ATOM     27  H   UNL     1     -10.188  55.089  49.694  0.00  0.00    +0.000 HD
ENDBRANCH   1  19
BRANCH   3  28
ATOM     28  O   UNL     1     -11.836  52.765  53.051  0.00  0.00    +0.000 OA
ATOM     29  H   UNL     1     -12.103  52.321  53.833  0.00  0.00    +0.000 HD
ENDBRANCH   3  28
BRANCH   8  30
ATOM     30  O   UNL     1      -6.166  55.127  51.624  0.00  0.00    +0.000 OA
BRANCH  30  31
ATOM     31  C   UNL     1      -5.345  54.480  50.638  0.00  0.00    +0.000 C 
ATOM     32  C   UNL     1      -5.481  55.216  49.314  0.00  0.00    +0.000 C 
ENDBRANCH  30  31
ENDBRANCH   8  30
TORSDOF 4
ENDMDL
MODEL 8
REMARK VINA RESULT:      -7.9      2.661      7.612
REMARK  Name = 338640
REMARK  5 active torsions:
REMARK  status: ('A' for Active; 'I' for Inactive)
REMARK    1  A    between atoms: C_6  and  C_10
REMARK    2  A    between atoms: C_14  and  O_18
REMARK    3  A    between atoms: C_21  and  O_25
REMARK    4  A    between atoms: O_25  and  C_28
REMARK    5  A    between atoms: C_28  and  C_29
REMARK                            x       y       z     vdW  Elec       q    Type
REMARK                         _______ _______ _______ _____ _____    ______ ____
ROOT
ATOM      1  C   UNL     1     -10.045  54.327  50.966  0.00  0.00    +0.000 A 
ATOM      2  C   UNL     1     -11.167  55.254  51.308  0.00  0.00    +0.000 A 
ATOM      3  C   UNL     1      -9.764  54.062  49.681  0.00  0.00    +0.000 A 
ATOM      4  O   UNL     1     -11.205  55.643  52.481  0.00  0.00    +0.000 OA
ATOM      5  N   UNL     1     -12.042  55.661  50.304  0.00  0.00    +0.000 N 
ATOM      6  C   UNL     1     -10.566  54.657  48.609  0.00  0.00    +0.000 A 
ATOM      7  C   UNL     1     -11.697  55.437  48.919  0.00  0.00    +0.000 A 
ATOM      8  C   UNL     1     -13.110  56.496  50.663  0.00  0.00    +0.000 C 
ATOM      9  C   UNL     1     -10.196  54.449  47.266  0.00  0.00    +0.000 A 
ATOM     10  C   UNL     1     -12.434  55.967  47.843  0.00  0.00    +0.000 A 
ATOM     11  O   UNL     1     -13.592  57.387  49.968  0.00  0.00    +0.000 OA
ATOM     12  C   UNL     1     -10.918  55.016  46.223  0.00  0.00    +0.000 A 
ATOM     13  C   UNL     1     -12.038  55.778  46.514  0.00  0.00    +0.000 A 
ENDROOT
BRANCH   1  19
ATOM     14  S   UNL     1      -6.841  53.751  53.175  0.00  0.00    +0.000 S 
ATOM     15  O   UNL     1      -6.622  54.861  54.080  0.00  0.00    +0.000 OA
ATOM     16  O   UNL     1      -5.725  53.140  52.481  0.00  0.00    +0.000 OA
ATOM     17  N   UNL     1      -7.915  54.231  52.063  0.00  0.00    +0.000 N 
ATOM     18  C   UNL     1      -7.575  52.478  54.133  0.00  0.00    +0.000 A 
ATOM     19  C   UNL     1      -9.140  53.795  52.071  0.00  0.00    +0.000 C 
ATOM     20  C   UNL     1      -8.916  52.200  53.922  0.00  0.00    +0.000 A 
ATOM     21  C   UNL     1      -6.806  51.778  55.068  0.00  0.00    +0.000 A 
ATOM     22  N   UNL     1      -9.667  52.910  52.987  0.00  0.00    +0.000 N 
ATOM     23  C   UNL     1      -9.520  51.226  54.729  0.00  0.00    +0.000 A 
ATOM     24  C   UNL     1      -7.412  50.789  55.837  0.00  0.00    +0.000 A 
ATOM     25  C   UNL     1      -8.770  50.520  55.677  0.00  0.00    +0.000 A 
ATOM     26  H   UNL     1      -7.634  54.867  51.365  0.00  0.00    +0.000 HD
ATOM     27  H   UNL     1     -10.641  52.770  52.981  0.00  0.00    +0.000 HD
ENDBRANCH   1  19
BRANCH   3  28
ATOM     28  O   UNL     1      -8.711  53.273  49.253  0.00  0.00    +0.000 OA
ATOM     29  H   UNL     1      -7.866  53.365  49.649  0.00  0.00    +0.000 HD
ENDBRANCH   3  28
BRANCH   8  30
ATOM     30  O   UNL     1     -13.545  56.297  51.947  0.00  0.00    +0.000 OA
BRANCH  30  31
ATOM     31  C   UNL     1     -14.885  56.733  52.225  0.00  0.00    +0.000 C 
ATOM     32  C   UNL     1     -14.839  57.886  53.216  0.00  0.00    +0.000 C 
ENDBRANCH  30  31
ENDBRANCH   8  30
TORSDOF 4
ENDMDL
MODEL 9
REMARK VINA RESULT:      -7.8      2.031      2.374
REMARK  Name = 338640
REMARK  5 active torsions:
REMARK  status: ('A' for Active; 'I' for Inactive)
REMARK    1  A    between atoms: C_6  and  C_10
REMARK    2  A    between atoms: C_14  and  O_18
REMARK    3  A    between atoms: C_21  and  O_25
REMARK    4  A    between atoms: O_25  and  C_28
REMARK    5  A    between atoms: C_28  and  C_29
REMARK                            x       y       z     vdW  Elec       q    Type
REMARK                         _______ _______ _______ _____ _____    ______ ____
ROOT
ATOM      1  C   UNL     1     -10.966  54.710  50.854  0.00  0.00    +0.000 A 
ATOM      2  C   UNL     1      -9.644  55.034  50.235  0.00  0.00    +0.000 A 
ATOM      3  C   UNL     1     -11.112  53.585  51.570  0.00  0.00    +0.000 A 
ATOM      4  O   UNL     1      -9.517  56.188  49.811  0.00  0.00    +0.000 OA
ATOM      5  N   UNL     1      -8.643  54.066  50.227  0.00  0.00    +0.000 N 
ATOM      6  C   UNL     1      -9.988  52.659  51.732  0.00  0.00    +0.000 A 
ATOM      7  C   UNL     1      -8.775  52.892  51.059  0.00  0.00    +0.000 A 
ATOM      8  C   UNL     1      -7.429  54.383  49.601  0.00  0.00    +0.000 C 
ATOM      9  C   UNL     1     -10.129  51.535  52.570  0.00  0.00    +0.000 A 
ATOM     10  C   UNL     1      -7.740  51.955  51.244  0.00  0.00    +0.000 A 
ATOM     11  O   UNL     1      -6.316  54.000  49.953  0.00  0.00    +0.000 OA
ATOM     12  C   UNL     1      -9.079  50.647  52.766  0.00  0.00    +0.000 A 
ATOM     13  C   UNL     1      -7.883  50.859  52.103  0.00  0.00    +0.000 A 
ENDROOT
BRANCH   1  19
ATOM     14  S   UNL     1     -13.571  57.255  49.367  0.00  0.00    +0.000 S 
ATOM     15  O   UNL     1     -14.681  56.564  48.742  0.00  0.00    +0.000 OA
ATOM     16  O   UNL     1     -12.989  58.425  48.739  0.00  0.00    +0.000 OA
ATOM     17  N   UNL     1     -12.388  56.174  49.595  0.00  0.00    +0.000 N 
ATOM     18  C   UNL     1     -14.146  57.781  50.939  0.00  0.00    +0.000 A 
ATOM     19  C   UNL     1     -12.102  55.722  50.782  0.00  0.00    +0.000 C 
ATOM     20  C   UNL     1     -13.656  57.129  52.058  0.00  0.00    +0.000 A 
ATOM     21  C   UNL     1     -15.066  58.831  51.029  0.00  0.00    +0.000 A 
ATOM     22  N   UNL     1     -12.742  56.083  51.948  0.00  0.00    +0.000 N 
ATOM     23  C   UNL     1     -14.160  57.505  53.311  0.00  0.00    +0.000 A 
ATOM     24  C   UNL     1     -15.530  59.216  52.283  0.00  0.00    +0.000 A 
ATOM     25  C   UNL     1     -15.088  58.547  53.423  0.00  0.00    +0.000 A 
ATOM     26  H   UNL     1     -11.873  55.852  48.820  0.00  0.00    +0.000 HD
ATOM     27  H   UNL     1     -12.539  55.565  52.760  0.00  0.00    +0.000 HD
ENDBRANCH   1  19
BRANCH   3  28
ATOM     28  O   UNL     1     -12.268  53.223  52.238  0.00  0.00    +0.000 OA
ATOM     29  H   UNL     1     -12.431  52.322  52.438  0.00  0.00    +0.000 HD
ENDBRANCH   3  28
BRANCH   8  30
ATOM     30  O   UNL     1      -7.568  55.269  48.566  0.00  0.00    +0.000 OA
BRANCH  30  31
ATOM     31  C   UNL     1      -7.510  54.702  47.247  0.00  0.00    +0.000 C 
ATOM     32  C   UNL     1      -8.759  55.102  46.477  0.00  0.00    +0.000 C 
ENDBRANCH  30  31
ENDBRANCH   8  30
TORSDOF 4
ENDMDL
