MODEL 1
REMARK VINA RESULT:      -9.3      0.000      0.000
REMARK  Name = 338173
REMARK  5 active torsions:
REMARK  status: ('A' for Active; 'I' for Inactive)
REMARK    1  A    between atoms: C_6  and  C_10
REMARK    2  A    between atoms: C_14  and  O_18
REMARK    3  A    between atoms: N_17  and  C_21
REMARK    4  A    between atoms: C_21  and  C_24
REMARK    5  A    between atoms: C_29  and  N_31
REMARK                            x       y       z     vdW  Elec       q    Type
REMARK                         _______ _______ _______ _____ _____    ______ ____
ROOT
ATOM      1  C   UNL     1     -10.236  55.269  50.740  0.00  0.00    +0.000 A 
ATOM      2  C   UNL     1      -9.835  55.255  49.300  0.00  0.00    +0.000 A 
ATOM      3  C   UNL     1     -11.454  55.718  51.086  0.00  0.00    +0.000 A 
ATOM      4  O   UNL     1      -8.706  54.850  49.011  0.00  0.00    +0.000 OA
ATOM      5  N   UNL     1     -10.754  55.659  48.342  0.00  0.00    +0.000 N 
ATOM      6  C   UNL     1     -12.405  56.181  50.063  0.00  0.00    +0.000 A 
ATOM      7  C   UNL     1     -12.050  56.133  48.702  0.00  0.00    +0.000 A 
ATOM      8  C   UNL     1     -13.683  56.639  50.430  0.00  0.00    +0.000 A 
ATOM      9  C   UNL     1     -12.992  56.539  47.743  0.00  0.00    +0.000 A 
ATOM     10  C   UNL     1     -14.608  57.030  49.466  0.00  0.00    +0.000 A 
ATOM     11  C   UNL     1     -14.264  56.974  48.122  0.00  0.00    +0.000 A 
ENDROOT
BRANCH   1  17
ATOM     12  S   UNL     1      -7.020  54.741  52.948  0.00  0.00    +0.000 S 
ATOM     13  O   UNL     1      -6.927  55.709  54.024  0.00  0.00    +0.000 OA
ATOM     14  O   UNL     1      -5.839  54.370  52.192  0.00  0.00    +0.000 OA
ATOM     15  N   UNL     1      -8.133  55.279  51.901  0.00  0.00    +0.000 N 
ATOM     16  C   UNL     1      -7.614  53.260  53.678  0.00  0.00    +0.000 A 
ATOM     17  C   UNL     1      -9.284  54.685  51.774  0.00  0.00    +0.000 C 
ATOM     18  C   UNL     1      -8.897  52.847  53.356  0.00  0.00    +0.000 A 
ATOM     19  C   UNL     1      -6.798  52.535  54.551  0.00  0.00    +0.000 A 
ATOM     20  N   UNL     1      -9.702  53.588  52.496  0.00  0.00    +0.000 N 
ATOM     21  C   UNL     1      -9.398  51.704  53.989  0.00  0.00    +0.000 A 
ATOM     22  C   UNL     1      -7.296  51.378  55.143  0.00  0.00    +0.000 A 
ATOM     23  C   UNL     1      -8.601  50.968  54.870  0.00  0.00    +0.000 A 
ATOM     24  H   UNL     1      -7.935  56.071  51.351  0.00  0.00    +0.000 HD
ATOM     25  H   UNL     1     -10.640  53.307  52.395  0.00  0.00    +0.000 HD
ENDBRANCH   1  17
BRANCH   3  26
ATOM     26  O   UNL     1     -11.941  55.733  52.382  0.00  0.00    +0.000 OA
ATOM     27  H   UNL     1     -12.034  56.545  52.838  0.00  0.00    +0.000 HD
ENDBRANCH   3  26
BRANCH   5  28
ATOM     28  C   UNL     1     -10.381  55.469  46.942  0.00  0.00    +0.000 C 
BRANCH  28  29
ATOM     29  C   UNL     1     -10.686  54.110  46.339  0.00  0.00    +0.000 A 
ATOM     30  C   UNL     1     -10.010  53.730  45.166  0.00  0.00    +0.000 A 
ATOM     31  C   UNL     1     -11.748  53.309  46.788  0.00  0.00    +0.000 A 
ATOM     32  C   UNL     1     -10.431  52.606  44.439  0.00  0.00    +0.000 A 
ATOM     33  C   UNL     1     -12.142  52.170  46.077  0.00  0.00    +0.000 A 
ATOM     34  C   UNL     1     -11.496  51.821  44.891  0.00  0.00    +0.000 A 
BRANCH  32  35
ATOM     35  N   UNL     1      -9.797  52.299  43.150  0.00  0.00    +0.000 N 
ATOM     36  O   UNL     1     -10.230  51.326  42.514  0.00  0.00    +0.000 OA
ATOM     37  O   UNL     1      -8.857  53.017  42.782  0.00  0.00    +0.000 OA
ENDBRANCH  32  35
ENDBRANCH  28  29
ENDBRANCH   5  28
TORSDOF 5
ENDMDL
MODEL 2
REMARK VINA RESULT:      -9.1      1.545      2.094
REMARK  Name = 338173
REMARK  5 active torsions:
REMARK  status: ('A' for Active; 'I' for Inactive)
REMARK    1  A    between atoms: C_6  and  C_10
REMARK    2  A    between atoms: C_14  and  O_18
REMARK    3  A    between atoms: N_17  and  C_21
REMARK    4  A    between atoms: C_21  and  C_24
REMARK    5  A    between atoms: C_29  and  N_31
REMARK                            x       y       z     vdW  Elec       q    Type
REMARK                         _______ _______ _______ _____ _____    ______ ____
ROOT
ATOM      1  C   UNL     1     -10.383  54.934  50.479  0.00  0.00    +0.000 A 
ATOM      2  C   UNL     1      -9.896  55.066  49.072  0.00  0.00    +0.000 A 
ATOM      3  C   UNL     1     -11.611  55.372  50.801  0.00  0.00    +0.000 A 
ATOM      4  O   UNL     1      -8.759  54.668  48.807  0.00  0.00    +0.000 OA
ATOM      5  N   UNL     1     -10.748  55.595  48.112  0.00  0.00    +0.000 N 
ATOM      6  C   UNL     1     -12.491  55.967  49.781  0.00  0.00    +0.000 A 
ATOM      7  C   UNL     1     -12.055  56.058  48.446  0.00  0.00    +0.000 A 
ATOM      8  C   UNL     1     -13.780  56.412  50.121  0.00  0.00    +0.000 A 
ATOM      9  C   UNL     1     -12.930  56.588  47.484  0.00  0.00    +0.000 A 
ATOM     10  C   UNL     1     -14.638  56.929  49.153  0.00  0.00    +0.000 A 
ATOM     11  C   UNL     1     -14.214  57.011  47.834  0.00  0.00    +0.000 A 
ENDROOT
BRANCH   1  17
ATOM     12  S   UNL     1      -9.064  52.174  52.957  0.00  0.00    +0.000 S 
ATOM     13  O   UNL     1      -8.437  51.066  52.263  0.00  0.00    +0.000 OA
ATOM     14  O   UNL     1      -9.939  51.930  54.088  0.00  0.00    +0.000 OA
ATOM     15  N   UNL     1      -9.894  53.030  51.861  0.00  0.00    +0.000 N 
ATOM     16  C   UNL     1      -7.753  53.170  53.564  0.00  0.00    +0.000 A 
ATOM     17  C   UNL     1      -9.506  54.218  51.497  0.00  0.00    +0.000 C 
ATOM     18  C   UNL     1      -7.566  54.417  52.989  0.00  0.00    +0.000 A 
ATOM     19  C   UNL     1      -6.939  52.700  54.598  0.00  0.00    +0.000 A 
ATOM     20  N   UNL     1      -8.377  54.865  51.950  0.00  0.00    +0.000 N 
ATOM     21  C   UNL     1      -6.480  55.185  53.423  0.00  0.00    +0.000 A 
ATOM     22  C   UNL     1      -5.885  53.492  55.046  0.00  0.00    +0.000 A 
ATOM     23  C   UNL     1      -5.649  54.731  54.452  0.00  0.00    +0.000 A 
ATOM     24  H   UNL     1     -10.708  52.646  51.464  0.00  0.00    +0.000 HD
ATOM     25  H   UNL     1      -8.125  55.707  51.507  0.00  0.00    +0.000 HD
ENDBRANCH   1  17
BRANCH   3  26
ATOM     26  O   UNL     1     -12.177  55.257  52.060  0.00  0.00    +0.000 OA
ATOM     27  H   UNL     1     -12.873  54.648  52.206  0.00  0.00    +0.000 HD
ENDBRANCH   3  26
BRANCH   5  28
ATOM     28  C   UNL     1     -10.294  55.549  46.724  0.00  0.00    +0.000 C 
BRANCH  28  29
ATOM     29  C   UNL     1     -10.478  54.231  45.995  0.00  0.00    +0.000 A 
ATOM     30  C   UNL     1      -9.429  53.761  45.184  0.00  0.00    +0.000 A 
ATOM     31  C   UNL     1     -11.714  53.567  45.941  0.00  0.00    +0.000 A 
ATOM     32  C   UNL     1      -9.641  52.689  44.304  0.00  0.00    +0.000 A 
ATOM     33  C   UNL     1     -11.909  52.476  45.086  0.00  0.00    +0.000 A 
ATOM     34  C   UNL     1     -10.879  52.042  44.252  0.00  0.00    +0.000 A 
BRANCH  32  35
ATOM     35  N   UNL     1      -8.575  52.296  43.373  0.00  0.00    +0.000 N 
ATOM     36  O   UNL     1      -8.405  52.998  42.365  0.00  0.00    +0.000 OA
ATOM     37  O   UNL     1      -7.920  51.280  43.639  0.00  0.00    +0.000 OA
ENDBRANCH  32  35
ENDBRANCH  28  29
ENDBRANCH   5  28
TORSDOF 5
ENDMDL
MODEL 3
REMARK VINA RESULT:      -9.0      1.797      2.056
REMARK  Name = 338173
REMARK  5 active torsions:
REMARK  status: ('A' for Active; 'I' for Inactive)
REMARK    1  A    between atoms: C_6  and  C_10
REMARK    2  A    between atoms: C_14  and  O_18
REMARK    3  A    between atoms: N_17  and  C_21
REMARK    4  A    between atoms: C_21  and  C_24
REMARK    5  A    between atoms: C_29  and  N_31
REMARK                            x       y       z     vdW  Elec       q    Type
REMARK                         _______ _______ _______ _____ _____    ______ ____
ROOT
ATOM      1  C   UNL     1     -10.228  55.311  50.740  0.00  0.00    +0.000 A 
ATOM      2  C   UNL     1      -9.912  55.216  49.283  0.00  0.00    +0.000 A 
ATOM      3  C   UNL     1     -11.409  55.817  51.133  0.00  0.00    +0.000 A 
ATOM      4  O   UNL     1      -8.814  54.760  48.951  0.00  0.00    +0.000 OA
ATOM      5  N   UNL     1     -10.873  55.605  48.359  0.00  0.00    +0.000 N 
ATOM      6  C   UNL     1     -12.404  56.262  50.144  0.00  0.00    +0.000 A 
ATOM      7  C   UNL     1     -12.130  56.138  48.769  0.00  0.00    +0.000 A 
ATOM      8  C   UNL     1     -13.644  56.779  50.560  0.00  0.00    +0.000 A 
ATOM      9  C   UNL     1     -13.114  56.529  47.846  0.00  0.00    +0.000 A 
ATOM     10  C   UNL     1     -14.611  57.155  49.631  0.00  0.00    +0.000 A 
ATOM     11  C   UNL     1     -14.347  57.024  48.275  0.00  0.00    +0.000 A 
ENDROOT
BRANCH   1  17
ATOM     12  S   UNL     1      -6.928  54.823  52.831  0.00  0.00    +0.000 S 
ATOM     13  O   UNL     1      -6.796  55.808  53.887  0.00  0.00    +0.000 OA
ATOM     14  O   UNL     1      -5.776  54.443  52.036  0.00  0.00    +0.000 OA
ATOM     15  N   UNL     1      -8.081  55.343  51.820  0.00  0.00    +0.000 N 
ATOM     16  C   UNL     1      -7.490  53.353  53.607  0.00  0.00    +0.000 A 
ATOM     17  C   UNL     1      -9.235  54.746  51.747  0.00  0.00    +0.000 C 
ATOM     18  C   UNL     1      -8.784  52.933  53.342  0.00  0.00    +0.000 A 
ATOM     19  C   UNL     1      -6.639  52.644  54.459  0.00  0.00    +0.000 A 
ATOM     20  N   UNL     1      -9.623  53.659  52.501  0.00  0.00    +0.000 N 
ATOM     21  C   UNL     1      -9.257  51.800  54.011  0.00  0.00    +0.000 A 
ATOM     22  C   UNL     1      -7.112  51.496  55.089  0.00  0.00    +0.000 A 
ATOM     23  C   UNL     1      -8.425  51.079  54.873  0.00  0.00    +0.000 A 
ATOM     24  H   UNL     1      -7.907  56.126  51.250  0.00  0.00    +0.000 HD
ATOM     25  H   UNL     1     -10.563  53.375  52.441  0.00  0.00    +0.000 HD
ENDBRANCH   1  17
BRANCH   3  26
ATOM     26  O   UNL     1     -11.819  55.908  52.452  0.00  0.00    +0.000 OA
ATOM     27  H   UNL     1     -12.501  56.505  52.689  0.00  0.00    +0.000 HD
ENDBRANCH   3  26
BRANCH   5  28
ATOM     28  C   UNL     1     -10.588  55.336  46.952  0.00  0.00    +0.000 C 
BRANCH  28  29
ATOM     29  C   UNL     1     -11.157  54.051  46.379  0.00  0.00    +0.000 A 
ATOM     30  C   UNL     1     -11.721  53.114  47.263  0.00  0.00    +0.000 A 
ATOM     31  C   UNL     1     -10.969  53.677  45.039  0.00  0.00    +0.000 A 
ATOM     32  C   UNL     1     -12.031  51.820  46.820  0.00  0.00    +0.000 A 
ATOM     33  C   UNL     1     -11.311  52.395  44.594  0.00  0.00    +0.000 A 
ATOM     34  C   UNL     1     -11.829  51.455  45.485  0.00  0.00    +0.000 A 
BRANCH  32  35
ATOM     35  N   UNL     1     -12.497  50.816  47.786  0.00  0.00    +0.000 N 
ATOM     36  O   UNL     1     -13.078  49.816  47.339  0.00  0.00    +0.000 OA
ATOM     37  O   UNL     1     -12.298  51.035  48.988  0.00  0.00    +0.000 OA
ENDBRANCH  32  35
ENDBRANCH  28  29
ENDBRANCH   5  28
TORSDOF 5
ENDMDL
MODEL 4
REMARK VINA RESULT:      -9.0      2.701      5.422
REMARK  Name = 338173
REMARK  5 active torsions:
REMARK  status: ('A' for Active; 'I' for Inactive)
REMARK    1  A    between atoms: C_6  and  C_10
REMARK    2  A    between atoms: C_14  and  O_18
REMARK    3  A    between atoms: N_17  and  C_21
REMARK    4  A    between atoms: C_21  and  C_24
REMARK    5  A    between atoms: C_29  and  N_31
REMARK                            x       y       z     vdW  Elec       q    Type
REMARK                         _______ _______ _______ _____ _____    ______ ____
ROOT
ATOM      1  C   UNL     1     -10.069  54.465  50.722  0.00  0.00    +0.000 A 
ATOM      2  C   UNL     1     -11.522  54.578  51.052  0.00  0.00    +0.000 A 
ATOM      3  C   UNL     1      -9.650  54.712  49.470  0.00  0.00    +0.000 A 
ATOM      4  O   UNL     1     -11.881  54.332  52.206  0.00  0.00    +0.000 OA
ATOM      5  N   UNL     1     -12.406  54.990  50.064  0.00  0.00    +0.000 N 
ATOM      6  C   UNL     1     -10.604  55.110  48.421  0.00  0.00    +0.000 A 
ATOM      7  C   UNL     1     -11.967  55.259  48.734  0.00  0.00    +0.000 A 
ATOM      8  C   UNL     1     -10.158  55.380  47.115  0.00  0.00    +0.000 A 
ATOM      9  C   UNL     1     -12.850  55.683  47.726  0.00  0.00    +0.000 A 
ATOM     10  C   UNL     1     -11.045  55.807  46.130  0.00  0.00    +0.000 A 
ATOM     11  C   UNL     1     -12.389  55.963  46.438  0.00  0.00    +0.000 A 
ENDROOT
BRANCH   1  17
ATOM     12  S   UNL     1      -6.945  54.751  53.101  0.00  0.00    +0.000 S 
ATOM     13  O   UNL     1      -7.107  55.794  54.096  0.00  0.00    +0.000 OA
ATOM     14  O   UNL     1      -5.673  54.570  52.429  0.00  0.00    +0.000 OA
ATOM     15  N   UNL     1      -8.079  54.979  51.967  0.00  0.00    +0.000 N 
ATOM     16  C   UNL     1      -7.279  53.239  53.925  0.00  0.00    +0.000 A 
ATOM     17  C   UNL     1      -9.082  54.160  51.841  0.00  0.00    +0.000 C 
ATOM     18  C   UNL     1      -8.436  52.556  53.584  0.00  0.00    +0.000 A 
ATOM     19  C   UNL     1      -6.390  52.757  54.889  0.00  0.00    +0.000 A 
ATOM     20  N   UNL     1      -9.319  53.056  52.632  0.00  0.00    +0.000 N 
ATOM     21  C   UNL     1      -8.739  51.385  54.287  0.00  0.00    +0.000 A 
ATOM     22  C   UNL     1      -6.686  51.570  55.554  0.00  0.00    +0.000 A 
ATOM     23  C   UNL     1      -7.866  50.888  55.260  0.00  0.00    +0.000 A 
ATOM     24  H   UNL     1      -8.009  55.752  51.362  0.00  0.00    +0.000 HD
ATOM     25  H   UNL     1     -10.176  52.587  52.515  0.00  0.00    +0.000 HD
ENDBRANCH   1  17
BRANCH   3  26
ATOM     26  O   UNL     1      -8.325  54.679  49.069  0.00  0.00    +0.000 OA
ATOM     27  H   UNL     1      -8.076  55.057  48.249  0.00  0.00    +0.000 HD
ENDBRANCH   3  26
BRANCH   5  28
ATOM     28  C   UNL     1     -13.784  55.251  50.472  0.00  0.00    +0.000 C 
BRANCH  28  29
ATOM     29  C   UNL     1     -14.071  56.624  51.052  0.00  0.00    +0.000 A 
ATOM     30  C   UNL     1     -14.016  57.738  50.196  0.00  0.00    +0.000 A 
ATOM     31  C   UNL     1     -14.193  56.847  52.432  0.00  0.00    +0.000 A 
ATOM     32  C   UNL     1     -14.026  59.038  50.724  0.00  0.00    +0.000 A 
ATOM     33  C   UNL     1     -14.238  58.146  52.951  0.00  0.00    +0.000 A 
ATOM     34  C   UNL     1     -14.139  59.248  52.102  0.00  0.00    +0.000 A 
BRANCH  32  35
ATOM     35  N   UNL     1     -13.838  60.185  49.826  0.00  0.00    +0.000 N 
ATOM     36  O   UNL     1     -14.824  60.583  49.188  0.00  0.00    +0.000 OA
ATOM     37  O   UNL     1     -12.704  60.676  49.745  0.00  0.00    +0.000 OA
ENDBRANCH  32  35
ENDBRANCH  28  29
ENDBRANCH   5  28
TORSDOF 5
ENDMDL
MODEL 5
REMARK VINA RESULT:      -8.9      2.995      6.422
REMARK  Name = 338173
REMARK  5 active torsions:
REMARK  status: ('A' for Active; 'I' for Inactive)
REMARK    1  A    between atoms: C_6  and  C_10
REMARK    2  A    between atoms: C_14  and  O_18
REMARK    3  A    between atoms: N_17  and  C_21
REMARK    4  A    between atoms: C_21  and  C_24
REMARK    5  A    between atoms: C_29  and  N_31
REMARK                            x       y       z     vdW  Elec       q    Type
REMARK                         _______ _______ _______ _____ _____    ______ ____
ROOT
ATOM      1  C   UNL     1     -12.142  54.322  50.375  0.00  0.00    +0.000 A 
ATOM      2  C   UNL     1     -11.997  53.737  49.008  0.00  0.00    +0.000 A 
ATOM      3  C   UNL     1     -11.413  53.830  51.390  0.00  0.00    +0.000 A 
ATOM      4  O   UNL     1     -12.688  54.199  48.096  0.00  0.00    +0.000 OA
ATOM      5  N   UNL     1     -11.068  52.725  48.804  0.00  0.00    +0.000 N 
ATOM      6  C   UNL     1     -10.460  52.730  51.168  0.00  0.00    +0.000 A 
ATOM      7  C   UNL     1     -10.288  52.201  49.876  0.00  0.00    +0.000 A 
ATOM      8  C   UNL     1      -9.690  52.226  52.232  0.00  0.00    +0.000 A 
ATOM      9  C   UNL     1      -9.340  51.182  49.684  0.00  0.00    +0.000 A 
ATOM     10  C   UNL     1      -8.750  51.221  52.023  0.00  0.00    +0.000 A 
ATOM     11  C   UNL     1      -8.571  50.704  50.747  0.00  0.00    +0.000 A 
ENDROOT
BRANCH   1  17
ATOM     12  S   UNL     1     -15.260  56.504  51.382  0.00  0.00    +0.000 S 
ATOM     13  O   UNL     1     -15.306  56.773  52.807  0.00  0.00    +0.000 OA
ATOM     14  O   UNL     1     -16.473  56.169  50.660  0.00  0.00    +0.000 OA
ATOM     15  N   UNL     1     -14.193  55.309  51.145  0.00  0.00    +0.000 N 
ATOM     16  C   UNL     1     -14.637  57.963  50.634  0.00  0.00    +0.000 A 
ATOM     17  C   UNL     1     -13.049  55.530  50.565  0.00  0.00    +0.000 C 
ATOM     18  C   UNL     1     -13.369  57.916  50.076  0.00  0.00    +0.000 A 
ATOM     19  C   UNL     1     -15.415  59.124  50.610  0.00  0.00    +0.000 A 
ATOM     20  N   UNL     1     -12.601  56.756  50.120  0.00  0.00    +0.000 N 
ATOM     21  C   UNL     1     -12.842  59.095  49.539  0.00  0.00    +0.000 A 
ATOM     22  C   UNL     1     -14.892  60.280  50.038  0.00  0.00    +0.000 A 
ATOM     23  C   UNL     1     -13.601  60.269  49.511  0.00  0.00    +0.000 A 
ATOM     24  H   UNL     1     -14.414  54.398  51.444  0.00  0.00    +0.000 HD
ATOM     25  H   UNL     1     -11.668  56.815  49.811  0.00  0.00    +0.000 HD
ENDBRANCH   1  17
BRANCH   3  26
ATOM     26  O   UNL     1     -11.437  54.327  52.682  0.00  0.00    +0.000 OA
ATOM     27  H   UNL     1     -10.898  53.940  53.342  0.00  0.00    +0.000 HD
ENDBRANCH   3  26
BRANCH   5  28
ATOM     28  C   UNL     1     -10.839  52.302  47.425  0.00  0.00    +0.000 C 
BRANCH  28  29
ATOM     29  C   UNL     1      -9.946  53.193  46.582  0.00  0.00    +0.000 A 
ATOM     30  C   UNL     1      -9.843  52.930  45.205  0.00  0.00    +0.000 A 
ATOM     31  C   UNL     1      -9.074  54.136  47.149  0.00  0.00    +0.000 A 
ATOM     32  C   UNL     1      -8.852  53.558  44.436  0.00  0.00    +0.000 A 
ATOM     33  C   UNL     1      -8.109  54.786  46.371  0.00  0.00    +0.000 A 
ATOM     34  C   UNL     1      -7.983  54.489  45.014  0.00  0.00    +0.000 A 
BRANCH  32  35
ATOM     35  N   UNL     1      -8.676  53.175  43.029  0.00  0.00    +0.000 N 
ATOM     36  O   UNL     1      -7.948  53.891  42.325  0.00  0.00    +0.000 OA
ATOM     37  O   UNL     1      -9.277  52.171  42.623  0.00  0.00    +0.000 OA
ENDBRANCH  32  35
ENDBRANCH  28  29
ENDBRANCH   5  28
TORSDOF 5
ENDMDL
MODEL 6
REMARK VINA RESULT:      -8.9      2.857      5.930
REMARK  Name = 338173
REMARK  5 active torsions:
REMARK  status: ('A' for Active; 'I' for Inactive)
REMARK    1  A    between atoms: C_6  and  C_10
REMARK    2  A    between atoms: C_14  and  O_18
REMARK    3  A    between atoms: N_17  and  C_21
REMARK    4  A    between atoms: C_21  and  C_24
REMARK    5  A    between atoms: C_29  and  N_31
REMARK                            x       y       z     vdW  Elec       q    Type
REMARK                         _______ _______ _______ _____ _____    ______ ____
ROOT
ATOM      1  C   UNL     1      -9.053  54.492  50.089  0.00  0.00    +0.000 A 
ATOM      2  C   UNL     1     -10.519  54.586  50.364  0.00  0.00    +0.000 A 
ATOM      3  C   UNL     1      -8.623  54.327  48.828  0.00  0.00    +0.000 A 
ATOM      4  O   UNL     1     -10.888  54.724  51.534  0.00  0.00    +0.000 OA
ATOM      5  N   UNL     1     -11.407  54.553  49.298  0.00  0.00    +0.000 N 
ATOM      6  C   UNL     1      -9.577  54.254  47.710  0.00  0.00    +0.000 A 
ATOM      7  C   UNL     1     -10.956  54.383  47.955  0.00  0.00    +0.000 A 
ATOM      8  C   UNL     1      -9.120  54.093  46.390  0.00  0.00    +0.000 A 
ATOM      9  C   UNL     1     -11.843  54.354  46.866  0.00  0.00    +0.000 A 
ATOM     10  C   UNL     1     -10.011  54.075  45.320  0.00  0.00    +0.000 A 
ATOM     11  C   UNL     1     -11.372  54.211  45.559  0.00  0.00    +0.000 A 
ENDROOT
BRANCH   1  17
ATOM     12  S   UNL     1      -7.338  55.994  53.299  0.00  0.00    +0.000 S 
ATOM     13  O   UNL     1      -8.054  55.655  54.514  0.00  0.00    +0.000 OA
ATOM     14  O   UNL     1      -6.802  57.328  53.113  0.00  0.00    +0.000 OA
ATOM     15  N   UNL     1      -8.317  55.671  52.050  0.00  0.00    +0.000 N 
ATOM     16  C   UNL     1      -5.965  54.904  53.227  0.00  0.00    +0.000 A 
ATOM     17  C   UNL     1      -8.076  54.679  51.242  0.00  0.00    +0.000 C 
ATOM     18  C   UNL     1      -5.963  53.927  52.244  0.00  0.00    +0.000 A 
ATOM     19  C   UNL     1      -4.916  55.039  54.140  0.00  0.00    +0.000 A 
ATOM     20  N   UNL     1      -7.022  53.797  51.349  0.00  0.00    +0.000 N 
ATOM     21  C   UNL     1      -4.903  53.014  52.225  0.00  0.00    +0.000 A 
ATOM     22  C   UNL     1      -3.850  54.146  54.086  0.00  0.00    +0.000 A 
ATOM     23  C   UNL     1      -3.847  53.127  53.134  0.00  0.00    +0.000 A 
ATOM     24  H   UNL     1      -9.109  56.235  51.898  0.00  0.00    +0.000 HD
ATOM     25  H   UNL     1      -7.018  53.016  50.750  0.00  0.00    +0.000 HD
ENDBRANCH   1  17
BRANCH   3  26
ATOM     26  O   UNL     1      -7.289  54.273  48.459  0.00  0.00    +0.000 OA
ATOM     27  H   UNL     1      -6.929  53.477  48.122  0.00  0.00    +0.000 HD
ENDBRANCH   3  26
BRANCH   5  28
ATOM     28  C   UNL     1     -12.812  54.819  49.595  0.00  0.00    +0.000 C 
BRANCH  28  29
ATOM     29  C   UNL     1     -13.195  56.270  49.819  0.00  0.00    +0.000 A 
ATOM     30  C   UNL     1     -13.788  56.625  51.044  0.00  0.00    +0.000 A 
ATOM     31  C   UNL     1     -13.162  57.224  48.790  0.00  0.00    +0.000 A 
ATOM     32  C   UNL     1     -14.381  57.887  51.203  0.00  0.00    +0.000 A 
ATOM     33  C   UNL     1     -13.724  58.494  48.966  0.00  0.00    +0.000 A 
ATOM     34  C   UNL     1     -14.350  58.826  50.168  0.00  0.00    +0.000 A 
BRANCH  32  35
ATOM     35  N   UNL     1     -15.108  58.194  52.442  0.00  0.00    +0.000 N 
ATOM     36  O   UNL     1     -14.993  59.337  52.908  0.00  0.00    +0.000 OA
ATOM     37  O   UNL     1     -15.779  57.289  52.958  0.00  0.00    +0.000 OA
ENDBRANCH  32  35
ENDBRANCH  28  29
ENDBRANCH   5  28
TORSDOF 5
ENDMDL
MODEL 7
REMARK VINA RESULT:      -8.9      3.883      7.795
REMARK  Name = 338173
REMARK  5 active torsions:
REMARK  status: ('A' for Active; 'I' for Inactive)
REMARK    1  A    between atoms: C_6  and  C_10
REMARK    2  A    between atoms: C_14  and  O_18
REMARK    3  A    between atoms: N_17  and  C_21
REMARK    4  A    between atoms: C_21  and  C_24
REMARK    5  A    between atoms: C_29  and  N_31
REMARK                            x       y       z     vdW  Elec       q    Type
REMARK                         _______ _______ _______ _____ _____    ______ ____
ROOT
ATOM      1  C   UNL     1     -11.409  54.133  51.179  0.00  0.00    +0.000 A 
ATOM      2  C   UNL     1     -10.388  54.217  52.267  0.00  0.00    +0.000 A 
ATOM      3  C   UNL     1     -11.550  52.991  50.486  0.00  0.00    +0.000 A 
ATOM      4  O   UNL     1     -10.270  55.282  52.878  0.00  0.00    +0.000 OA
ATOM      5  N   UNL     1      -9.640  53.089  52.575  0.00  0.00    +0.000 N 
ATOM      6  C   UNL     1     -10.723  51.814  50.797  0.00  0.00    +0.000 A 
ATOM      7  C   UNL     1      -9.788  51.872  51.847  0.00  0.00    +0.000 A 
ATOM      8  C   UNL     1     -10.883  50.617  50.077  0.00  0.00    +0.000 A 
ATOM      9  C   UNL     1      -9.042  50.721  52.152  0.00  0.00    +0.000 A 
ATOM     10  C   UNL     1     -10.141  49.483  50.397  0.00  0.00    +0.000 A 
ATOM     11  C   UNL     1      -9.226  49.534  51.439  0.00  0.00    +0.000 A 
ENDROOT
BRANCH   1  17
ATOM     12  S   UNL     1     -13.332  57.036  49.341  0.00  0.00    +0.000 S 
ATOM     13  O   UNL     1     -14.455  56.546  48.565  0.00  0.00    +0.000 OA
ATOM     14  O   UNL     1     -12.467  58.071  48.807  0.00  0.00    +0.000 OA
ATOM     15  N   UNL     1     -12.407  55.761  49.720  0.00  0.00    +0.000 N 
ATOM     16  C   UNL     1     -14.013  57.688  50.821  0.00  0.00    +0.000 A 
ATOM     17  C   UNL     1     -12.331  55.321  50.943  0.00  0.00    +0.000 C 
ATOM     18  C   UNL     1     -13.765  57.010  52.003  0.00  0.00    +0.000 A 
ATOM     19  C   UNL     1     -14.776  58.858  50.782  0.00  0.00    +0.000 A 
ATOM     20  N   UNL     1     -13.014  55.838  52.023  0.00  0.00    +0.000 N 
ATOM     21  C   UNL     1     -14.362  57.489  53.174  0.00  0.00    +0.000 A 
ATOM     22  C   UNL     1     -15.333  59.344  51.962  0.00  0.00    +0.000 A 
ATOM     23  C   UNL     1     -15.135  58.654  53.157  0.00  0.00    +0.000 A 
ATOM     24  H   UNL     1     -11.892  55.310  49.012  0.00  0.00    +0.000 HD
ATOM     25  H   UNL     1     -12.968  55.341  52.872  0.00  0.00    +0.000 HD
ENDBRANCH   1  17
BRANCH   3  26
ATOM     26  O   UNL     1     -12.493  52.792  49.491  0.00  0.00    +0.000 OA
ATOM     27  H   UNL     1     -13.095  53.476  49.274  0.00  0.00    +0.000 HD
ENDBRANCH   3  26
BRANCH   5  28
ATOM     28  C   UNL     1      -8.779  53.165  53.753  0.00  0.00    +0.000 C 
BRANCH  28  29
ATOM     29  C   UNL     1      -7.418  53.806  53.556  0.00  0.00    +0.000 A 
ATOM     30  C   UNL     1      -6.889  53.874  52.255  0.00  0.00    +0.000 A 
ATOM     31  C   UNL     1      -6.587  54.153  54.634  0.00  0.00    +0.000 A 
ATOM     32  C   UNL     1      -5.546  54.226  52.054  0.00  0.00    +0.000 A 
ATOM     33  C   UNL     1      -5.258  54.536  54.425  0.00  0.00    +0.000 A 
ATOM     34  C   UNL     1      -4.726  54.560  53.136  0.00  0.00    +0.000 A 
BRANCH  32  35
ATOM     35  N   UNL     1      -4.977  54.166  50.701  0.00  0.00    +0.000 N 
ATOM     36  O   UNL     1      -5.314  55.048  49.897  0.00  0.00    +0.000 OA
ATOM     37  O   UNL     1      -4.210  53.230  50.437  0.00  0.00    +0.000 OA
ENDBRANCH  32  35
ENDBRANCH  28  29
ENDBRANCH   5  28
TORSDOF 5
ENDMDL
MODEL 8
REMARK VINA RESULT:      -8.8      3.084      7.601
REMARK  Name = 338173
REMARK  5 active torsions:
REMARK  status: ('A' for Active; 'I' for Inactive)
REMARK    1  A    between atoms: C_6  and  C_10
REMARK    2  A    between atoms: C_14  and  O_18
REMARK    3  A    between atoms: N_17  and  C_21
REMARK    4  A    between atoms: C_21  and  C_24
REMARK    5  A    between atoms: C_29  and  N_31
REMARK                            x       y       z     vdW  Elec       q    Type
REMARK                         _______ _______ _______ _____ _____    ______ ____
ROOT
ATOM      1  C   UNL     1     -11.603  55.648  48.880  0.00  0.00    +0.000 A 
ATOM      2  C   UNL     1     -10.778  54.799  49.792  0.00  0.00    +0.000 A 
ATOM      3  C   UNL     1     -11.591  55.410  47.558  0.00  0.00    +0.000 A 
ATOM      4  O   UNL     1     -10.797  55.049  51.000  0.00  0.00    +0.000 OA
ATOM      5  N   UNL     1     -10.054  53.743  49.257  0.00  0.00    +0.000 N 
ATOM      6  C   UNL     1     -10.788  54.310  46.998  0.00  0.00    +0.000 A 
ATOM      7  C   UNL     1     -10.041  53.481  47.855  0.00  0.00    +0.000 A 
ATOM      8  C   UNL     1     -10.789  54.057  45.615  0.00  0.00    +0.000 A 
ATOM      9  C   UNL     1      -9.318  52.412  47.300  0.00  0.00    +0.000 A 
ATOM     10  C   UNL     1     -10.073  52.988  45.082  0.00  0.00    +0.000 A 
ATOM     11  C   UNL     1      -9.343  52.163  45.926  0.00  0.00    +0.000 A 
ENDROOT
BRANCH   1  17
ATOM     12  S   UNL     1     -13.469  59.072  49.419  0.00  0.00    +0.000 S 
ATOM     13  O   UNL     1     -14.581  59.243  48.503  0.00  0.00    +0.000 OA
ATOM     14  O   UNL     1     -12.588  60.185  49.716  0.00  0.00    +0.000 OA
ATOM     15  N   UNL     1     -12.561  57.852  48.863  0.00  0.00    +0.000 N 
ATOM     16  C   UNL     1     -14.175  58.588  50.951  0.00  0.00    +0.000 A 
ATOM     17  C   UNL     1     -12.512  56.709  49.485  0.00  0.00    +0.000 C 
ATOM     18  C   UNL     1     -13.954  57.291  51.386  0.00  0.00    +0.000 A 
ATOM     19  C   UNL     1     -14.928  59.502  51.693  0.00  0.00    +0.000 A 
ATOM     20  N   UNL     1     -13.212  56.389  50.629  0.00  0.00    +0.000 N 
ATOM     21  C   UNL     1     -14.570  56.882  52.573  0.00  0.00    +0.000 A 
ATOM     22  C   UNL     1     -15.505  59.091  52.892  0.00  0.00    +0.000 A 
ATOM     23  C   UNL     1     -15.334  57.778  53.328  0.00  0.00    +0.000 A 
ATOM     24  H   UNL     1     -12.036  57.976  48.040  0.00  0.00    +0.000 HD
ATOM     25  H   UNL     1     -13.185  55.454  50.933  0.00  0.00    +0.000 HD
ENDBRANCH   1  17
BRANCH   3  26
ATOM     26  O   UNL     1     -12.350  56.105  46.632  0.00  0.00    +0.000 OA
ATOM     27  H   UNL     1     -13.221  56.373  46.848  0.00  0.00    +0.000 HD
ENDBRANCH   3  26
BRANCH   5  28
ATOM     28  C   UNL     1      -9.401  52.839  50.200  0.00  0.00    +0.000 C 
BRANCH  28  29
ATOM     29  C   UNL     1      -8.086  53.312  50.792  0.00  0.00    +0.000 A 
ATOM     30  C   UNL     1      -8.042  53.632  52.160  0.00  0.00    +0.000 A 
ATOM     31  C   UNL     1      -6.973  53.627  49.995  0.00  0.00    +0.000 A 
ATOM     32  C   UNL     1      -6.932  54.302  52.695  0.00  0.00    +0.000 A 
ATOM     33  C   UNL     1      -5.854  54.265  50.541  0.00  0.00    +0.000 A 
ATOM     34  C   UNL     1      -5.834  54.620  51.890  0.00  0.00    +0.000 A 
BRANCH  32  35
ATOM     35  N   UNL     1      -6.959  54.744  54.096  0.00  0.00    +0.000 N 
ATOM     36  O   UNL     1      -7.787  55.612  54.409  0.00  0.00    +0.000 OA
ATOM     37  O   UNL     1      -6.143  54.237  54.878  0.00  0.00    +0.000 OA
ENDBRANCH  32  35
ENDBRANCH  28  29
ENDBRANCH   5  28
TORSDOF 5
ENDMDL
MODEL 9
REMARK VINA RESULT:      -8.8      2.656      3.106
REMARK  Name = 338173
REMARK  5 active torsions:
REMARK  status: ('A' for Active; 'I' for Inactive)
REMARK    1  A    between atoms: C_6  and  C_10
REMARK    2  A    between atoms: C_14  and  O_18
REMARK    3  A    between atoms: N_17  and  C_21
REMARK    4  A    between atoms: C_21  and  C_24
REMARK    5  A    between atoms: C_29  and  N_31
REMARK                            x       y       z     vdW  Elec       q    Type
REMARK                         _______ _______ _______ _____ _____    ______ ____
ROOT
ATOM      1  C   UNL     1      -9.721  55.190  50.591  0.00  0.00    +0.000 A 
ATOM      2  C   UNL     1      -9.983  55.357  49.130  0.00  0.00    +0.000 A 
ATOM      3  C   UNL     1     -10.703  55.434  51.475  0.00  0.00    +0.000 A 
ATOM      4  O   UNL     1      -9.060  55.140  48.341  0.00  0.00    +0.000 OA
ATOM      5  N   UNL     1     -11.258  55.713  48.711  0.00  0.00    +0.000 N 
ATOM      6  C   UNL     1     -12.040  55.849  51.020  0.00  0.00    +0.000 A 
ATOM      7  C   UNL     1     -12.306  55.969  49.644  0.00  0.00    +0.000 A 
ATOM      8  C   UNL     1     -13.068  56.091  51.948  0.00  0.00    +0.000 A 
ATOM      9  C   UNL     1     -13.602  56.324  49.234  0.00  0.00    +0.000 A 
ATOM     10  C   UNL     1     -14.349  56.434  51.525  0.00  0.00    +0.000 A 
ATOM     11  C   UNL     1     -14.617  56.544  50.168  0.00  0.00    +0.000 A 
ENDROOT
BRANCH   1  17
ATOM     12  S   UNL     1      -6.496  52.941  50.788  0.00  0.00    +0.000 S 
ATOM     13  O   UNL     1      -5.557  53.233  49.721  0.00  0.00    +0.000 OA
ATOM     14  O   UNL     1      -6.755  51.570  51.181  0.00  0.00    +0.000 OA
ATOM     15  N   UNL     1      -7.911  53.622  50.392  0.00  0.00    +0.000 N 
ATOM     16  C   UNL     1      -5.871  53.746  52.216  0.00  0.00    +0.000 A 
ATOM     17  C   UNL     1      -8.368  54.655  51.039  0.00  0.00    +0.000 C 
ATOM     18  C   UNL     1      -6.574  54.835  52.706  0.00  0.00    +0.000 A 
ATOM     19  C   UNL     1      -4.702  53.282  52.825  0.00  0.00    +0.000 A 
ATOM     20  N   UNL     1      -7.730  55.294  52.080  0.00  0.00    +0.000 N 
ATOM     21  C   UNL     1      -6.042  55.520  53.804  0.00  0.00    +0.000 A 
ATOM     22  C   UNL     1      -4.206  53.951  53.940  0.00  0.00    +0.000 A 
ATOM     23  C   UNL     1      -4.870  55.077  54.424  0.00  0.00    +0.000 A 
ATOM     24  H   UNL     1      -8.436  53.248  49.648  0.00  0.00    +0.000 HD
ATOM     25  H   UNL     1      -8.120  56.137  52.406  0.00  0.00    +0.000 HD
ENDBRANCH   1  17
BRANCH   3  26
ATOM     26  O   UNL     1     -10.581  55.267  52.844  0.00  0.00    +0.000 OA
ATOM     27  H   UNL     1     -10.878  55.938  53.425  0.00  0.00    +0.000 HD
ENDBRANCH   3  26
BRANCH   5  28
ATOM     28  C   UNL     1     -11.513  55.700  47.273  0.00  0.00    +0.000 C 
BRANCH  28  29
ATOM     29  C   UNL     1     -11.817  54.349  46.651  0.00  0.00    +0.000 A 
ATOM     30  C   UNL     1     -12.180  53.287  47.498  0.00  0.00    +0.000 A 
ATOM     31  C   UNL     1     -11.562  54.069  45.299  0.00  0.00    +0.000 A 
ATOM     32  C   UNL     1     -12.228  51.974  47.007  0.00  0.00    +0.000 A 
ATOM     33  C   UNL     1     -11.645  52.762  44.807  0.00  0.00    +0.000 A 
ATOM     34  C   UNL     1     -11.962  51.706  45.661  0.00  0.00    +0.000 A 
BRANCH  32  35
ATOM     35  N   UNL     1     -12.482  50.863  47.934  0.00  0.00    +0.000 N 
ATOM     36  O   UNL     1     -13.043  49.854  47.481  0.00  0.00    +0.000 OA
ATOM     37  O   UNL     1     -12.138  51.005  49.115  0.00  0.00    +0.000 OA
ENDBRANCH  32  35
ENDBRANCH  28  29
ENDBRANCH   5  28
TORSDOF 5
ENDMDL
