MODEL 1
REMARK VINA RESULT:      -8.1      0.000      0.000
REMARK  Name = 338128
REMARK  7 active torsions:
REMARK  status: ('A' for Active; 'I' for Inactive)
REMARK    1  A    between atoms: C_7  and  O_9
REMARK    2  A    between atoms: C_10  and  C_13
REMARK    3  A    between atoms: N_11  and  C_14
REMARK    4  A    between atoms: C_14  and  C_18
REMARK    5  A    between atoms: C_18  and  C_21
REMARK    6  A    between atoms: C_21  and  C_26
REMARK    7  A    between atoms: C_21  and  C_27
REMARK                            x       y       z     vdW  Elec       q    Type
REMARK                         _______ _______ _______ _____ _____    ______ ____
ROOT
ATOM      1 BR   UNL     1      -9.277  53.447  44.601  0.00  0.00    +0.000 Br
ATOM      2  C   UNL     1     -10.186  54.226  46.064  0.00  0.00    +0.000 A 
ATOM      3  C   UNL     1      -9.638  54.144  47.341  0.00  0.00    +0.000 A 
ATOM      4  C   UNL     1     -11.421  54.826  45.869  0.00  0.00    +0.000 A 
ATOM      5  C   UNL     1     -10.334  54.660  48.451  0.00  0.00    +0.000 A 
ATOM      6  C   UNL     1     -12.106  55.371  46.957  0.00  0.00    +0.000 A 
ATOM      7  C   UNL     1      -9.899  54.367  49.827  0.00  0.00    +0.000 A 
ATOM      8  C   UNL     1     -11.577  55.299  48.255  0.00  0.00    +0.000 A 
ATOM      9  C   UNL     1     -10.735  54.608  50.851  0.00  0.00    +0.000 A 
ATOM     10  N   UNL     1     -12.274  55.822  49.388  0.00  0.00    +0.000 N 
ATOM     11  C   UNL     1     -11.843  55.575  50.688  0.00  0.00    +0.000 A 
ATOM     12  O   UNL     1     -12.377  56.080  51.675  0.00  0.00    +0.000 OA
ENDROOT
BRANCH   9  13
ATOM     13  C   UNL     1     -10.446  53.998  52.181  0.00  0.00    +0.000 C 
ATOM     14  N   UNL     1     -10.478  52.695  52.294  0.00  0.00    +0.000 N 
ATOM     15  N   UNL     1     -10.036  54.828  53.223  0.00  0.00    +0.000 N 
ATOM     16  S   UNL     1      -9.750  52.060  53.614  0.00  0.00    +0.000 S 
ATOM     17  C   UNL     1      -8.683  54.507  53.523  0.00  0.00    +0.000 A 
ATOM     18  O   UNL     1      -9.219  50.752  53.296  0.00  0.00    +0.000 OA
ATOM     19  O   UNL     1     -10.593  52.274  54.775  0.00  0.00    +0.000 OA
ATOM     20  C   UNL     1      -8.360  53.169  53.796  0.00  0.00    +0.000 A 
ATOM     21  C   UNL     1      -7.682  55.393  53.140  0.00  0.00    +0.000 A 
ATOM     22  C   UNL     1      -7.050  52.712  53.768  0.00  0.00    +0.000 A 
ATOM     23  C   UNL     1      -6.374  54.930  53.031  0.00  0.00    +0.000 A 
ATOM     24  C   UNL     1      -6.057  53.606  53.366  0.00  0.00    +0.000 A 
ATOM     25  H   UNL     1     -10.916  52.126  51.621  0.00  0.00    +0.000 HD
ATOM     26  H   UNL     1     -10.584  55.514  53.670  0.00  0.00    +0.000 HD
ENDBRANCH   9  13
BRANCH   7  27
ATOM     27  O   UNL     1      -8.680  53.736  50.009  0.00  0.00    +0.000 OA
ATOM     28  H   UNL     1      -7.979  53.890  49.407  0.00  0.00    +0.000 HD
ENDBRANCH   7  27
BRANCH  10  29
ATOM     29  C   UNL     1     -13.598  56.428  49.264  0.00  0.00    +0.000 C 
BRANCH  29  30
ATOM     30  C   UNL     1     -13.435  57.924  48.971  0.00  0.00    +0.000 C 
BRANCH  30  31
ATOM     31  C   UNL     1     -13.915  58.857  50.085  0.00  0.00    +0.000 C 
ATOM     32  C   UNL     1     -14.342  60.222  49.549  0.00  0.00    +0.000 C 
ATOM     33  C   UNL     1     -15.089  58.195  50.812  0.00  0.00    +0.000 C 
ENDBRANCH  30  31
ENDBRANCH  29  30
ENDBRANCH  10  29
TORSDOF 5
ENDMDL
MODEL 2
REMARK VINA RESULT:      -8.0      3.291      6.880
REMARK  Name = 338128
REMARK  7 active torsions:
REMARK  status: ('A' for Active; 'I' for Inactive)
REMARK    1  A    between atoms: C_7  and  O_9
REMARK    2  A    between atoms: C_10  and  C_13
REMARK    3  A    between atoms: N_11  and  C_14
REMARK    4  A    between atoms: C_14  and  C_18
REMARK    5  A    between atoms: C_18  and  C_21
REMARK    6  A    between atoms: C_21  and  C_26
REMARK    7  A    between atoms: C_21  and  C_27
REMARK                            x       y       z     vdW  Elec       q    Type
REMARK                         _______ _______ _______ _____ _____    ______ ____
ROOT
ATOM      1 BR   UNL     1      -8.015  52.396  53.992  0.00  0.00    +0.000 Br
ATOM      2  C   UNL     1      -8.842  52.808  52.343  0.00  0.00    +0.000 A 
ATOM      3  C   UNL     1      -9.798  53.818  52.283  0.00  0.00    +0.000 A 
ATOM      4  C   UNL     1      -8.535  52.066  51.213  0.00  0.00    +0.000 A 
ATOM      5  C   UNL     1     -10.472  54.093  51.078  0.00  0.00    +0.000 A 
ATOM      6  C   UNL     1      -9.174  52.351  50.003  0.00  0.00    +0.000 A 
ATOM      7  C   UNL     1     -11.651  54.975  51.047  0.00  0.00    +0.000 A 
ATOM      8  C   UNL     1     -10.142  53.363  49.916  0.00  0.00    +0.000 A 
ATOM      9  C   UNL     1     -12.446  54.980  49.964  0.00  0.00    +0.000 A 
ATOM     10  N   UNL     1     -10.831  53.651  48.697  0.00  0.00    +0.000 N 
ATOM     11  C   UNL     1     -11.923  54.512  48.662  0.00  0.00    +0.000 A 
ATOM     12  O   UNL     1     -12.480  54.840  47.614  0.00  0.00    +0.000 OA
ENDROOT
BRANCH   9  13
ATOM     13  C   UNL     1     -13.805  55.587  50.065  0.00  0.00    +0.000 C 
ATOM     14  N   UNL     1     -14.457  55.484  51.195  0.00  0.00    +0.000 N 
ATOM     15  N   UNL     1     -14.279  56.346  48.996  0.00  0.00    +0.000 N 
ATOM     16  S   UNL     1     -15.716  56.506  51.406  0.00  0.00    +0.000 S 
ATOM     17  C   UNL     1     -14.367  57.697  49.432  0.00  0.00    +0.000 A 
ATOM     18  O   UNL     1     -15.862  56.815  52.812  0.00  0.00    +0.000 OA
ATOM     19  O   UNL     1     -16.840  56.052  50.608  0.00  0.00    +0.000 OA
ATOM     20  C   UNL     1     -15.094  57.975  50.600  0.00  0.00    +0.000 A 
ATOM     21  C   UNL     1     -13.432  58.615  48.968  0.00  0.00    +0.000 A 
ATOM     22  C   UNL     1     -14.961  59.180  51.275  0.00  0.00    +0.000 A 
ATOM     23  C   UNL     1     -13.231  59.794  49.679  0.00  0.00    +0.000 A 
ATOM     24  C   UNL     1     -14.006  60.085  50.810  0.00  0.00    +0.000 A 
ATOM     25  H   UNL     1     -14.204  54.825  51.882  0.00  0.00    +0.000 HD
ATOM     26  H   UNL     1     -14.511  56.007  48.100  0.00  0.00    +0.000 HD
ENDBRANCH   9  13
BRANCH   7  27
ATOM     27  O   UNL     1     -11.969  55.685  52.193  0.00  0.00    +0.000 OA
ATOM     28  H   UNL     1     -12.860  55.917  52.366  0.00  0.00    +0.000 HD
ENDBRANCH   7  27
BRANCH  10  29
ATOM     29  C   UNL     1     -10.590  52.881  47.478  0.00  0.00    +0.000 C 
BRANCH  29  30
ATOM     30  C   UNL     1      -9.532  53.603  46.635  0.00  0.00    +0.000 C 
BRANCH  30  31
ATOM     31  C   UNL     1      -9.846  53.690  45.139  0.00  0.00    +0.000 C 
ATOM     32  C   UNL     1      -8.804  52.967  44.289  0.00  0.00    +0.000 C 
ATOM     33  C   UNL     1     -11.230  53.086  44.889  0.00  0.00    +0.000 C 
ENDBRANCH  30  31
ENDBRANCH  29  30
ENDBRANCH  10  29
TORSDOF 5
ENDMDL
MODEL 3
REMARK VINA RESULT:      -7.8      2.941      4.878
REMARK  Name = 338128
REMARK  7 active torsions:
REMARK  status: ('A' for Active; 'I' for Inactive)
REMARK    1  A    between atoms: C_7  and  O_9
REMARK    2  A    between atoms: C_10  and  C_13
REMARK    3  A    between atoms: N_11  and  C_14
REMARK    4  A    between atoms: C_14  and  C_18
REMARK    5  A    between atoms: C_18  and  C_21
REMARK    6  A    between atoms: C_21  and  C_26
REMARK    7  A    between atoms: C_21  and  C_27
REMARK                            x       y       z     vdW  Elec       q    Type
REMARK                         _______ _______ _______ _____ _____    ______ ____
ROOT
ATOM      1 BR   UNL     1     -14.916  57.642  52.702  0.00  0.00    +0.000 Br
ATOM      2  C   UNL     1     -13.657  56.902  51.503  0.00  0.00    +0.000 A 
ATOM      3  C   UNL     1     -12.654  56.066  51.985  0.00  0.00    +0.000 A 
ATOM      4  C   UNL     1     -13.702  57.239  50.159  0.00  0.00    +0.000 A 
ATOM      5  C   UNL     1     -11.668  55.560  51.116  0.00  0.00    +0.000 A 
ATOM      6  C   UNL     1     -12.749  56.717  49.281  0.00  0.00    +0.000 A 
ATOM      7  C   UNL     1     -10.466  54.885  51.636  0.00  0.00    +0.000 A 
ATOM      8  C   UNL     1     -11.726  55.874  49.741  0.00  0.00    +0.000 A 
ATOM      9  C   UNL     1      -9.414  54.687  50.824  0.00  0.00    +0.000 A 
ATOM     10  N   UNL     1     -10.722  55.353  48.868  0.00  0.00    +0.000 N 
ATOM     11  C   UNL     1      -9.604  54.684  49.357  0.00  0.00    +0.000 A 
ATOM     12  O   UNL     1      -8.769  54.156  48.623  0.00  0.00    +0.000 OA
ENDROOT
BRANCH   9  13
ATOM     13  C   UNL     1      -8.094  54.336  51.422  0.00  0.00    +0.000 C 
ATOM     14  N   UNL     1      -7.584  55.128  52.329  0.00  0.00    +0.000 N 
ATOM     15  N   UNL     1      -7.509  53.117  51.082  0.00  0.00    +0.000 N 
ATOM     16  S   UNL     1      -6.385  54.505  53.251  0.00  0.00    +0.000 S 
ATOM     17  C   UNL     1      -7.508  52.299  52.246  0.00  0.00    +0.000 A 
ATOM     18  O   UNL     1      -6.422  55.104  54.567  0.00  0.00    +0.000 OA
ATOM     19  O   UNL     1      -5.161  54.454  52.474  0.00  0.00    +0.000 OA
ATOM     20  C   UNL     1      -6.938  52.814  53.421  0.00  0.00    +0.000 A 
ATOM     21  C   UNL     1      -8.400  51.236  52.321  0.00  0.00    +0.000 A 
ATOM     22  C   UNL     1      -7.182  52.244  54.663  0.00  0.00    +0.000 A 
ATOM     23  C   UNL     1      -8.716  50.705  53.569  0.00  0.00    +0.000 A 
ATOM     24  C   UNL     1      -8.093  51.190  54.727  0.00  0.00    +0.000 A 
ATOM     25  H   UNL     1      -7.904  56.051  52.451  0.00  0.00    +0.000 HD
ATOM     26  H   UNL     1      -7.160  52.867  50.195  0.00  0.00    +0.000 HD
ENDBRANCH   9  13
BRANCH   7  27
ATOM     27  O   UNL     1     -10.416  54.584  52.987  0.00  0.00    +0.000 OA
ATOM     28  H   UNL     1      -9.730  54.935  53.519  0.00  0.00    +0.000 HD
ENDBRANCH   7  27
BRANCH  10  29
ATOM     29  C   UNL     1     -10.682  55.701  47.449  0.00  0.00    +0.000 C 
BRANCH  29  30
ATOM     30  C   UNL     1     -11.732  54.870  46.703  0.00  0.00    +0.000 C 
BRANCH  30  31
ATOM     31  C   UNL     1     -11.277  53.466  46.297  0.00  0.00    +0.000 C 
ATOM     32  C   UNL     1     -12.052  52.374  47.030  0.00  0.00    +0.000 C 
ATOM     33  C   UNL     1     -11.459  53.306  44.785  0.00  0.00    +0.000 C 
ENDBRANCH  30  31
ENDBRANCH  29  30
ENDBRANCH  10  29
TORSDOF 5
ENDMDL
MODEL 4
REMARK VINA RESULT:      -7.8      2.548      4.532
REMARK  Name = 338128
REMARK  7 active torsions:
REMARK  status: ('A' for Active; 'I' for Inactive)
REMARK    1  A    between atoms: C_7  and  O_9
REMARK    2  A    between atoms: C_10  and  C_13
REMARK    3  A    between atoms: N_11  and  C_14
REMARK    4  A    between atoms: C_14  and  C_18
REMARK    5  A    between atoms: C_18  and  C_21
REMARK    6  A    between atoms: C_21  and  C_26
REMARK    7  A    between atoms: C_21  and  C_27
REMARK                            x       y       z     vdW  Elec       q    Type
REMARK                         _______ _______ _______ _____ _____    ______ ____
ROOT
ATOM      1 BR   UNL     1     -15.063  59.383  50.482  0.00  0.00    +0.000 Br
ATOM      2  C   UNL     1     -14.013  57.939  49.864  0.00  0.00    +0.000 A 
ATOM      3  C   UNL     1     -13.348  57.127  50.780  0.00  0.00    +0.000 A 
ATOM      4  C   UNL     1     -13.861  57.728  48.503  0.00  0.00    +0.000 A 
ATOM      5  C   UNL     1     -12.508  56.089  50.335  0.00  0.00    +0.000 A 
ATOM      6  C   UNL     1     -13.056  56.680  48.049  0.00  0.00    +0.000 A 
ATOM      7  C   UNL     1     -11.609  55.384  51.264  0.00  0.00    +0.000 A 
ATOM      8  C   UNL     1     -12.374  55.848  48.951  0.00  0.00    +0.000 A 
ATOM      9  C   UNL     1     -10.615  54.623  50.775  0.00  0.00    +0.000 A 
ATOM     10  N   UNL     1     -11.521  54.790  48.510  0.00  0.00    +0.000 N 
ATOM     11  C   UNL     1     -10.697  54.100  49.394  0.00  0.00    +0.000 A 
ATOM     12  O   UNL     1     -10.016  53.133  49.054  0.00  0.00    +0.000 OA
ENDROOT
BRANCH   9  13
ATOM     13  C   UNL     1      -9.509  54.204  51.684  0.00  0.00    +0.000 C 
ATOM     14  N   UNL     1      -9.331  52.928  51.911  0.00  0.00    +0.000 N 
ATOM     15  N   UNL     1      -8.633  55.177  52.163  0.00  0.00    +0.000 N 
ATOM     16  S   UNL     1      -7.885  52.495  52.541  0.00  0.00    +0.000 S 
ATOM     17  C   UNL     1      -7.357  54.931  51.582  0.00  0.00    +0.000 A 
ATOM     18  O   UNL     1      -7.532  51.169  52.082  0.00  0.00    +0.000 OA
ATOM     19  O   UNL     1      -7.852  52.844  53.949  0.00  0.00    +0.000 OA
ATOM     20  C   UNL     1      -6.800  53.650  51.715  0.00  0.00    +0.000 A 
ATOM     21  C   UNL     1      -6.901  55.781  50.581  0.00  0.00    +0.000 A 
ATOM     22  C   UNL     1      -5.745  53.225  50.920  0.00  0.00    +0.000 A 
ATOM     23  C   UNL     1      -5.897  55.338  49.724  0.00  0.00    +0.000 A 
ATOM     24  C   UNL     1      -5.308  54.079  49.907  0.00  0.00    +0.000 A 
ATOM     25  H   UNL     1     -10.029  52.263  51.713  0.00  0.00    +0.000 HD
ATOM     26  H   UNL     1      -8.856  55.903  52.790  0.00  0.00    +0.000 HD
ENDBRANCH   9  13
BRANCH   7  27
ATOM     27  O   UNL     1     -11.745  55.628  52.621  0.00  0.00    +0.000 OA
ATOM     28  H   UNL     1     -11.224  56.290  53.031  0.00  0.00    +0.000 HD
ENDBRANCH   7  27
BRANCH  10  29
ATOM     29  C   UNL     1     -11.280  54.537  47.091  0.00  0.00    +0.000 C 
BRANCH  29  30
ATOM     30  C   UNL     1     -10.074  55.366  46.636  0.00  0.00    +0.000 C 
BRANCH  30  31
ATOM     31  C   UNL     1      -9.013  54.589  45.852  0.00  0.00    +0.000 C 
ATOM     32  C   UNL     1      -7.690  54.497  46.608  0.00  0.00    +0.000 C 
ATOM     33  C   UNL     1      -9.545  53.182  45.562  0.00  0.00    +0.000 C 
ENDBRANCH  30  31
ENDBRANCH  29  30
ENDBRANCH  10  29
TORSDOF 5
ENDMDL
MODEL 5
REMARK VINA RESULT:      -7.6      2.516      4.512
REMARK  Name = 338128
REMARK  7 active torsions:
REMARK  status: ('A' for Active; 'I' for Inactive)
REMARK    1  A    between atoms: C_7  and  O_9
REMARK    2  A    between atoms: C_10  and  C_13
REMARK    3  A    between atoms: N_11  and  C_14
REMARK    4  A    between atoms: C_14  and  C_18
REMARK    5  A    between atoms: C_18  and  C_21
REMARK    6  A    between atoms: C_21  and  C_26
REMARK    7  A    between atoms: C_21  and  C_27
REMARK                            x       y       z     vdW  Elec       q    Type
REMARK                         _______ _______ _______ _____ _____    ______ ____
ROOT
ATOM      1 BR   UNL     1     -15.619  56.814  50.975  0.00  0.00    +0.000 Br
ATOM      2  C   UNL     1     -13.866  56.294  50.500  0.00  0.00    +0.000 A 
ATOM      3  C   UNL     1     -13.267  55.215  51.145  0.00  0.00    +0.000 A 
ATOM      4  C   UNL     1     -13.162  57.023  49.554  0.00  0.00    +0.000 A 
ATOM      5  C   UNL     1     -11.937  54.856  50.851  0.00  0.00    +0.000 A 
ATOM      6  C   UNL     1     -11.853  56.656  49.230  0.00  0.00    +0.000 A 
ATOM      7  C   UNL     1     -11.205  53.890  51.687  0.00  0.00    +0.000 A 
ATOM      8  C   UNL     1     -11.226  55.574  49.866  0.00  0.00    +0.000 A 
ATOM      9  C   UNL     1      -9.870  53.795  51.575  0.00  0.00    +0.000 A 
ATOM     10  N   UNL     1      -9.878  55.200  49.574  0.00  0.00    +0.000 N 
ATOM     11  C   UNL     1      -9.198  54.260  50.342  0.00  0.00    +0.000 A 
ATOM     12  O   UNL     1      -8.068  53.862  50.062  0.00  0.00    +0.000 OA
ENDROOT
BRANCH   9  13
ATOM     13  C   UNL     1      -9.101  53.092  52.642  0.00  0.00    +0.000 C 
ATOM     14  N   UNL     1      -8.430  52.014  52.328  0.00  0.00    +0.000 N 
ATOM     15  N   UNL     1      -9.028  53.675  53.907  0.00  0.00    +0.000 N 
ATOM     16  S   UNL     1      -7.283  51.534  53.390  0.00  0.00    +0.000 S 
ATOM     17  C   UNL     1      -7.679  54.073  54.121  0.00  0.00    +0.000 A 
ATOM     18  O   UNL     1      -6.204  50.881  52.680  0.00  0.00    +0.000 OA
ATOM     19  O   UNL     1      -7.920  50.915  54.537  0.00  0.00    +0.000 OA
ATOM     20  C   UNL     1      -6.667  53.114  53.955  0.00  0.00    +0.000 A 
ATOM     21  C   UNL     1      -7.362  55.425  54.070  0.00  0.00    +0.000 A 
ATOM     22  C   UNL     1      -5.334  53.474  53.815  0.00  0.00    +0.000 A 
ATOM     23  C   UNL     1      -6.040  55.802  53.851  0.00  0.00    +0.000 A 
ATOM     24  C   UNL     1      -5.032  54.835  53.747  0.00  0.00    +0.000 A 
ATOM     25  H   UNL     1      -8.606  51.517  51.497  0.00  0.00    +0.000 HD
ATOM     26  H   UNL     1      -9.776  53.790  54.538  0.00  0.00    +0.000 HD
ENDBRANCH   9  13
BRANCH   7  27
ATOM     27  O   UNL     1     -11.911  53.192  52.654  0.00  0.00    +0.000 OA
ATOM     28  H   UNL     1     -12.587  52.595  52.399  0.00  0.00    +0.000 HD
ENDBRANCH   7  27
BRANCH  10  29
ATOM     29  C   UNL     1      -9.062  55.949  48.620  0.00  0.00    +0.000 C 
BRANCH  29  30
ATOM     30  C   UNL     1      -9.302  55.389  47.213  0.00  0.00    +0.000 C 
BRANCH  30  31
ATOM     31  C   UNL     1      -8.207  54.453  46.694  0.00  0.00    +0.000 C 
ATOM     32  C   UNL     1      -8.613  52.984  46.789  0.00  0.00    +0.000 C 
ATOM     33  C   UNL     1      -7.898  54.814  45.238  0.00  0.00    +0.000 C 
ENDBRANCH  30  31
ENDBRANCH  29  30
ENDBRANCH  10  29
TORSDOF 5
ENDMDL
MODEL 6
REMARK VINA RESULT:      -7.4      2.577      3.416
REMARK  Name = 338128
REMARK  7 active torsions:
REMARK  status: ('A' for Active; 'I' for Inactive)
REMARK    1  A    between atoms: C_7  and  O_9
REMARK    2  A    between atoms: C_10  and  C_13
REMARK    3  A    between atoms: N_11  and  C_14
REMARK    4  A    between atoms: C_14  and  C_18
REMARK    5  A    between atoms: C_18  and  C_21
REMARK    6  A    between atoms: C_21  and  C_26
REMARK    7  A    between atoms: C_21  and  C_27
REMARK                            x       y       z     vdW  Elec       q    Type
REMARK                         _______ _______ _______ _____ _____    ______ ____
ROOT
ATOM      1 BR   UNL     1      -8.722  53.109  43.409  0.00  0.00    +0.000 Br
ATOM      2  C   UNL     1      -9.105  53.807  45.123  0.00  0.00    +0.000 A 
ATOM      3  C   UNL     1      -8.065  54.069  46.010  0.00  0.00    +0.000 A 
ATOM      4  C   UNL     1     -10.422  54.000  45.511  0.00  0.00    +0.000 A 
ATOM      5  C   UNL     1      -8.337  54.525  47.314  0.00  0.00    +0.000 A 
ATOM      6  C   UNL     1     -10.703  54.484  46.791  0.00  0.00    +0.000 A 
ATOM      7  C   UNL     1      -7.283  54.571  48.342  0.00  0.00    +0.000 A 
ATOM      8  C   UNL     1      -9.673  54.754  47.705  0.00  0.00    +0.000 A 
ATOM      9  C   UNL     1      -7.623  54.714  49.634  0.00  0.00    +0.000 A 
ATOM     10  N   UNL     1      -9.938  55.220  49.031  0.00  0.00    +0.000 N 
ATOM     11  C   UNL     1      -8.935  55.296  49.991  0.00  0.00    +0.000 A 
ATOM     12  O   UNL     1      -9.120  55.770  51.112  0.00  0.00    +0.000 OA
ENDROOT
BRANCH   9  13
ATOM     13  C   UNL     1      -6.612  54.410  50.687  0.00  0.00    +0.000 C 
ATOM     14  N   UNL     1      -6.363  55.314  51.599  0.00  0.00    +0.000 N 
ATOM     15  N   UNL     1      -6.058  53.131  50.732  0.00  0.00    +0.000 N 
ATOM     16  S   UNL     1      -5.597  54.796  52.948  0.00  0.00    +0.000 S 
ATOM     17  C   UNL     1      -6.514  52.505  51.925  0.00  0.00    +0.000 A 
ATOM     18  O   UNL     1      -6.014  55.594  54.081  0.00  0.00    +0.000 OA
ATOM     19  O   UNL     1      -4.194  54.578  52.649  0.00  0.00    +0.000 OA
ATOM     20  C   UNL     1      -6.322  53.175  53.144  0.00  0.00    +0.000 A 
ATOM     21  C   UNL     1      -7.472  51.502  51.833  0.00  0.00    +0.000 A 
ATOM     22  C   UNL     1      -7.013  52.814  54.293  0.00  0.00    +0.000 A 
ATOM     23  C   UNL     1      -8.228  51.184  52.957  0.00  0.00    +0.000 A 
ATOM     24  C   UNL     1      -7.984  51.818  54.183  0.00  0.00    +0.000 A 
ATOM     25  H   UNL     1      -6.622  56.256  51.481  0.00  0.00    +0.000 HD
ATOM     26  H   UNL     1      -5.458  52.733  50.059  0.00  0.00    +0.000 HD
ENDBRANCH   9  13
BRANCH   7  27
ATOM     27  O   UNL     1      -5.974  54.341  47.950  0.00  0.00    +0.000 OA
ATOM     28  H   UNL     1      -5.650  53.464  47.895  0.00  0.00    +0.000 HD
ENDBRANCH   7  27
BRANCH  10  29
ATOM     29  C   UNL     1     -11.302  55.404  49.522  0.00  0.00    +0.000 C 
BRANCH  29  30
ATOM     30  C   UNL     1     -11.720  56.861  49.292  0.00  0.00    +0.000 C 
BRANCH  30  31
ATOM     31  C   UNL     1     -13.203  57.067  48.974  0.00  0.00    +0.000 C 
ATOM     32  C   UNL     1     -13.685  58.465  49.352  0.00  0.00    +0.000 C 
ATOM     33  C   UNL     1     -13.425  56.828  47.478  0.00  0.00    +0.000 C 
ENDBRANCH  30  31
ENDBRANCH  29  30
ENDBRANCH  10  29
TORSDOF 5
ENDMDL
MODEL 7
REMARK VINA RESULT:      -7.4      3.356      6.502
REMARK  Name = 338128
REMARK  7 active torsions:
REMARK  status: ('A' for Active; 'I' for Inactive)
REMARK    1  A    between atoms: C_7  and  O_9
REMARK    2  A    between atoms: C_10  and  C_13
REMARK    3  A    between atoms: N_11  and  C_14
REMARK    4  A    between atoms: C_14  and  C_18
REMARK    5  A    between atoms: C_18  and  C_21
REMARK    6  A    between atoms: C_21  and  C_26
REMARK    7  A    between atoms: C_21  and  C_27
REMARK                            x       y       z     vdW  Elec       q    Type
REMARK                         _______ _______ _______ _____ _____    ______ ____
ROOT
ATOM      1 BR   UNL     1      -4.312  55.323  54.283  0.00  0.00    +0.000 Br
ATOM      2  C   UNL     1      -5.965  54.803  53.528  0.00  0.00    +0.000 A 
ATOM      3  C   UNL     1      -5.986  54.098  52.328  0.00  0.00    +0.000 A 
ATOM      4  C   UNL     1      -7.151  55.176  54.142  0.00  0.00    +0.000 A 
ATOM      5  C   UNL     1      -7.209  53.762  51.718  0.00  0.00    +0.000 A 
ATOM      6  C   UNL     1      -8.372  54.820  53.563  0.00  0.00    +0.000 A 
ATOM      7  C   UNL     1      -7.258  53.243  50.341  0.00  0.00    +0.000 A 
ATOM      8  C   UNL     1      -8.420  54.110  52.353  0.00  0.00    +0.000 A 
ATOM      9  C   UNL     1      -8.429  53.219  49.683  0.00  0.00    +0.000 A 
ATOM     10  N   UNL     1      -9.657  53.762  51.727  0.00  0.00    +0.000 N 
ATOM     11  C   UNL     1      -9.701  53.238  50.439  0.00  0.00    +0.000 A 
ATOM     12  O   UNL     1     -10.744  52.855  49.910  0.00  0.00    +0.000 OA
ENDROOT
BRANCH   9  13
ATOM     13  C   UNL     1      -8.425  53.033  48.204  0.00  0.00    +0.000 C 
ATOM     14  N   UNL     1      -8.794  51.878  47.713  0.00  0.00    +0.000 N 
ATOM     15  N   UNL     1      -8.145  54.133  47.393  0.00  0.00    +0.000 N 
ATOM     16  S   UNL     1      -9.185  51.851  46.126  0.00  0.00    +0.000 S 
ATOM     17  C   UNL     1      -9.333  54.459  46.683  0.00  0.00    +0.000 A 
ATOM     18  O   UNL     1     -10.199  50.845  45.892  0.00  0.00    +0.000 OA
ATOM     19  O   UNL     1      -7.972  51.904  45.332  0.00  0.00    +0.000 OA
ATOM     20  C   UNL     1      -9.969  53.446  45.947  0.00  0.00    +0.000 A 
ATOM     21  C   UNL     1     -10.046  55.593  47.052  0.00  0.00    +0.000 A 
ATOM     22  C   UNL     1     -11.279  53.575  45.507  0.00  0.00    +0.000 A 
ATOM     23  C   UNL     1     -11.385  55.700  46.687  0.00  0.00    +0.000 A 
ATOM     24  C   UNL     1     -11.989  54.710  45.900  0.00  0.00    +0.000 A 
ATOM     25  H   UNL     1      -8.833  51.067  48.270  0.00  0.00    +0.000 HD
ATOM     26  H   UNL     1      -7.279  54.599  47.325  0.00  0.00    +0.000 HD
ENDBRANCH   9  13
BRANCH   7  27
ATOM     27  O   UNL     1      -6.064  52.907  49.724  0.00  0.00    +0.000 OA
ATOM     28  H   UNL     1      -6.034  52.187  49.125  0.00  0.00    +0.000 HD
ENDBRANCH   7  27
BRANCH  10  29
ATOM     29  C   UNL     1     -10.944  54.160  52.294  0.00  0.00    +0.000 C 
BRANCH  29  30
ATOM     30  C   UNL     1     -11.345  55.520  51.712  0.00  0.00    +0.000 C 
BRANCH  30  31
ATOM     31  C   UNL     1     -12.843  55.693  51.444  0.00  0.00    +0.000 C 
ATOM     32  C   UNL     1     -13.449  56.825  52.270  0.00  0.00    +0.000 C 
ATOM     33  C   UNL     1     -13.048  55.970  49.952  0.00  0.00    +0.000 C 
ENDBRANCH  30  31
ENDBRANCH  29  30
ENDBRANCH  10  29
TORSDOF 5
ENDMDL
MODEL 8
REMARK VINA RESULT:      -7.3      3.051      4.894
REMARK  Name = 338128
REMARK  7 active torsions:
REMARK  status: ('A' for Active; 'I' for Inactive)
REMARK    1  A    between atoms: C_7  and  O_9
REMARK    2  A    between atoms: C_10  and  C_13
REMARK    3  A    between atoms: N_11  and  C_14
REMARK    4  A    between atoms: C_14  and  C_18
REMARK    5  A    between atoms: C_18  and  C_21
REMARK    6  A    between atoms: C_21  and  C_26
REMARK    7  A    between atoms: C_21  and  C_27
REMARK                            x       y       z     vdW  Elec       q    Type
REMARK                         _______ _______ _______ _____ _____    ______ ____
ROOT
ATOM      1 BR   UNL     1     -14.529  57.630  52.310  0.00  0.00    +0.000 Br
ATOM      2  C   UNL     1     -13.286  56.431  51.543  0.00  0.00    +0.000 A 
ATOM      3  C   UNL     1     -12.260  55.905  52.323  0.00  0.00    +0.000 A 
ATOM      4  C   UNL     1     -13.367  56.124  50.193  0.00  0.00    +0.000 A 
ATOM      5  C   UNL     1     -11.287  55.064  51.751  0.00  0.00    +0.000 A 
ATOM      6  C   UNL     1     -12.426  55.264  49.621  0.00  0.00    +0.000 A 
ATOM      7  C   UNL     1     -10.065  54.701  52.488  0.00  0.00    +0.000 A 
ATOM      8  C   UNL     1     -11.381  54.723  50.385  0.00  0.00    +0.000 A 
ATOM      9  C   UNL     1      -9.028  54.160  51.825  0.00  0.00    +0.000 A 
ATOM     10  N   UNL     1     -10.389  53.866  49.815  0.00  0.00    +0.000 N 
ATOM     11  C   UNL     1      -9.251  53.494  50.523  0.00  0.00    +0.000 A 
ATOM     12  O   UNL     1      -8.425  52.693  50.086  0.00  0.00    +0.000 OA
ENDROOT
BRANCH   9  13
ATOM     13  C   UNL     1      -7.690  54.121  52.482  0.00  0.00    +0.000 C 
ATOM     14  N   UNL     1      -7.379  53.082  53.213  0.00  0.00    +0.000 N 
ATOM     15  N   UNL     1      -6.775  55.134  52.196  0.00  0.00    +0.000 N 
ATOM     16  S   UNL     1      -5.791  52.875  53.548  0.00  0.00    +0.000 S 
ATOM     17  C   UNL     1      -5.700  54.551  51.470  0.00  0.00    +0.000 A 
ATOM     18  O   UNL     1      -5.500  51.464  53.676  0.00  0.00    +0.000 OA
ATOM     19  O   UNL     1      -5.389  53.828  54.566  0.00  0.00    +0.000 OA
ATOM     20  C   UNL     1      -5.051  53.435  52.021  0.00  0.00    +0.000 A 
ATOM     21  C   UNL     1      -5.592  54.808  50.109  0.00  0.00    +0.000 A 
ATOM     22  C   UNL     1      -4.236  52.612  51.257  0.00  0.00    +0.000 A 
ATOM     23  C   UNL     1      -4.842  53.945  49.315  0.00  0.00    +0.000 A 
ATOM     24  C   UNL     1      -4.150  52.869  49.888  0.00  0.00    +0.000 A 
ATOM     25  H   UNL     1      -8.063  52.457  53.545  0.00  0.00    +0.000 HD
ATOM     26  H   UNL     1      -6.859  56.082  52.451  0.00  0.00    +0.000 HD
ENDBRANCH   9  13
BRANCH   7  27
ATOM     27  O   UNL     1      -9.980  55.043  53.827  0.00  0.00    +0.000 OA
ATOM     28  H   UNL     1     -10.753  55.058  54.356  0.00  0.00    +0.000 HD
ENDBRANCH   7  27
BRANCH  10  29
ATOM     29  C   UNL     1     -10.386  53.535  48.391  0.00  0.00    +0.000 C 
BRANCH  29  30
ATOM     30  C   UNL     1      -9.583  54.600  47.635  0.00  0.00    +0.000 C 
BRANCH  30  31
ATOM     31  C   UNL     1      -9.973  54.782  46.166  0.00  0.00    +0.000 C 
ATOM     32  C   UNL     1      -9.200  53.841  45.244  0.00  0.00    +0.000 C 
ATOM     33  C   UNL     1     -11.476  54.533  46.019  0.00  0.00    +0.000 C 
ENDBRANCH  30  31
ENDBRANCH  29  30
ENDBRANCH  10  29
TORSDOF 5
ENDMDL
MODEL 9
REMARK VINA RESULT:      -7.2      3.086      6.384
REMARK  Name = 338128
REMARK  7 active torsions:
REMARK  status: ('A' for Active; 'I' for Inactive)
REMARK    1  A    between atoms: C_7  and  O_9
REMARK    2  A    between atoms: C_10  and  C_13
REMARK    3  A    between atoms: N_11  and  C_14
REMARK    4  A    between atoms: C_14  and  C_18
REMARK    5  A    between atoms: C_18  and  C_21
REMARK    6  A    between atoms: C_21  and  C_26
REMARK    7  A    between atoms: C_21  and  C_27
REMARK                            x       y       z     vdW  Elec       q    Type
REMARK                         _______ _______ _______ _____ _____    ______ ____
ROOT
ATOM      1 BR   UNL     1      -8.051  49.784  52.072  0.00  0.00    +0.000 Br
ATOM      2  C   UNL     1      -8.510  51.408  51.223  0.00  0.00    +0.000 A 
ATOM      3  C   UNL     1      -9.432  52.264  51.820  0.00  0.00    +0.000 A 
ATOM      4  C   UNL     1      -7.971  51.716  49.983  0.00  0.00    +0.000 A 
ATOM      5  C   UNL     1      -9.835  53.445  51.169  0.00  0.00    +0.000 A 
ATOM      6  C   UNL     1      -8.338  52.901  49.342  0.00  0.00    +0.000 A 
ATOM      7  C   UNL     1     -10.981  54.232  51.657  0.00  0.00    +0.000 A 
ATOM      8  C   UNL     1      -9.267  53.780  49.921  0.00  0.00    +0.000 A 
ATOM      9  C   UNL     1     -11.529  55.166  50.862  0.00  0.00    +0.000 A 
ATOM     10  N   UNL     1      -9.682  54.983  49.271  0.00  0.00    +0.000 N 
ATOM     11  C   UNL     1     -10.742  55.745  49.751  0.00  0.00    +0.000 A 
ATOM     12  O   UNL     1     -11.064  56.825  49.257  0.00  0.00    +0.000 OA
ENDROOT
BRANCH   9  13
ATOM     13  C   UNL     1     -12.878  55.705  51.201  0.00  0.00    +0.000 C 
ATOM     14  N   UNL     1     -12.994  56.514  52.222  0.00  0.00    +0.000 N 
ATOM     15  N   UNL     1     -13.944  55.423  50.347  0.00  0.00    +0.000 N 
ATOM     16  S   UNL     1     -14.364  57.403  52.297  0.00  0.00    +0.000 S 
ATOM     17  C   UNL     1     -14.341  56.645  49.735  0.00  0.00    +0.000 A 
ATOM     18  O   UNL     1     -14.089  58.668  52.942  0.00  0.00    +0.000 OA
ATOM     19  O   UNL     1     -15.462  56.556  52.725  0.00  0.00    +0.000 OA
ATOM     20  C   UNL     1     -14.641  57.738  50.563  0.00  0.00    +0.000 A 
ATOM     21  C   UNL     1     -14.027  56.859  48.398  0.00  0.00    +0.000 A 
ATOM     22  C   UNL     1     -14.709  59.033  50.069  0.00  0.00    +0.000 A 
ATOM     23  C   UNL     1     -14.014  58.161  47.907  0.00  0.00    +0.000 A 
ATOM     24  C   UNL     1     -14.375  59.237  48.729  0.00  0.00    +0.000 A 
ATOM     25  H   UNL     1     -12.293  56.584  52.911  0.00  0.00    +0.000 HD
ATOM     26  H   UNL     1     -14.349  54.538  50.195  0.00  0.00    +0.000 HD
ENDBRANCH   9  13
BRANCH   7  27
ATOM     27  O   UNL     1     -11.535  53.894  52.880  0.00  0.00    +0.000 OA
ATOM     28  H   UNL     1     -11.003  53.899  53.652  0.00  0.00    +0.000 HD
ENDBRANCH   7  27
BRANCH  10  29
ATOM     29  C   UNL     1      -9.188  55.348  47.944  0.00  0.00    +0.000 C 
BRANCH  29  30
ATOM     30  C   UNL     1      -9.602  54.263  46.943  0.00  0.00    +0.000 C 
BRANCH  30  31
ATOM     31  C   UNL     1     -11.100  54.205  46.635  0.00  0.00    +0.000 C 
ATOM     32  C   UNL     1     -11.376  54.097  45.137  0.00  0.00    +0.000 C 
ATOM     33  C   UNL     1     -11.708  53.002  47.363  0.00  0.00    +0.000 C 
ENDBRANCH  30  31
ENDBRANCH  29  30
ENDBRANCH  10  29
TORSDOF 5
ENDMDL
