MODEL 1
REMARK VINA RESULT:      -8.3      0.000      0.000
REMARK  Name = 338240
REMARK  8 active torsions:
REMARK  status: ('A' for Active; 'I' for Inactive)
REMARK    1  A    between atoms: C_6  and  C_10
REMARK    2  A    between atoms: C_14  and  O_18
REMARK    3  A    between atoms: N_17  and  C_21
REMARK    4  A    between atoms: C_21  and  C_24
REMARK    5  A    between atoms: C_24  and  C_27
REMARK    6  A    between atoms: C_25  and  N_28
REMARK    7  A    between atoms: C_27  and  C_29
REMARK    8  A    between atoms: C_27  and  C_30
REMARK                            x       y       z     vdW  Elec       q    Type
REMARK                         _______ _______ _______ _____ _____    ______ ____
ROOT
ATOM      1  C   UNL     1     -10.137  54.391  52.186  0.00  0.00    +0.000 A 
ATOM      2  C   UNL     1      -8.768  54.991  52.107  0.00  0.00    +0.000 A 
ATOM      3  C   UNL     1     -10.351  53.277  52.910  0.00  0.00    +0.000 A 
ATOM      4  O   UNL     1      -8.639  56.079  51.539  0.00  0.00    +0.000 OA
ATOM      5  N   UNL     1      -7.712  54.306  52.692  0.00  0.00    +0.000 N 
ATOM      6  C   UNL     1      -9.241  52.643  53.634  0.00  0.00    +0.000 A 
ATOM      7  C   UNL     1      -7.944  53.174  53.536  0.00  0.00    +0.000 A 
ATOM      8  C   UNL     1      -9.473  51.529  54.462  0.00  0.00    +0.000 A 
ATOM      9  C   UNL     1      -6.931  52.602  54.314  0.00  0.00    +0.000 A 
ATOM     10  C   UNL     1      -8.441  50.922  55.177  0.00  0.00    +0.000 A 
ATOM     11  C   UNL     1      -7.180  51.498  55.130  0.00  0.00    +0.000 A 
ENDROOT
BRANCH   1  17
ATOM     12  S   UNL     1     -12.402  55.907  49.363  0.00  0.00    +0.000 S 
ATOM     13  O   UNL     1     -13.247  54.915  48.731  0.00  0.00    +0.000 OA
ATOM     14  O   UNL     1     -11.739  56.922  48.565  0.00  0.00    +0.000 OA
ATOM     15  N   UNL     1     -11.265  55.119  50.205  0.00  0.00    +0.000 N 
ATOM     16  C   UNL     1     -13.424  56.773  50.495  0.00  0.00    +0.000 A 
ATOM     17  C   UNL     1     -11.285  55.099  51.505  0.00  0.00    +0.000 C 
ATOM     18  C   UNL     1     -13.217  56.562  51.849  0.00  0.00    +0.000 A 
ATOM     19  C   UNL     1     -14.399  57.653  50.022  0.00  0.00    +0.000 A 
ATOM     20  N   UNL     1     -12.252  55.670  52.305  0.00  0.00    +0.000 N 
ATOM     21  C   UNL     1     -14.063  57.209  52.755  0.00  0.00    +0.000 A 
ATOM     22  C   UNL     1     -15.214  58.313  50.937  0.00  0.00    +0.000 A 
ATOM     23  C   UNL     1     -15.051  58.086  52.302  0.00  0.00    +0.000 A 
ATOM     24  H   UNL     1     -10.546  54.648  49.726  0.00  0.00    +0.000 HD
ATOM     25  H   UNL     1     -12.260  55.431  53.260  0.00  0.00    +0.000 HD
ENDBRANCH   1  17
BRANCH  10  26
ATOM     26  N   UNL     1      -8.721  49.925  56.116  0.00  0.00    +0.000 N 
ATOM     27  H   UNL     1      -8.614  48.976  55.874  0.00  0.00    +0.000 HD
ATOM     28  H   UNL     1      -9.024  50.170  57.020  0.00  0.00    +0.000 HD
ENDBRANCH  10  26
BRANCH   3  29
ATOM     29  O   UNL     1     -11.584  52.680  53.081  0.00  0.00    +0.000 OA
ATOM     30  H   UNL     1     -12.098  52.444  52.335  0.00  0.00    +0.000 HD
ENDBRANCH   3  29
BRANCH   5  31
ATOM     31  C   UNL     1      -6.367  54.885  52.563  0.00  0.00    +0.000 C 
BRANCH  31  32
ATOM     32  C   UNL     1      -5.440  54.201  51.546  0.00  0.00    +0.000 C 
BRANCH  32  33
ATOM     33  C   UNL     1      -4.058  53.761  52.055  0.00  0.00    +0.000 C 
ATOM     34  C   UNL     1      -3.847  54.095  53.529  0.00  0.00    +0.000 C 
ATOM     35  C   UNL     1      -3.924  52.248  51.838  0.00  0.00    +0.000 C 
ENDBRANCH  32  33
ENDBRANCH  31  32
ENDBRANCH   5  31
TORSDOF 6
ENDMDL
MODEL 2
REMARK VINA RESULT:      -8.2      4.662      6.435
REMARK  Name = 338240
REMARK  8 active torsions:
REMARK  status: ('A' for Active; 'I' for Inactive)
REMARK    1  A    between atoms: C_6  and  C_10
REMARK    2  A    between atoms: C_14  and  O_18
REMARK    3  A    between atoms: N_17  and  C_21
REMARK    4  A    between atoms: C_21  and  C_24
REMARK    5  A    between atoms: C_24  and  C_27
REMARK    6  A    between atoms: C_25  and  N_28
REMARK    7  A    between atoms: C_27  and  C_29
REMARK    8  A    between atoms: C_27  and  C_30
REMARK                            x       y       z     vdW  Elec       q    Type
REMARK                         _______ _______ _______ _____ _____    ______ ____
ROOT
ATOM      1  C   UNL     1     -11.471  56.306  48.499  0.00  0.00    +0.000 A 
ATOM      2  C   UNL     1     -11.868  55.683  47.198  0.00  0.00    +0.000 A 
ATOM      3  C   UNL     1     -10.220  56.157  48.972  0.00  0.00    +0.000 A 
ATOM      4  O   UNL     1     -12.982  55.948  46.739  0.00  0.00    +0.000 OA
ATOM      5  N   UNL     1     -10.958  54.850  46.560  0.00  0.00    +0.000 N 
ATOM      6  C   UNL     1      -9.231  55.382  48.210  0.00  0.00    +0.000 A 
ATOM      7  C   UNL     1      -9.603  54.759  47.007  0.00  0.00    +0.000 A 
ATOM      8  C   UNL     1      -7.898  55.293  48.654  0.00  0.00    +0.000 A 
ATOM      9  C   UNL     1      -8.612  54.110  46.261  0.00  0.00    +0.000 A 
ATOM     10  C   UNL     1      -6.936  54.582  47.939  0.00  0.00    +0.000 A 
ATOM     11  C   UNL     1      -7.295  54.032  46.717  0.00  0.00    +0.000 A 
ENDROOT
BRANCH   1  17
ATOM     12  S   UNL     1     -13.651  59.412  49.500  0.00  0.00    +0.000 S 
ATOM     13  O   UNL     1     -14.828  59.560  48.669  0.00  0.00    +0.000 OA
ATOM     14  O   UNL     1     -12.870  60.575  49.879  0.00  0.00    +0.000 OA
ATOM     15  N   UNL     1     -12.657  58.368  48.761  0.00  0.00    +0.000 N 
ATOM     16  C   UNL     1     -14.195  58.685  51.001  0.00  0.00    +0.000 A 
ATOM     17  C   UNL     1     -12.472  57.170  49.231  0.00  0.00    +0.000 C 
ATOM     18  C   UNL     1     -13.840  57.370  51.251  0.00  0.00    +0.000 A 
ATOM     19  C   UNL     1     -14.951  59.435  51.904  0.00  0.00    +0.000 A 
ATOM     20  N   UNL     1     -13.100  56.630  50.333  0.00  0.00    +0.000 N 
ATOM     21  C   UNL     1     -14.315  56.768  52.420  0.00  0.00    +0.000 A 
ATOM     22  C   UNL     1     -15.392  58.831  53.078  0.00  0.00    +0.000 A 
ATOM     23  C   UNL     1     -15.080  57.497  53.333  0.00  0.00    +0.000 A 
ATOM     24  H   UNL     1     -12.184  58.645  47.944  0.00  0.00    +0.000 HD
ATOM     25  H   UNL     1     -13.019  55.660  50.481  0.00  0.00    +0.000 HD
ENDBRANCH   1  17
BRANCH  10  26
ATOM     26  N   UNL     1      -5.589  54.643  48.309  0.00  0.00    +0.000 N 
ATOM     27  H   UNL     1      -5.045  53.822  48.328  0.00  0.00    +0.000 HD
ATOM     28  H   UNL     1      -5.184  55.507  48.552  0.00  0.00    +0.000 HD
ENDBRANCH  10  26
BRANCH   3  29
ATOM     29  O   UNL     1      -9.748  56.734  50.134  0.00  0.00    +0.000 OA
ATOM     30  H   UNL     1     -10.040  57.589  50.384  0.00  0.00    +0.000 HD
ENDBRANCH   3  29
BRANCH   5  31
ATOM     31  C   UNL     1     -11.382  54.207  45.308  0.00  0.00    +0.000 C 
BRANCH  31  32
ATOM     32  C   UNL     1     -11.876  52.757  45.436  0.00  0.00    +0.000 C 
BRANCH  32  33
ATOM     33  C   UNL     1     -11.162  51.704  44.573  0.00  0.00    +0.000 C 
ATOM     34  C   UNL     1     -10.286  52.333  43.493  0.00  0.00    +0.000 C 
ATOM     35  C   UNL     1     -10.305  50.826  45.494  0.00  0.00    +0.000 C 
ENDBRANCH  32  33
ENDBRANCH  31  32
ENDBRANCH   5  31
TORSDOF 6
ENDMDL
MODEL 3
REMARK VINA RESULT:      -8.1      3.599      5.653
REMARK  Name = 338240
REMARK  8 active torsions:
REMARK  status: ('A' for Active; 'I' for Inactive)
REMARK    1  A    between atoms: C_6  and  C_10
REMARK    2  A    between atoms: C_14  and  O_18
REMARK    3  A    between atoms: N_17  and  C_21
REMARK    4  A    between atoms: C_21  and  C_24
REMARK    5  A    between atoms: C_24  and  C_27
REMARK    6  A    between atoms: C_25  and  N_28
REMARK    7  A    between atoms: C_27  and  C_29
REMARK    8  A    between atoms: C_27  and  C_30
REMARK                            x       y       z     vdW  Elec       q    Type
REMARK                         _______ _______ _______ _____ _____    ______ ____
ROOT
ATOM      1  C   UNL     1     -11.705  56.014  48.684  0.00  0.00    +0.000 A 
ATOM      2  C   UNL     1     -10.626  55.371  49.497  0.00  0.00    +0.000 A 
ATOM      3  C   UNL     1     -11.882  55.671  47.395  0.00  0.00    +0.000 A 
ATOM      4  O   UNL     1     -10.578  55.620  50.705  0.00  0.00    +0.000 OA
ATOM      5  N   UNL     1      -9.742  54.513  48.859  0.00  0.00    +0.000 N 
ATOM      6  C   UNL     1     -11.018  54.657  46.776  0.00  0.00    +0.000 A 
ATOM      7  C   UNL     1      -9.976  54.075  47.518  0.00  0.00    +0.000 A 
ATOM      8  C   UNL     1     -11.251  54.230  45.455  0.00  0.00    +0.000 A 
ATOM      9  C   UNL     1      -9.235  53.046  46.927  0.00  0.00    +0.000 A 
ATOM     10  C   UNL     1     -10.459  53.254  44.852  0.00  0.00    +0.000 A 
ATOM     11  C   UNL     1      -9.480  52.635  45.616  0.00  0.00    +0.000 A 
ENDROOT
BRANCH   1  17
ATOM     12  S   UNL     1     -13.628  59.338  49.492  0.00  0.00    +0.000 S 
ATOM     13  O   UNL     1     -14.776  59.543  48.633  0.00  0.00    +0.000 OA
ATOM     14  O   UNL     1     -12.757  60.449  49.830  0.00  0.00    +0.000 OA
ATOM     15  N   UNL     1     -12.716  58.179  48.824  0.00  0.00    +0.000 N 
ATOM     16  C   UNL     1     -14.255  58.735  51.016  0.00  0.00    +0.000 A 
ATOM     17  C   UNL     1     -12.640  56.994  49.355  0.00  0.00    +0.000 C 
ATOM     18  C   UNL     1     -14.016  57.409  51.336  0.00  0.00    +0.000 A 
ATOM     19  C   UNL     1     -14.957  59.590  51.867  0.00  0.00    +0.000 A 
ATOM     20  N   UNL     1     -13.328  56.565  50.470  0.00  0.00    +0.000 N 
ATOM     21  C   UNL     1     -14.558  56.908  52.524  0.00  0.00    +0.000 A 
ATOM     22  C   UNL     1     -15.465  59.085  53.060  0.00  0.00    +0.000 A 
ATOM     23  C   UNL     1     -15.271  57.743  53.386  0.00  0.00    +0.000 A 
ATOM     24  H   UNL     1     -12.209  58.374  48.003  0.00  0.00    +0.000 HD
ATOM     25  H   UNL     1     -13.332  55.600  50.665  0.00  0.00    +0.000 HD
ENDBRANCH   1  17
BRANCH  10  26
ATOM     26  N   UNL     1     -10.808  52.730  43.604  0.00  0.00    +0.000 N 
ATOM     27  H   UNL     1     -11.537  52.071  43.532  0.00  0.00    +0.000 HD
ATOM     28  H   UNL     1     -10.325  53.018  42.796  0.00  0.00    +0.000 HD
ENDBRANCH  10  26
BRANCH   3  29
ATOM     29  O   UNL     1     -12.879  56.172  46.581  0.00  0.00    +0.000 OA
ATOM     30  H   UNL     1     -13.380  55.591  46.044  0.00  0.00    +0.000 HD
ENDBRANCH   3  29
BRANCH   5  31
ATOM     31  C   UNL     1      -8.658  53.928  49.662  0.00  0.00    +0.000 C 
BRANCH  31  32
ATOM     32  C   UNL     1      -7.318  54.680  49.625  0.00  0.00    +0.000 C 
BRANCH  32  33
ATOM     33  C   UNL     1      -6.942  55.486  50.879  0.00  0.00    +0.000 C 
ATOM     34  C   UNL     1      -7.514  56.901  50.855  0.00  0.00    +0.000 C 
ATOM     35  C   UNL     1      -7.461  54.733  52.110  0.00  0.00    +0.000 C 
ENDBRANCH  32  33
ENDBRANCH  31  32
ENDBRANCH   5  31
TORSDOF 6
ENDMDL
MODEL 4
REMARK VINA RESULT:      -7.9      4.413      6.436
REMARK  Name = 338240
REMARK  8 active torsions:
REMARK  status: ('A' for Active; 'I' for Inactive)
REMARK    1  A    between atoms: C_6  and  C_10
REMARK    2  A    between atoms: C_14  and  O_18
REMARK    3  A    between atoms: N_17  and  C_21
REMARK    4  A    between atoms: C_21  and  C_24
REMARK    5  A    between atoms: C_24  and  C_27
REMARK    6  A    between atoms: C_25  and  N_28
REMARK    7  A    between atoms: C_27  and  C_29
REMARK    8  A    between atoms: C_27  and  C_30
REMARK                            x       y       z     vdW  Elec       q    Type
REMARK                         _______ _______ _______ _____ _____    ______ ____
ROOT
ATOM      1  C   UNL     1     -10.961  55.671  48.595  0.00  0.00    +0.000 A 
ATOM      2  C   UNL     1     -11.376  55.224  47.228  0.00  0.00    +0.000 A 
ATOM      3  C   UNL     1      -9.697  55.483  49.018  0.00  0.00    +0.000 A 
ATOM      4  O   UNL     1     -12.505  55.528  46.833  0.00  0.00    +0.000 OA
ATOM      5  N   UNL     1     -10.467  54.506  46.464  0.00  0.00    +0.000 N 
ATOM      6  C   UNL     1      -8.712  54.840  48.137  0.00  0.00    +0.000 A 
ATOM      7  C   UNL     1      -9.100  54.381  46.867  0.00  0.00    +0.000 A 
ATOM      8  C   UNL     1      -7.369  54.718  48.538  0.00  0.00    +0.000 A 
ATOM      9  C   UNL     1      -8.116  53.861  46.019  0.00  0.00    +0.000 A 
ATOM     10  C   UNL     1      -6.410  54.131  47.712  0.00  0.00    +0.000 A 
ATOM     11  C   UNL     1      -6.788  53.747  46.433  0.00  0.00    +0.000 A 
ENDROOT
BRANCH   1  17
ATOM     12  S   UNL     1     -13.586  56.396  51.420  0.00  0.00    +0.000 S 
ATOM     13  O   UNL     1     -12.967  56.686  52.697  0.00  0.00    +0.000 OA
ATOM     14  O   UNL     1     -14.766  55.554  51.351  0.00  0.00    +0.000 OA
ATOM     15  N   UNL     1     -12.454  55.743  50.464  0.00  0.00    +0.000 N 
ATOM     16  C   UNL     1     -14.055  57.943  50.739  0.00  0.00    +0.000 A 
ATOM     17  C   UNL     1     -11.960  56.405  49.459  0.00  0.00    +0.000 C 
ATOM     18  C   UNL     1     -13.346  58.414  49.646  0.00  0.00    +0.000 A 
ATOM     19  C   UNL     1     -15.124  58.652  51.292  0.00  0.00    +0.000 A 
ATOM     20  N   UNL     1     -12.273  57.703  49.116  0.00  0.00    +0.000 N 
ATOM     21  C   UNL     1     -13.681  59.669  49.132  0.00  0.00    +0.000 A 
ATOM     22  C   UNL     1     -15.465  59.888  50.750  0.00  0.00    +0.000 A 
ATOM     23  C   UNL     1     -14.740  60.400  49.675  0.00  0.00    +0.000 A 
ATOM     24  H   UNL     1     -12.135  54.829  50.644  0.00  0.00    +0.000 HD
ATOM     25  H   UNL     1     -11.702  58.156  48.455  0.00  0.00    +0.000 HD
ENDBRANCH   1  17
BRANCH  10  26
ATOM     26  N   UNL     1      -5.057  54.168  48.061  0.00  0.00    +0.000 N 
ATOM     27  H   UNL     1      -4.694  54.944  48.546  0.00  0.00    +0.000 HD
ATOM     28  H   UNL     1      -4.466  53.418  47.820  0.00  0.00    +0.000 HD
ENDBRANCH  10  26
BRANCH   3  29
ATOM     29  O   UNL     1      -9.209  55.904  50.239  0.00  0.00    +0.000 OA
ATOM     30  H   UNL     1      -8.464  55.479  50.617  0.00  0.00    +0.000 HD
ENDBRANCH   3  29
BRANCH   5  31
ATOM     31  C   UNL     1     -10.908  54.033  45.144  0.00  0.00    +0.000 C 
BRANCH  31  32
ATOM     32  C   UNL     1     -11.528  52.627  45.111  0.00  0.00    +0.000 C 
BRANCH  32  33
ATOM     33  C   UNL     1     -10.835  51.585  44.218  0.00  0.00    +0.000 C 
ATOM     34  C   UNL     1     -10.025  52.227  43.096  0.00  0.00    +0.000 C 
ATOM     35  C   UNL     1      -9.918  50.728  45.101  0.00  0.00    +0.000 C 
ENDBRANCH  32  33
ENDBRANCH  31  32
ENDBRANCH   5  31
TORSDOF 6
ENDMDL
MODEL 5
REMARK VINA RESULT:      -7.8      3.281      7.528
REMARK  Name = 338240
REMARK  8 active torsions:
REMARK  status: ('A' for Active; 'I' for Inactive)
REMARK    1  A    between atoms: C_6  and  C_10
REMARK    2  A    between atoms: C_14  and  O_18
REMARK    3  A    between atoms: N_17  and  C_21
REMARK    4  A    between atoms: C_21  and  C_24
REMARK    5  A    between atoms: C_24  and  C_27
REMARK    6  A    between atoms: C_25  and  N_28
REMARK    7  A    between atoms: C_27  and  C_29
REMARK    8  A    between atoms: C_27  and  C_30
REMARK                            x       y       z     vdW  Elec       q    Type
REMARK                         _______ _______ _______ _____ _____    ______ ____
ROOT
ATOM      1  C   UNL     1     -10.156  55.213  50.947  0.00  0.00    +0.000 A 
ATOM      2  C   UNL     1      -9.820  55.182  49.490  0.00  0.00    +0.000 A 
ATOM      3  C   UNL     1     -11.376  55.606  51.356  0.00  0.00    +0.000 A 
ATOM      4  O   UNL     1      -8.737  54.696  49.150  0.00  0.00    +0.000 OA
ATOM      5  N   UNL     1     -10.748  55.683  48.587  0.00  0.00    +0.000 N 
ATOM      6  C   UNL     1     -12.391  56.004  50.372  0.00  0.00    +0.000 A 
ATOM      7  C   UNL     1     -12.075  56.018  49.003  0.00  0.00    +0.000 A 
ATOM      8  C   UNL     1     -13.696  56.334  50.785  0.00  0.00    +0.000 A 
ATOM      9  C   UNL     1     -13.093  56.310  48.088  0.00  0.00    +0.000 A 
ATOM     10  C   UNL     1     -14.683  56.695  49.869  0.00  0.00    +0.000 A 
ATOM     11  C   UNL     1     -14.381  56.634  48.516  0.00  0.00    +0.000 A 
ENDROOT
BRANCH   1  17
ATOM     12  S   UNL     1      -6.783  54.856  52.921  0.00  0.00    +0.000 S 
ATOM     13  O   UNL     1      -6.636  55.853  53.961  0.00  0.00    +0.000 OA
ATOM     14  O   UNL     1      -5.653  54.496  52.084  0.00  0.00    +0.000 OA
ATOM     15  N   UNL     1      -7.986  55.336  51.948  0.00  0.00    +0.000 N 
ATOM     16  C   UNL     1      -7.281  53.378  53.724  0.00  0.00    +0.000 A 
ATOM     17  C   UNL     1      -9.132  54.722  51.944  0.00  0.00    +0.000 C 
ATOM     18  C   UNL     1      -8.583  52.944  53.535  0.00  0.00    +0.000 A 
ATOM     19  C   UNL     1      -6.370  52.672  54.512  0.00  0.00    +0.000 A 
ATOM     20  N   UNL     1      -9.484  53.667  52.760  0.00  0.00    +0.000 N 
ATOM     21  C   UNL     1      -9.002  51.796  54.214  0.00  0.00    +0.000 A 
ATOM     22  C   UNL     1      -6.793  51.515  55.158  0.00  0.00    +0.000 A 
ATOM     23  C   UNL     1      -8.110  51.080  55.015  0.00  0.00    +0.000 A 
ATOM     24  H   UNL     1      -7.847  56.104  51.348  0.00  0.00    +0.000 HD
ATOM     25  H   UNL     1     -10.434  53.409  52.795  0.00  0.00    +0.000 HD
ENDBRANCH   1  17
BRANCH  10  26
ATOM     26  N   UNL     1     -16.009  56.858  50.283  0.00  0.00    +0.000 N 
ATOM     27  H   UNL     1     -16.742  56.469  49.753  0.00  0.00    +0.000 HD
ATOM     28  H   UNL     1     -16.209  57.362  51.105  0.00  0.00    +0.000 HD
ENDBRANCH  10  26
BRANCH   3  29
ATOM     29  O   UNL     1     -11.794  55.621  52.672  0.00  0.00    +0.000 OA
ATOM     30  H   UNL     1     -12.707  55.679  52.873  0.00  0.00    +0.000 HD
ENDBRANCH   3  29
BRANCH   5  31
ATOM     31  C   UNL     1     -10.381  55.690  47.164  0.00  0.00    +0.000 C 
BRANCH  31  32
ATOM     32  C   UNL     1     -10.648  54.383  46.398  0.00  0.00    +0.000 C 
BRANCH  32  33
ATOM     33  C   UNL     1      -9.429  53.686  45.774  0.00  0.00    +0.000 C 
ATOM     34  C   UNL     1      -9.733  53.105  44.396  0.00  0.00    +0.000 C 
ATOM     35  C   UNL     1      -8.290  54.708  45.670  0.00  0.00    +0.000 C 
ENDBRANCH  32  33
ENDBRANCH  31  32
ENDBRANCH   5  31
TORSDOF 6
ENDMDL
MODEL 6
REMARK VINA RESULT:      -7.8      3.860      4.902
REMARK  Name = 338240
REMARK  8 active torsions:
REMARK  status: ('A' for Active; 'I' for Inactive)
REMARK    1  A    between atoms: C_6  and  C_10
REMARK    2  A    between atoms: C_14  and  O_18
REMARK    3  A    between atoms: N_17  and  C_21
REMARK    4  A    between atoms: C_21  and  C_24
REMARK    5  A    between atoms: C_24  and  C_27
REMARK    6  A    between atoms: C_25  and  N_28
REMARK    7  A    between atoms: C_27  and  C_29
REMARK    8  A    between atoms: C_27  and  C_30
REMARK                            x       y       z     vdW  Elec       q    Type
REMARK                         _______ _______ _______ _____ _____    ______ ____
ROOT
ATOM      1  C   UNL     1     -12.483  54.238  49.869  0.00  0.00    +0.000 A 
ATOM      2  C   UNL     1     -12.160  54.009  48.426  0.00  0.00    +0.000 A 
ATOM      3  C   UNL     1     -12.021  53.397  50.812  0.00  0.00    +0.000 A 
ATOM      4  O   UNL     1     -12.496  54.870  47.608  0.00  0.00    +0.000 OA
ATOM      5  N   UNL     1     -11.484  52.848  48.077  0.00  0.00    +0.000 N 
ATOM      6  C   UNL     1     -11.190  52.247  50.431  0.00  0.00    +0.000 A 
ATOM      7  C   UNL     1     -10.914  51.998  49.076  0.00  0.00    +0.000 A 
ATOM      8  C   UNL     1     -10.632  51.411  51.417  0.00  0.00    +0.000 A 
ATOM      9  C   UNL     1     -10.042  50.950  48.757  0.00  0.00    +0.000 A 
ATOM     10  C   UNL     1      -9.823  50.326  51.082  0.00  0.00    +0.000 A 
ATOM     11  C   UNL     1      -9.497  50.133  49.747  0.00  0.00    +0.000 A 
ENDROOT
BRANCH   1  17
ATOM     12  S   UNL     1     -15.354  56.507  51.285  0.00  0.00    +0.000 S 
ATOM     13  O   UNL     1     -15.281  56.669  52.723  0.00  0.00    +0.000 OA
ATOM     14  O   UNL     1     -16.635  56.302  50.634  0.00  0.00    +0.000 OA
ATOM     15  N   UNL     1     -14.390  55.271  50.881  0.00  0.00    +0.000 N 
ATOM     16  C   UNL     1     -14.688  57.974  50.591  0.00  0.00    +0.000 A 
ATOM     17  C   UNL     1     -13.268  55.471  50.256  0.00  0.00    +0.000 C 
ATOM     18  C   UNL     1     -13.454  57.894  49.967  0.00  0.00    +0.000 A 
ATOM     19  C   UNL     1     -15.406  59.169  50.667  0.00  0.00    +0.000 A 
ATOM     20  N   UNL     1     -12.743  56.699  49.913  0.00  0.00    +0.000 N 
ATOM     21  C   UNL     1     -12.894  59.069  49.458  0.00  0.00    +0.000 A 
ATOM     22  C   UNL     1     -14.848  60.325  50.130  0.00  0.00    +0.000 A 
ATOM     23  C   UNL     1     -13.590  60.278  49.531  0.00  0.00    +0.000 A 
ATOM     24  H   UNL     1     -14.657  54.352  51.111  0.00  0.00    +0.000 HD
ATOM     25  H   UNL     1     -11.807  56.732  49.611  0.00  0.00    +0.000 HD
ENDBRANCH   1  17
BRANCH  10  26
ATOM     26  N   UNL     1      -9.148  49.612  52.077  0.00  0.00    +0.000 N 
ATOM     27  H   UNL     1      -9.541  48.785  52.443  0.00  0.00    +0.000 HD
ATOM     28  H   UNL     1      -8.281  49.935  52.413  0.00  0.00    +0.000 HD
ENDBRANCH  10  26
BRANCH   3  29
ATOM     29  O   UNL     1     -12.224  53.553  52.169  0.00  0.00    +0.000 OA
ATOM     30  H   UNL     1     -13.088  53.484  52.524  0.00  0.00    +0.000 HD
ENDBRANCH   3  29
BRANCH   5  31
ATOM     31  C   UNL     1     -11.219  52.615  46.650  0.00  0.00    +0.000 C 
BRANCH  31  32
ATOM     32  C   UNL     1     -10.243  53.598  45.982  0.00  0.00    +0.000 C 
BRANCH  32  33
ATOM     33  C   UNL     1      -8.928  53.881  46.725  0.00  0.00    +0.000 C 
ATOM     34  C   UNL     1      -7.700  53.543  45.885  0.00  0.00    +0.000 C 
ATOM     35  C   UNL     1      -8.904  55.365  47.113  0.00  0.00    +0.000 C 
ENDBRANCH  32  33
ENDBRANCH  31  32
ENDBRANCH   5  31
TORSDOF 6
ENDMDL
MODEL 7
REMARK VINA RESULT:      -7.8      3.882      5.667
REMARK  Name = 338240
REMARK  8 active torsions:
REMARK  status: ('A' for Active; 'I' for Inactive)
REMARK    1  A    between atoms: C_6  and  C_10
REMARK    2  A    between atoms: C_14  and  O_18
REMARK    3  A    between atoms: N_17  and  C_21
REMARK    4  A    between atoms: C_21  and  C_24
REMARK    5  A    between atoms: C_24  and  C_27
REMARK    6  A    between atoms: C_25  and  N_28
REMARK    7  A    between atoms: C_27  and  C_29
REMARK    8  A    between atoms: C_27  and  C_30
REMARK                            x       y       z     vdW  Elec       q    Type
REMARK                         _______ _______ _______ _____ _____    ______ ____
ROOT
ATOM      1  C   UNL     1     -10.939  55.466  48.570  0.00  0.00    +0.000 A 
ATOM      2  C   UNL     1      -9.638  55.015  49.155  0.00  0.00    +0.000 A 
ATOM      3  C   UNL     1     -11.270  55.135  47.309  0.00  0.00    +0.000 A 
ATOM      4  O   UNL     1      -9.428  55.232  50.351  0.00  0.00    +0.000 OA
ATOM      5  N   UNL     1      -8.735  54.359  48.329  0.00  0.00    +0.000 N 
ATOM      6  C   UNL     1     -10.356  54.321  46.496  0.00  0.00    +0.000 A 
ATOM      7  C   UNL     1      -9.113  53.926  47.019  0.00  0.00    +0.000 A 
ATOM      8  C   UNL     1     -10.731  53.898  45.207  0.00  0.00    +0.000 A 
ATOM      9  C   UNL     1      -8.310  53.074  46.253  0.00  0.00    +0.000 A 
ATOM     10  C   UNL     1      -9.890  53.108  44.423  0.00  0.00    +0.000 A 
ATOM     11  C   UNL     1      -8.699  52.663  44.977  0.00  0.00    +0.000 A 
ENDROOT
BRANCH   1  17
ATOM     12  S   UNL     1     -13.492  56.280  51.437  0.00  0.00    +0.000 S 
ATOM     13  O   UNL     1     -12.841  56.578  52.697  0.00  0.00    +0.000 OA
ATOM     14  O   UNL     1     -14.687  55.457  51.405  0.00  0.00    +0.000 OA
ATOM     15  N   UNL     1     -12.392  55.593  50.468  0.00  0.00    +0.000 N 
ATOM     16  C   UNL     1     -13.949  57.825  50.742  0.00  0.00    +0.000 A 
ATOM     17  C   UNL     1     -11.907  56.231  49.444  0.00  0.00    +0.000 C 
ATOM     18  C   UNL     1     -13.254  58.266  49.628  0.00  0.00    +0.000 A 
ATOM     19  C   UNL     1     -14.993  58.560  51.306  0.00  0.00    +0.000 A 
ATOM     20  N   UNL     1     -12.205  57.529  49.087  0.00  0.00    +0.000 N 
ATOM     21  C   UNL     1     -13.579  59.519  49.102  0.00  0.00    +0.000 A 
ATOM     22  C   UNL     1     -15.324  59.793  50.753  0.00  0.00    +0.000 A 
ATOM     23  C   UNL     1     -14.614  60.276  49.655  0.00  0.00    +0.000 A 
ATOM     24  H   UNL     1     -12.085  54.676  50.655  0.00  0.00    +0.000 HD
ATOM     25  H   UNL     1     -11.641  57.961  48.407  0.00  0.00    +0.000 HD
ENDBRANCH   1  17
BRANCH  10  26
ATOM     26  N   UNL     1     -10.348  52.565  43.219  0.00  0.00    +0.000 N 
ATOM     27  H   UNL     1     -10.761  53.148  42.541  0.00  0.00    +0.000 HD
ATOM     28  H   UNL     1     -10.259  51.599  43.049  0.00  0.00    +0.000 HD
ENDBRANCH  10  26
BRANCH   3  29
ATOM     29  O   UNL     1     -12.466  55.461  46.701  0.00  0.00    +0.000 OA
ATOM     30  H   UNL     1     -12.474  56.032  45.958  0.00  0.00    +0.000 HD
ENDBRANCH   3  29
BRANCH   5  31
ATOM     31  C   UNL     1      -7.442  53.967  48.906  0.00  0.00    +0.000 C 
BRANCH  31  32
ATOM     32  C   UNL     1      -6.349  55.049  48.897  0.00  0.00    +0.000 C 
BRANCH  32  33
ATOM     33  C   UNL     1      -4.918  54.591  49.219  0.00  0.00    +0.000 C 
ATOM     34  C   UNL     1      -4.770  54.114  50.661  0.00  0.00    +0.000 C 
ATOM     35  C   UNL     1      -4.546  53.458  48.253  0.00  0.00    +0.000 C 
ENDBRANCH  32  33
ENDBRANCH  31  32
ENDBRANCH   5  31
TORSDOF 6
ENDMDL
MODEL 8
REMARK VINA RESULT:      -7.7      1.653      2.539
REMARK  Name = 338240
REMARK  8 active torsions:
REMARK  status: ('A' for Active; 'I' for Inactive)
REMARK    1  A    between atoms: C_6  and  C_10
REMARK    2  A    between atoms: C_14  and  O_18
REMARK    3  A    between atoms: N_17  and  C_21
REMARK    4  A    between atoms: C_21  and  C_24
REMARK    5  A    between atoms: C_24  and  C_27
REMARK    6  A    between atoms: C_25  and  N_28
REMARK    7  A    between atoms: C_27  and  C_29
REMARK    8  A    between atoms: C_27  and  C_30
REMARK                            x       y       z     vdW  Elec       q    Type
REMARK                         _______ _______ _______ _____ _____    ______ ____
ROOT
ATOM      1  C   UNL     1     -10.097  54.542  52.064  0.00  0.00    +0.000 A 
ATOM      2  C   UNL     1      -8.691  55.044  51.965  0.00  0.00    +0.000 A 
ATOM      3  C   UNL     1     -10.381  53.451  52.799  0.00  0.00    +0.000 A 
ATOM      4  O   UNL     1      -8.492  56.116  51.387  0.00  0.00    +0.000 OA
ATOM      5  N   UNL     1      -7.679  54.290  52.543  0.00  0.00    +0.000 N 
ATOM      6  C   UNL     1      -9.309  52.746  53.515  0.00  0.00    +0.000 A 
ATOM      7  C   UNL     1      -7.979  53.183  53.398  0.00  0.00    +0.000 A 
ATOM      8  C   UNL     1      -9.609  51.656  54.355  0.00  0.00    +0.000 A 
ATOM      9  C   UNL     1      -7.000  52.546  54.168  0.00  0.00    +0.000 A 
ATOM     10  C   UNL     1      -8.613  50.983  55.062  0.00  0.00    +0.000 A 
ATOM     11  C   UNL     1      -7.315  51.468  54.996  0.00  0.00    +0.000 A 
ENDROOT
BRANCH   1  17
ATOM     12  S   UNL     1     -13.473  56.468  51.527  0.00  0.00    +0.000 S 
ATOM     13  O   UNL     1     -13.413  57.840  51.987  0.00  0.00    +0.000 OA
ATOM     14  O   UNL     1     -14.653  55.660  51.780  0.00  0.00    +0.000 OA
ATOM     15  N   UNL     1     -12.196  55.688  52.146  0.00  0.00    +0.000 N 
ATOM     16  C   UNL     1     -13.291  56.525  49.783  0.00  0.00    +0.000 A 
ATOM     17  C   UNL     1     -11.201  55.325  51.392  0.00  0.00    +0.000 C 
ATOM     18  C   UNL     1     -12.106  56.058  49.239  0.00  0.00    +0.000 A 
ATOM     19  C   UNL     1     -14.329  57.018  48.990  0.00  0.00    +0.000 A 
ATOM     20  N   UNL     1     -11.075  55.584  50.043  0.00  0.00    +0.000 N 
ATOM     21  C   UNL     1     -11.934  56.149  47.855  0.00  0.00    +0.000 A 
ATOM     22  C   UNL     1     -14.154  57.076  47.611  0.00  0.00    +0.000 A 
ATOM     23  C   UNL     1     -12.956  56.648  47.043  0.00  0.00    +0.000 A 
ATOM     24  H   UNL     1     -12.173  55.482  53.108  0.00  0.00    +0.000 HD
ATOM     25  H   UNL     1     -10.199  55.424  49.624  0.00  0.00    +0.000 HD
ENDBRANCH   1  17
BRANCH  10  26
ATOM     26  N   UNL     1      -8.951  50.014  56.012  0.00  0.00    +0.000 N 
ATOM     27  H   UNL     1      -8.349  49.251  56.172  0.00  0.00    +0.000 HD
ATOM     28  H   UNL     1      -9.789  50.095  56.521  0.00  0.00    +0.000 HD
ENDBRANCH  10  26
BRANCH   3  29
ATOM     29  O   UNL     1     -11.650  52.944  52.990  0.00  0.00    +0.000 OA
ATOM     30  H   UNL     1     -11.762  52.084  53.346  0.00  0.00    +0.000 HD
ENDBRANCH   3  29
BRANCH   5  31
ATOM     31  C   UNL     1      -6.298  54.772  52.394  0.00  0.00    +0.000 C 
BRANCH  31  32
ATOM     32  C   UNL     1      -5.346  53.844  51.622  0.00  0.00    +0.000 C 
BRANCH  32  33
ATOM     33  C   UNL     1      -5.457  53.858  50.089  0.00  0.00    +0.000 C 
ATOM     34  C   UNL     1      -6.591  52.974  49.579  0.00  0.00    +0.000 C 
ATOM     35  C   UNL     1      -5.679  55.307  49.635  0.00  0.00    +0.000 C 
ENDBRANCH  32  33
ENDBRANCH  31  32
ENDBRANCH   5  31
TORSDOF 6
ENDMDL
MODEL 9
REMARK VINA RESULT:      -7.5      4.633      7.235
REMARK  Name = 338240
REMARK  8 active torsions:
REMARK  status: ('A' for Active; 'I' for Inactive)
REMARK    1  A    between atoms: C_6  and  C_10
REMARK    2  A    between atoms: C_14  and  O_18
REMARK    3  A    between atoms: N_17  and  C_21
REMARK    4  A    between atoms: C_21  and  C_24
REMARK    5  A    between atoms: C_24  and  C_27
REMARK    6  A    between atoms: C_25  and  N_28
REMARK    7  A    between atoms: C_27  and  C_29
REMARK    8  A    between atoms: C_27  and  C_30
REMARK                            x       y       z     vdW  Elec       q    Type
REMARK                         _______ _______ _______ _____ _____    ______ ____
ROOT
ATOM      1  C   UNL     1     -10.830  54.479  48.536  0.00  0.00    +0.000 A 
ATOM      2  C   UNL     1     -10.395  54.027  49.894  0.00  0.00    +0.000 A 
ATOM      3  C   UNL     1     -11.818  55.384  48.403  0.00  0.00    +0.000 A 
ATOM      4  O   UNL     1      -9.405  53.295  49.977  0.00  0.00    +0.000 OA
ATOM      5  N   UNL     1     -11.113  54.466  50.998  0.00  0.00    +0.000 N 
ATOM      6  C   UNL     1     -12.474  55.939  49.595  0.00  0.00    +0.000 A 
ATOM      7  C   UNL     1     -12.102  55.493  50.874  0.00  0.00    +0.000 A 
ATOM      8  C   UNL     1     -13.447  56.948  49.469  0.00  0.00    +0.000 A 
ATOM      9  C   UNL     1     -12.680  56.111  51.988  0.00  0.00    +0.000 A 
ATOM     10  C   UNL     1     -14.070  57.506  50.585  0.00  0.00    +0.000 A 
ATOM     11  C   UNL     1     -13.643  57.111  51.845  0.00  0.00    +0.000 A 
ENDROOT
BRANCH   1  17
ATOM     12  S   UNL     1      -8.012  53.982  45.851  0.00  0.00    +0.000 S 
ATOM     13  O   UNL     1      -6.973  53.075  46.293  0.00  0.00    +0.000 OA
ATOM     14  O   UNL     1      -7.670  55.195  45.132  0.00  0.00    +0.000 OA
ATOM     15  N   UNL     1      -8.880  54.404  47.151  0.00  0.00    +0.000 N 
ATOM     16  C   UNL     1      -9.046  53.058  44.776  0.00  0.00    +0.000 A 
ATOM     17  C   UNL     1     -10.091  53.964  47.322  0.00  0.00    +0.000 C 
ATOM     18  C   UNL     1     -10.315  52.726  45.223  0.00  0.00    +0.000 A 
ATOM     19  C   UNL     1      -8.585  52.693  43.510  0.00  0.00    +0.000 A 
ATOM     20  N   UNL     1     -10.754  53.083  46.494  0.00  0.00    +0.000 N 
ATOM     21  C   UNL     1     -11.124  51.945  44.392  0.00  0.00    +0.000 A 
ATOM     22  C   UNL     1      -9.413  51.941  42.683  0.00  0.00    +0.000 A 
ATOM     23  C   UNL     1     -10.680  51.561  43.125  0.00  0.00    +0.000 A 
ATOM     24  H   UNL     1      -8.485  55.006  47.823  0.00  0.00    +0.000 HD
ATOM     25  H   UNL     1     -11.590  52.682  46.822  0.00  0.00    +0.000 HD
ENDBRANCH   1  17
BRANCH  10  26
ATOM     26  N   UNL     1     -14.909  58.616  50.447  0.00  0.00    +0.000 N 
ATOM     27  H   UNL     1     -15.426  58.743  49.618  0.00  0.00    +0.000 HD
ATOM     28  H   UNL     1     -14.984  59.271  51.178  0.00  0.00    +0.000 HD
ENDBRANCH  10  26
BRANCH   3  29
ATOM     29  O   UNL     1     -12.253  55.897  47.198  0.00  0.00    +0.000 OA
ATOM     30  H   UNL     1     -13.168  56.034  47.051  0.00  0.00    +0.000 HD
ENDBRANCH   3  29
BRANCH   5  31
ATOM     31  C   UNL     1     -10.702  53.974  52.320  0.00  0.00    +0.000 C 
BRANCH  31  32
ATOM     32  C   UNL     1      -9.852  54.941  53.160  0.00  0.00    +0.000 C 
BRANCH  32  33
ATOM     33  C   UNL     1      -8.338  54.943  52.892  0.00  0.00    +0.000 C 
ATOM     34  C   UNL     1      -7.939  55.944  51.812  0.00  0.00    +0.000 C 
ATOM     35  C   UNL     1      -7.617  55.275  54.205  0.00  0.00    +0.000 C 
ENDBRANCH  32  33
ENDBRANCH  31  32
ENDBRANCH   5  31
TORSDOF 6
ENDMDL
