MODEL 1
REMARK VINA RESULT:      -8.1      0.000      0.000
REMARK  Name = 298159
REMARK  7 active torsions:
REMARK  status: ('A' for Active; 'I' for Inactive)
REMARK    1  A    between atoms: C_6  and  C_10
REMARK    2  A    between atoms: C_14  and  O_18
REMARK    3  A    between atoms: N_17  and  C_21
REMARK    4  A    between atoms: C_21  and  C_24
REMARK    5  A    between atoms: C_24  and  C_27
REMARK    6  A    between atoms: C_27  and  C_28
REMARK    7  A    between atoms: C_27  and  C_29
REMARK                            x       y       z     vdW  Elec       q    Type
REMARK                         _______ _______ _______ _____ _____    ______ ____
ROOT
ATOM      1  C   UNL     1     -10.206  54.349  52.307  0.00  0.00    +0.000 A 
ATOM      2  C   UNL     1      -8.828  54.928  52.305  0.00  0.00    +0.000 A 
ATOM      3  C   UNL     1     -10.461  53.216  52.984  0.00  0.00    +0.000 A 
ATOM      4  O   UNL     1      -8.666  56.043  51.799  0.00  0.00    +0.000 OA
ATOM      5  N   UNL     1      -7.795  54.202  52.883  0.00  0.00    +0.000 N 
ATOM      6  C   UNL     1      -9.387  52.543  53.729  0.00  0.00    +0.000 A 
ATOM      7  C   UNL     1      -8.074  53.046  53.679  0.00  0.00    +0.000 A 
ATOM      8  C   UNL     1      -9.665  51.411  54.515  0.00  0.00    +0.000 A 
ATOM      9  C   UNL     1      -7.085  52.419  54.452  0.00  0.00    +0.000 A 
ATOM     10  C   UNL     1      -8.662  50.789  55.259  0.00  0.00    +0.000 A 
ATOM     11  C   UNL     1      -7.376  51.296  55.225  0.00  0.00    +0.000 A 
ENDROOT
BRANCH   1  17
ATOM     12  S   UNL     1     -12.375  55.961  49.458  0.00  0.00    +0.000 S 
ATOM     13  O   UNL     1     -13.251  55.006  48.803  0.00  0.00    +0.000 OA
ATOM     14  O   UNL     1     -11.665  56.958  48.677  0.00  0.00    +0.000 OA
ATOM     15  N   UNL     1     -11.280  55.123  50.310  0.00  0.00    +0.000 N 
ATOM     16  C   UNL     1     -13.384  56.857  50.579  0.00  0.00    +0.000 A 
ATOM     17  C   UNL     1     -11.320  55.102  51.609  0.00  0.00    +0.000 C 
ATOM     18  C   UNL     1     -13.201  56.634  51.934  0.00  0.00    +0.000 A 
ATOM     19  C   UNL     1     -14.324  57.773  50.099  0.00  0.00    +0.000 A 
ATOM     20  N   UNL     1     -12.272  55.709  52.398  0.00  0.00    +0.000 N 
ATOM     21  C   UNL     1     -14.035  57.307  52.834  0.00  0.00    +0.000 A 
ATOM     22  C   UNL     1     -15.127  58.458  51.009  0.00  0.00    +0.000 A 
ATOM     23  C   UNL     1     -14.987  58.220  52.375  0.00  0.00    +0.000 A 
ATOM     24  H   UNL     1     -10.575  54.624  49.837  0.00  0.00    +0.000 HD
ATOM     25  H   UNL     1     -12.296  55.472  53.353  0.00  0.00    +0.000 HD
ENDBRANCH   1  17
BRANCH   3  26
ATOM     26  O   UNL     1     -11.710  52.630  53.089  0.00  0.00    +0.000 OA
ATOM     27  H   UNL     1     -11.997  52.283  53.911  0.00  0.00    +0.000 HD
ENDBRANCH   3  26
BRANCH   5  28
ATOM     28  C   UNL     1      -6.439  54.755  52.800  0.00  0.00    +0.000 C 
BRANCH  28  29
ATOM     29  C   UNL     1      -5.554  54.197  51.671  0.00  0.00    +0.000 C 
BRANCH  29  30
ATOM     30  C   UNL     1      -4.120  53.790  52.048  0.00  0.00    +0.000 C 
ATOM     31  C   UNL     1      -3.847  53.926  53.543  0.00  0.00    +0.000 C 
ATOM     32  C   UNL     1      -3.897  52.337  51.608  0.00  0.00    +0.000 C 
ENDBRANCH  29  30
ENDBRANCH  28  29
ENDBRANCH   5  28
TORSDOF 5
ENDMDL
MODEL 2
REMARK VINA RESULT:      -7.9      2.604      8.029
REMARK  Name = 298159
REMARK  7 active torsions:
REMARK  status: ('A' for Active; 'I' for Inactive)
REMARK    1  A    between atoms: C_6  and  C_10
REMARK    2  A    between atoms: C_14  and  O_18
REMARK    3  A    between atoms: N_17  and  C_21
REMARK    4  A    between atoms: C_21  and  C_24
REMARK    5  A    between atoms: C_24  and  C_27
REMARK    6  A    between atoms: C_27  and  C_28
REMARK    7  A    between atoms: C_27  and  C_29
REMARK                            x       y       z     vdW  Elec       q    Type
REMARK                         _______ _______ _______ _____ _____    ______ ____
ROOT
ATOM      1  C   UNL     1     -10.036  54.679  50.957  0.00  0.00    +0.000 A 
ATOM      2  C   UNL     1     -11.362  55.228  51.377  0.00  0.00    +0.000 A 
ATOM      3  C   UNL     1      -9.716  54.610  49.654  0.00  0.00    +0.000 A 
ATOM      4  O   UNL     1     -11.560  55.414  52.582  0.00  0.00    +0.000 OA
ATOM      5  N   UNL     1     -12.305  55.521  50.400  0.00  0.00    +0.000 N 
ATOM      6  C   UNL     1     -10.666  55.078  48.634  0.00  0.00    +0.000 A 
ATOM      7  C   UNL     1     -11.940  55.535  49.016  0.00  0.00    +0.000 A 
ATOM      8  C   UNL     1     -10.303  55.095  47.276  0.00  0.00    +0.000 A 
ATOM      9  C   UNL     1     -12.800  56.034  48.026  0.00  0.00    +0.000 A 
ATOM     10  C   UNL     1     -11.181  55.576  46.304  0.00  0.00    +0.000 A 
ATOM     11  C   UNL     1     -12.426  56.044  46.683  0.00  0.00    +0.000 A 
ENDROOT
BRANCH   1  17
ATOM     12  S   UNL     1      -6.741  54.569  53.091  0.00  0.00    +0.000 S 
ATOM     13  O   UNL     1      -6.675  55.625  54.086  0.00  0.00    +0.000 OA
ATOM     14  O   UNL     1      -5.562  54.210  52.325  0.00  0.00    +0.000 OA
ATOM     15  N   UNL     1      -7.918  54.951  52.043  0.00  0.00    +0.000 N 
ATOM     16  C   UNL     1      -7.215  53.117  53.954  0.00  0.00    +0.000 A 
ATOM     17  C   UNL     1      -9.035  54.286  52.024  0.00  0.00    +0.000 C 
ATOM     18  C   UNL     1      -8.487  52.617  53.729  0.00  0.00    +0.000 A 
ATOM     19  C   UNL     1      -6.316  52.491  54.822  0.00  0.00    +0.000 A 
ATOM     20  N   UNL     1      -9.377  53.258  52.873  0.00  0.00    +0.000 N 
ATOM     21  C   UNL     1      -8.892  51.488  54.450  0.00  0.00    +0.000 A 
ATOM     22  C   UNL     1      -6.723  51.349  55.510  0.00  0.00    +0.000 A 
ATOM     23  C   UNL     1      -8.012  50.853  55.329  0.00  0.00    +0.000 A 
ATOM     24  H   UNL     1      -7.784  55.696  51.414  0.00  0.00    +0.000 HD
ATOM     25  H   UNL     1     -10.315  52.957  52.876  0.00  0.00    +0.000 HD
ENDBRANCH   1  17
BRANCH   3  26
ATOM     26  O   UNL     1      -8.499  54.167  49.168  0.00  0.00    +0.000 OA
ATOM     27  H   UNL     1      -7.706  54.383  49.620  0.00  0.00    +0.000 HD
ENDBRANCH   3  26
BRANCH   5  28
ATOM     28  C   UNL     1     -13.626  55.984  50.840  0.00  0.00    +0.000 C 
BRANCH  28  29
ATOM     29  C   UNL     1     -13.724  57.473  51.217  0.00  0.00    +0.000 C 
BRANCH  29  30
ATOM     30  C   UNL     1     -14.505  57.816  52.497  0.00  0.00    +0.000 C 
ATOM     31  C   UNL     1     -14.998  59.260  52.512  0.00  0.00    +0.000 C 
ATOM     32  C   UNL     1     -15.698  56.857  52.608  0.00  0.00    +0.000 C 
ENDBRANCH  29  30
ENDBRANCH  28  29
ENDBRANCH   5  28
TORSDOF 5
ENDMDL
MODEL 3
REMARK VINA RESULT:      -7.9      3.429      5.154
REMARK  Name = 298159
REMARK  7 active torsions:
REMARK  status: ('A' for Active; 'I' for Inactive)
REMARK    1  A    between atoms: C_6  and  C_10
REMARK    2  A    between atoms: C_14  and  O_18
REMARK    3  A    between atoms: N_17  and  C_21
REMARK    4  A    between atoms: C_21  and  C_24
REMARK    5  A    between atoms: C_24  and  C_27
REMARK    6  A    between atoms: C_27  and  C_28
REMARK    7  A    between atoms: C_27  and  C_29
REMARK                            x       y       z     vdW  Elec       q    Type
REMARK                         _______ _______ _______ _____ _____    ______ ____
ROOT
ATOM      1  C   UNL     1     -11.614  55.924  48.752  0.00  0.00    +0.000 A 
ATOM      2  C   UNL     1     -10.593  55.246  49.609  0.00  0.00    +0.000 A 
ATOM      3  C   UNL     1     -11.726  55.600  47.453  0.00  0.00    +0.000 A 
ATOM      4  O   UNL     1     -10.620  55.460  50.826  0.00  0.00    +0.000 OA
ATOM      5  N   UNL     1      -9.674  54.395  49.010  0.00  0.00    +0.000 N 
ATOM      6  C   UNL     1     -10.849  54.574  46.868  0.00  0.00    +0.000 A 
ATOM      7  C   UNL     1      -9.844  53.978  47.652  0.00  0.00    +0.000 A 
ATOM      8  C   UNL     1     -11.022  54.164  45.535  0.00  0.00    +0.000 A 
ATOM      9  C   UNL     1      -9.066  52.959  47.083  0.00  0.00    +0.000 A 
ATOM     10  C   UNL     1     -10.223  53.162  44.983  0.00  0.00    +0.000 A 
ATOM     11  C   UNL     1      -9.248  52.563  45.759  0.00  0.00    +0.000 A 
ENDROOT
BRANCH   1  17
ATOM     12  S   UNL     1     -13.583  59.244  49.467  0.00  0.00    +0.000 S 
ATOM     13  O   UNL     1     -14.729  59.423  48.593  0.00  0.00    +0.000 OA
ATOM     14  O   UNL     1     -12.728  60.372  49.793  0.00  0.00    +0.000 OA
ATOM     15  N   UNL     1     -12.652  58.081  48.829  0.00  0.00    +0.000 N 
ATOM     16  C   UNL     1     -14.223  58.668  50.996  0.00  0.00    +0.000 A 
ATOM     17  C   UNL     1     -12.568  56.912  49.390  0.00  0.00    +0.000 C 
ATOM     18  C   UNL     1     -13.968  57.353  51.349  0.00  0.00    +0.000 A 
ATOM     19  C   UNL     1     -14.948  59.530  51.823  0.00  0.00    +0.000 A 
ATOM     20  N   UNL     1     -13.257  56.502  50.510  0.00  0.00    +0.000 N 
ATOM     21  C   UNL     1     -14.516  56.870  52.542  0.00  0.00    +0.000 A 
ATOM     22  C   UNL     1     -15.462  59.043  53.024  0.00  0.00    +0.000 A 
ATOM     23  C   UNL     1     -15.252  57.712  53.379  0.00  0.00    +0.000 A 
ATOM     24  H   UNL     1     -12.143  58.264  48.006  0.00  0.00    +0.000 HD
ATOM     25  H   UNL     1     -13.245  55.543  50.731  0.00  0.00    +0.000 HD
ENDBRANCH   1  17
BRANCH   3  26
ATOM     26  O   UNL     1     -12.669  56.131  46.591  0.00  0.00    +0.000 OA
ATOM     27  H   UNL     1     -12.812  55.738  45.753  0.00  0.00    +0.000 HD
ENDBRANCH   3  26
BRANCH   5  28
ATOM     28  C   UNL     1      -8.634  53.802  49.860  0.00  0.00    +0.000 C 
BRANCH  28  29
ATOM     29  C   UNL     1      -7.272  54.519  49.853  0.00  0.00    +0.000 C 
BRANCH  29  30
ATOM     30  C   UNL     1      -6.954  55.419  51.058  0.00  0.00    +0.000 C 
ATOM     31  C   UNL     1      -7.512  56.830  50.898  0.00  0.00    +0.000 C 
ATOM     32  C   UNL     1      -7.540  54.767  52.317  0.00  0.00    +0.000 C 
ENDBRANCH  29  30
ENDBRANCH  28  29
ENDBRANCH   5  28
TORSDOF 5
ENDMDL
MODEL 4
REMARK VINA RESULT:      -7.8      2.094      2.923
REMARK  Name = 298159
REMARK  7 active torsions:
REMARK  status: ('A' for Active; 'I' for Inactive)
REMARK    1  A    between atoms: C_6  and  C_10
REMARK    2  A    between atoms: C_14  and  O_18
REMARK    3  A    between atoms: N_17  and  C_21
REMARK    4  A    between atoms: C_21  and  C_24
REMARK    5  A    between atoms: C_24  and  C_27
REMARK    6  A    between atoms: C_27  and  C_28
REMARK    7  A    between atoms: C_27  and  C_29
REMARK                            x       y       z     vdW  Elec       q    Type
REMARK                         _______ _______ _______ _____ _____    ______ ____
ROOT
ATOM      1  C   UNL     1     -11.627  53.971  51.105  0.00  0.00    +0.000 A 
ATOM      2  C   UNL     1     -10.755  53.950  52.319  0.00  0.00    +0.000 A 
ATOM      3  C   UNL     1     -11.703  52.891  50.310  0.00  0.00    +0.000 A 
ATOM      4  O   UNL     1     -10.826  54.902  53.104  0.00  0.00    +0.000 OA
ATOM      5  N   UNL     1      -9.919  52.860  52.525  0.00  0.00    +0.000 N 
ATOM      6  C   UNL     1     -10.932  51.680  50.632  0.00  0.00    +0.000 A 
ATOM      7  C   UNL     1     -10.061  51.675  51.736  0.00  0.00    +0.000 A 
ATOM      8  C   UNL     1     -11.077  50.516  49.858  0.00  0.00    +0.000 A 
ATOM      9  C   UNL     1      -9.388  50.485  52.054  0.00  0.00    +0.000 A 
ATOM     10  C   UNL     1     -10.382  49.349  50.180  0.00  0.00    +0.000 A 
ATOM     11  C   UNL     1      -9.541  49.338  51.278  0.00  0.00    +0.000 A 
ENDROOT
BRANCH   1  17
ATOM     12  S   UNL     1     -13.233  57.041  49.257  0.00  0.00    +0.000 S 
ATOM     13  O   UNL     1     -14.329  56.665  48.382  0.00  0.00    +0.000 OA
ATOM     14  O   UNL     1     -12.268  58.039  48.835  0.00  0.00    +0.000 OA
ATOM     15  N   UNL     1     -12.421  55.691  49.639  0.00  0.00    +0.000 N 
ATOM     16  C   UNL     1     -13.973  57.675  50.716  0.00  0.00    +0.000 A 
ATOM     17  C   UNL     1     -12.482  55.192  50.837  0.00  0.00    +0.000 C 
ATOM     18  C   UNL     1     -13.875  56.918  51.873  0.00  0.00    +0.000 A 
ATOM     19  C   UNL     1     -14.620  58.914  50.694  0.00  0.00    +0.000 A 
ATOM     20  N   UNL     1     -13.241  55.681  51.877  0.00  0.00    +0.000 N 
ATOM     21  C   UNL     1     -14.505  57.392  53.029  0.00  0.00    +0.000 A 
ATOM     22  C   UNL     1     -15.216  59.387  51.862  0.00  0.00    +0.000 A 
ATOM     23  C   UNL     1     -15.165  58.623  53.026  0.00  0.00    +0.000 A 
ATOM     24  H   UNL     1     -11.874  55.244  48.953  0.00  0.00    +0.000 HD
ATOM     25  H   UNL     1     -13.342  55.115  52.677  0.00  0.00    +0.000 HD
ENDBRANCH   1  17
BRANCH   3  26
ATOM     26  O   UNL     1     -12.516  52.793  49.195  0.00  0.00    +0.000 OA
ATOM     27  H   UNL     1     -12.506  52.014  48.674  0.00  0.00    +0.000 HD
ENDBRANCH   3  26
BRANCH   5  28
ATOM     28  C   UNL     1      -9.017  52.898  53.682  0.00  0.00    +0.000 C 
BRANCH  28  29
ATOM     29  C   UNL     1      -7.603  53.443  53.413  0.00  0.00    +0.000 C 
BRANCH  29  30
ATOM     30  C   UNL     1      -7.224  54.762  54.105  0.00  0.00    +0.000 C 
ATOM     31  C   UNL     1      -5.838  54.712  54.742  0.00  0.00    +0.000 C 
ATOM     32  C   UNL     1      -7.278  55.888  53.063  0.00  0.00    +0.000 C 
ENDBRANCH  29  30
ENDBRANCH  28  29
ENDBRANCH   5  28
TORSDOF 5
ENDMDL
MODEL 5
REMARK VINA RESULT:      -7.8      3.216      7.506
REMARK  Name = 298159
REMARK  7 active torsions:
REMARK  status: ('A' for Active; 'I' for Inactive)
REMARK    1  A    between atoms: C_6  and  C_10
REMARK    2  A    between atoms: C_14  and  O_18
REMARK    3  A    between atoms: N_17  and  C_21
REMARK    4  A    between atoms: C_21  and  C_24
REMARK    5  A    between atoms: C_24  and  C_27
REMARK    6  A    between atoms: C_27  and  C_28
REMARK    7  A    between atoms: C_27  and  C_29
REMARK                            x       y       z     vdW  Elec       q    Type
REMARK                         _______ _______ _______ _____ _____    ______ ____
ROOT
ATOM      1  C   UNL     1     -10.192  55.153  50.842  0.00  0.00    +0.000 A 
ATOM      2  C   UNL     1      -9.758  55.077  49.413  0.00  0.00    +0.000 A 
ATOM      3  C   UNL     1     -11.410  55.626  51.153  0.00  0.00    +0.000 A 
ATOM      4  O   UNL     1      -8.697  54.500  49.157  0.00  0.00    +0.000 OA
ATOM      5  N   UNL     1     -10.570  55.639  48.436  0.00  0.00    +0.000 N 
ATOM      6  C   UNL     1     -12.325  56.069  50.090  0.00  0.00    +0.000 A 
ATOM      7  C   UNL     1     -11.901  56.061  48.749  0.00  0.00    +0.000 A 
ATOM      8  C   UNL     1     -13.634  56.477  50.400  0.00  0.00    +0.000 A 
ATOM      9  C   UNL     1     -12.818  56.429  47.753  0.00  0.00    +0.000 A 
ATOM     10  C   UNL     1     -14.523  56.860  49.395  0.00  0.00    +0.000 A 
ATOM     11  C   UNL     1     -14.112  56.833  48.075  0.00  0.00    +0.000 A 
ENDROOT
BRANCH   1  17
ATOM     12  S   UNL     1      -7.017  54.637  53.094  0.00  0.00    +0.000 S 
ATOM     13  O   UNL     1      -6.917  55.614  54.164  0.00  0.00    +0.000 OA
ATOM     14  O   UNL     1      -5.834  54.240  52.352  0.00  0.00    +0.000 OA
ATOM     15  N   UNL     1      -8.112  55.182  52.030  0.00  0.00    +0.000 N 
ATOM     16  C   UNL     1      -7.638  53.171  53.830  0.00  0.00    +0.000 A 
ATOM     17  C   UNL     1      -9.273  54.610  51.917  0.00  0.00    +0.000 C 
ATOM     18  C   UNL     1      -8.933  52.790  53.518  0.00  0.00    +0.000 A 
ATOM     19  C   UNL     1      -6.830  52.418  54.686  0.00  0.00    +0.000 A 
ATOM     20  N   UNL     1      -9.732  53.556  52.676  0.00  0.00    +0.000 N 
ATOM     21  C   UNL     1      -9.454  51.649  54.139  0.00  0.00    +0.000 A 
ATOM     22  C   UNL     1      -7.353  51.268  55.273  0.00  0.00    +0.000 A 
ATOM     23  C   UNL     1      -8.667  50.888  55.005  0.00  0.00    +0.000 A 
ATOM     24  H   UNL     1      -7.893  55.955  51.461  0.00  0.00    +0.000 HD
ATOM     25  H   UNL     1     -10.688  53.330  52.619  0.00  0.00    +0.000 HD
ENDBRANCH   1  17
BRANCH   3  26
ATOM     26  O   UNL     1     -11.923  55.689  52.437  0.00  0.00    +0.000 OA
ATOM     27  H   UNL     1     -12.140  56.519  52.814  0.00  0.00    +0.000 HD
ENDBRANCH   3  26
BRANCH   5  28
ATOM     28  C   UNL     1     -10.086  55.622  47.051  0.00  0.00    +0.000 C 
BRANCH  28  29
ATOM     29  C   UNL     1     -10.074  54.246  46.361  0.00  0.00    +0.000 C 
BRANCH  29  30
ATOM     30  C   UNL     1     -11.416  53.729  45.817  0.00  0.00    +0.000 C 
ATOM     31  C   UNL     1     -11.272  53.041  44.462  0.00  0.00    +0.000 C 
ATOM     32  C   UNL     1     -12.007  52.749  46.839  0.00  0.00    +0.000 C 
ENDBRANCH  29  30
ENDBRANCH  28  29
ENDBRANCH   5  28
TORSDOF 5
ENDMDL
MODEL 6
REMARK VINA RESULT:      -7.7      3.929      5.293
REMARK  Name = 298159
REMARK  7 active torsions:
REMARK  status: ('A' for Active; 'I' for Inactive)
REMARK    1  A    between atoms: C_6  and  C_10
REMARK    2  A    between atoms: C_14  and  O_18
REMARK    3  A    between atoms: N_17  and  C_21
REMARK    4  A    between atoms: C_21  and  C_24
REMARK    5  A    between atoms: C_24  and  C_27
REMARK    6  A    between atoms: C_27  and  C_28
REMARK    7  A    between atoms: C_27  and  C_29
REMARK                            x       y       z     vdW  Elec       q    Type
REMARK                         _______ _______ _______ _____ _____    ______ ____
ROOT
ATOM      1  C   UNL     1     -12.471  54.297  49.927  0.00  0.00    +0.000 A 
ATOM      2  C   UNL     1     -12.163  54.051  48.485  0.00  0.00    +0.000 A 
ATOM      3  C   UNL     1     -11.966  53.488  50.873  0.00  0.00    +0.000 A 
ATOM      4  O   UNL     1     -12.520  54.898  47.660  0.00  0.00    +0.000 OA
ATOM      5  N   UNL     1     -11.478  52.895  48.135  0.00  0.00    +0.000 N 
ATOM      6  C   UNL     1     -11.104  52.357  50.495  0.00  0.00    +0.000 A 
ATOM      7  C   UNL     1     -10.863  52.081  49.137  0.00  0.00    +0.000 A 
ATOM      8  C   UNL     1     -10.497  51.563  51.483  0.00  0.00    +0.000 A 
ATOM      9  C   UNL     1      -9.986  51.035  48.811  0.00  0.00    +0.000 A 
ATOM     10  C   UNL     1      -9.645  50.513  51.136  0.00  0.00    +0.000 A 
ATOM     11  C   UNL     1      -9.392  50.254  49.802  0.00  0.00    +0.000 A 
ENDROOT
BRANCH   1  17
ATOM     12  S   UNL     1     -15.402  56.520  51.301  0.00  0.00    +0.000 S 
ATOM     13  O   UNL     1     -15.359  56.686  52.743  0.00  0.00    +0.000 OA
ATOM     14  O   UNL     1     -16.669  56.297  50.628  0.00  0.00    +0.000 OA
ATOM     15  N   UNL     1     -14.411  55.296  50.916  0.00  0.00    +0.000 N 
ATOM     16  C   UNL     1     -14.749  57.999  50.622  0.00  0.00    +0.000 A 
ATOM     17  C   UNL     1     -13.285  55.517  50.305  0.00  0.00    +0.000 C 
ATOM     18  C   UNL     1     -13.506  57.938  50.012  0.00  0.00    +0.000 A 
ATOM     19  C   UNL     1     -15.483  59.187  50.689  0.00  0.00    +0.000 A 
ATOM     20  N   UNL     1     -12.780  56.753  49.965  0.00  0.00    +0.000 N 
ATOM     21  C   UNL     1     -12.956  59.122  49.512  0.00  0.00    +0.000 A 
ATOM     22  C   UNL     1     -14.934  60.353  50.158  0.00  0.00    +0.000 A 
ATOM     23  C   UNL     1     -13.669  60.322  49.577  0.00  0.00    +0.000 A 
ATOM     24  H   UNL     1     -14.666  54.374  51.147  0.00  0.00    +0.000 HD
ATOM     25  H   UNL     1     -11.842  56.800  49.670  0.00  0.00    +0.000 HD
ENDBRANCH   1  17
BRANCH   3  26
ATOM     26  O   UNL     1     -12.150  53.661  52.233  0.00  0.00    +0.000 OA
ATOM     27  H   UNL     1     -12.735  53.099  52.702  0.00  0.00    +0.000 HD
ENDBRANCH   3  26
BRANCH   5  28
ATOM     28  C   UNL     1     -11.256  52.636  46.707  0.00  0.00    +0.000 C 
BRANCH  28  29
ATOM     29  C   UNL     1     -10.202  53.522  46.020  0.00  0.00    +0.000 C 
BRANCH  29  30
ATOM     30  C   UNL     1      -9.424  52.897  44.850  0.00  0.00    +0.000 C 
ATOM     31  C   UNL     1     -10.305  52.645  43.629  0.00  0.00    +0.000 C 
ATOM     32  C   UNL     1      -8.272  53.839  44.476  0.00  0.00    +0.000 C 
ENDBRANCH  29  30
ENDBRANCH  28  29
ENDBRANCH   5  28
TORSDOF 5
ENDMDL
MODEL 7
REMARK VINA RESULT:      -7.7      1.595      2.292
REMARK  Name = 298159
REMARK  7 active torsions:
REMARK  status: ('A' for Active; 'I' for Inactive)
REMARK    1  A    between atoms: C_6  and  C_10
REMARK    2  A    between atoms: C_14  and  O_18
REMARK    3  A    between atoms: N_17  and  C_21
REMARK    4  A    between atoms: C_21  and  C_24
REMARK    5  A    between atoms: C_24  and  C_27
REMARK    6  A    between atoms: C_27  and  C_28
REMARK    7  A    between atoms: C_27  and  C_29
REMARK                            x       y       z     vdW  Elec       q    Type
REMARK                         _______ _______ _______ _____ _____    ______ ____
ROOT
ATOM      1  C   UNL     1     -10.207  54.631  51.991  0.00  0.00    +0.000 A 
ATOM      2  C   UNL     1      -8.811  55.163  51.939  0.00  0.00    +0.000 A 
ATOM      3  C   UNL     1     -10.481  53.522  52.700  0.00  0.00    +0.000 A 
ATOM      4  O   UNL     1      -8.626  56.261  51.405  0.00  0.00    +0.000 OA
ATOM      5  N   UNL     1      -7.787  54.414  52.505  0.00  0.00    +0.000 N 
ATOM      6  C   UNL     1      -9.409  52.829  53.430  0.00  0.00    +0.000 A 
ATOM      7  C   UNL     1      -8.083  53.286  53.334  0.00  0.00    +0.000 A 
ATOM      8  C   UNL     1      -9.703  51.723  54.248  0.00  0.00    +0.000 A 
ATOM      9  C   UNL     1      -7.094  52.641  54.093  0.00  0.00    +0.000 A 
ATOM     10  C   UNL     1      -8.701  51.084  54.978  0.00  0.00    +0.000 A 
ATOM     11  C   UNL     1      -7.400  51.546  54.899  0.00  0.00    +0.000 A 
ENDROOT
BRANCH   1  17
ATOM     12  S   UNL     1     -13.597  56.526  51.414  0.00  0.00    +0.000 S 
ATOM     13  O   UNL     1     -13.564  57.901  51.880  0.00  0.00    +0.000 OA
ATOM     14  O   UNL     1     -14.772  55.703  51.641  0.00  0.00    +0.000 OA
ATOM     15  N   UNL     1     -12.320  55.757  52.051  0.00  0.00    +0.000 N 
ATOM     16  C   UNL     1     -13.390  56.597  49.673  0.00  0.00    +0.000 A 
ATOM     17  C   UNL     1     -11.314  55.407  51.308  0.00  0.00    +0.000 C 
ATOM     18  C   UNL     1     -12.194  56.140  49.145  0.00  0.00    +0.000 A 
ATOM     19  C   UNL     1     -14.419  57.087  48.863  0.00  0.00    +0.000 A 
ATOM     20  N   UNL     1     -11.173  55.668  49.963  0.00  0.00    +0.000 N 
ATOM     21  C   UNL     1     -12.000  56.240  47.763  0.00  0.00    +0.000 A 
ATOM     22  C   UNL     1     -14.223  57.151  47.485  0.00  0.00    +0.000 A 
ATOM     23  C   UNL     1     -13.012  56.735  46.936  0.00  0.00    +0.000 A 
ATOM     24  H   UNL     1     -12.308  55.554  53.015  0.00  0.00    +0.000 HD
ATOM     25  H   UNL     1     -10.292  55.512  49.554  0.00  0.00    +0.000 HD
ENDBRANCH   1  17
BRANCH   3  26
ATOM     26  O   UNL     1     -11.745  52.981  52.851  0.00  0.00    +0.000 OA
ATOM     27  H   UNL     1     -12.121  52.469  52.162  0.00  0.00    +0.000 HD
ENDBRANCH   3  26
BRANCH   5  28
ATOM     28  C   UNL     1      -6.416  54.919  52.373  0.00  0.00    +0.000 C 
BRANCH  28  29
ATOM     29  C   UNL     1      -5.592  54.330  51.215  0.00  0.00    +0.000 C 
BRANCH  29  30
ATOM     30  C   UNL     1      -4.194  53.790  51.560  0.00  0.00    +0.000 C 
ATOM     31  C   UNL     1      -3.847  53.967  53.036  0.00  0.00    +0.000 C 
ATOM     32  C   UNL     1      -4.144  52.302  51.188  0.00  0.00    +0.000 C 
ENDBRANCH  29  30
ENDBRANCH  28  29
ENDBRANCH   5  28
TORSDOF 5
ENDMDL
MODEL 8
REMARK VINA RESULT:      -7.6      3.565      5.056
REMARK  Name = 298159
REMARK  7 active torsions:
REMARK  status: ('A' for Active; 'I' for Inactive)
REMARK    1  A    between atoms: C_6  and  C_10
REMARK    2  A    between atoms: C_14  and  O_18
REMARK    3  A    between atoms: N_17  and  C_21
REMARK    4  A    between atoms: C_21  and  C_24
REMARK    5  A    between atoms: C_24  and  C_27
REMARK    6  A    between atoms: C_27  and  C_28
REMARK    7  A    between atoms: C_27  and  C_29
REMARK                            x       y       z     vdW  Elec       q    Type
REMARK                         _______ _______ _______ _____ _____    ______ ____
ROOT
ATOM      1  C   UNL     1     -10.842  55.609  48.836  0.00  0.00    +0.000 A 
ATOM      2  C   UNL     1      -9.594  55.161  49.525  0.00  0.00    +0.000 A 
ATOM      3  C   UNL     1     -11.062  55.276  47.553  0.00  0.00    +0.000 A 
ATOM      4  O   UNL     1      -9.497  55.358  50.741  0.00  0.00    +0.000 OA
ATOM      5  N   UNL     1      -8.607  54.530  48.779  0.00  0.00    +0.000 N 
ATOM      6  C   UNL     1     -10.077  54.465  46.821  0.00  0.00    +0.000 A 
ATOM      7  C   UNL     1      -8.871  54.094  47.442  0.00  0.00    +0.000 A 
ATOM      8  C   UNL     1     -10.341  54.034  45.509  0.00  0.00    +0.000 A 
ATOM      9  C   UNL     1      -7.980  53.267  46.740  0.00  0.00    +0.000 A 
ATOM     10  C   UNL     1      -9.432  53.230  44.821  0.00  0.00    +0.000 A 
ATOM     11  C   UNL     1      -8.256  52.849  45.439  0.00  0.00    +0.000 A 
ENDROOT
BRANCH   1  17
ATOM     12  S   UNL     1     -13.613  56.414  51.499  0.00  0.00    +0.000 S 
ATOM     13  O   UNL     1     -13.066  56.740  52.805  0.00  0.00    +0.000 OA
ATOM     14  O   UNL     1     -14.791  55.573  51.389  0.00  0.00    +0.000 OA
ATOM     15  N   UNL     1     -12.430  55.732  50.625  0.00  0.00    +0.000 N 
ATOM     16  C   UNL     1     -14.042  57.944  50.756  0.00  0.00    +0.000 A 
ATOM     17  C   UNL     1     -11.887  56.366  49.629  0.00  0.00    +0.000 C 
ATOM     18  C   UNL     1     -13.277  58.380  49.686  0.00  0.00    +0.000 A 
ATOM     19  C   UNL     1     -15.135  58.674  51.232  0.00  0.00    +0.000 A 
ATOM     20  N   UNL     1     -12.184  57.651  49.232  0.00  0.00    +0.000 N 
ATOM     21  C   UNL     1     -13.581  59.622  49.119  0.00  0.00    +0.000 A 
ATOM     22  C   UNL     1     -15.444  59.895  50.636  0.00  0.00    +0.000 A 
ATOM     23  C   UNL     1     -14.663  60.372  49.586  0.00  0.00    +0.000 A 
ATOM     24  H   UNL     1     -12.120  54.825  50.852  0.00  0.00    +0.000 HD
ATOM     25  H   UNL     1     -11.582  58.082  48.583  0.00  0.00    +0.000 HD
ENDBRANCH   1  17
BRANCH   3  26
ATOM     26  O   UNL     1     -12.205  55.598  46.843  0.00  0.00    +0.000 OA
ATOM     27  H   UNL     1     -12.435  56.496  46.707  0.00  0.00    +0.000 HD
ENDBRANCH   3  26
BRANCH   5  28
ATOM     28  C   UNL     1      -7.358  54.169  49.462  0.00  0.00    +0.000 C 
BRANCH  28  29
ATOM     29  C   UNL     1      -6.201  55.174  49.320  0.00  0.00    +0.000 C 
BRANCH  29  30
ATOM     30  C   UNL     1      -4.775  54.613  49.445  0.00  0.00    +0.000 C 
ATOM     31  C   UNL     1      -4.540  53.902  50.774  0.00  0.00    +0.000 C 
ATOM     32  C   UNL     1      -4.534  53.639  48.283  0.00  0.00    +0.000 C 
ENDBRANCH  29  30
ENDBRANCH  28  29
ENDBRANCH   5  28
TORSDOF 5
ENDMDL
MODEL 9
REMARK VINA RESULT:      -7.5      2.398      2.952
REMARK  Name = 298159
REMARK  7 active torsions:
REMARK  status: ('A' for Active; 'I' for Inactive)
REMARK    1  A    between atoms: C_6  and  C_10
REMARK    2  A    between atoms: C_14  and  O_18
REMARK    3  A    between atoms: N_17  and  C_21
REMARK    4  A    between atoms: C_21  and  C_24
REMARK    5  A    between atoms: C_24  and  C_27
REMARK    6  A    between atoms: C_27  and  C_28
REMARK    7  A    between atoms: C_27  and  C_29
REMARK                            x       y       z     vdW  Elec       q    Type
REMARK                         _______ _______ _______ _____ _____    ______ ____
ROOT
ATOM      1  C   UNL     1     -10.971  54.804  50.959  0.00  0.00    +0.000 A 
ATOM      2  C   UNL     1      -9.618  55.243  50.498  0.00  0.00    +0.000 A 
ATOM      3  C   UNL     1     -11.129  53.604  51.542  0.00  0.00    +0.000 A 
ATOM      4  O   UNL     1      -9.485  56.406  50.106  0.00  0.00    +0.000 OA
ATOM      5  N   UNL     1      -8.567  54.336  50.547  0.00  0.00    +0.000 N 
ATOM      6  C   UNL     1      -9.971  52.717  51.734  0.00  0.00    +0.000 A 
ATOM      7  C   UNL     1      -8.707  53.095  51.246  0.00  0.00    +0.000 A 
ATOM      8  C   UNL     1     -10.111  51.501  52.426  0.00  0.00    +0.000 A 
ATOM      9  C   UNL     1      -7.611  52.257  51.500  0.00  0.00    +0.000 A 
ATOM     10  C   UNL     1      -9.012  50.672  52.649  0.00  0.00    +0.000 A 
ATOM     11  C   UNL     1      -7.765  51.054  52.187  0.00  0.00    +0.000 A 
ENDROOT
BRANCH   1  17
ATOM     12  S   UNL     1     -13.596  57.267  49.391  0.00  0.00    +0.000 S 
ATOM     13  O   UNL     1     -14.706  56.581  48.754  0.00  0.00    +0.000 OA
ATOM     14  O   UNL     1     -13.000  58.434  48.765  0.00  0.00    +0.000 OA
ATOM     15  N   UNL     1     -12.420  56.179  49.637  0.00  0.00    +0.000 N 
ATOM     16  C   UNL     1     -14.188  57.808  50.951  0.00  0.00    +0.000 A 
ATOM     17  C   UNL     1     -12.135  55.765  50.836  0.00  0.00    +0.000 C 
ATOM     18  C   UNL     1     -13.696  57.179  52.083  0.00  0.00    +0.000 A 
ATOM     19  C   UNL     1     -15.113  58.853  51.027  0.00  0.00    +0.000 A 
ATOM     20  N   UNL     1     -12.787  56.131  51.992  0.00  0.00    +0.000 N 
ATOM     21  C   UNL     1     -14.200  57.569  53.328  0.00  0.00    +0.000 A 
ATOM     22  C   UNL     1     -15.583  59.252  52.277  0.00  0.00    +0.000 A 
ATOM     23  C   UNL     1     -15.132  58.605  53.426  0.00  0.00    +0.000 A 
ATOM     24  H   UNL     1     -11.914  55.828  48.868  0.00  0.00    +0.000 HD
ATOM     25  H   UNL     1     -12.597  55.615  52.809  0.00  0.00    +0.000 HD
ENDBRANCH   1  17
BRANCH   3  26
ATOM     26  O   UNL     1     -12.326  53.129  52.047  0.00  0.00    +0.000 OA
ATOM     27  H   UNL     1     -13.066  53.700  52.113  0.00  0.00    +0.000 HD
ENDBRANCH   3  26
BRANCH   5  28
ATOM     28  C   UNL     1      -7.268  54.764  50.017  0.00  0.00    +0.000 C 
BRANCH  28  29
ATOM     29  C   UNL     1      -6.991  54.408  48.545  0.00  0.00    +0.000 C 
BRANCH  29  30
ATOM     30  C   UNL     1      -8.207  54.035  47.681  0.00  0.00    +0.000 C 
ATOM     31  C   UNL     1      -8.701  55.203  46.831  0.00  0.00    +0.000 C 
ATOM     32  C   UNL     1      -7.814  52.861  46.774  0.00  0.00    +0.000 C 
ENDBRANCH  29  30
ENDBRANCH  28  29
ENDBRANCH   5  28
TORSDOF 5
ENDMDL
