MODEL 1
REMARK VINA RESULT:      -8.2      0.000      0.000
REMARK  Name = 338222
REMARK  7 active torsions:
REMARK  status: ('A' for Active; 'I' for Inactive)
REMARK    1  A    between atoms: C_6  and  C_10
REMARK    2  A    between atoms: C_14  and  O_18
REMARK    3  A    between atoms: N_17  and  C_21
REMARK    4  A    between atoms: C_21  and  C_24
REMARK    5  A    between atoms: C_24  and  C_28
REMARK    6  A    between atoms: C_28  and  C_29
REMARK    7  A    between atoms: C_28  and  C_30
REMARK                            x       y       z     vdW  Elec       q    Type
REMARK                         _______ _______ _______ _____ _____    ______ ____
ROOT
ATOM      1  C   UNL     1     -11.247  56.115  48.772  0.00  0.00    +0.000 A 
ATOM      2  C   UNL     1     -10.059  55.715  49.586  0.00  0.00    +0.000 A 
ATOM      3  C   UNL     1     -11.415  55.617  47.534  0.00  0.00    +0.000 A 
ATOM      4  O   UNL     1      -9.999  56.102  50.757  0.00  0.00    +0.000 OA
ATOM      5  N   UNL     1      -9.092  54.907  49.004  0.00  0.00    +0.000 N 
ATOM      6  C   UNL     1     -10.446  54.662  46.969  0.00  0.00    +0.000 A 
ATOM      7  C   UNL     1      -9.312  54.301  47.724  0.00  0.00    +0.000 A 
ATOM      8  C   UNL     1     -10.623  54.072  45.701  0.00  0.00    +0.000 A 
ATOM      9  C   UNL     1      -8.436  53.326  47.210  0.00  0.00    +0.000 A 
ATOM     10  F   UNL     1     -11.675  54.378  44.927  0.00  0.00    +0.000 F 
ATOM     11  C   UNL     1      -9.725  53.140  45.193  0.00  0.00    +0.000 A 
ATOM     12  C   UNL     1      -8.631  52.758  45.952  0.00  0.00    +0.000 A 
ENDROOT
BRANCH   1  18
ATOM     13  S   UNL     1     -13.522  59.254  49.431  0.00  0.00    +0.000 S 
ATOM     14  O   UNL     1     -14.663  59.320  48.539  0.00  0.00    +0.000 OA
ATOM     15  O   UNL     1     -12.777  60.455  49.757  0.00  0.00    +0.000 OA
ATOM     16  N   UNL     1     -12.481  58.171  48.822  0.00  0.00    +0.000 N 
ATOM     17  C   UNL     1     -14.132  58.638  50.958  0.00  0.00    +0.000 A 
ATOM     18  C   UNL     1     -12.294  57.021  49.398  0.00  0.00    +0.000 C 
ATOM     19  C   UNL     1     -13.760  57.358  51.332  0.00  0.00    +0.000 A 
ATOM     20  C   UNL     1     -14.950  59.439  51.760  0.00  0.00    +0.000 A 
ATOM     21  N   UNL     1     -12.952  56.567  50.520  0.00  0.00    +0.000 N 
ATOM     22  C   UNL     1     -14.287  56.840  52.521  0.00  0.00    +0.000 A 
ATOM     23  C   UNL     1     -15.438  58.923  52.957  0.00  0.00    +0.000 A 
ATOM     24  C   UNL     1     -15.113  57.620  53.334  0.00  0.00    +0.000 A 
ATOM     25  H   UNL     1     -11.981  58.390  48.002  0.00  0.00    +0.000 HD
ATOM     26  H   UNL     1     -12.845  55.619  50.762  0.00  0.00    +0.000 HD
ENDBRANCH   1  18
BRANCH   3  27
ATOM     27  O   UNL     1     -12.507  55.899  46.735  0.00  0.00    +0.000 OA
ATOM     28  H   UNL     1     -12.410  55.931  45.803  0.00  0.00    +0.000 HD
ENDBRANCH   3  27
BRANCH   5  29
ATOM     29  C   UNL     1      -7.908  54.580  49.811  0.00  0.00    +0.000 C 
BRANCH  29  30
ATOM     30  C   UNL     1      -6.723  55.557  49.712  0.00  0.00    +0.000 C 
BRANCH  30  31
ATOM     31  C   UNL     1      -5.312  54.947  49.763  0.00  0.00    +0.000 C 
ATOM     32  C   UNL     1      -5.043  54.201  51.067  0.00  0.00    +0.000 C 
ATOM     33  C   UNL     1      -5.152  53.987  48.576  0.00  0.00    +0.000 C 
ENDBRANCH  30  31
ENDBRANCH  29  30
ENDBRANCH   5  29
TORSDOF 5
ENDMDL
MODEL 2
REMARK VINA RESULT:      -8.1      3.698      6.789
REMARK  Name = 338222
REMARK  7 active torsions:
REMARK  status: ('A' for Active; 'I' for Inactive)
REMARK    1  A    between atoms: C_6  and  C_10
REMARK    2  A    between atoms: C_14  and  O_18
REMARK    3  A    between atoms: N_17  and  C_21
REMARK    4  A    between atoms: C_21  and  C_24
REMARK    5  A    between atoms: C_24  and  C_28
REMARK    6  A    between atoms: C_28  and  C_29
REMARK    7  A    between atoms: C_28  and  C_30
REMARK                            x       y       z     vdW  Elec       q    Type
REMARK                         _______ _______ _______ _____ _____    ______ ____
ROOT
ATOM      1  C   UNL     1     -10.258  55.207  50.910  0.00  0.00    +0.000 A 
ATOM      2  C   UNL     1      -9.865  55.147  49.470  0.00  0.00    +0.000 A 
ATOM      3  C   UNL     1     -11.465  55.684  51.261  0.00  0.00    +0.000 A 
ATOM      4  O   UNL     1      -8.798  54.598  49.180  0.00  0.00    +0.000 OA
ATOM      5  N   UNL     1     -10.725  55.682  48.521  0.00  0.00    +0.000 N 
ATOM      6  C   UNL     1     -12.423  56.137  50.237  0.00  0.00    +0.000 A 
ATOM      7  C   UNL     1     -12.047  56.104  48.879  0.00  0.00    +0.000 A 
ATOM      8  C   UNL     1     -13.719  56.582  50.563  0.00  0.00    +0.000 A 
ATOM      9  C   UNL     1     -12.997  56.460  47.903  0.00  0.00    +0.000 A 
ATOM     10  F   UNL     1     -14.137  56.648  51.837  0.00  0.00    +0.000 F 
ATOM     11  C   UNL     1     -14.630  56.969  49.587  0.00  0.00    +0.000 A 
ATOM     12  C   UNL     1     -14.273  56.900  48.251  0.00  0.00    +0.000 A 
ENDROOT
BRANCH   1  18
ATOM     13  S   UNL     1      -7.017  54.675  53.073  0.00  0.00    +0.000 S 
ATOM     14  O   UNL     1      -6.888  55.644  54.144  0.00  0.00    +0.000 OA
ATOM     15  O   UNL     1      -5.855  54.284  52.296  0.00  0.00    +0.000 OA
ATOM     16  N   UNL     1      -8.144  55.221  52.044  0.00  0.00    +0.000 N 
ATOM     17  C   UNL     1      -7.614  53.202  53.818  0.00  0.00    +0.000 A 
ATOM     18  C   UNL     1      -9.306  54.646  51.954  0.00  0.00    +0.000 C 
ATOM     19  C   UNL     1      -8.913  52.817  53.536  0.00  0.00    +0.000 A 
ATOM     20  C   UNL     1      -6.781  52.451  54.652  0.00  0.00    +0.000 A 
ATOM     21  N   UNL     1      -9.737  53.579  52.712  0.00  0.00    +0.000 N 
ATOM     22  C   UNL     1      -9.414  51.674  54.170  0.00  0.00    +0.000 A 
ATOM     23  C   UNL     1      -7.281  51.296  55.248  0.00  0.00    +0.000 A 
ATOM     24  C   UNL     1      -8.601  50.912  55.013  0.00  0.00    +0.000 A 
ATOM     25  H   UNL     1      -7.943  56.001  51.478  0.00  0.00    +0.000 HD
ATOM     26  H   UNL     1     -10.690  53.340  52.667  0.00  0.00    +0.000 HD
ENDBRANCH   1  18
BRANCH   3  27
ATOM     27  O   UNL     1     -11.922  55.731  52.565  0.00  0.00    +0.000 OA
ATOM     28  H   UNL     1     -11.328  55.587  53.275  0.00  0.00    +0.000 HD
ENDBRANCH   3  27
BRANCH   5  29
ATOM     29  C   UNL     1     -10.284  55.660  47.118  0.00  0.00    +0.000 C 
BRANCH  29  30
ATOM     30  C   UNL     1     -10.608  54.384  46.321  0.00  0.00    +0.000 C 
BRANCH  30  31
ATOM     31  C   UNL     1      -9.415  53.609  45.735  0.00  0.00    +0.000 C 
ATOM     32  C   UNL     1      -9.722  53.009  44.365  0.00  0.00    +0.000 C 
ATOM     33  C   UNL     1      -8.219  54.565  45.624  0.00  0.00    +0.000 C 
ENDBRANCH  30  31
ENDBRANCH  29  30
ENDBRANCH   5  29
TORSDOF 5
ENDMDL
MODEL 3
REMARK VINA RESULT:      -8.1      3.381      7.275
REMARK  Name = 338222
REMARK  7 active torsions:
REMARK  status: ('A' for Active; 'I' for Inactive)
REMARK    1  A    between atoms: C_6  and  C_10
REMARK    2  A    between atoms: C_14  and  O_18
REMARK    3  A    between atoms: N_17  and  C_21
REMARK    4  A    between atoms: C_21  and  C_24
REMARK    5  A    between atoms: C_24  and  C_28
REMARK    6  A    between atoms: C_28  and  C_29
REMARK    7  A    between atoms: C_28  and  C_30
REMARK                            x       y       z     vdW  Elec       q    Type
REMARK                         _______ _______ _______ _____ _____    ______ ____
ROOT
ATOM      1  C   UNL     1     -10.302  55.025  51.056  0.00  0.00    +0.000 A 
ATOM      2  C   UNL     1     -11.595  55.477  51.652  0.00  0.00    +0.000 A 
ATOM      3  C   UNL     1     -10.127  55.051  49.723  0.00  0.00    +0.000 A 
ATOM      4  O   UNL     1     -11.676  55.546  52.882  0.00  0.00    +0.000 OA
ATOM      5  N   UNL     1     -12.636  55.825  50.802  0.00  0.00    +0.000 N 
ATOM      6  C   UNL     1     -11.196  55.540  48.833  0.00  0.00    +0.000 A 
ATOM      7  C   UNL     1     -12.425  55.944  49.390  0.00  0.00    +0.000 A 
ATOM      8  C   UNL     1     -11.026  55.641  47.438  0.00  0.00    +0.000 A 
ATOM      9  C   UNL     1     -13.409  56.486  48.541  0.00  0.00    +0.000 A 
ATOM     10  F   UNL     1      -9.884  55.263  46.842  0.00  0.00    +0.000 F 
ATOM     11  C   UNL     1     -12.024  56.141  46.610  0.00  0.00    +0.000 A 
ATOM     12  C   UNL     1     -13.218  56.574  47.163  0.00  0.00    +0.000 A 
ENDROOT
BRANCH   1  18
ATOM     13  S   UNL     1      -6.769  54.929  52.781  0.00  0.00    +0.000 S 
ATOM     14  O   UNL     1      -6.603  55.962  53.784  0.00  0.00    +0.000 OA
ATOM     15  O   UNL     1      -5.684  54.611  51.871  0.00  0.00    +0.000 OA
ATOM     16  N   UNL     1      -8.071  55.306  51.892  0.00  0.00    +0.000 N 
ATOM     17  C   UNL     1      -7.107  53.447  53.658  0.00  0.00    +0.000 A 
ATOM     18  C   UNL     1      -9.169  54.617  51.983  0.00  0.00    +0.000 C 
ATOM     19  C   UNL     1      -8.386  52.922  53.569  0.00  0.00    +0.000 A 
ATOM     20  C   UNL     1      -6.099  52.826  54.401  0.00  0.00    +0.000 A 
ATOM     21  N   UNL     1      -9.384  53.554  52.834  0.00  0.00    +0.000 N 
ATOM     22  C   UNL     1      -8.678  51.771  54.311  0.00  0.00    +0.000 A 
ATOM     23  C   UNL     1      -6.395  51.662  55.105  0.00  0.00    +0.000 A 
ATOM     24  C   UNL     1      -7.688  51.139  55.067  0.00  0.00    +0.000 A 
ATOM     25  H   UNL     1      -8.028  56.070  51.273  0.00  0.00    +0.000 HD
ATOM     26  H   UNL     1     -10.305  53.221  52.929  0.00  0.00    +0.000 HD
ENDBRANCH   1  18
BRANCH   3  27
ATOM     27  O   UNL     1      -8.949  54.694  49.095  0.00  0.00    +0.000 OA
ATOM     28  H   UNL     1      -8.904  54.673  48.159  0.00  0.00    +0.000 HD
ENDBRANCH   3  27
BRANCH   5  29
ATOM     29  C   UNL     1     -13.914  56.210  51.419  0.00  0.00    +0.000 C 
BRANCH  29  30
ATOM     30  C   UNL     1     -13.928  57.546  52.183  0.00  0.00    +0.000 C 
BRANCH  30  31
ATOM     31  C   UNL     1     -15.078  58.517  51.864  0.00  0.00    +0.000 C 
ATOM     32  C   UNL     1     -15.477  59.368  53.066  0.00  0.00    +0.000 C 
ATOM     33  C   UNL     1     -14.641  59.428  50.708  0.00  0.00    +0.000 C 
ENDBRANCH  30  31
ENDBRANCH  29  30
ENDBRANCH   5  29
TORSDOF 5
ENDMDL
MODEL 4
REMARK VINA RESULT:      -8.1      3.365      3.841
REMARK  Name = 338222
REMARK  7 active torsions:
REMARK  status: ('A' for Active; 'I' for Inactive)
REMARK    1  A    between atoms: C_6  and  C_10
REMARK    2  A    between atoms: C_14  and  O_18
REMARK    3  A    between atoms: N_17  and  C_21
REMARK    4  A    between atoms: C_21  and  C_24
REMARK    5  A    between atoms: C_24  and  C_28
REMARK    6  A    between atoms: C_28  and  C_29
REMARK    7  A    between atoms: C_28  and  C_30
REMARK                            x       y       z     vdW  Elec       q    Type
REMARK                         _______ _______ _______ _____ _____    ______ ____
ROOT
ATOM      1  C   UNL     1     -11.566  54.071  51.162  0.00  0.00    +0.000 A 
ATOM      2  C   UNL     1     -10.629  54.107  52.326  0.00  0.00    +0.000 A 
ATOM      3  C   UNL     1     -11.668  52.959  50.412  0.00  0.00    +0.000 A 
ATOM      4  O   UNL     1     -10.647  55.101  53.057  0.00  0.00    +0.000 OA
ATOM      5  N   UNL     1      -9.803  53.015  52.551  0.00  0.00    +0.000 N 
ATOM      6  C   UNL     1     -10.875  51.759  50.733  0.00  0.00    +0.000 A 
ATOM      7  C   UNL     1      -9.973  51.797  51.815  0.00  0.00    +0.000 A 
ATOM      8  C   UNL     1     -11.003  50.557  50.009  0.00  0.00    +0.000 A 
ATOM      9  C   UNL     1      -9.283  50.622  52.165  0.00  0.00    +0.000 A 
ATOM     10  F   UNL     1     -11.836  50.456  48.962  0.00  0.00    +0.000 F 
ATOM     11  C   UNL     1     -10.282  49.417  50.344  0.00  0.00    +0.000 A 
ATOM     12  C   UNL     1      -9.424  49.445  51.431  0.00  0.00    +0.000 A 
ENDROOT
BRANCH   1  18
ATOM     13  S   UNL     1     -13.285  57.075  49.294  0.00  0.00    +0.000 S 
ATOM     14  O   UNL     1     -14.384  56.656  48.447  0.00  0.00    +0.000 OA
ATOM     15  O   UNL     1     -12.351  58.087  48.837  0.00  0.00    +0.000 OA
ATOM     16  N   UNL     1     -12.433  55.753  49.688  0.00  0.00    +0.000 N 
ATOM     17  C   UNL     1     -14.013  57.720  50.756  0.00  0.00    +0.000 A 
ATOM     18  C   UNL     1     -12.453  55.276  50.897  0.00  0.00    +0.000 C 
ATOM     19  C   UNL     1     -13.869  56.991  51.924  0.00  0.00    +0.000 A 
ATOM     20  C   UNL     1     -14.695  58.939  50.719  0.00  0.00    +0.000 A 
ATOM     21  N   UNL     1     -13.196  55.773  51.945  0.00  0.00    +0.000 N 
ATOM     22  C   UNL     1     -14.494  57.471  53.081  0.00  0.00    +0.000 A 
ATOM     23  C   UNL     1     -15.281  59.422  51.886  0.00  0.00    +0.000 A 
ATOM     24  C   UNL     1     -15.188  58.684  53.065  0.00  0.00    +0.000 A 
ATOM     25  H   UNL     1     -11.891  55.304  48.999  0.00  0.00    +0.000 HD
ATOM     26  H   UNL     1     -13.254  55.229  52.764  0.00  0.00    +0.000 HD
ENDBRANCH   1  18
BRANCH   3  27
ATOM     27  O   UNL     1     -12.541  52.828  49.349  0.00  0.00    +0.000 OA
ATOM     28  H   UNL     1     -12.225  52.536  48.516  0.00  0.00    +0.000 HD
ENDBRANCH   3  27
BRANCH   5  29
ATOM     29  C   UNL     1      -8.851  53.105  53.669  0.00  0.00    +0.000 C 
BRANCH  29  30
ATOM     30  C   UNL     1      -7.464  53.684  53.339  0.00  0.00    +0.000 C 
BRANCH  30  31
ATOM     31  C   UNL     1      -6.950  54.817  54.244  0.00  0.00    +0.000 C 
ATOM     32  C   UNL     1      -5.496  54.618  54.664  0.00  0.00    +0.000 C 
ATOM     33  C   UNL     1      -7.093  56.146  53.490  0.00  0.00    +0.000 C 
ENDBRANCH  30  31
ENDBRANCH  29  30
ENDBRANCH   5  29
TORSDOF 5
ENDMDL
MODEL 5
REMARK VINA RESULT:      -8.1      3.433      4.834
REMARK  Name = 338222
REMARK  7 active torsions:
REMARK  status: ('A' for Active; 'I' for Inactive)
REMARK    1  A    between atoms: C_6  and  C_10
REMARK    2  A    between atoms: C_14  and  O_18
REMARK    3  A    between atoms: N_17  and  C_21
REMARK    4  A    between atoms: C_21  and  C_24
REMARK    5  A    between atoms: C_24  and  C_28
REMARK    6  A    between atoms: C_28  and  C_29
REMARK    7  A    between atoms: C_28  and  C_30
REMARK                            x       y       z     vdW  Elec       q    Type
REMARK                         _______ _______ _______ _____ _____    ______ ____
ROOT
ATOM      1  C   UNL     1     -12.231  54.235  50.236  0.00  0.00    +0.000 A 
ATOM      2  C   UNL     1     -11.944  53.842  48.824  0.00  0.00    +0.000 A 
ATOM      3  C   UNL     1     -11.678  53.548  51.253  0.00  0.00    +0.000 A 
ATOM      4  O   UNL     1     -12.376  54.564  47.920  0.00  0.00    +0.000 OA
ATOM      5  N   UNL     1     -11.185  52.704  48.588  0.00  0.00    +0.000 N 
ATOM      6  C   UNL     1     -10.773  52.415  50.992  0.00  0.00    +0.000 A 
ATOM      7  C   UNL     1     -10.520  52.027  49.661  0.00  0.00    +0.000 A 
ATOM      8  C   UNL     1     -10.127  51.714  52.030  0.00  0.00    +0.000 A 
ATOM      9  C   UNL     1      -9.590  50.998  49.420  0.00  0.00    +0.000 A 
ATOM     10  F   UNL     1     -10.332  52.026  53.319  0.00  0.00    +0.000 F 
ATOM     11  C   UNL     1      -9.243  50.673  51.773  0.00  0.00    +0.000 A 
ATOM     12  C   UNL     1      -8.965  50.317  50.464  0.00  0.00    +0.000 A 
ENDROOT
BRANCH   1  18
ATOM     13  S   UNL     1     -15.261  56.481  51.347  0.00  0.00    +0.000 S 
ATOM     14  O   UNL     1     -15.288  56.726  52.775  0.00  0.00    +0.000 OA
ATOM     15  O   UNL     1     -16.490  56.198  50.629  0.00  0.00    +0.000 OA
ATOM     16  N   UNL     1     -14.232  55.260  51.073  0.00  0.00    +0.000 N 
ATOM     17  C   UNL     1     -14.603  57.935  50.616  0.00  0.00    +0.000 A 
ATOM     18  C   UNL     1     -13.084  55.464  50.497  0.00  0.00    +0.000 C 
ATOM     19  C   UNL     1     -13.336  57.862  50.062  0.00  0.00    +0.000 A 
ATOM     20  C   UNL     1     -15.358  59.111  50.590  0.00  0.00    +0.000 A 
ATOM     21  N   UNL     1     -12.589  56.688  50.102  0.00  0.00    +0.000 N 
ATOM     22  C   UNL     1     -12.783  59.031  49.527  0.00  0.00    +0.000 A 
ATOM     23  C   UNL     1     -14.809  60.257  50.023  0.00  0.00    +0.000 A 
ATOM     24  C   UNL     1     -13.517  60.220  49.499  0.00  0.00    +0.000 A 
ATOM     25  H   UNL     1     -14.481  54.348  51.347  0.00  0.00    +0.000 HD
ATOM     26  H   UNL     1     -11.644  56.735  49.831  0.00  0.00    +0.000 HD
ENDBRANCH   1  18
BRANCH   3  27
ATOM     27  O   UNL     1     -11.856  53.874  52.584  0.00  0.00    +0.000 OA
ATOM     28  H   UNL     1     -12.535  54.468  52.835  0.00  0.00    +0.000 HD
ENDBRANCH   3  27
BRANCH   5  29
ATOM     29  C   UNL     1     -10.970  52.311  47.187  0.00  0.00    +0.000 C 
BRANCH  29  30
ATOM     30  C   UNL     1      -9.734  52.910  46.493  0.00  0.00    +0.000 C 
BRANCH  30  31
ATOM     31  C   UNL     1      -9.967  53.620  45.148  0.00  0.00    +0.000 C 
ATOM     32  C   UNL     1      -8.989  53.165  44.068  0.00  0.00    +0.000 C 
ATOM     33  C   UNL     1     -11.406  53.341  44.692  0.00  0.00    +0.000 C 
ENDBRANCH  30  31
ENDBRANCH  29  30
ENDBRANCH   5  29
TORSDOF 5
ENDMDL
MODEL 6
REMARK VINA RESULT:      -8.0      1.762      3.919
REMARK  Name = 338222
REMARK  7 active torsions:
REMARK  status: ('A' for Active; 'I' for Inactive)
REMARK    1  A    between atoms: C_6  and  C_10
REMARK    2  A    between atoms: C_14  and  O_18
REMARK    3  A    between atoms: N_17  and  C_21
REMARK    4  A    between atoms: C_21  and  C_24
REMARK    5  A    between atoms: C_24  and  C_28
REMARK    6  A    between atoms: C_28  and  C_29
REMARK    7  A    between atoms: C_28  and  C_30
REMARK                            x       y       z     vdW  Elec       q    Type
REMARK                         _______ _______ _______ _____ _____    ______ ____
ROOT
ATOM      1  C   UNL     1     -11.441  56.259  48.488  0.00  0.00    +0.000 A 
ATOM      2  C   UNL     1     -11.844  55.630  47.195  0.00  0.00    +0.000 A 
ATOM      3  C   UNL     1     -10.187  56.108  48.950  0.00  0.00    +0.000 A 
ATOM      4  O   UNL     1     -12.967  55.885  46.748  0.00  0.00    +0.000 OA
ATOM      5  N   UNL     1     -10.936  54.810  46.539  0.00  0.00    +0.000 N 
ATOM      6  C   UNL     1      -9.191  55.337  48.185  0.00  0.00    +0.000 A 
ATOM      7  C   UNL     1      -9.574  54.722  46.977  0.00  0.00    +0.000 A 
ATOM      8  C   UNL     1      -7.852  55.210  48.607  0.00  0.00    +0.000 A 
ATOM      9  C   UNL     1      -8.596  54.058  46.213  0.00  0.00    +0.000 A 
ATOM     10  F   UNL     1      -7.423  55.763  49.752  0.00  0.00    +0.000 F 
ATOM     11  C   UNL     1      -6.909  54.516  47.858  0.00  0.00    +0.000 A 
ATOM     12  C   UNL     1      -7.278  53.944  46.652  0.00  0.00    +0.000 A 
ENDROOT
BRANCH   1  18
ATOM     13  S   UNL     1     -13.623  59.380  49.472  0.00  0.00    +0.000 S 
ATOM     14  O   UNL     1     -14.797  59.533  48.636  0.00  0.00    +0.000 OA
ATOM     15  O   UNL     1     -12.840  60.540  49.855  0.00  0.00    +0.000 OA
ATOM     16  N   UNL     1     -12.629  58.328  48.741  0.00  0.00    +0.000 N 
ATOM     17  C   UNL     1     -14.183  58.662  50.973  0.00  0.00    +0.000 A 
ATOM     18  C   UNL     1     -12.443  57.134  49.222  0.00  0.00    +0.000 C 
ATOM     19  C   UNL     1     -13.822  57.351  51.236  0.00  0.00    +0.000 A 
ATOM     20  C   UNL     1     -14.951  59.415  51.865  0.00  0.00    +0.000 A 
ATOM     21  N   UNL     1     -13.065  56.609  50.334  0.00  0.00    +0.000 N 
ATOM     22  C   UNL     1     -14.312  56.756  52.404  0.00  0.00    +0.000 A 
ATOM     23  C   UNL     1     -15.401  58.820  53.040  0.00  0.00    +0.000 A 
ATOM     24  C   UNL     1     -15.088  57.487  53.306  0.00  0.00    +0.000 A 
ATOM     25  H   UNL     1     -12.158  58.598  47.920  0.00  0.00    +0.000 HD
ATOM     26  H   UNL     1     -12.967  55.644  50.501  0.00  0.00    +0.000 HD
ENDBRANCH   1  18
BRANCH   3  27
ATOM     27  O   UNL     1      -9.721  56.693  50.112  0.00  0.00    +0.000 OA
ATOM     28  H   UNL     1      -9.735  57.626  50.205  0.00  0.00    +0.000 HD
ENDBRANCH   3  27
BRANCH   5  29
ATOM     29  C   UNL     1     -11.384  54.159  45.299  0.00  0.00    +0.000 C 
BRANCH  29  30
ATOM     30  C   UNL     1     -12.011  52.762  45.450  0.00  0.00    +0.000 C 
BRANCH  30  31
ATOM     31  C   UNL     1     -11.104  51.556  45.152  0.00  0.00    +0.000 C 
ATOM     32  C   UNL     1     -11.855  50.228  45.213  0.00  0.00    +0.000 C 
ATOM     33  C   UNL     1     -10.492  51.740  43.756  0.00  0.00    +0.000 C 
ENDBRANCH  30  31
ENDBRANCH  29  30
ENDBRANCH   5  29
TORSDOF 5
ENDMDL
MODEL 7
REMARK VINA RESULT:      -8.0      3.263      7.465
REMARK  Name = 338222
REMARK  7 active torsions:
REMARK  status: ('A' for Active; 'I' for Inactive)
REMARK    1  A    between atoms: C_6  and  C_10
REMARK    2  A    between atoms: C_14  and  O_18
REMARK    3  A    between atoms: N_17  and  C_21
REMARK    4  A    between atoms: C_21  and  C_24
REMARK    5  A    between atoms: C_24  and  C_28
REMARK    6  A    between atoms: C_28  and  C_29
REMARK    7  A    between atoms: C_28  and  C_30
REMARK                            x       y       z     vdW  Elec       q    Type
REMARK                         _______ _______ _______ _____ _____    ______ ____
ROOT
ATOM      1  C   UNL     1      -9.985  55.060  50.438  0.00  0.00    +0.000 A 
ATOM      2  C   UNL     1     -11.037  55.326  51.465  0.00  0.00    +0.000 A 
ATOM      3  C   UNL     1     -10.238  55.290  49.138  0.00  0.00    +0.000 A 
ATOM      4  O   UNL     1     -10.730  55.213  52.656  0.00  0.00    +0.000 OA
ATOM      5  N   UNL     1     -12.300  55.715  51.042  0.00  0.00    +0.000 N 
ATOM      6  C   UNL     1     -11.544  55.821  48.707  0.00  0.00    +0.000 A 
ATOM      7  C   UNL     1     -12.547  56.050  49.670  0.00  0.00    +0.000 A 
ATOM      8  C   UNL     1     -11.823  56.134  47.362  0.00  0.00    +0.000 A 
ATOM      9  C   UNL     1     -13.760  56.635  49.261  0.00  0.00    +0.000 A 
ATOM     10  F   UNL     1     -10.916  55.930  46.394  0.00  0.00    +0.000 F 
ATOM     11  C   UNL     1     -13.043  56.673  46.970  0.00  0.00    +0.000 A 
ATOM     12  C   UNL     1     -14.014  56.933  47.923  0.00  0.00    +0.000 A 
ENDROOT
BRANCH   1  18
ATOM     13  S   UNL     1      -6.668  52.966  50.718  0.00  0.00    +0.000 S 
ATOM     14  O   UNL     1      -5.710  53.285  49.678  0.00  0.00    +0.000 OA
ATOM     15  O   UNL     1      -6.882  51.587  51.119  0.00  0.00    +0.000 OA
ATOM     16  N   UNL     1      -8.101  53.584  50.278  0.00  0.00    +0.000 N 
ATOM     17  C   UNL     1      -6.121  53.805  52.160  0.00  0.00    +0.000 A 
ATOM     18  C   UNL     1      -8.609  54.608  50.897  0.00  0.00    +0.000 C 
ATOM     19  C   UNL     1      -6.874  54.877  52.607  0.00  0.00    +0.000 A 
ATOM     20  C   UNL     1      -4.971  53.375  52.827  0.00  0.00    +0.000 A 
ATOM     21  N   UNL     1      -8.013  55.302  51.928  0.00  0.00    +0.000 N 
ATOM     22  C   UNL     1      -6.414  55.585  53.723  0.00  0.00    +0.000 A 
ATOM     23  C   UNL     1      -4.545  54.067  53.957  0.00  0.00    +0.000 A 
ATOM     24  C   UNL     1      -5.262  55.178  54.400  0.00  0.00    +0.000 A 
ATOM     25  H   UNL     1      -8.594  53.177  49.530  0.00  0.00    +0.000 HD
ATOM     26  H   UNL     1      -8.420  56.155  52.202  0.00  0.00    +0.000 HD
ENDBRANCH   1  18
BRANCH   3  27
ATOM     27  O   UNL     1      -9.307  55.114  48.131  0.00  0.00    +0.000 OA
ATOM     28  H   UNL     1      -8.692  54.409  48.181  0.00  0.00    +0.000 HD
ENDBRANCH   3  27
BRANCH   5  29
ATOM     29  C   UNL     1     -13.329  55.912  52.073  0.00  0.00    +0.000 C 
BRANCH  29  30
ATOM     30  C   UNL     1     -13.402  57.314  52.706  0.00  0.00    +0.000 C 
BRANCH  30  31
ATOM     31  C   UNL     1     -14.785  57.986  52.750  0.00  0.00    +0.000 C 
ATOM     32  C   UNL     1     -14.877  59.198  51.827  0.00  0.00    +0.000 C 
ATOM     33  C   UNL     1     -15.844  56.950  52.348  0.00  0.00    +0.000 C 
ENDBRANCH  30  31
ENDBRANCH  29  30
ENDBRANCH   5  29
TORSDOF 5
ENDMDL
MODEL 8
REMARK VINA RESULT:      -7.9      2.323      4.442
REMARK  Name = 338222
REMARK  7 active torsions:
REMARK  status: ('A' for Active; 'I' for Inactive)
REMARK    1  A    between atoms: C_6  and  C_10
REMARK    2  A    between atoms: C_14  and  O_18
REMARK    3  A    between atoms: N_17  and  C_21
REMARK    4  A    between atoms: C_21  and  C_24
REMARK    5  A    between atoms: C_24  and  C_28
REMARK    6  A    between atoms: C_28  and  C_29
REMARK    7  A    between atoms: C_28  and  C_30
REMARK                            x       y       z     vdW  Elec       q    Type
REMARK                         _______ _______ _______ _____ _____    ______ ____
ROOT
ATOM      1  C   UNL     1     -10.931  55.667  48.629  0.00  0.00    +0.000 A 
ATOM      2  C   UNL     1     -11.329  55.204  47.266  0.00  0.00    +0.000 A 
ATOM      3  C   UNL     1      -9.668  55.495  49.058  0.00  0.00    +0.000 A 
ATOM      4  O   UNL     1     -12.463  55.482  46.865  0.00  0.00    +0.000 OA
ATOM      5  N   UNL     1     -10.404  54.508  46.500  0.00  0.00    +0.000 N 
ATOM      6  C   UNL     1      -8.657  54.865  48.190  0.00  0.00    +0.000 A 
ATOM      7  C   UNL     1      -9.035  54.405  46.913  0.00  0.00    +0.000 A 
ATOM      8  C   UNL     1      -7.311  54.725  48.581  0.00  0.00    +0.000 A 
ATOM      9  C   UNL     1      -8.046  53.880  46.060  0.00  0.00    +0.000 A 
ATOM     10  F   UNL     1      -6.886  55.133  49.787  0.00  0.00    +0.000 F 
ATOM     11  C   UNL     1      -6.355  54.167  47.740  0.00  0.00    +0.000 A 
ATOM     12  C   UNL     1      -6.720  53.750  46.471  0.00  0.00    +0.000 A 
ENDROOT
BRANCH   1  18
ATOM     13  S   UNL     1     -13.585  56.404  51.436  0.00  0.00    +0.000 S 
ATOM     14  O   UNL     1     -12.980  56.702  52.719  0.00  0.00    +0.000 OA
ATOM     15  O   UNL     1     -14.763  55.560  51.360  0.00  0.00    +0.000 OA
ATOM     16  N   UNL     1     -12.442  55.751  50.491  0.00  0.00    +0.000 N 
ATOM     17  C   UNL     1     -14.057  57.949  50.748  0.00  0.00    +0.000 A 
ATOM     18  C   UNL     1     -11.950  56.405  49.481  0.00  0.00    +0.000 C 
ATOM     19  C   UNL     1     -13.349  58.409  49.651  0.00  0.00    +0.000 A 
ATOM     20  C   UNL     1     -15.125  58.663  51.297  0.00  0.00    +0.000 A 
ATOM     21  N   UNL     1     -12.280  57.693  49.119  0.00  0.00    +0.000 N 
ATOM     22  C   UNL     1     -13.684  59.665  49.132  0.00  0.00    +0.000 A 
ATOM     23  C   UNL     1     -15.469  59.895  50.748  0.00  0.00    +0.000 A 
ATOM     24  C   UNL     1     -14.743  60.400  49.670  0.00  0.00    +0.000 A 
ATOM     25  H   UNL     1     -12.115  54.842  50.685  0.00  0.00    +0.000 HD
ATOM     26  H   UNL     1     -11.722  58.136  48.440  0.00  0.00    +0.000 HD
ENDBRANCH   1  18
BRANCH   3  27
ATOM     27  O   UNL     1      -9.207  55.934  50.285  0.00  0.00    +0.000 OA
ATOM     28  H   UNL     1      -8.448  56.483  50.331  0.00  0.00    +0.000 HD
ENDBRANCH   3  27
BRANCH   5  29
ATOM     29  C   UNL     1     -10.845  54.015  45.188  0.00  0.00    +0.000 C 
BRANCH  29  30
ATOM     30  C   UNL     1     -11.308  52.548  45.130  0.00  0.00    +0.000 C 
BRANCH  30  31
ATOM     31  C   UNL     1     -10.684  51.664  44.037  0.00  0.00    +0.000 C 
ATOM     32  C   UNL     1      -9.917  52.474  42.995  0.00  0.00    +0.000 C 
ATOM     33  C   UNL     1      -9.739  50.655  44.705  0.00  0.00    +0.000 C 
ENDBRANCH  30  31
ENDBRANCH  29  30
ENDBRANCH   5  29
TORSDOF 5
ENDMDL
MODEL 9
REMARK VINA RESULT:      -7.9      3.228      7.185
REMARK  Name = 338222
REMARK  7 active torsions:
REMARK  status: ('A' for Active; 'I' for Inactive)
REMARK    1  A    between atoms: C_6  and  C_10
REMARK    2  A    between atoms: C_14  and  O_18
REMARK    3  A    between atoms: N_17  and  C_21
REMARK    4  A    between atoms: C_21  and  C_24
REMARK    5  A    between atoms: C_24  and  C_28
REMARK    6  A    between atoms: C_28  and  C_29
REMARK    7  A    between atoms: C_28  and  C_30
REMARK                            x       y       z     vdW  Elec       q    Type
REMARK                         _______ _______ _______ _____ _____    ______ ____
ROOT
ATOM      1  C   UNL     1     -11.109  54.503  48.297  0.00  0.00    +0.000 A 
ATOM      2  C   UNL     1     -10.760  54.104  49.693  0.00  0.00    +0.000 A 
ATOM      3  C   UNL     1     -12.102  55.382  48.075  0.00  0.00    +0.000 A 
ATOM      4  O   UNL     1      -9.770  53.385  49.863  0.00  0.00    +0.000 OA
ATOM      5  N   UNL     1     -11.541  54.578  50.738  0.00  0.00    +0.000 N 
ATOM      6  C   UNL     1     -12.848  55.976  49.198  0.00  0.00    +0.000 A 
ATOM      7  C   UNL     1     -12.537  55.584  50.516  0.00  0.00    +0.000 A 
ATOM      8  C   UNL     1     -13.851  56.947  49.007  0.00  0.00    +0.000 A 
ATOM      9  C   UNL     1     -13.197  56.217  51.586  0.00  0.00    +0.000 A 
ATOM     10  F   UNL     1     -14.202  57.357  47.779  0.00  0.00    +0.000 F 
ATOM     11  C   UNL     1     -14.520  57.532  50.075  0.00  0.00    +0.000 A 
ATOM     12  C   UNL     1     -14.188  57.173  51.371  0.00  0.00    +0.000 A 
ENDROOT
BRANCH   1  18
ATOM     13  S   UNL     1      -8.082  53.962  45.845  0.00  0.00    +0.000 S 
ATOM     14  O   UNL     1      -7.064  53.087  46.391  0.00  0.00    +0.000 OA
ATOM     15  O   UNL     1      -7.706  55.156  45.111  0.00  0.00    +0.000 OA
ATOM     16  N   UNL     1      -9.054  54.410  47.062  0.00  0.00    +0.000 N 
ATOM     17  C   UNL     1      -9.014  52.984  44.723  0.00  0.00    +0.000 A 
ATOM     18  C   UNL     1     -10.272  53.964  47.149  0.00  0.00    +0.000 C 
ATOM     19  C   UNL     1     -10.312  52.657  45.076  0.00  0.00    +0.000 A 
ATOM     20  C   UNL     1      -8.448  52.577  43.512  0.00  0.00    +0.000 A 
ATOM     21  N   UNL     1     -10.861  53.061  46.290  0.00  0.00    +0.000 N 
ATOM     22  C   UNL     1     -11.042  51.832  44.213  0.00  0.00    +0.000 A 
ATOM     23  C   UNL     1      -9.198  51.785  42.646  0.00  0.00    +0.000 A 
ATOM     24  C   UNL     1     -10.493  51.406  43.001  0.00  0.00    +0.000 A 
ATOM     25  H   UNL     1      -8.716  55.032  47.747  0.00  0.00    +0.000 HD
ATOM     26  H   UNL     1     -11.728  52.676  46.554  0.00  0.00    +0.000 HD
ENDBRANCH   1  18
BRANCH   3  27
ATOM     27  O   UNL     1     -12.458  55.838  46.819  0.00  0.00    +0.000 OA
ATOM     28  H   UNL     1     -13.361  55.967  46.606  0.00  0.00    +0.000 HD
ENDBRANCH   3  27
BRANCH   5  29
ATOM     29  C   UNL     1     -11.207  54.120  52.095  0.00  0.00    +0.000 C 
BRANCH  29  30
ATOM     30  C   UNL     1     -10.239  55.008  52.896  0.00  0.00    +0.000 C 
BRANCH  30  31
ATOM     31  C   UNL     1      -8.789  54.512  53.029  0.00  0.00    +0.000 C 
ATOM     32  C   UNL     1      -7.977  55.337  54.025  0.00  0.00    +0.000 C 
ATOM     33  C   UNL     1      -8.814  53.044  53.474  0.00  0.00    +0.000 C 
ENDBRANCH  30  31
ENDBRANCH  29  30
ENDBRANCH   5  29
TORSDOF 5
ENDMDL
