MODEL 1
REMARK VINA RESULT:      -8.2      0.000      0.000
REMARK  Name = 338328
REMARK  12 active torsions:
REMARK  status: ('A' for Active; 'I' for Inactive)
REMARK    1  A    between atoms: C_6  and  C_10
REMARK    2  A    between atoms: C_14  and  O_18
REMARK    3  A    between atoms: N_17  and  C_21
REMARK    4  A    between atoms: C_21  and  C_24
REMARK    5  A    between atoms: C_24  and  C_27
REMARK    6  A    between atoms: C_25  and  N_28
REMARK    7  A    between atoms: C_27  and  C_29
REMARK    8  A    between atoms: C_27  and  C_30
REMARK    9  A    between atoms: C_27  and  C_31
REMARK   10  A    between atoms: N_28  and  C_32
REMARK   11  A    between atoms: C_32  and  C_33
REMARK   12  A    between atoms: C_33  and  O_34
REMARK                            x       y       z     vdW  Elec       q    Type
REMARK                         _______ _______ _______ _____ _____    ______ ____
ROOT
ATOM      1  C   UNL     1     -10.806  54.416  48.466  0.00  0.00    +0.000 A 
ATOM      2  C   UNL     1     -10.396  53.912  49.812  0.00  0.00    +0.000 A 
ATOM      3  C   UNL     1     -11.845  55.263  48.357  0.00  0.00    +0.000 A 
ATOM      4  O   UNL     1      -9.491  53.071  49.874  0.00  0.00    +0.000 OA
ATOM      5  N   UNL     1     -11.051  54.401  50.937  0.00  0.00    +0.000 N 
ATOM      6  C   UNL     1     -12.520  55.777  49.555  0.00  0.00    +0.000 A 
ATOM      7  C   UNL     1     -12.095  55.369  50.826  0.00  0.00    +0.000 A 
ATOM      8  C   UNL     1     -13.543  56.736  49.443  0.00  0.00    +0.000 A 
ATOM      9  C   UNL     1     -12.708  55.936  51.951  0.00  0.00    +0.000 A 
ATOM     10  C   UNL     1     -14.111  57.341  50.565  0.00  0.00    +0.000 A 
ATOM     11  C   UNL     1     -13.717  56.892  51.820  0.00  0.00    +0.000 A 
ENDROOT
BRANCH   1  17
ATOM     12  S   UNL     1      -7.967  53.884  45.801  0.00  0.00    +0.000 S 
ATOM     13  O   UNL     1      -6.948  52.985  46.312  0.00  0.00    +0.000 OA
ATOM     14  O   UNL     1      -7.586  55.062  45.044  0.00  0.00    +0.000 OA
ATOM     15  N   UNL     1      -8.877  54.385  47.039  0.00  0.00    +0.000 N 
ATOM     16  C   UNL     1      -8.971  52.923  44.733  0.00  0.00    +0.000 A 
ATOM     17  C   UNL     1     -10.081  53.924  47.224  0.00  0.00    +0.000 C 
ATOM     18  C   UNL     1     -10.238  52.576  45.179  0.00  0.00    +0.000 A 
ATOM     19  C   UNL     1      -8.483  52.528  43.484  0.00  0.00    +0.000 A 
ATOM     20  N   UNL     1     -10.731  53.043  46.392  0.00  0.00    +0.000 N 
ATOM     21  C   UNL     1     -11.045  51.816  44.329  0.00  0.00    +0.000 A 
ATOM     22  C   UNL     1      -9.294  51.764  42.654  0.00  0.00    +0.000 A 
ATOM     23  C   UNL     1     -10.576  51.406  43.073  0.00  0.00    +0.000 A 
ATOM     24  H   UNL     1      -8.514  55.052  47.665  0.00  0.00    +0.000 HD
ATOM     25  H   UNL     1     -11.615  52.718  46.677  0.00  0.00    +0.000 HD
ENDBRANCH   1  17
BRANCH   3  26
ATOM     26  O   UNL     1     -12.346  55.743  47.159  0.00  0.00    +0.000 OA
ATOM     27  H   UNL     1     -12.956  55.229  46.667  0.00  0.00    +0.000 HD
ENDBRANCH   3  26
BRANCH  10  28
ATOM     28  N   UNL     1     -15.080  58.330  50.360  0.00  0.00    +0.000 N 
ATOM     29  H   UNL     1     -15.953  58.114  49.959  0.00  0.00    +0.000 HD
BRANCH  28  30
ATOM     30  C   UNL     1     -14.744  59.700  50.766  0.00  0.00    +0.000 C 
BRANCH  30  31
ATOM     31  C   UNL     1     -13.638  60.239  49.856  0.00  0.00    +0.000 C 
BRANCH  31  32
ATOM     32  O   UNL     1     -14.200  60.985  48.777  0.00  0.00    +0.000 OA
ATOM     33  H   UNL     1     -13.903  61.906  48.832  0.00  0.00    +0.000 HD
ENDBRANCH  31  32
ENDBRANCH  30  31
ENDBRANCH  28  30
ENDBRANCH  10  28
BRANCH   5  34
ATOM     34  C   UNL     1     -10.591  53.956  52.258  0.00  0.00    +0.000 C 
BRANCH  34  35
ATOM     35  C   UNL     1      -9.779  55.013  53.031  0.00  0.00    +0.000 C 
BRANCH  35  36
ATOM     36  C   UNL     1      -8.239  54.807  52.988  0.00  0.00    +0.000 C 
ATOM     37  C   UNL     1      -7.608  55.485  51.758  0.00  0.00    +0.000 C 
ATOM     38  C   UNL     1      -7.621  55.440  54.251  0.00  0.00    +0.000 C 
ATOM     39  C   UNL     1      -7.900  53.308  52.974  0.00  0.00    +0.000 C 
ENDBRANCH  35  36
ENDBRANCH  34  35
ENDBRANCH   5  34
TORSDOF 9
ENDMDL
MODEL 2
REMARK VINA RESULT:      -8.1      3.240      8.194
REMARK  Name = 338328
REMARK  12 active torsions:
REMARK  status: ('A' for Active; 'I' for Inactive)
REMARK    1  A    between atoms: C_6  and  C_10
REMARK    2  A    between atoms: C_14  and  O_18
REMARK    3  A    between atoms: N_17  and  C_21
REMARK    4  A    between atoms: C_21  and  C_24
REMARK    5  A    between atoms: C_24  and  C_27
REMARK    6  A    between atoms: C_25  and  N_28
REMARK    7  A    between atoms: C_27  and  C_29
REMARK    8  A    between atoms: C_27  and  C_30
REMARK    9  A    between atoms: C_27  and  C_31
REMARK   10  A    between atoms: N_28  and  C_32
REMARK   11  A    between atoms: C_32  and  C_33
REMARK   12  A    between atoms: C_33  and  O_34
REMARK                            x       y       z     vdW  Elec       q    Type
REMARK                         _______ _______ _______ _____ _____    ______ ____
ROOT
ATOM      1  C   UNL     1     -12.199  54.237  50.210  0.00  0.00    +0.000 A 
ATOM      2  C   UNL     1     -11.975  53.714  48.827  0.00  0.00    +0.000 A 
ATOM      3  C   UNL     1     -11.662  53.595  51.262  0.00  0.00    +0.000 A 
ATOM      4  O   UNL     1     -12.549  54.277  47.887  0.00  0.00    +0.000 OA
ATOM      5  N   UNL     1     -11.139  52.617  48.655  0.00  0.00    +0.000 N 
ATOM      6  C   UNL     1     -10.774  52.443  51.062  0.00  0.00    +0.000 A 
ATOM      7  C   UNL     1     -10.497  51.991  49.766  0.00  0.00    +0.000 A 
ATOM      8  C   UNL     1     -10.138  51.833  52.158  0.00  0.00    +0.000 A 
ATOM      9  C   UNL     1      -9.586  50.938  49.604  0.00  0.00    +0.000 A 
ATOM     10  C   UNL     1      -9.188  50.824  51.990  0.00  0.00    +0.000 A 
ATOM     11  C   UNL     1      -8.958  50.350  50.703  0.00  0.00    +0.000 A 
ENDROOT
BRANCH   1  17
ATOM     12  S   UNL     1     -15.262  56.454  51.283  0.00  0.00    +0.000 S 
ATOM     13  O   UNL     1     -15.279  56.640  52.722  0.00  0.00    +0.000 OA
ATOM     14  O   UNL     1     -16.499  56.207  50.566  0.00  0.00    +0.000 OA
ATOM     15  N   UNL     1     -14.256  55.238  50.935  0.00  0.00    +0.000 N 
ATOM     16  C   UNL     1     -14.595  57.929  50.608  0.00  0.00    +0.000 A 
ATOM     17  C   UNL     1     -13.080  55.458  50.421  0.00  0.00    +0.000 C 
ATOM     18  C   UNL     1     -13.303  57.882  50.108  0.00  0.00    +0.000 A 
ATOM     19  C   UNL     1     -15.361  59.098  50.597  0.00  0.00    +0.000 A 
ATOM     20  N   UNL     1     -12.588  56.691  50.061  0.00  0.00    +0.000 N 
ATOM     21  C   UNL     1     -12.769  59.053  49.564  0.00  0.00    +0.000 A 
ATOM     22  C   UNL     1     -14.813  60.257  50.061  0.00  0.00    +0.000 A 
ATOM     23  C   UNL     1     -13.517  60.238  49.543  0.00  0.00    +0.000 A 
ATOM     24  H   UNL     1     -14.539  54.312  51.114  0.00  0.00    +0.000 HD
ATOM     25  H   UNL     1     -11.658  56.733  49.745  0.00  0.00    +0.000 HD
ENDBRANCH   1  17
BRANCH   3  26
ATOM     26  O   UNL     1     -11.855  53.955  52.585  0.00  0.00    +0.000 OA
ATOM     27  H   UNL     1     -11.134  54.271  53.094  0.00  0.00    +0.000 HD
ENDBRANCH   3  26
BRANCH  10  28
ATOM     28  N   UNL     1      -8.558  50.316  53.131  0.00  0.00    +0.000 N 
ATOM     29  H   UNL     1      -8.251  49.381  53.171  0.00  0.00    +0.000 HD
BRANCH  28  30
ATOM     30  C   UNL     1      -8.371  51.230  54.265  0.00  0.00    +0.000 C 
BRANCH  30  31
ATOM     31  C   UNL     1      -9.111  50.678  55.484  0.00  0.00    +0.000 C 
BRANCH  31  32
ATOM     32  O   UNL     1     -10.138  51.579  55.895  0.00  0.00    +0.000 OA
ATOM     33  H   UNL     1     -10.387  51.389  56.813  0.00  0.00    +0.000 HD
ENDBRANCH  31  32
ENDBRANCH  30  31
ENDBRANCH  28  30
ENDBRANCH  10  28
BRANCH   5  34
ATOM     34  C   UNL     1     -10.868  52.158  47.287  0.00  0.00    +0.000 C 
BRANCH  34  35
ATOM     35  C   UNL     1      -9.510  52.623  46.726  0.00  0.00    +0.000 C 
BRANCH  35  36
ATOM     36  C   UNL     1      -9.598  53.779  45.691  0.00  0.00    +0.000 C 
ATOM     37  C   UNL     1      -8.485  53.680  44.631  0.00  0.00    +0.000 C 
ATOM     38  C   UNL     1     -10.955  53.690  44.966  0.00  0.00    +0.000 C 
ATOM     39  C   UNL     1      -9.509  55.140  46.399  0.00  0.00    +0.000 C 
ENDBRANCH  35  36
ENDBRANCH  34  35
ENDBRANCH   5  34
TORSDOF 9
ENDMDL
MODEL 3
REMARK VINA RESULT:      -8.1      2.547      7.681
REMARK  Name = 338328
REMARK  12 active torsions:
REMARK  status: ('A' for Active; 'I' for Inactive)
REMARK    1  A    between atoms: C_6  and  C_10
REMARK    2  A    between atoms: C_14  and  O_18
REMARK    3  A    between atoms: N_17  and  C_21
REMARK    4  A    between atoms: C_21  and  C_24
REMARK    5  A    between atoms: C_24  and  C_27
REMARK    6  A    between atoms: C_25  and  N_28
REMARK    7  A    between atoms: C_27  and  C_29
REMARK    8  A    between atoms: C_27  and  C_30
REMARK    9  A    between atoms: C_27  and  C_31
REMARK   10  A    between atoms: N_28  and  C_32
REMARK   11  A    between atoms: C_32  and  C_33
REMARK   12  A    between atoms: C_33  and  O_34
REMARK                            x       y       z     vdW  Elec       q    Type
REMARK                         _______ _______ _______ _____ _____    ______ ____
ROOT
ATOM      1  C   UNL     1     -11.612  55.696  48.807  0.00  0.00    +0.000 A 
ATOM      2  C   UNL     1     -10.580  54.997  49.632  0.00  0.00    +0.000 A 
ATOM      3  C   UNL     1     -11.703  55.437  47.491  0.00  0.00    +0.000 A 
ATOM      4  O   UNL     1     -10.465  55.316  50.821  0.00  0.00    +0.000 OA
ATOM      5  N   UNL     1      -9.789  54.024  49.030  0.00  0.00    +0.000 N 
ATOM      6  C   UNL     1     -10.867  54.400  46.872  0.00  0.00    +0.000 A 
ATOM      7  C   UNL     1      -9.949  53.686  47.652  0.00  0.00    +0.000 A 
ATOM      8  C   UNL     1     -11.032  54.064  45.516  0.00  0.00    +0.000 A 
ATOM      9  C   UNL     1      -9.221  52.651  47.050  0.00  0.00    +0.000 A 
ATOM     10  C   UNL     1     -10.348  52.996  44.935  0.00  0.00    +0.000 A 
ATOM     11  C   UNL     1      -9.403  52.326  45.705  0.00  0.00    +0.000 A 
ENDROOT
BRANCH   1  17
ATOM     12  S   UNL     1     -13.553  59.064  49.387  0.00  0.00    +0.000 S 
ATOM     13  O   UNL     1     -14.689  59.161  48.489  0.00  0.00    +0.000 OA
ATOM     14  O   UNL     1     -12.728  60.229  49.646  0.00  0.00    +0.000 OA
ATOM     15  N   UNL     1     -12.575  57.894  48.853  0.00  0.00    +0.000 N 
ATOM     16  C   UNL     1     -14.201  58.572  50.940  0.00  0.00    +0.000 A 
ATOM     17  C   UNL     1     -12.513  56.738  49.450  0.00  0.00    +0.000 C 
ATOM     18  C   UNL     1     -13.975  57.267  51.349  0.00  0.00    +0.000 A 
ATOM     19  C   UNL     1     -14.924  59.485  51.714  0.00  0.00    +0.000 A 
ATOM     20  N   UNL     1     -13.189  56.400  50.598  0.00  0.00    +0.000 N 
ATOM     21  C   UNL     1     -14.484  56.872  52.589  0.00  0.00    +0.000 A 
ATOM     22  C   UNL     1     -15.432  59.074  52.940  0.00  0.00    +0.000 A 
ATOM     23  C   UNL     1     -15.214  57.768  53.381  0.00  0.00    +0.000 A 
ATOM     24  H   UNL     1     -12.014  58.058  48.061  0.00  0.00    +0.000 HD
ATOM     25  H   UNL     1     -13.110  55.471  50.914  0.00  0.00    +0.000 HD
ENDBRANCH   1  17
BRANCH   3  26
ATOM     26  O   UNL     1     -12.578  56.069  46.623  0.00  0.00    +0.000 OA
ATOM     27  H   UNL     1     -12.348  56.175  45.721  0.00  0.00    +0.000 HD
ENDBRANCH   3  26
BRANCH  10  28
ATOM     28  N   UNL     1     -10.618  52.692  43.596  0.00  0.00    +0.000 N 
ATOM     29  H   UNL     1     -11.528  52.466  43.297  0.00  0.00    +0.000 HD
BRANCH  28  30
ATOM     30  C   UNL     1      -9.491  52.722  42.655  0.00  0.00    +0.000 C 
BRANCH  30  31
ATOM     31  C   UNL     1      -9.220  51.305  42.146  0.00  0.00    +0.000 C 
BRANCH  31  32
ATOM     32  O   UNL     1     -10.308  50.442  42.469  0.00  0.00    +0.000 OA
ATOM     33  H   UNL     1      -9.975  49.663  42.941  0.00  0.00    +0.000 HD
ENDBRANCH  31  32
ENDBRANCH  30  31
ENDBRANCH  28  30
ENDBRANCH  10  28
BRANCH   5  34
ATOM     34  C   UNL     1      -8.831  53.292  49.867  0.00  0.00    +0.000 C 
BRANCH  34  35
ATOM     35  C   UNL     1      -7.417  53.905  49.888  0.00  0.00    +0.000 C 
BRANCH  35  36
ATOM     36  C   UNL     1      -6.941  54.390  51.286  0.00  0.00    +0.000 C 
ATOM     37  C   UNL     1      -5.434  54.150  51.488  0.00  0.00    +0.000 C 
ATOM     38  C   UNL     1      -7.201  55.906  51.396  0.00  0.00    +0.000 C 
ATOM     39  C   UNL     1      -7.727  53.676  52.396  0.00  0.00    +0.000 C 
ENDBRANCH  35  36
ENDBRANCH  34  35
ENDBRANCH   5  34
TORSDOF 9
ENDMDL
MODEL 4
REMARK VINA RESULT:      -7.9      2.715      6.413
REMARK  Name = 338328
REMARK  12 active torsions:
REMARK  status: ('A' for Active; 'I' for Inactive)
REMARK    1  A    between atoms: C_6  and  C_10
REMARK    2  A    between atoms: C_14  and  O_18
REMARK    3  A    between atoms: N_17  and  C_21
REMARK    4  A    between atoms: C_21  and  C_24
REMARK    5  A    between atoms: C_24  and  C_27
REMARK    6  A    between atoms: C_25  and  N_28
REMARK    7  A    between atoms: C_27  and  C_29
REMARK    8  A    between atoms: C_27  and  C_30
REMARK    9  A    between atoms: C_27  and  C_31
REMARK   10  A    between atoms: N_28  and  C_32
REMARK   11  A    between atoms: C_32  and  C_33
REMARK   12  A    between atoms: C_33  and  O_34
REMARK                            x       y       z     vdW  Elec       q    Type
REMARK                         _______ _______ _______ _____ _____    ______ ____
ROOT
ATOM      1  C   UNL     1      -9.885  54.460  50.713  0.00  0.00    +0.000 A 
ATOM      2  C   UNL     1      -9.726  54.791  49.263  0.00  0.00    +0.000 A 
ATOM      3  C   UNL     1     -10.998  54.837  51.365  0.00  0.00    +0.000 A 
ATOM      4  O   UNL     1      -8.658  54.504  48.709  0.00  0.00    +0.000 OA
ATOM      5  N   UNL     1     -10.779  55.411  48.599  0.00  0.00    +0.000 N 
ATOM      6  C   UNL     1     -12.105  55.483  50.648  0.00  0.00    +0.000 A 
ATOM      7  C   UNL     1     -11.996  55.730  49.274  0.00  0.00    +0.000 A 
ATOM      8  C   UNL     1     -13.305  55.790  51.313  0.00  0.00    +0.000 A 
ATOM      9  C   UNL     1     -13.098  56.277  48.602  0.00  0.00    +0.000 A 
ATOM     10  C   UNL     1     -14.420  56.280  50.631  0.00  0.00    +0.000 A 
ATOM     11  C   UNL     1     -14.284  56.568  49.278  0.00  0.00    +0.000 A 
ENDROOT
BRANCH   1  17
ATOM     12  S   UNL     1      -8.019  51.882  53.017  0.00  0.00    +0.000 S 
ATOM     13  O   UNL     1      -7.918  50.590  52.363  0.00  0.00    +0.000 OA
ATOM     14  O   UNL     1      -8.333  51.959  54.432  0.00  0.00    +0.000 OA
ATOM     15  N   UNL     1      -9.117  52.770  52.233  0.00  0.00    +0.000 N 
ATOM     16  C   UNL     1      -6.453  52.647  52.825  0.00  0.00    +0.000 A 
ATOM     17  C   UNL     1      -8.763  53.750  51.451  0.00  0.00    +0.000 C 
ATOM     18  C   UNL     1      -6.354  53.694  51.921  0.00  0.00    +0.000 A 
ATOM     19  C   UNL     1      -5.358  52.192  53.565  0.00  0.00    +0.000 A 
ATOM     20  N   UNL     1      -7.472  54.180  51.252  0.00  0.00    +0.000 N 
ATOM     21  C   UNL     1      -5.111  54.313  51.769  0.00  0.00    +0.000 A 
ATOM     22  C   UNL     1      -4.125  52.810  53.396  0.00  0.00    +0.000 A 
ATOM     23  C   UNL     1      -3.998  53.871  52.498  0.00  0.00    +0.000 A 
ATOM     24  H   UNL     1     -10.073  52.567  52.349  0.00  0.00    +0.000 HD
ATOM     25  H   UNL     1      -7.328  54.888  50.584  0.00  0.00    +0.000 HD
ENDBRANCH   1  17
BRANCH   3  26
ATOM     26  O   UNL     1     -11.223  54.638  52.717  0.00  0.00    +0.000 OA
ATOM     27  H   UNL     1     -10.498  54.564  53.306  0.00  0.00    +0.000 HD
ENDBRANCH   3  26
BRANCH  10  28
ATOM     28  N   UNL     1     -15.594  56.500  51.360  0.00  0.00    +0.000 N 
ATOM     29  H   UNL     1     -16.468  56.196  51.024  0.00  0.00    +0.000 HD
BRANCH  28  30
ATOM     30  C   UNL     1     -15.472  57.200  52.645  0.00  0.00    +0.000 C 
BRANCH  30  31
ATOM     31  C   UNL     1     -15.188  58.682  52.387  0.00  0.00    +0.000 C 
BRANCH  31  32
ATOM     32  O   UNL     1     -13.972  59.074  53.020  0.00  0.00    +0.000 OA
ATOM     33  H   UNL     1     -13.259  59.101  52.363  0.00  0.00    +0.000 HD
ENDBRANCH  31  32
ENDBRANCH  30  31
ENDBRANCH  28  30
ENDBRANCH  10  28
BRANCH   5  34
ATOM     34  C   UNL     1     -10.640  55.662  47.160  0.00  0.00    +0.000 C 
BRANCH  34  35
ATOM     35  C   UNL     1     -11.341  54.619  46.268  0.00  0.00    +0.000 C 
BRANCH  35  36
ATOM     36  C   UNL     1     -10.396  53.539  45.669  0.00  0.00    +0.000 C 
ATOM     37  C   UNL     1     -10.285  52.308  46.587  0.00  0.00    +0.000 C 
ATOM     38  C   UNL     1     -10.973  53.075  44.317  0.00  0.00    +0.000 C 
ATOM     39  C   UNL     1      -8.996  54.126  45.430  0.00  0.00    +0.000 C 
ENDBRANCH  35  36
ENDBRANCH  34  35
ENDBRANCH   5  34
TORSDOF 9
ENDMDL
MODEL 5
REMARK VINA RESULT:      -7.9      2.636      6.492
REMARK  Name = 338328
REMARK  12 active torsions:
REMARK  status: ('A' for Active; 'I' for Inactive)
REMARK    1  A    between atoms: C_6  and  C_10
REMARK    2  A    between atoms: C_14  and  O_18
REMARK    3  A    between atoms: N_17  and  C_21
REMARK    4  A    between atoms: C_21  and  C_24
REMARK    5  A    between atoms: C_24  and  C_27
REMARK    6  A    between atoms: C_25  and  N_28
REMARK    7  A    between atoms: C_27  and  C_29
REMARK    8  A    between atoms: C_27  and  C_30
REMARK    9  A    between atoms: C_27  and  C_31
REMARK   10  A    between atoms: N_28  and  C_32
REMARK   11  A    between atoms: C_32  and  C_33
REMARK   12  A    between atoms: C_33  and  O_34
REMARK                            x       y       z     vdW  Elec       q    Type
REMARK                         _______ _______ _______ _____ _____    ______ ____
ROOT
ATOM      1  C   UNL     1      -9.875  54.990  50.750  0.00  0.00    +0.000 A 
ATOM      2  C   UNL     1      -9.527  54.997  49.295  0.00  0.00    +0.000 A 
ATOM      3  C   UNL     1     -11.042  55.516  51.159  0.00  0.00    +0.000 A 
ATOM      4  O   UNL     1      -8.412  54.581  48.957  0.00  0.00    +0.000 OA
ATOM      5  N   UNL     1     -10.464  55.475  48.386  0.00  0.00    +0.000 N 
ATOM      6  C   UNL     1     -12.025  56.008  50.186  0.00  0.00    +0.000 A 
ATOM      7  C   UNL     1     -11.739  55.951  48.816  0.00  0.00    +0.000 A 
ATOM      8  C   UNL     1     -13.283  56.470  50.611  0.00  0.00    +0.000 A 
ATOM      9  C   UNL     1     -12.727  56.357  47.908  0.00  0.00    +0.000 A 
ATOM     10  C   UNL     1     -14.285  56.819  49.704  0.00  0.00    +0.000 A 
ATOM     11  C   UNL     1     -13.973  56.805  48.349  0.00  0.00    +0.000 A 
ENDROOT
BRANCH   1  17
ATOM     12  S   UNL     1      -6.551  54.503  52.789  0.00  0.00    +0.000 S 
ATOM     13  O   UNL     1      -6.375  55.581  53.744  0.00  0.00    +0.000 OA
ATOM     14  O   UNL     1      -5.416  54.007  52.033  0.00  0.00    +0.000 OA
ATOM     15  N   UNL     1      -7.682  54.943  51.722  0.00  0.00    +0.000 N 
ATOM     16  C   UNL     1      -7.161  53.137  53.704  0.00  0.00    +0.000 A 
ATOM     17  C   UNL     1      -8.882  54.439  51.760  0.00  0.00    +0.000 C 
ATOM     18  C   UNL     1      -8.496  52.799  53.545  0.00  0.00    +0.000 A 
ATOM     19  C   UNL     1      -6.308  52.436  54.562  0.00  0.00    +0.000 A 
ATOM     20  N   UNL     1      -9.306  53.463  52.630  0.00  0.00    +0.000 N 
ATOM     21  C   UNL     1      -8.986  51.708  54.267  0.00  0.00    +0.000 A 
ATOM     22  C   UNL     1      -6.812  51.359  55.281  0.00  0.00    +0.000 A 
ATOM     23  C   UNL     1      -8.151  50.992  55.135  0.00  0.00    +0.000 A 
ATOM     24  H   UNL     1      -7.458  55.605  51.028  0.00  0.00    +0.000 HD
ATOM     25  H   UNL     1     -10.257  53.213  52.603  0.00  0.00    +0.000 HD
ENDBRANCH   1  17
BRANCH   3  26
ATOM     26  O   UNL     1     -11.438  55.617  52.482  0.00  0.00    +0.000 OA
ATOM     27  H   UNL     1     -10.863  56.001  53.115  0.00  0.00    +0.000 HD
ENDBRANCH   3  26
BRANCH  10  28
ATOM     28  N   UNL     1     -15.528  57.208  50.213  0.00  0.00    +0.000 N 
ATOM     29  H   UNL     1     -16.329  57.234  49.641  0.00  0.00    +0.000 HD
BRANCH  28  30
ATOM     30  C   UNL     1     -15.593  57.577  51.633  0.00  0.00    +0.000 C 
BRANCH  30  31
ATOM     31  C   UNL     1     -15.173  59.040  51.794  0.00  0.00    +0.000 C 
BRANCH  31  32
ATOM     32  O   UNL     1     -14.227  59.173  52.852  0.00  0.00    +0.000 OA
ATOM     33  H   UNL     1     -13.389  59.508  52.497  0.00  0.00    +0.000 HD
ENDBRANCH  31  32
ENDBRANCH  30  31
ENDBRANCH  28  30
ENDBRANCH  10  28
BRANCH   5  34
ATOM     34  C   UNL     1     -10.140  55.408  46.956  0.00  0.00    +0.000 C 
BRANCH  34  35
ATOM     35  C   UNL     1     -10.622  54.119  46.261  0.00  0.00    +0.000 C 
BRANCH  35  36
ATOM     36  C   UNL     1      -9.526  53.367  45.457  0.00  0.00    +0.000 C 
ATOM     37  C   UNL     1      -8.315  54.272  45.164  0.00  0.00    +0.000 C 
ATOM     38  C   UNL     1      -9.034  52.169  46.294  0.00  0.00    +0.000 C 
ATOM     39  C   UNL     1     -10.100  52.838  44.133  0.00  0.00    +0.000 C 
ENDBRANCH  35  36
ENDBRANCH  34  35
ENDBRANCH   5  34
TORSDOF 9
ENDMDL
MODEL 6
REMARK VINA RESULT:      -7.9      2.324      5.642
REMARK  Name = 338328
REMARK  12 active torsions:
REMARK  status: ('A' for Active; 'I' for Inactive)
REMARK    1  A    between atoms: C_6  and  C_10
REMARK    2  A    between atoms: C_14  and  O_18
REMARK    3  A    between atoms: N_17  and  C_21
REMARK    4  A    between atoms: C_21  and  C_24
REMARK    5  A    between atoms: C_24  and  C_27
REMARK    6  A    between atoms: C_25  and  N_28
REMARK    7  A    between atoms: C_27  and  C_29
REMARK    8  A    between atoms: C_27  and  C_30
REMARK    9  A    between atoms: C_27  and  C_31
REMARK   10  A    between atoms: N_28  and  C_32
REMARK   11  A    between atoms: C_32  and  C_33
REMARK   12  A    between atoms: C_33  and  O_34
REMARK                            x       y       z     vdW  Elec       q    Type
REMARK                         _______ _______ _______ _____ _____    ______ ____
ROOT
ATOM      1  C   UNL     1     -10.392  53.378  48.448  0.00  0.00    +0.000 A 
ATOM      2  C   UNL     1     -11.357  54.507  48.616  0.00  0.00    +0.000 A 
ATOM      3  C   UNL     1      -9.560  53.056  49.454  0.00  0.00    +0.000 A 
ATOM      4  O   UNL     1     -12.052  54.835  47.646  0.00  0.00    +0.000 OA
ATOM      5  N   UNL     1     -11.432  55.146  49.849  0.00  0.00    +0.000 N 
ATOM      6  C   UNL     1      -9.657  53.733  50.752  0.00  0.00    +0.000 A 
ATOM      7  C   UNL     1     -10.610  54.742  50.944  0.00  0.00    +0.000 A 
ATOM      8  C   UNL     1      -8.851  53.329  51.832  0.00  0.00    +0.000 A 
ATOM      9  C   UNL     1     -10.730  55.317  52.217  0.00  0.00    +0.000 A 
ATOM     10  C   UNL     1      -9.013  53.862  53.111  0.00  0.00    +0.000 A 
ATOM     11  C   UNL     1      -9.927  54.897  53.278  0.00  0.00    +0.000 A 
ENDROOT
BRANCH   1  17
ATOM     12  S   UNL     1     -10.825  50.551  45.753  0.00  0.00    +0.000 S 
ATOM     13  O   UNL     1     -12.204  50.481  45.303  0.00  0.00    +0.000 OA
ATOM     14  O   UNL     1     -10.074  49.333  45.992  0.00  0.00    +0.000 OA
ATOM     15  N   UNL     1     -10.774  51.421  47.114  0.00  0.00    +0.000 N 
ATOM     16  C   UNL     1      -9.952  51.425  44.508  0.00  0.00    +0.000 A 
ATOM     17  C   UNL     1     -10.317  52.641  47.121  0.00  0.00    +0.000 C 
ATOM     18  C   UNL     1      -9.565  52.727  44.786  0.00  0.00    +0.000 A 
ATOM     19  C   UNL     1      -9.677  50.807  43.285  0.00  0.00    +0.000 A 
ATOM     20  N   UNL     1      -9.783  53.295  46.036  0.00  0.00    +0.000 N 
ATOM     21  C   UNL     1      -8.863  53.426  43.801  0.00  0.00    +0.000 A 
ATOM     22  C   UNL     1      -8.987  51.518  42.311  0.00  0.00    +0.000 A 
ATOM     23  C   UNL     1      -8.578  52.828  42.566  0.00  0.00    +0.000 A 
ATOM     24  H   UNL     1     -11.093  51.020  47.955  0.00  0.00    +0.000 HD
ATOM     25  H   UNL     1      -9.534  54.240  46.155  0.00  0.00    +0.000 HD
ENDBRANCH   1  17
BRANCH   3  26
ATOM     26  O   UNL     1      -8.588  52.072  49.385  0.00  0.00    +0.000 OA
ATOM     27  H   UNL     1      -8.835  51.177  49.265  0.00  0.00    +0.000 HD
ENDBRANCH   3  26
BRANCH  10  28
ATOM     28  N   UNL     1      -8.211  53.358  54.141  0.00  0.00    +0.000 N 
ATOM     29  H   UNL     1      -8.548  53.290  55.064  0.00  0.00    +0.000 HD
BRANCH  28  30
ATOM     30  C   UNL     1      -6.850  52.934  53.793  0.00  0.00    +0.000 C 
BRANCH  30  31
ATOM     31  C   UNL     1      -5.849  53.961  54.325  0.00  0.00    +0.000 C 
BRANCH  31  32
ATOM     32  O   UNL     1      -6.369  54.610  55.484  0.00  0.00    +0.000 OA
ATOM     33  H   UNL     1      -6.929  55.355  55.214  0.00  0.00    +0.000 HD
ENDBRANCH  31  32
ENDBRANCH  30  31
ENDBRANCH  28  30
ENDBRANCH  10  28
BRANCH   5  34
ATOM     34  C   UNL     1     -12.435  56.203  50.024  0.00  0.00    +0.000 C 
BRANCH  34  35
ATOM     35  C   UNL     1     -13.765  55.713  50.631  0.00  0.00    +0.000 C 
BRANCH  35  36
ATOM     36  C   UNL     1     -14.761  56.845  51.007  0.00  0.00    +0.000 C 
ATOM     37  C   UNL     1     -16.220  56.432  50.737  0.00  0.00    +0.000 C 
ATOM     38  C   UNL     1     -14.621  57.143  52.513  0.00  0.00    +0.000 C 
ATOM     39  C   UNL     1     -14.439  58.125  50.221  0.00  0.00    +0.000 C 
ENDBRANCH  35  36
ENDBRANCH  34  35
ENDBRANCH   5  34
TORSDOF 9
ENDMDL
MODEL 7
REMARK VINA RESULT:      -7.9      2.851      7.683
REMARK  Name = 338328
REMARK  12 active torsions:
REMARK  status: ('A' for Active; 'I' for Inactive)
REMARK    1  A    between atoms: C_6  and  C_10
REMARK    2  A    between atoms: C_14  and  O_18
REMARK    3  A    between atoms: N_17  and  C_21
REMARK    4  A    between atoms: C_21  and  C_24
REMARK    5  A    between atoms: C_24  and  C_27
REMARK    6  A    between atoms: C_25  and  N_28
REMARK    7  A    between atoms: C_27  and  C_29
REMARK    8  A    between atoms: C_27  and  C_30
REMARK    9  A    between atoms: C_27  and  C_31
REMARK   10  A    between atoms: N_28  and  C_32
REMARK   11  A    between atoms: C_32  and  C_33
REMARK   12  A    between atoms: C_33  and  O_34
REMARK                            x       y       z     vdW  Elec       q    Type
REMARK                         _______ _______ _______ _____ _____    ______ ____
ROOT
ATOM      1  C   UNL     1     -10.619  55.826  48.812  0.00  0.00    +0.000 A 
ATOM      2  C   UNL     1      -9.283  55.694  49.472  0.00  0.00    +0.000 A 
ATOM      3  C   UNL     1     -10.782  55.404  47.546  0.00  0.00    +0.000 A 
ATOM      4  O   UNL     1      -9.141  56.165  50.607  0.00  0.00    +0.000 OA
ATOM      5  N   UNL     1      -8.257  55.057  48.784  0.00  0.00    +0.000 N 
ATOM      6  C   UNL     1      -9.691  54.725  46.836  0.00  0.00    +0.000 A 
ATOM      7  C   UNL     1      -8.459  54.530  47.472  0.00  0.00    +0.000 A 
ATOM      8  C   UNL     1      -9.895  54.201  45.547  0.00  0.00    +0.000 A 
ATOM      9  C   UNL     1      -7.463  53.810  46.797  0.00  0.00    +0.000 A 
ATOM     10  C   UNL     1      -8.922  53.436  44.901  0.00  0.00    +0.000 A 
ATOM     11  C   UNL     1      -7.686  53.291  45.522  0.00  0.00    +0.000 A 
ENDROOT
BRANCH   1  17
ATOM     12  S   UNL     1     -13.507  56.388  51.417  0.00  0.00    +0.000 S 
ATOM     13  O   UNL     1     -12.962  56.681  52.730  0.00  0.00    +0.000 OA
ATOM     14  O   UNL     1     -14.654  55.509  51.284  0.00  0.00    +0.000 OA
ATOM     15  N   UNL     1     -12.328  55.778  50.496  0.00  0.00    +0.000 N 
ATOM     16  C   UNL     1     -13.994  57.930  50.738  0.00  0.00    +0.000 A 
ATOM     17  C   UNL     1     -11.766  56.486  49.558  0.00  0.00    +0.000 C 
ATOM     18  C   UNL     1     -13.214  58.462  49.723  0.00  0.00    +0.000 A 
ATOM     19  C   UNL     1     -15.130  58.579  51.228  0.00  0.00    +0.000 A 
ATOM     20  N   UNL     1     -12.132  57.763  49.200  0.00  0.00    +0.000 N 
ATOM     21  C   UNL     1     -13.601  59.687  49.174  0.00  0.00    +0.000 A 
ATOM     22  C   UNL     1     -15.498  59.801  50.679  0.00  0.00    +0.000 A 
ATOM     23  C   UNL     1     -14.735  60.358  49.651  0.00  0.00    +0.000 A 
ATOM     24  H   UNL     1     -12.028  54.853  50.646  0.00  0.00    +0.000 HD
ATOM     25  H   UNL     1     -11.586  58.216  48.519  0.00  0.00    +0.000 HD
ENDBRANCH   1  17
BRANCH   3  26
ATOM     26  O   UNL     1     -11.954  55.533  46.820  0.00  0.00    +0.000 OA
ATOM     27  H   UNL     1     -12.781  55.386  47.235  0.00  0.00    +0.000 HD
ENDBRANCH   3  26
BRANCH  10  28
ATOM     28  N   UNL     1      -9.231  52.900  43.646  0.00  0.00    +0.000 N 
ATOM     29  H   UNL     1      -9.750  53.414  42.985  0.00  0.00    +0.000 HD
BRANCH  28  30
ATOM     30  C   UNL     1      -8.753  51.544  43.353  0.00  0.00    +0.000 C 
BRANCH  30  31
ATOM     31  C   UNL     1      -9.550  50.970  42.179  0.00  0.00    +0.000 C 
BRANCH  31  32
ATOM     32  O   UNL     1     -10.948  51.016  42.457  0.00  0.00    +0.000 OA
ATOM     33  H   UNL     1     -11.294  50.112  42.526  0.00  0.00    +0.000 HD
ENDBRANCH  31  32
ENDBRANCH  30  31
ENDBRANCH  28  30
ENDBRANCH  10  28
BRANCH   5  34
ATOM     34  C   UNL     1      -6.973  54.867  49.470  0.00  0.00    +0.000 C 
BRANCH  34  35
ATOM     35  C   UNL     1      -6.909  53.600  50.345  0.00  0.00    +0.000 C 
BRANCH  35  36
ATOM     36  C   UNL     1      -5.978  53.714  51.584  0.00  0.00    +0.000 C 
ATOM     37  C   UNL     1      -5.936  52.401  52.387  0.00  0.00    +0.000 C 
ATOM     38  C   UNL     1      -4.547  54.023  51.099  0.00  0.00    +0.000 C 
ATOM     39  C   UNL     1      -6.443  54.858  52.499  0.00  0.00    +0.000 C 
ENDBRANCH  35  36
ENDBRANCH  34  35
ENDBRANCH   5  34
TORSDOF 9
ENDMDL
MODEL 8
REMARK VINA RESULT:      -7.8      2.738      8.268
REMARK  Name = 338328
REMARK  12 active torsions:
REMARK  status: ('A' for Active; 'I' for Inactive)
REMARK    1  A    between atoms: C_6  and  C_10
REMARK    2  A    between atoms: C_14  and  O_18
REMARK    3  A    between atoms: N_17  and  C_21
REMARK    4  A    between atoms: C_21  and  C_24
REMARK    5  A    between atoms: C_24  and  C_27
REMARK    6  A    between atoms: C_25  and  N_28
REMARK    7  A    between atoms: C_27  and  C_29
REMARK    8  A    between atoms: C_27  and  C_30
REMARK    9  A    between atoms: C_27  and  C_31
REMARK   10  A    between atoms: N_28  and  C_32
REMARK   11  A    between atoms: C_32  and  C_33
REMARK   12  A    between atoms: C_33  and  O_34
REMARK                            x       y       z     vdW  Elec       q    Type
REMARK                         _______ _______ _______ _____ _____    ______ ____
ROOT
ATOM      1  C   UNL     1     -11.440  54.628  50.471  0.00  0.00    +0.000 A 
ATOM      2  C   UNL     1     -11.573  53.658  49.341  0.00  0.00    +0.000 A 
ATOM      3  C   UNL     1     -10.524  54.412  51.432  0.00  0.00    +0.000 A 
ATOM      4  O   UNL     1     -12.477  53.837  48.517  0.00  0.00    +0.000 OA
ATOM      5  N   UNL     1     -10.682  52.593  49.265  0.00  0.00    +0.000 N 
ATOM      6  C   UNL     1      -9.585  53.289  51.333  0.00  0.00    +0.000 A 
ATOM      7  C   UNL     1      -9.652  52.417  50.238  0.00  0.00    +0.000 A 
ATOM      8  C   UNL     1      -8.567  53.121  52.289  0.00  0.00    +0.000 A 
ATOM      9  C   UNL     1      -8.693  51.400  50.132  0.00  0.00    +0.000 A 
ATOM     10  C   UNL     1      -7.580  52.144  52.150  0.00  0.00    +0.000 A 
ATOM     11  C   UNL     1      -7.686  51.254  51.087  0.00  0.00    +0.000 A 
ENDROOT
BRANCH   1  17
ATOM     12  S   UNL     1     -13.418  57.864  49.445  0.00  0.00    +0.000 S 
ATOM     13  O   UNL     1     -14.500  57.535  48.535  0.00  0.00    +0.000 OA
ATOM     14  O   UNL     1     -12.612  59.050  49.219  0.00  0.00    +0.000 OA
ATOM     15  N   UNL     1     -12.408  56.605  49.518  0.00  0.00    +0.000 N 
ATOM     16  C   UNL     1     -14.155  58.071  51.023  0.00  0.00    +0.000 A 
ATOM     17  C   UNL     1     -12.379  55.820  50.556  0.00  0.00    +0.000 C 
ATOM     18  C   UNL     1     -13.950  57.074  51.965  0.00  0.00    +0.000 A 
ATOM     19  C   UNL     1     -14.923  59.207  51.290  0.00  0.00    +0.000 A 
ATOM     20  N   UNL     1     -13.120  55.990  51.702  0.00  0.00    +0.000 N 
ATOM     21  C   UNL     1     -14.529  57.236  53.226  0.00  0.00    +0.000 A 
ATOM     22  C   UNL     1     -15.501  59.350  52.545  0.00  0.00    +0.000 A 
ATOM     23  C   UNL     1     -15.306  58.366  53.516  0.00  0.00    +0.000 A 
ATOM     24  H   UNL     1     -11.802  56.429  48.762  0.00  0.00    +0.000 HD
ATOM     25  H   UNL     1     -13.058  55.290  52.390  0.00  0.00    +0.000 HD
ENDBRANCH   1  17
BRANCH   3  26
ATOM     26  O   UNL     1     -10.357  55.209  52.551  0.00  0.00    +0.000 OA
ATOM     27  H   UNL     1      -9.703  55.881  52.555  0.00  0.00    +0.000 HD
ENDBRANCH   3  26
BRANCH  10  28
ATOM     28  N   UNL     1      -6.569  52.088  53.115  0.00  0.00    +0.000 N 
ATOM     29  H   UNL     1      -5.669  51.753  52.894  0.00  0.00    +0.000 HD
BRANCH  28  30
ATOM     30  C   UNL     1      -6.900  52.545  54.470  0.00  0.00    +0.000 C 
BRANCH  30  31
ATOM     31  C   UNL     1      -6.040  53.762  54.816  0.00  0.00    +0.000 C 
BRANCH  31  32
ATOM     32  O   UNL     1      -6.863  54.892  55.098  0.00  0.00    +0.000 OA
ATOM     33  H   UNL     1      -6.354  55.706  54.963  0.00  0.00    +0.000 HD
ENDBRANCH  31  32
ENDBRANCH  30  31
ENDBRANCH  28  30
ENDBRANCH  10  28
BRANCH   5  34
ATOM     34  C   UNL     1     -10.775  51.691  48.111  0.00  0.00    +0.000 C 
BRANCH  34  35
ATOM     35  C   UNL     1     -10.098  52.229  46.835  0.00  0.00    +0.000 C 
BRANCH  35  36
ATOM     36  C   UNL     1     -11.019  52.274  45.584  0.00  0.00    +0.000 C 
ATOM     37  C   UNL     1     -10.359  51.596  44.369  0.00  0.00    +0.000 C 
ATOM     38  C   UNL     1     -12.322  51.514  45.903  0.00  0.00    +0.000 C 
ATOM     39  C   UNL     1     -11.372  53.727  45.230  0.00  0.00    +0.000 C 
ENDBRANCH  35  36
ENDBRANCH  34  35
ENDBRANCH   5  34
TORSDOF 9
ENDMDL
MODEL 9
REMARK VINA RESULT:      -7.7      2.653      6.852
REMARK  Name = 338328
REMARK  12 active torsions:
REMARK  status: ('A' for Active; 'I' for Inactive)
REMARK    1  A    between atoms: C_6  and  C_10
REMARK    2  A    between atoms: C_14  and  O_18
REMARK    3  A    between atoms: N_17  and  C_21
REMARK    4  A    between atoms: C_21  and  C_24
REMARK    5  A    between atoms: C_24  and  C_27
REMARK    6  A    between atoms: C_25  and  N_28
REMARK    7  A    between atoms: C_27  and  C_29
REMARK    8  A    between atoms: C_27  and  C_30
REMARK    9  A    between atoms: C_27  and  C_31
REMARK   10  A    between atoms: N_28  and  C_32
REMARK   11  A    between atoms: C_32  and  C_33
REMARK   12  A    between atoms: C_33  and  O_34
REMARK                            x       y       z     vdW  Elec       q    Type
REMARK                         _______ _______ _______ _____ _____    ______ ____
ROOT
ATOM      1  C   UNL     1      -9.275  54.269  50.562  0.00  0.00    +0.000 A 
ATOM      2  C   UNL     1      -8.811  53.906  49.187  0.00  0.00    +0.000 A 
ATOM      3  C   UNL     1     -10.298  55.127  50.717  0.00  0.00    +0.000 A 
ATOM      4  O   UNL     1      -7.816  53.180  49.076  0.00  0.00    +0.000 OA
ATOM      5  N   UNL     1      -9.510  54.404  48.093  0.00  0.00    +0.000 N 
ATOM      6  C   UNL     1     -11.031  55.636  49.552  0.00  0.00    +0.000 A 
ATOM      7  C   UNL     1     -10.652  55.244  48.262  0.00  0.00    +0.000 A 
ATOM      8  C   UNL     1     -12.160  56.458  49.721  0.00  0.00    +0.000 A 
ATOM      9  C   UNL     1     -11.419  55.685  47.175  0.00  0.00    +0.000 A 
ATOM     10  C   UNL     1     -12.955  56.848  48.642  0.00  0.00    +0.000 A 
ATOM     11  C   UNL     1     -12.541  56.494  47.363  0.00  0.00    +0.000 A 
ENDROOT
BRANCH   1  17
ATOM     12  S   UNL     1      -6.423  53.561  53.172  0.00  0.00    +0.000 S 
ATOM     13  O   UNL     1      -6.222  54.712  54.034  0.00  0.00    +0.000 OA
ATOM     14  O   UNL     1      -5.282  52.818  52.671  0.00  0.00    +0.000 OA
ATOM     15  N   UNL     1      -7.292  54.026  51.891  0.00  0.00    +0.000 N 
ATOM     16  C   UNL     1      -7.378  52.419  54.099  0.00  0.00    +0.000 A 
ATOM     17  C   UNL     1      -8.550  53.708  51.774  0.00  0.00    +0.000 C 
ATOM     18  C   UNL     1      -8.711  52.261  53.750  0.00  0.00    +0.000 A 
ATOM     19  C   UNL     1      -6.791  51.713  55.153  0.00  0.00    +0.000 A 
ATOM     20  N   UNL     1      -9.253  52.917  52.651  0.00  0.00    +0.000 N 
ATOM     21  C   UNL     1      -9.474  51.348  54.482  0.00  0.00    +0.000 A 
ATOM     22  C   UNL     1      -7.565  50.816  55.877  0.00  0.00    +0.000 A 
ATOM     23  C   UNL     1      -8.908  50.631  55.544  0.00  0.00    +0.000 A 
ATOM     24  H   UNL     1      -6.861  54.558  51.184  0.00  0.00    +0.000 HD
ATOM     25  H   UNL     1     -10.217  52.806  52.488  0.00  0.00    +0.000 HD
ENDBRANCH   1  17
BRANCH   3  26
ATOM     26  O   UNL     1     -10.768  55.577  51.939  0.00  0.00    +0.000 OA
ATOM     27  H   UNL     1     -11.690  55.649  52.089  0.00  0.00    +0.000 HD
ENDBRANCH   3  26
BRANCH  10  28
ATOM     28  N   UNL     1     -14.096  57.614  48.907  0.00  0.00    +0.000 N 
ATOM     29  H   UNL     1     -14.914  57.514  48.369  0.00  0.00    +0.000 HD
BRANCH  28  30
ATOM     30  C   UNL     1     -14.025  58.571  50.018  0.00  0.00    +0.000 C 
BRANCH  30  31
ATOM     31  C   UNL     1     -14.322  59.977  49.493  0.00  0.00    +0.000 C 
BRANCH  31  32
ATOM     32  O   UNL     1     -13.150  60.788  49.548  0.00  0.00    +0.000 OA
ATOM     33  H   UNL     1     -13.344  61.662  49.176  0.00  0.00    +0.000 HD
ENDBRANCH  31  32
ENDBRANCH  30  31
ENDBRANCH  28  30
ENDBRANCH  10  28
BRANCH   5  34
ATOM     34  C   UNL     1      -9.091  53.982  46.751  0.00  0.00    +0.000 C 
BRANCH  34  35
ATOM     35  C   UNL     1      -9.738  52.666  46.275  0.00  0.00    +0.000 C 
BRANCH  35  36
ATOM     36  C   UNL     1      -9.780  52.486  44.732  0.00  0.00    +0.000 C 
ATOM     37  C   UNL     1      -9.658  51.005  44.329  0.00  0.00    +0.000 C 
ATOM     38  C   UNL     1     -11.132  53.011  44.211  0.00  0.00    +0.000 C 
ATOM     39  C   UNL     1      -8.652  53.290  44.068  0.00  0.00    +0.000 C 
ENDBRANCH  35  36
ENDBRANCH  34  35
ENDBRANCH   5  34
TORSDOF 9
ENDMDL
