MODEL 1
REMARK VINA RESULT:      -8.6      0.000      0.000
REMARK  Name = 338168
REMARK  5 active torsions:
REMARK  status: ('A' for Active; 'I' for Inactive)
REMARK    1  A    between atoms: C_6  and  C_10
REMARK    2  A    between atoms: C_14  and  O_18
REMARK    3  A    between atoms: N_17  and  C_21
REMARK    4  A    between atoms: C_21  and  C_24
REMARK    5  A    between atoms: C_24  and  C_27
REMARK                            x       y       z     vdW  Elec       q    Type
REMARK                         _______ _______ _______ _____ _____    ______ ____
ROOT
ATOM      1  C   UNL     1      -9.991  54.548  52.364  0.00  0.00    +0.000 A 
ATOM      2  C   UNL     1      -8.599  55.059  52.256  0.00  0.00    +0.000 A 
ATOM      3  C   UNL     1     -10.242  53.416  53.042  0.00  0.00    +0.000 A 
ATOM      4  O   UNL     1      -8.402  56.007  51.492  0.00  0.00    +0.000 OA
ATOM      5  N   UNL     1      -7.601  54.476  53.040  0.00  0.00    +0.000 N 
ATOM      6  C   UNL     1      -9.161  52.705  53.733  0.00  0.00    +0.000 A 
ATOM      7  C   UNL     1      -7.859  53.248  53.748  0.00  0.00    +0.000 A 
ATOM      8  C   UNL     1      -9.439  51.508  54.419  0.00  0.00    +0.000 A 
ATOM      9  C   UNL     1      -6.864  52.554  54.464  0.00  0.00    +0.000 A 
ATOM     10  C   UNL     1      -8.445  50.868  55.139  0.00  0.00    +0.000 A 
ATOM     11  C   UNL     1      -7.161  51.380  55.169  0.00  0.00    +0.000 A 
ATOM     12  F   UNL     1      -8.730  49.750  55.817  0.00  0.00    +0.000 F 
ENDROOT
BRANCH   1  18
ATOM     13  S   UNL     1     -12.383  55.782  49.426  0.00  0.00    +0.000 S 
ATOM     14  O   UNL     1     -13.061  54.542  49.142  0.00  0.00    +0.000 OA
ATOM     15  O   UNL     1     -11.942  56.676  48.375  0.00  0.00    +0.000 OA
ATOM     16  N   UNL     1     -11.059  55.450  50.354  0.00  0.00    +0.000 N 
ATOM     17  C   UNL     1     -13.369  56.692  50.536  0.00  0.00    +0.000 A 
ATOM     18  C   UNL     1     -11.131  55.276  51.734  0.00  0.00    +0.000 C 
ATOM     19  C   UNL     1     -13.104  56.553  51.893  0.00  0.00    +0.000 A 
ATOM     20  C   UNL     1     -14.362  57.548  50.049  0.00  0.00    +0.000 A 
ATOM     21  N   UNL     1     -12.117  55.723  52.447  0.00  0.00    +0.000 N 
ATOM     22  C   UNL     1     -13.861  57.322  52.782  0.00  0.00    +0.000 A 
ATOM     23  C   UNL     1     -15.115  58.293  50.953  0.00  0.00    +0.000 A 
ATOM     24  C   UNL     1     -14.859  58.186  52.319  0.00  0.00    +0.000 A 
ATOM     25  H   UNL     1     -10.182  55.374  49.913  0.00  0.00    +0.000 HD
ATOM     26  H   UNL     1     -12.175  55.475  53.398  0.00  0.00    +0.000 HD
ENDBRANCH   1  18
BRANCH   3  27
ATOM     27  O   UNL     1     -11.496  52.842  53.179  0.00  0.00    +0.000 OA
ATOM     28  H   UNL     1     -11.580  51.974  53.524  0.00  0.00    +0.000 HD
ENDBRANCH   3  27
BRANCH   5  29
ATOM     29  C   UNL     1      -6.224  55.019  52.972  0.00  0.00    +0.000 C 
BRANCH  29  30
ATOM     30  C   UNL     1      -5.216  54.236  52.111  0.00  0.00    +0.000 C 
BRANCH  30  31
ATOM     31  C   UNL     1      -5.345  54.519  50.639  0.00  0.00    +0.000 C 
ATOM     32  C   UNL     1      -6.159  53.670  49.699  0.00  0.00    +0.000 C 
ATOM     33  C   UNL     1      -4.660  53.590  49.671  0.00  0.00    +0.000 C 
ENDBRANCH  30  31
ENDBRANCH  29  30
ENDBRANCH   5  29
TORSDOF 5
ENDMDL
MODEL 2
REMARK VINA RESULT:      -8.3      3.865      7.419
REMARK  Name = 338168
REMARK  5 active torsions:
REMARK  status: ('A' for Active; 'I' for Inactive)
REMARK    1  A    between atoms: C_6  and  C_10
REMARK    2  A    between atoms: C_14  and  O_18
REMARK    3  A    between atoms: N_17  and  C_21
REMARK    4  A    between atoms: C_21  and  C_24
REMARK    5  A    between atoms: C_24  and  C_27
REMARK                            x       y       z     vdW  Elec       q    Type
REMARK                         _______ _______ _______ _____ _____    ______ ____
ROOT
ATOM      1  C   UNL     1     -10.170  55.087  50.819  0.00  0.00    +0.000 A 
ATOM      2  C   UNL     1      -9.806  55.152  49.379  0.00  0.00    +0.000 A 
ATOM      3  C   UNL     1     -11.366  55.535  51.233  0.00  0.00    +0.000 A 
ATOM      4  O   UNL     1      -8.641  54.880  49.077  0.00  0.00    +0.000 OA
ATOM      5  N   UNL     1     -10.792  55.478  48.446  0.00  0.00    +0.000 N 
ATOM      6  C   UNL     1     -12.349  56.036  50.266  0.00  0.00    +0.000 A 
ATOM      7  C   UNL     1     -12.069  55.984  48.885  0.00  0.00    +0.000 A 
ATOM      8  C   UNL     1     -13.589  56.523  50.720  0.00  0.00    +0.000 A 
ATOM      9  C   UNL     1     -13.061  56.432  47.992  0.00  0.00    +0.000 A 
ATOM     10  C   UNL     1     -14.555  56.927  49.814  0.00  0.00    +0.000 A 
ATOM     11  C   UNL     1     -14.303  56.885  48.456  0.00  0.00    +0.000 A 
ATOM     12  F   UNL     1     -15.744  57.355  50.257  0.00  0.00    +0.000 F 
ENDROOT
BRANCH   1  18
ATOM     13  S   UNL     1      -6.882  54.886  53.061  0.00  0.00    +0.000 S 
ATOM     14  O   UNL     1      -7.155  55.969  53.971  0.00  0.00    +0.000 OA
ATOM     15  O   UNL     1      -5.563  54.661  52.506  0.00  0.00    +0.000 OA
ATOM     16  N   UNL     1      -7.920  55.005  51.784  0.00  0.00    +0.000 N 
ATOM     17  C   UNL     1      -7.415  53.406  53.810  0.00  0.00    +0.000 A 
ATOM     18  C   UNL     1      -9.226  54.522  51.828  0.00  0.00    +0.000 C 
ATOM     19  C   UNL     1      -8.701  52.965  53.517  0.00  0.00    +0.000 A 
ATOM     20  C   UNL     1      -6.550  52.693  54.644  0.00  0.00    +0.000 A 
ATOM     21  N   UNL     1      -9.614  53.626  52.681  0.00  0.00    +0.000 N 
ATOM     22  C   UNL     1      -9.111  51.752  54.077  0.00  0.00    +0.000 A 
ATOM     23  C   UNL     1      -6.984  51.494  55.203  0.00  0.00    +0.000 A 
ATOM     24  C   UNL     1      -8.263  51.020  54.913  0.00  0.00    +0.000 A 
ATOM     25  H   UNL     1      -7.603  55.435  50.957  0.00  0.00    +0.000 HD
ATOM     26  H   UNL     1     -10.571  53.403  52.743  0.00  0.00    +0.000 HD
ENDBRANCH   1  18
BRANCH   3  27
ATOM     27  O   UNL     1     -11.791  55.544  52.552  0.00  0.00    +0.000 OA
ATOM     28  H   UNL     1     -11.461  56.190  53.146  0.00  0.00    +0.000 HD
ENDBRANCH   3  27
BRANCH   5  29
ATOM     29  C   UNL     1     -10.443  55.492  47.005  0.00  0.00    +0.000 C 
BRANCH  29  30
ATOM     30  C   UNL     1     -10.266  54.122  46.325  0.00  0.00    +0.000 C 
BRANCH  30  31
ATOM     31  C   UNL     1     -11.255  53.874  45.220  0.00  0.00    +0.000 C 
ATOM     32  C   UNL     1     -12.039  52.597  45.078  0.00  0.00    +0.000 C 
ATOM     33  C   UNL     1     -10.894  52.878  44.149  0.00  0.00    +0.000 C 
ENDBRANCH  30  31
ENDBRANCH  29  30
ENDBRANCH   5  29
TORSDOF 5
ENDMDL
MODEL 3
REMARK VINA RESULT:      -8.3      3.818      5.396
REMARK  Name = 338168
REMARK  5 active torsions:
REMARK  status: ('A' for Active; 'I' for Inactive)
REMARK    1  A    between atoms: C_6  and  C_10
REMARK    2  A    between atoms: C_14  and  O_18
REMARK    3  A    between atoms: N_17  and  C_21
REMARK    4  A    between atoms: C_21  and  C_24
REMARK    5  A    between atoms: C_24  and  C_27
REMARK                            x       y       z     vdW  Elec       q    Type
REMARK                         _______ _______ _______ _____ _____    ______ ____
ROOT
ATOM      1  C   UNL     1     -11.479  55.776  48.982  0.00  0.00    +0.000 A 
ATOM      2  C   UNL     1     -10.404  55.092  49.748  0.00  0.00    +0.000 A 
ATOM      3  C   UNL     1     -11.644  55.518  47.674  0.00  0.00    +0.000 A 
ATOM      4  O   UNL     1     -10.193  55.482  50.898  0.00  0.00    +0.000 OA
ATOM      5  N   UNL     1      -9.718  54.032  49.152  0.00  0.00    +0.000 N 
ATOM      6  C   UNL     1     -10.809  54.518  47.001  0.00  0.00    +0.000 A 
ATOM      7  C   UNL     1      -9.872  53.768  47.743  0.00  0.00    +0.000 A 
ATOM      8  C   UNL     1     -10.980  54.277  45.625  0.00  0.00    +0.000 A 
ATOM      9  C   UNL     1      -9.126  52.786  47.063  0.00  0.00    +0.000 A 
ATOM     10  C   UNL     1     -10.252  53.283  44.994  0.00  0.00    +0.000 A 
ATOM     11  C   UNL     1      -9.329  52.535  45.699  0.00  0.00    +0.000 A 
ATOM     12  F   UNL     1     -10.450  53.040  43.692  0.00  0.00    +0.000 F 
ENDROOT
BRANCH   1  18
ATOM     13  S   UNL     1     -13.511  59.172  49.443  0.00  0.00    +0.000 S 
ATOM     14  O   UNL     1     -14.500  58.993  48.410  0.00  0.00    +0.000 OA
ATOM     15  O   UNL     1     -12.868  60.449  49.679  0.00  0.00    +0.000 OA
ATOM     16  N   UNL     1     -12.306  58.070  49.206  0.00  0.00    +0.000 N 
ATOM     17  C   UNL     1     -14.198  58.623  50.946  0.00  0.00    +0.000 A 
ATOM     18  C   UNL     1     -12.396  56.751  49.643  0.00  0.00    +0.000 C 
ATOM     19  C   UNL     1     -13.954  57.307  51.321  0.00  0.00    +0.000 A 
ATOM     20  C   UNL     1     -14.936  59.504  51.741  0.00  0.00    +0.000 A 
ATOM     21  N   UNL     1     -13.214  56.375  50.576  0.00  0.00    +0.000 N 
ATOM     22  C   UNL     1     -14.462  56.880  52.551  0.00  0.00    +0.000 A 
ATOM     23  C   UNL     1     -15.446  59.054  52.956  0.00  0.00    +0.000 A 
ATOM     24  C   UNL     1     -15.202  57.743  53.364  0.00  0.00    +0.000 A 
ATOM     25  H   UNL     1     -11.490  58.358  48.737  0.00  0.00    +0.000 HD
ATOM     26  H   UNL     1     -13.318  55.415  50.768  0.00  0.00    +0.000 HD
ENDBRANCH   1  18
BRANCH   3  27
ATOM     27  O   UNL     1     -12.596  56.120  46.867  0.00  0.00    +0.000 OA
ATOM     28  H   UNL     1     -12.332  56.731  46.207  0.00  0.00    +0.000 HD
ENDBRANCH   3  27
BRANCH   5  29
ATOM     29  C   UNL     1      -8.682  53.315  49.932  0.00  0.00    +0.000 C 
BRANCH  29  30
ATOM     30  C   UNL     1      -7.456  54.138  50.369  0.00  0.00    +0.000 C 
BRANCH  30  31
ATOM     31  C   UNL     1      -6.781  54.851  49.230  0.00  0.00    +0.000 C 
ATOM     32  C   UNL     1      -5.829  54.179  48.277  0.00  0.00    +0.000 C 
ATOM     33  C   UNL     1      -5.300  55.111  49.327  0.00  0.00    +0.000 C 
ENDBRANCH  30  31
ENDBRANCH  29  30
ENDBRANCH   5  29
TORSDOF 5
ENDMDL
MODEL 4
REMARK VINA RESULT:      -8.2      3.675      7.275
REMARK  Name = 338168
REMARK  5 active torsions:
REMARK  status: ('A' for Active; 'I' for Inactive)
REMARK    1  A    between atoms: C_6  and  C_10
REMARK    2  A    between atoms: C_14  and  O_18
REMARK    3  A    between atoms: N_17  and  C_21
REMARK    4  A    between atoms: C_21  and  C_24
REMARK    5  A    between atoms: C_24  and  C_27
REMARK                            x       y       z     vdW  Elec       q    Type
REMARK                         _______ _______ _______ _____ _____    ______ ____
ROOT
ATOM      1  C   UNL     1     -10.156  55.438  50.478  0.00  0.00    +0.000 A 
ATOM      2  C   UNL     1     -10.323  55.689  49.022  0.00  0.00    +0.000 A 
ATOM      3  C   UNL     1     -11.191  55.613  51.315  0.00  0.00    +0.000 A 
ATOM      4  O   UNL     1      -9.306  55.670  48.325  0.00  0.00    +0.000 OA
ATOM      5  N   UNL     1     -11.607  55.893  48.514  0.00  0.00    +0.000 N 
ATOM      6  C   UNL     1     -12.510  55.993  50.799  0.00  0.00    +0.000 A 
ATOM      7  C   UNL     1     -12.717  56.108  49.409  0.00  0.00    +0.000 A 
ATOM      8  C   UNL     1     -13.579  56.195  51.693  0.00  0.00    +0.000 A 
ATOM      9  C   UNL     1     -14.012  56.428  48.958  0.00  0.00    +0.000 A 
ATOM     10  C   UNL     1     -14.846  56.478  51.215  0.00  0.00    +0.000 A 
ATOM     11  C   UNL     1     -15.073  56.595  49.857  0.00  0.00    +0.000 A 
ATOM     12  F   UNL     1     -15.861  56.633  52.074  0.00  0.00    +0.000 F 
ENDROOT
BRANCH   1  18
ATOM     13  S   UNL     1      -6.560  53.721  50.477  0.00  0.00    +0.000 S 
ATOM     14  O   UNL     1      -5.845  54.679  49.672  0.00  0.00    +0.000 OA
ATOM     15  O   UNL     1      -6.369  52.293  50.325  0.00  0.00    +0.000 OA
ATOM     16  N   UNL     1      -8.177  54.005  50.310  0.00  0.00    +0.000 N 
ATOM     17  C   UNL     1      -6.303  54.128  52.151  0.00  0.00    +0.000 A 
ATOM     18  C   UNL     1      -8.848  54.985  51.038  0.00  0.00    +0.000 C 
ATOM     19  C   UNL     1      -7.249  54.940  52.767  0.00  0.00    +0.000 A 
ATOM     20  C   UNL     1      -5.196  53.616  52.834  0.00  0.00    +0.000 A 
ATOM     21  N   UNL     1      -8.386  55.478  52.144  0.00  0.00    +0.000 N 
ATOM     22  C   UNL     1      -7.071  55.226  54.124  0.00  0.00    +0.000 A 
ATOM     23  C   UNL     1      -5.030  53.925  54.181  0.00  0.00    +0.000 A 
ATOM     24  C   UNL     1      -5.972  54.724  54.828  0.00  0.00    +0.000 A 
ATOM     25  H   UNL     1      -8.688  53.458  49.671  0.00  0.00    +0.000 HD
ATOM     26  H   UNL     1      -8.843  56.246  52.557  0.00  0.00    +0.000 HD
ENDBRANCH   1  18
BRANCH   3  27
ATOM     27  O   UNL     1     -11.133  55.434  52.688  0.00  0.00    +0.000 OA
ATOM     28  H   UNL     1     -11.891  55.597  53.215  0.00  0.00    +0.000 HD
ENDBRANCH   3  27
BRANCH   5  29
ATOM     29  C   UNL     1     -11.780  56.091  47.055  0.00  0.00    +0.000 C 
BRANCH  29  30
ATOM     30  C   UNL     1     -12.074  54.832  46.219  0.00  0.00    +0.000 C 
BRANCH  30  31
ATOM     31  C   UNL     1     -10.843  54.226  45.603  0.00  0.00    +0.000 C 
ATOM     32  C   UNL     1     -10.882  53.122  44.580  0.00  0.00    +0.000 C 
ATOM     33  C   UNL     1     -10.468  52.820  45.991  0.00  0.00    +0.000 C 
ENDBRANCH  30  31
ENDBRANCH  29  30
ENDBRANCH   5  29
TORSDOF 5
ENDMDL
MODEL 5
REMARK VINA RESULT:      -8.0      3.519      7.962
REMARK  Name = 338168
REMARK  5 active torsions:
REMARK  status: ('A' for Active; 'I' for Inactive)
REMARK    1  A    between atoms: C_6  and  C_10
REMARK    2  A    between atoms: C_14  and  O_18
REMARK    3  A    between atoms: N_17  and  C_21
REMARK    4  A    between atoms: C_21  and  C_24
REMARK    5  A    between atoms: C_24  and  C_27
REMARK                            x       y       z     vdW  Elec       q    Type
REMARK                         _______ _______ _______ _____ _____    ______ ____
ROOT
ATOM      1  C   UNL     1      -9.971  54.477  50.700  0.00  0.00    +0.000 A 
ATOM      2  C   UNL     1     -11.120  55.380  50.975  0.00  0.00    +0.000 A 
ATOM      3  C   UNL     1      -9.748  54.032  49.453  0.00  0.00    +0.000 A 
ATOM      4  O   UNL     1     -11.375  55.628  52.156  0.00  0.00    +0.000 OA
ATOM      5  N   UNL     1     -11.823  55.927  49.899  0.00  0.00    +0.000 N 
ATOM      6  C   UNL     1     -10.592  54.477  48.340  0.00  0.00    +0.000 A 
ATOM      7  C   UNL     1     -11.604  55.434  48.562  0.00  0.00    +0.000 A 
ATOM      8  C   UNL     1     -10.357  53.983  47.043  0.00  0.00    +0.000 A 
ATOM      9  C   UNL     1     -12.359  55.867  47.455  0.00  0.00    +0.000 A 
ATOM     10  C   UNL     1     -11.097  54.452  45.971  0.00  0.00    +0.000 A 
ATOM     11  C   UNL     1     -12.094  55.389  46.165  0.00  0.00    +0.000 A 
ATOM     12  F   UNL     1     -10.840  54.000  44.738  0.00  0.00    +0.000 F 
ENDROOT
BRANCH   1  18
ATOM     13  S   UNL     1      -6.767  54.634  53.063  0.00  0.00    +0.000 S 
ATOM     14  O   UNL     1      -7.118  55.786  53.854  0.00  0.00    +0.000 OA
ATOM     15  O   UNL     1      -5.420  54.415  52.579  0.00  0.00    +0.000 OA
ATOM     16  N   UNL     1      -7.759  54.586  51.746  0.00  0.00    +0.000 N 
ATOM     17  C   UNL     1      -7.270  53.211  53.933  0.00  0.00    +0.000 A 
ATOM     18  C   UNL     1      -9.046  54.053  51.791  0.00  0.00    +0.000 C 
ATOM     19  C   UNL     1      -8.524  52.689  53.640  0.00  0.00    +0.000 A 
ATOM     20  C   UNL     1      -6.410  52.619  54.862  0.00  0.00    +0.000 A 
ATOM     21  N   UNL     1      -9.431  53.226  52.713  0.00  0.00    +0.000 N 
ATOM     22  C   UNL     1      -8.908  51.518  54.300  0.00  0.00    +0.000 A 
ATOM     23  C   UNL     1      -6.817  51.461  55.520  0.00  0.00    +0.000 A 
ATOM     24  C   UNL     1      -8.064  50.907  55.233  0.00  0.00    +0.000 A 
ATOM     25  H   UNL     1      -7.428  54.948  50.893  0.00  0.00    +0.000 HD
ATOM     26  H   UNL     1     -10.380  52.969  52.763  0.00  0.00    +0.000 HD
ENDBRANCH   1  18
BRANCH   3  27
ATOM     27  O   UNL     1      -8.724  53.168  49.097  0.00  0.00    +0.000 OA
ATOM     28  H   UNL     1      -8.683  52.823  48.226  0.00  0.00    +0.000 HD
ENDBRANCH   3  27
BRANCH   5  29
ATOM     29  C   UNL     1     -12.935  56.869  50.171  0.00  0.00    +0.000 C 
BRANCH  29  30
ATOM     30  C   UNL     1     -14.301  56.243  50.508  0.00  0.00    +0.000 C 
BRANCH  30  31
ATOM     31  C   UNL     1     -15.257  57.211  51.149  0.00  0.00    +0.000 C 
ATOM     32  C   UNL     1     -14.836  58.260  52.144  0.00  0.00    +0.000 C 
ATOM     33  C   UNL     1     -15.574  57.040  52.612  0.00  0.00    +0.000 C 
ENDBRANCH  30  31
ENDBRANCH  29  30
ENDBRANCH   5  29
TORSDOF 5
ENDMDL
MODEL 6
REMARK VINA RESULT:      -7.9      3.209      4.285
REMARK  Name = 338168
REMARK  5 active torsions:
REMARK  status: ('A' for Active; 'I' for Inactive)
REMARK    1  A    between atoms: C_6  and  C_10
REMARK    2  A    between atoms: C_14  and  O_18
REMARK    3  A    between atoms: N_17  and  C_21
REMARK    4  A    between atoms: C_21  and  C_24
REMARK    5  A    between atoms: C_24  and  C_27
REMARK                            x       y       z     vdW  Elec       q    Type
REMARK                         _______ _______ _______ _____ _____    ______ ____
ROOT
ATOM      1  C   UNL     1     -12.133  54.377  50.300  0.00  0.00    +0.000 A 
ATOM      2  C   UNL     1     -11.952  53.870  48.914  0.00  0.00    +0.000 A 
ATOM      3  C   UNL     1     -11.616  53.701  51.339  0.00  0.00    +0.000 A 
ATOM      4  O   UNL     1     -12.580  54.437  48.017  0.00  0.00    +0.000 OA
ATOM      5  N   UNL     1     -11.064  52.816  48.691  0.00  0.00    +0.000 N 
ATOM      6  C   UNL     1     -10.817  52.492  51.116  0.00  0.00    +0.000 A 
ATOM      7  C   UNL     1     -10.526  52.071  49.802  0.00  0.00    +0.000 A 
ATOM      8  C   UNL     1     -10.301  51.783  52.218  0.00  0.00    +0.000 A 
ATOM      9  C   UNL     1      -9.715  50.931  49.638  0.00  0.00    +0.000 A 
ATOM     10  C   UNL     1      -9.482  50.685  52.021  0.00  0.00    +0.000 A 
ATOM     11  C   UNL     1      -9.183  50.253  50.742  0.00  0.00    +0.000 A 
ATOM     12  F   UNL     1      -8.970  50.041  53.076  0.00  0.00    +0.000 F 
ENDROOT
BRANCH   1  18
ATOM     13  S   UNL     1     -14.427  56.926  52.330  0.00  0.00    +0.000 S 
ATOM     14  O   UNL     1     -13.500  57.295  53.370  0.00  0.00    +0.000 OA
ATOM     15  O   UNL     1     -15.829  56.680  52.601  0.00  0.00    +0.000 OA
ATOM     16  N   UNL     1     -13.847  55.581  51.570  0.00  0.00    +0.000 N 
ATOM     17  C   UNL     1     -14.320  58.118  51.065  0.00  0.00    +0.000 A 
ATOM     18  C   UNL     1     -12.883  55.641  50.567  0.00  0.00    +0.000 C 
ATOM     19  C   UNL     1     -13.455  57.857  50.008  0.00  0.00    +0.000 A 
ATOM     20  C   UNL     1     -15.109  59.270  51.120  0.00  0.00    +0.000 A 
ATOM     21  N   UNL     1     -12.644  56.718  49.886  0.00  0.00    +0.000 N 
ATOM     22  C   UNL     1     -13.406  58.789  48.967  0.00  0.00    +0.000 A 
ATOM     23  C   UNL     1     -15.034  60.192  50.080  0.00  0.00    +0.000 A 
ATOM     24  C   UNL     1     -14.187  59.947  48.999  0.00  0.00    +0.000 A 
ATOM     25  H   UNL     1     -14.198  54.701  51.836  0.00  0.00    +0.000 HD
ATOM     26  H   UNL     1     -11.877  56.737  49.268  0.00  0.00    +0.000 HD
ENDBRANCH   1  18
BRANCH   3  27
ATOM     27  O   UNL     1     -11.752  54.073  52.667  0.00  0.00    +0.000 OA
ATOM     28  H   UNL     1     -11.113  54.632  53.064  0.00  0.00    +0.000 HD
ENDBRANCH   3  27
BRANCH   5  29
ATOM     29  C   UNL     1     -10.842  52.344  47.303  0.00  0.00    +0.000 C 
BRANCH  29  30
ATOM     30  C   UNL     1      -9.467  52.652  46.682  0.00  0.00    +0.000 C 
BRANCH  30  31
ATOM     31  C   UNL     1      -8.910  53.984  47.100  0.00  0.00    +0.000 C 
ATOM     32  C   UNL     1      -9.437  55.301  46.595  0.00  0.00    +0.000 C 
ATOM     33  C   UNL     1      -8.124  54.779  46.090  0.00  0.00    +0.000 C 
ENDBRANCH  30  31
ENDBRANCH  29  30
ENDBRANCH   5  29
TORSDOF 5
ENDMDL
MODEL 7
REMARK VINA RESULT:      -7.9      4.901      7.765
REMARK  Name = 338168
REMARK  5 active torsions:
REMARK  status: ('A' for Active; 'I' for Inactive)
REMARK    1  A    between atoms: C_6  and  C_10
REMARK    2  A    between atoms: C_14  and  O_18
REMARK    3  A    between atoms: N_17  and  C_21
REMARK    4  A    between atoms: C_21  and  C_24
REMARK    5  A    between atoms: C_24  and  C_27
REMARK                            x       y       z     vdW  Elec       q    Type
REMARK                         _______ _______ _______ _____ _____    ______ ____
ROOT
ATOM      1  C   UNL     1     -11.374  54.263  47.945  0.00  0.00    +0.000 A 
ATOM      2  C   UNL     1     -11.458  53.455  49.191  0.00  0.00    +0.000 A 
ATOM      3  C   UNL     1     -12.031  55.431  47.853  0.00  0.00    +0.000 A 
ATOM      4  O   UNL     1     -10.972  52.322  49.163  0.00  0.00    +0.000 OA
ATOM      5  N   UNL     1     -12.040  54.022  50.326  0.00  0.00    +0.000 N 
ATOM      6  C   UNL     1     -12.786  55.952  48.998  0.00  0.00    +0.000 A 
ATOM      7  C   UNL     1     -12.768  55.262  50.228  0.00  0.00    +0.000 A 
ATOM      8  C   UNL     1     -13.487  57.167  48.877  0.00  0.00    +0.000 A 
ATOM      9  C   UNL     1     -13.469  55.825  51.311  0.00  0.00    +0.000 A 
ATOM     10  C   UNL     1     -14.141  57.709  49.971  0.00  0.00    +0.000 A 
ATOM     11  C   UNL     1     -14.137  57.050  51.186  0.00  0.00    +0.000 A 
ATOM     12  F   UNL     1     -14.774  58.882  49.852  0.00  0.00    +0.000 F 
ENDROOT
BRANCH   1  18
ATOM     13  S   UNL     1      -8.175  53.968  45.588  0.00  0.00    +0.000 S 
ATOM     14  O   UNL     1      -7.324  53.185  46.448  0.00  0.00    +0.000 OA
ATOM     15  O   UNL     1      -7.667  55.078  44.807  0.00  0.00    +0.000 OA
ATOM     16  N   UNL     1      -9.426  54.555  46.489  0.00  0.00    +0.000 N 
ATOM     17  C   UNL     1      -9.000  52.878  44.510  0.00  0.00    +0.000 A 
ATOM     18  C   UNL     1     -10.562  53.803  46.780  0.00  0.00    +0.000 C 
ATOM     19  C   UNL     1     -10.260  52.429  44.890  0.00  0.00    +0.000 A 
ATOM     20  C   UNL     1      -8.407  52.510  43.298  0.00  0.00    +0.000 A 
ATOM     21  N   UNL     1     -10.915  52.768  46.084  0.00  0.00    +0.000 N 
ATOM     22  C   UNL     1     -10.944  51.595  44.002  0.00  0.00    +0.000 A 
ATOM     23  C   UNL     1      -9.101  51.665  42.435  0.00  0.00    +0.000 A 
ATOM     24  C   UNL     1     -10.373  51.214  42.784  0.00  0.00    +0.000 A 
ATOM     25  H   UNL     1      -9.368  55.475  46.834  0.00  0.00    +0.000 HD
ATOM     26  H   UNL     1     -11.661  52.207  46.399  0.00  0.00    +0.000 HD
ENDBRANCH   1  18
BRANCH   3  27
ATOM     27  O   UNL     1     -12.041  56.244  46.731  0.00  0.00    +0.000 OA
ATOM     28  H   UNL     1     -12.297  55.892  45.900  0.00  0.00    +0.000 HD
ENDBRANCH   3  27
BRANCH   5  29
ATOM     29  C   UNL     1     -12.076  53.237  51.583  0.00  0.00    +0.000 C 
BRANCH  29  30
ATOM     30  C   UNL     1     -10.807  53.271  52.454  0.00  0.00    +0.000 C 
BRANCH  30  31
ATOM     31  C   UNL     1     -10.272  54.659  52.672  0.00  0.00    +0.000 C 
ATOM     32  C   UNL     1      -9.057  55.201  51.967  0.00  0.00    +0.000 C 
ATOM     33  C   UNL     1      -8.970  54.814  53.414  0.00  0.00    +0.000 C 
ENDBRANCH  30  31
ENDBRANCH  29  30
ENDBRANCH   5  29
TORSDOF 5
ENDMDL
MODEL 8
REMARK VINA RESULT:      -7.9      3.595      7.538
REMARK  Name = 338168
REMARK  5 active torsions:
REMARK  status: ('A' for Active; 'I' for Inactive)
REMARK    1  A    between atoms: C_6  and  C_10
REMARK    2  A    between atoms: C_14  and  O_18
REMARK    3  A    between atoms: N_17  and  C_21
REMARK    4  A    between atoms: C_21  and  C_24
REMARK    5  A    between atoms: C_24  and  C_27
REMARK                            x       y       z     vdW  Elec       q    Type
REMARK                         _______ _______ _______ _____ _____    ______ ____
ROOT
ATOM      1  C   UNL     1     -10.013  55.463  50.438  0.00  0.00    +0.000 A 
ATOM      2  C   UNL     1     -10.215  55.707  48.985  0.00  0.00    +0.000 A 
ATOM      3  C   UNL     1     -11.033  55.620  51.296  0.00  0.00    +0.000 A 
ATOM      4  O   UNL     1      -9.212  55.707  48.267  0.00  0.00    +0.000 OA
ATOM      5  N   UNL     1     -11.513  55.886  48.504  0.00  0.00    +0.000 N 
ATOM      6  C   UNL     1     -12.370  55.974  50.808  0.00  0.00    +0.000 A 
ATOM      7  C   UNL     1     -12.608  56.081  49.421  0.00  0.00    +0.000 A 
ATOM      8  C   UNL     1     -13.423  56.157  51.723  0.00  0.00    +0.000 A 
ATOM      9  C   UNL     1     -13.918  56.376  48.997  0.00  0.00    +0.000 A 
ATOM     10  C   UNL     1     -14.706  56.415  51.271  0.00  0.00    +0.000 A 
ATOM     11  C   UNL     1     -14.963  56.525  49.918  0.00  0.00    +0.000 A 
ATOM     12  F   UNL     1     -15.705  56.552  52.151  0.00  0.00    +0.000 F 
ENDROOT
BRANCH   1  18
ATOM     13  S   UNL     1      -7.126  54.980  53.141  0.00  0.00    +0.000 S 
ATOM     14  O   UNL     1      -7.743  53.970  53.963  0.00  0.00    +0.000 OA
ATOM     15  O   UNL     1      -6.386  56.088  53.711  0.00  0.00    +0.000 OA
ATOM     16  N   UNL     1      -8.282  55.633  52.163  0.00  0.00    +0.000 N 
ATOM     17  C   UNL     1      -6.099  54.179  51.985  0.00  0.00    +0.000 A 
ATOM     18  C   UNL     1      -8.685  55.036  50.971  0.00  0.00    +0.000 C 
ATOM     19  C   UNL     1      -6.642  53.887  50.739  0.00  0.00    +0.000 A 
ATOM     20  C   UNL     1      -4.773  53.882  52.313  0.00  0.00    +0.000 A 
ATOM     21  N   UNL     1      -7.959  54.167  50.341  0.00  0.00    +0.000 N 
ATOM     22  C   UNL     1      -5.804  53.290  49.792  0.00  0.00    +0.000 A 
ATOM     23  C   UNL     1      -3.960  53.274  51.361  0.00  0.00    +0.000 A 
ATOM     24  C   UNL     1      -4.474  52.985  50.097  0.00  0.00    +0.000 A 
ATOM     25  H   UNL     1      -8.704  56.481  52.433  0.00  0.00    +0.000 HD
ATOM     26  H   UNL     1      -8.338  53.692  49.566  0.00  0.00    +0.000 HD
ENDBRANCH   1  18
BRANCH   3  27
ATOM     27  O   UNL     1     -10.943  55.445  52.668  0.00  0.00    +0.000 OA
ATOM     28  H   UNL     1     -11.716  55.278  53.171  0.00  0.00    +0.000 HD
ENDBRANCH   3  27
BRANCH   5  29
ATOM     29  C   UNL     1     -11.721  56.078  47.049  0.00  0.00    +0.000 C 
BRANCH  29  30
ATOM     30  C   UNL     1     -12.014  54.812  46.222  0.00  0.00    +0.000 C 
BRANCH  30  31
ATOM     31  C   UNL     1     -10.785  54.214  45.594  0.00  0.00    +0.000 C 
ATOM     32  C   UNL     1     -10.828  53.105  44.576  0.00  0.00    +0.000 C 
ATOM     33  C   UNL     1     -10.395  52.812  45.983  0.00  0.00    +0.000 C 
ENDBRANCH  30  31
ENDBRANCH  29  30
ENDBRANCH   5  29
TORSDOF 5
ENDMDL
MODEL 9
REMARK VINA RESULT:      -7.9      3.823      7.405
REMARK  Name = 338168
REMARK  5 active torsions:
REMARK  status: ('A' for Active; 'I' for Inactive)
REMARK    1  A    between atoms: C_6  and  C_10
REMARK    2  A    between atoms: C_14  and  O_18
REMARK    3  A    between atoms: N_17  and  C_21
REMARK    4  A    between atoms: C_21  and  C_24
REMARK    5  A    between atoms: C_24  and  C_27
REMARK                            x       y       z     vdW  Elec       q    Type
REMARK                         _______ _______ _______ _____ _____    ______ ____
ROOT
ATOM      1  C   UNL     1     -10.450  55.097  50.703  0.00  0.00    +0.000 A 
ATOM      2  C   UNL     1     -10.166  55.144  49.244  0.00  0.00    +0.000 A 
ATOM      3  C   UNL     1     -11.565  55.665  51.191  0.00  0.00    +0.000 A 
ATOM      4  O   UNL     1      -9.057  54.753  48.871  0.00  0.00    +0.000 OA
ATOM      5  N   UNL     1     -11.164  55.586  48.374  0.00  0.00    +0.000 N 
ATOM      6  C   UNL     1     -12.543  56.282  50.289  0.00  0.00    +0.000 A 
ATOM      7  C   UNL     1     -12.351  56.220  48.893  0.00  0.00    +0.000 A 
ATOM      8  C   UNL     1     -13.695  56.892  50.819  0.00  0.00    +0.000 A 
ATOM      9  C   UNL     1     -13.340  56.784  48.065  0.00  0.00    +0.000 A 
ATOM     10  C   UNL     1     -14.663  57.410  49.977  0.00  0.00    +0.000 A 
ATOM     11  C   UNL     1     -14.497  57.361  48.605  0.00  0.00    +0.000 A 
ATOM     12  F   UNL     1     -15.771  57.956  50.493  0.00  0.00    +0.000 F 
ENDROOT
BRANCH   1  18
ATOM     13  S   UNL     1      -8.933  52.105  52.853  0.00  0.00    +0.000 S 
ATOM     14  O   UNL     1      -8.374  51.313  51.786  0.00  0.00    +0.000 OA
ATOM     15  O   UNL     1      -9.631  51.505  53.971  0.00  0.00    +0.000 OA
ATOM     16  N   UNL     1      -9.958  53.216  52.193  0.00  0.00    +0.000 N 
ATOM     17  C   UNL     1      -7.670  53.125  53.484  0.00  0.00    +0.000 A 
ATOM     18  C   UNL     1      -9.515  54.420  51.650  0.00  0.00    +0.000 C 
ATOM     19  C   UNL     1      -7.557  54.407  52.960  0.00  0.00    +0.000 A 
ATOM     20  C   UNL     1      -6.836  52.656  54.504  0.00  0.00    +0.000 A 
ATOM     21  N   UNL     1      -8.367  54.943  51.946  0.00  0.00    +0.000 N 
ATOM     22  C   UNL     1      -6.577  55.244  53.501  0.00  0.00    +0.000 A 
ATOM     23  C   UNL     1      -5.856  53.501  55.019  0.00  0.00    +0.000 A 
ATOM     24  C   UNL     1      -5.732  54.798  54.522  0.00  0.00    +0.000 A 
ATOM     25  H   UNL     1     -10.923  53.020  52.183  0.00  0.00    +0.000 HD
ATOM     26  H   UNL     1      -8.055  55.735  51.450  0.00  0.00    +0.000 HD
ENDBRANCH   1  18
BRANCH   3  27
ATOM     27  O   UNL     1     -11.908  55.700  52.533  0.00  0.00    +0.000 OA
ATOM     28  H   UNL     1     -11.238  55.698  53.189  0.00  0.00    +0.000 HD
ENDBRANCH   3  27
BRANCH   5  29
ATOM     29  C   UNL     1     -10.901  55.584  46.916  0.00  0.00    +0.000 C 
BRANCH  29  30
ATOM     30  C   UNL     1     -11.402  54.361  46.127  0.00  0.00    +0.000 C 
BRANCH  30  31
ATOM     31  C   UNL     1     -10.307  53.636  45.394  0.00  0.00    +0.000 C 
ATOM     32  C   UNL     1     -10.522  52.892  44.103  0.00  0.00    +0.000 C 
ATOM     33  C   UNL     1     -10.331  52.130  45.382  0.00  0.00    +0.000 C 
ENDBRANCH  30  31
ENDBRANCH  29  30
ENDBRANCH   5  29
TORSDOF 5
ENDMDL
