MODEL 1
REMARK VINA RESULT:      -8.2      0.000      0.000
REMARK  Name = 298159
REMARK  7 active torsions:
REMARK  status: ('A' for Active; 'I' for Inactive)
REMARK    1  A    between atoms: C_6  and  C_10
REMARK    2  A    between atoms: C_14  and  O_18
REMARK    3  A    between atoms: N_17  and  C_21
REMARK    4  A    between atoms: C_21  and  C_24
REMARK    5  A    between atoms: C_24  and  C_27
REMARK    6  A    between atoms: C_27  and  C_28
REMARK    7  A    between atoms: C_27  and  C_29
REMARK                            x       y       z     vdW  Elec       q    Type
REMARK                         _______ _______ _______ _____ _____    ______ ____
ROOT
ATOM      1  C   UNL     1     -10.157  54.378  52.252  0.00  0.00    +0.000 A 
ATOM      2  C   UNL     1      -8.783  54.966  52.214  0.00  0.00    +0.000 A 
ATOM      3  C   UNL     1     -10.387  53.251  52.947  0.00  0.00    +0.000 A 
ATOM      4  O   UNL     1      -8.636  56.064  51.669  0.00  0.00    +0.000 OA
ATOM      5  N   UNL     1      -7.736  54.267  52.806  0.00  0.00    +0.000 N 
ATOM      6  C   UNL     1      -9.297  52.598  53.688  0.00  0.00    +0.000 A 
ATOM      7  C   UNL     1      -7.993  53.120  53.623  0.00  0.00    +0.000 A 
ATOM      8  C   UNL     1      -9.552  51.467  54.485  0.00  0.00    +0.000 A 
ATOM      9  C   UNL     1      -6.988  52.513  54.394  0.00  0.00    +0.000 A 
ATOM     10  C   UNL     1      -8.536  50.862  55.220  0.00  0.00    +0.000 A 
ATOM     11  C   UNL     1      -7.253  51.388  55.177  0.00  0.00    +0.000 A 
ENDROOT
BRANCH   1  17
ATOM     12  S   UNL     1     -12.383  55.947  49.413  0.00  0.00    +0.000 S 
ATOM     13  O   UNL     1     -13.238  54.975  48.763  0.00  0.00    +0.000 OA
ATOM     14  O   UNL     1     -11.697  56.960  48.633  0.00  0.00    +0.000 OA
ATOM     15  N   UNL     1     -11.268  55.132  50.261  0.00  0.00    +0.000 N 
ATOM     16  C   UNL     1     -13.409  56.820  50.540  0.00  0.00    +0.000 A 
ATOM     17  C   UNL     1     -11.291  55.116  51.562  0.00  0.00    +0.000 C 
ATOM     18  C   UNL     1     -13.209  56.607  51.894  0.00  0.00    +0.000 A 
ATOM     19  C   UNL     1     -14.379  57.705  50.063  0.00  0.00    +0.000 A 
ATOM     20  N   UNL     1     -12.246  55.715  52.355  0.00  0.00    +0.000 N 
ATOM     21  C   UNL     1     -14.063  57.251  52.796  0.00  0.00    +0.000 A 
ATOM     22  C   UNL     1     -15.198  58.369  50.975  0.00  0.00    +0.000 A 
ATOM     23  C   UNL     1     -15.046  58.134  52.341  0.00  0.00    +0.000 A 
ATOM     24  H   UNL     1     -10.560  54.641  49.784  0.00  0.00    +0.000 HD
ATOM     25  H   UNL     1     -12.246  55.497  53.315  0.00  0.00    +0.000 HD
ENDBRANCH   1  17
BRANCH   3  26
ATOM     26  O   UNL     1     -11.627  52.648  53.071  0.00  0.00    +0.000 OA
ATOM     27  H   UNL     1     -11.722  51.733  52.891  0.00  0.00    +0.000 HD
ENDBRANCH   3  26
BRANCH   5  28
ATOM     28  C   UNL     1      -6.387  54.836  52.694  0.00  0.00    +0.000 C 
BRANCH  28  29
ATOM     29  C   UNL     1      -5.466  54.193  51.643  0.00  0.00    +0.000 C 
BRANCH  29  30
ATOM     30  C   UNL     1      -4.078  53.735  52.121  0.00  0.00    +0.000 C 
ATOM     31  C   UNL     1      -3.847  54.008  53.606  0.00  0.00    +0.000 C 
ATOM     32  C   UNL     1      -3.934  52.232  51.846  0.00  0.00    +0.000 C 
ENDBRANCH  29  30
ENDBRANCH  28  29
ENDBRANCH   5  28
TORSDOF 5
ENDMDL
MODEL 2
REMARK VINA RESULT:      -8.1      4.112      4.986
REMARK  Name = 298159
REMARK  7 active torsions:
REMARK  status: ('A' for Active; 'I' for Inactive)
REMARK    1  A    between atoms: C_6  and  C_10
REMARK    2  A    between atoms: C_14  and  O_18
REMARK    3  A    between atoms: N_17  and  C_21
REMARK    4  A    between atoms: C_21  and  C_24
REMARK    5  A    between atoms: C_24  and  C_27
REMARK    6  A    between atoms: C_27  and  C_28
REMARK    7  A    between atoms: C_27  and  C_29
REMARK                            x       y       z     vdW  Elec       q    Type
REMARK                         _______ _______ _______ _____ _____    ______ ____
ROOT
ATOM      1  C   UNL     1     -12.535  54.212  49.711  0.00  0.00    +0.000 A 
ATOM      2  C   UNL     1     -11.998  54.135  48.319  0.00  0.00    +0.000 A 
ATOM      3  C   UNL     1     -12.262  53.234  50.592  0.00  0.00    +0.000 A 
ATOM      4  O   UNL     1     -12.166  55.108  47.577  0.00  0.00    +0.000 OA
ATOM      5  N   UNL     1     -11.321  52.988  47.922  0.00  0.00    +0.000 N 
ATOM      6  C   UNL     1     -11.422  52.092  50.199  0.00  0.00    +0.000 A 
ATOM      7  C   UNL     1     -10.949  51.990  48.879  0.00  0.00    +0.000 A 
ATOM      8  C   UNL     1     -11.065  51.110  51.141  0.00  0.00    +0.000 A 
ATOM      9  C   UNL     1     -10.096  50.923  48.552  0.00  0.00    +0.000 A 
ATOM     10  C   UNL     1     -10.241  50.044  50.791  0.00  0.00    +0.000 A 
ATOM     11  C   UNL     1      -9.753  49.953  49.495  0.00  0.00    +0.000 A 
ENDROOT
BRANCH   1  17
ATOM     12  S   UNL     1     -15.395  56.466  51.201  0.00  0.00    +0.000 S 
ATOM     13  O   UNL     1     -15.325  56.589  52.642  0.00  0.00    +0.000 OA
ATOM     14  O   UNL     1     -16.675  56.288  50.540  0.00  0.00    +0.000 OA
ATOM     15  N   UNL     1     -14.435  55.235  50.764  0.00  0.00    +0.000 N 
ATOM     16  C   UNL     1     -14.721  57.952  50.552  0.00  0.00    +0.000 A 
ATOM     17  C   UNL     1     -13.318  55.444  50.130  0.00  0.00    +0.000 C 
ATOM     18  C   UNL     1     -13.494  57.880  49.913  0.00  0.00    +0.000 A 
ATOM     19  C   UNL     1     -15.423  59.154  50.677  0.00  0.00    +0.000 A 
ATOM     20  N   UNL     1     -12.800  56.679  49.805  0.00  0.00    +0.000 N 
ATOM     21  C   UNL     1     -12.921  59.069  49.448  0.00  0.00    +0.000 A 
ATOM     22  C   UNL     1     -14.857  60.324  50.176  0.00  0.00    +0.000 A 
ATOM     23  C   UNL     1     -13.602  60.284  49.571  0.00  0.00    +0.000 A 
ATOM     24  H   UNL     1     -14.702  54.312  50.983  0.00  0.00    +0.000 HD
ATOM     25  H   UNL     1     -11.875  56.712  49.471  0.00  0.00    +0.000 HD
ENDBRANCH   1  17
BRANCH   3  26
ATOM     26  O   UNL     1     -12.683  53.229  51.911  0.00  0.00    +0.000 OA
ATOM     27  H   UNL     1     -12.455  53.940  52.478  0.00  0.00    +0.000 HD
ENDBRANCH   3  26
BRANCH   5  28
ATOM     28  C   UNL     1     -10.864  52.913  46.528  0.00  0.00    +0.000 C 
BRANCH  28  29
ATOM     29  C   UNL     1      -9.378  53.225  46.285  0.00  0.00    +0.000 C 
BRANCH  29  30
ATOM     30  C   UNL     1      -8.986  54.709  46.182  0.00  0.00    +0.000 C 
ATOM     31  C   UNL     1      -8.576  55.303  47.528  0.00  0.00    +0.000 C 
ATOM     32  C   UNL     1      -7.827  54.844  45.186  0.00  0.00    +0.000 C 
ENDBRANCH  29  30
ENDBRANCH  28  29
ENDBRANCH   5  28
TORSDOF 5
ENDMDL
MODEL 3
REMARK VINA RESULT:      -7.9      2.059      2.845
REMARK  Name = 298159
REMARK  7 active torsions:
REMARK  status: ('A' for Active; 'I' for Inactive)
REMARK    1  A    between atoms: C_6  and  C_10
REMARK    2  A    between atoms: C_14  and  O_18
REMARK    3  A    between atoms: N_17  and  C_21
REMARK    4  A    between atoms: C_21  and  C_24
REMARK    5  A    between atoms: C_24  and  C_27
REMARK    6  A    between atoms: C_27  and  C_28
REMARK    7  A    between atoms: C_27  and  C_29
REMARK                            x       y       z     vdW  Elec       q    Type
REMARK                         _______ _______ _______ _____ _____    ______ ____
ROOT
ATOM      1  C   UNL     1     -11.557  54.051  51.168  0.00  0.00    +0.000 A 
ATOM      2  C   UNL     1     -10.627  54.085  52.337  0.00  0.00    +0.000 A 
ATOM      3  C   UNL     1     -11.657  52.938  50.421  0.00  0.00    +0.000 A 
ATOM      4  O   UNL     1     -10.652  55.079  53.070  0.00  0.00    +0.000 OA
ATOM      5  N   UNL     1      -9.789  52.998  52.561  0.00  0.00    +0.000 N 
ATOM      6  C   UNL     1     -10.868  51.743  50.757  0.00  0.00    +0.000 A 
ATOM      7  C   UNL     1      -9.958  51.780  51.828  0.00  0.00    +0.000 A 
ATOM      8  C   UNL     1     -11.033  50.550  50.029  0.00  0.00    +0.000 A 
ATOM      9  C   UNL     1      -9.268  50.604  52.165  0.00  0.00    +0.000 A 
ATOM     10  C   UNL     1     -10.318  49.402  50.360  0.00  0.00    +0.000 A 
ATOM     11  C   UNL     1      -9.437  49.429  51.432  0.00  0.00    +0.000 A 
ENDROOT
BRANCH   1  17
ATOM     12  S   UNL     1     -13.249  57.061  49.283  0.00  0.00    +0.000 S 
ATOM     13  O   UNL     1     -14.344  56.649  48.428  0.00  0.00    +0.000 OA
ATOM     14  O   UNL     1     -12.304  58.067  48.833  0.00  0.00    +0.000 OA
ATOM     15  N   UNL     1     -12.409  55.733  49.682  0.00  0.00    +0.000 N 
ATOM     16  C   UNL     1     -13.986  57.709  50.738  0.00  0.00    +0.000 A 
ATOM     17  C   UNL     1     -12.436  55.258  50.893  0.00  0.00    +0.000 C 
ATOM     18  C   UNL     1     -13.856  56.980  51.909  0.00  0.00    +0.000 A 
ATOM     19  C   UNL     1     -14.667  58.929  50.696  0.00  0.00    +0.000 A 
ATOM     20  N   UNL     1     -13.183  55.762  51.935  0.00  0.00    +0.000 N 
ATOM     21  C   UNL     1     -14.493  57.459  53.059  0.00  0.00    +0.000 A 
ATOM     22  C   UNL     1     -15.265  59.412  51.858  0.00  0.00    +0.000 A 
ATOM     23  C   UNL     1     -15.186  58.672  53.037  0.00  0.00    +0.000 A 
ATOM     24  H   UNL     1     -11.869  55.277  48.995  0.00  0.00    +0.000 HD
ATOM     25  H   UNL     1     -13.245  55.223  52.756  0.00  0.00    +0.000 HD
ENDBRANCH   1  17
BRANCH   3  26
ATOM     26  O   UNL     1     -12.512  52.795  49.341  0.00  0.00    +0.000 OA
ATOM     27  H   UNL     1     -13.431  52.940  49.449  0.00  0.00    +0.000 HD
ENDBRANCH   3  26
BRANCH   5  28
ATOM     28  C   UNL     1      -8.838  53.089  53.677  0.00  0.00    +0.000 C 
BRANCH  28  29
ATOM     29  C   UNL     1      -7.457  53.679  53.344  0.00  0.00    +0.000 C 
BRANCH  29  30
ATOM     30  C   UNL     1      -6.953  54.822  54.241  0.00  0.00    +0.000 C 
ATOM     31  C   UNL     1      -5.500  54.633  54.672  0.00  0.00    +0.000 C 
ATOM     32  C   UNL     1      -7.096  56.146  53.479  0.00  0.00    +0.000 C 
ENDBRANCH  29  30
ENDBRANCH  28  29
ENDBRANCH   5  28
TORSDOF 5
ENDMDL
MODEL 4
REMARK VINA RESULT:      -7.9      2.575      8.034
REMARK  Name = 298159
REMARK  7 active torsions:
REMARK  status: ('A' for Active; 'I' for Inactive)
REMARK    1  A    between atoms: C_6  and  C_10
REMARK    2  A    between atoms: C_14  and  O_18
REMARK    3  A    between atoms: N_17  and  C_21
REMARK    4  A    between atoms: C_21  and  C_24
REMARK    5  A    between atoms: C_24  and  C_27
REMARK    6  A    between atoms: C_27  and  C_28
REMARK    7  A    between atoms: C_27  and  C_29
REMARK                            x       y       z     vdW  Elec       q    Type
REMARK                         _______ _______ _______ _____ _____    ______ ____
ROOT
ATOM      1  C   UNL     1     -10.104  54.719  50.916  0.00  0.00    +0.000 A 
ATOM      2  C   UNL     1     -11.432  55.256  51.342  0.00  0.00    +0.000 A 
ATOM      3  C   UNL     1      -9.793  54.653  49.611  0.00  0.00    +0.000 A 
ATOM      4  O   UNL     1     -11.634  55.416  52.550  0.00  0.00    +0.000 OA
ATOM      5  N   UNL     1     -12.374  55.569  50.368  0.00  0.00    +0.000 N 
ATOM      6  C   UNL     1     -10.747  55.121  48.594  0.00  0.00    +0.000 A 
ATOM      7  C   UNL     1     -12.015  55.587  48.982  0.00  0.00    +0.000 A 
ATOM      8  C   UNL     1     -10.392  55.132  47.232  0.00  0.00    +0.000 A 
ATOM      9  C   UNL     1     -12.878  56.089  47.994  0.00  0.00    +0.000 A 
ATOM     10  C   UNL     1     -11.272  55.607  46.263  0.00  0.00    +0.000 A 
ATOM     11  C   UNL     1     -12.515  56.089  46.646  0.00  0.00    +0.000 A 
ENDROOT
BRANCH   1  17
ATOM     12  S   UNL     1      -6.808  54.659  53.063  0.00  0.00    +0.000 S 
ATOM     13  O   UNL     1      -6.765  55.707  54.062  0.00  0.00    +0.000 OA
ATOM     14  O   UNL     1      -5.622  54.329  52.293  0.00  0.00    +0.000 OA
ATOM     15  N   UNL     1      -7.993  55.023  52.018  0.00  0.00    +0.000 N 
ATOM     16  C   UNL     1      -7.252  53.190  53.916  0.00  0.00    +0.000 A 
ATOM     17  C   UNL     1      -9.093  54.330  51.981  0.00  0.00    +0.000 C 
ATOM     18  C   UNL     1      -8.510  52.661  53.681  0.00  0.00    +0.000 A 
ATOM     19  C   UNL     1      -6.344  52.586  54.790  0.00  0.00    +0.000 A 
ATOM     20  N   UNL     1      -9.408  53.280  52.815  0.00  0.00    +0.000 N 
ATOM     21  C   UNL     1      -8.895  51.526  54.403  0.00  0.00    +0.000 A 
ATOM     22  C   UNL     1      -6.728  51.434  55.475  0.00  0.00    +0.000 A 
ATOM     23  C   UNL     1      -8.007  50.910  55.288  0.00  0.00    +0.000 A 
ATOM     24  H   UNL     1      -7.878  55.782  51.401  0.00  0.00    +0.000 HD
ATOM     25  H   UNL     1     -10.332  52.942  52.796  0.00  0.00    +0.000 HD
ENDBRANCH   1  17
BRANCH   3  26
ATOM     26  O   UNL     1      -8.580  54.204  49.117  0.00  0.00    +0.000 OA
ATOM     27  H   UNL     1      -7.842  54.780  49.094  0.00  0.00    +0.000 HD
ENDBRANCH   3  26
BRANCH   5  28
ATOM     28  C   UNL     1     -13.694  56.030  50.818  0.00  0.00    +0.000 C 
BRANCH  28  29
ATOM     29  C   UNL     1     -13.795  57.514  51.208  0.00  0.00    +0.000 C 
BRANCH  29  30
ATOM     30  C   UNL     1     -14.519  57.841  52.524  0.00  0.00    +0.000 C 
ATOM     31  C   UNL     1     -15.035  59.278  52.571  0.00  0.00    +0.000 C 
ATOM     32  C   UNL     1     -15.693  56.868  52.695  0.00  0.00    +0.000 C 
ENDBRANCH  29  30
ENDBRANCH  28  29
ENDBRANCH   5  28
TORSDOF 5
ENDMDL
MODEL 5
REMARK VINA RESULT:      -7.9      3.429      4.978
REMARK  Name = 298159
REMARK  7 active torsions:
REMARK  status: ('A' for Active; 'I' for Inactive)
REMARK    1  A    between atoms: C_6  and  C_10
REMARK    2  A    between atoms: C_14  and  O_18
REMARK    3  A    between atoms: N_17  and  C_21
REMARK    4  A    between atoms: C_21  and  C_24
REMARK    5  A    between atoms: C_24  and  C_27
REMARK    6  A    between atoms: C_27  and  C_28
REMARK    7  A    between atoms: C_27  and  C_29
REMARK                            x       y       z     vdW  Elec       q    Type
REMARK                         _______ _______ _______ _____ _____    ______ ____
ROOT
ATOM      1  C   UNL     1     -11.303  56.151  48.735  0.00  0.00    +0.000 A 
ATOM      2  C   UNL     1     -10.116  55.724  49.536  0.00  0.00    +0.000 A 
ATOM      3  C   UNL     1     -11.478  55.679  47.489  0.00  0.00    +0.000 A 
ATOM      4  O   UNL     1     -10.054  56.080  50.717  0.00  0.00    +0.000 OA
ATOM      5  N   UNL     1      -9.145  54.935  48.931  0.00  0.00    +0.000 N 
ATOM      6  C   UNL     1     -10.514  54.730  46.911  0.00  0.00    +0.000 A 
ATOM      7  C   UNL     1      -9.372  54.356  47.641  0.00  0.00    +0.000 A 
ATOM      8  C   UNL     1     -10.738  54.169  45.640  0.00  0.00    +0.000 A 
ATOM      9  C   UNL     1      -8.505  53.398  47.089  0.00  0.00    +0.000 A 
ATOM     10  C   UNL     1      -9.852  53.241  45.097  0.00  0.00    +0.000 A 
ATOM     11  C   UNL     1      -8.737  52.854  45.825  0.00  0.00    +0.000 A 
ENDROOT
BRANCH   1  17
ATOM     12  S   UNL     1     -13.550  59.297  49.462  0.00  0.00    +0.000 S 
ATOM     13  O   UNL     1     -14.695  59.391  48.579  0.00  0.00    +0.000 OA
ATOM     14  O   UNL     1     -12.789  60.485  49.806  0.00  0.00    +0.000 OA
ATOM     15  N   UNL     1     -12.523  58.217  48.824  0.00  0.00    +0.000 N 
ATOM     16  C   UNL     1     -14.158  58.657  50.980  0.00  0.00    +0.000 A 
ATOM     17  C   UNL     1     -12.339  57.055  49.380  0.00  0.00    +0.000 C 
ATOM     18  C   UNL     1     -13.795  57.367  51.328  0.00  0.00    +0.000 A 
ATOM     19  C   UNL     1     -14.969  59.447  51.799  0.00  0.00    +0.000 A 
ATOM     20  N   UNL     1     -12.995  56.588  50.498  0.00  0.00    +0.000 N 
ATOM     21  C   UNL     1     -14.325  56.828  52.506  0.00  0.00    +0.000 A 
ATOM     22  C   UNL     1     -15.459  58.909  52.987  0.00  0.00    +0.000 A 
ATOM     23  C   UNL     1     -15.145  57.597  53.336  0.00  0.00    +0.000 A 
ATOM     24  H   UNL     1     -12.030  58.443  48.002  0.00  0.00    +0.000 HD
ATOM     25  H   UNL     1     -12.888  55.636  50.727  0.00  0.00    +0.000 HD
ENDBRANCH   1  17
BRANCH   3  26
ATOM     26  O   UNL     1     -12.558  55.986  46.680  0.00  0.00    +0.000 OA
ATOM     27  H   UNL     1     -13.255  56.519  47.011  0.00  0.00    +0.000 HD
ENDBRANCH   3  26
BRANCH   5  28
ATOM     28  C   UNL     1      -7.957  54.588  49.721  0.00  0.00    +0.000 C 
BRANCH  28  29
ATOM     29  C   UNL     1      -6.765  55.554  49.613  0.00  0.00    +0.000 C 
BRANCH  29  30
ATOM     30  C   UNL     1      -5.360  54.945  49.746  0.00  0.00    +0.000 C 
ATOM     31  C   UNL     1      -5.168  54.192  51.061  0.00  0.00    +0.000 C 
ATOM     32  C   UNL     1      -5.123  53.991  48.568  0.00  0.00    +0.000 C 
ENDBRANCH  29  30
ENDBRANCH  28  29
ENDBRANCH   5  28
TORSDOF 5
ENDMDL
MODEL 6
REMARK VINA RESULT:      -7.8      3.344      7.365
REMARK  Name = 298159
REMARK  7 active torsions:
REMARK  status: ('A' for Active; 'I' for Inactive)
REMARK    1  A    between atoms: C_6  and  C_10
REMARK    2  A    between atoms: C_14  and  O_18
REMARK    3  A    between atoms: N_17  and  C_21
REMARK    4  A    between atoms: C_21  and  C_24
REMARK    5  A    between atoms: C_24  and  C_27
REMARK    6  A    between atoms: C_27  and  C_28
REMARK    7  A    between atoms: C_27  and  C_29
REMARK                            x       y       z     vdW  Elec       q    Type
REMARK                         _______ _______ _______ _____ _____    ______ ____
ROOT
ATOM      1  C   UNL     1     -10.235  55.175  50.810  0.00  0.00    +0.000 A 
ATOM      2  C   UNL     1      -9.816  55.107  49.378  0.00  0.00    +0.000 A 
ATOM      3  C   UNL     1     -11.449  55.654  51.134  0.00  0.00    +0.000 A 
ATOM      4  O   UNL     1      -8.747  54.549  49.110  0.00  0.00    +0.000 OA
ATOM      5  N   UNL     1     -10.648  55.655  48.407  0.00  0.00    +0.000 N 
ATOM      6  C   UNL     1     -12.377  56.099  50.083  0.00  0.00    +0.000 A 
ATOM      7  C   UNL     1     -11.975  56.079  48.736  0.00  0.00    +0.000 A 
ATOM      8  C   UNL     1     -13.679  56.521  50.412  0.00  0.00    +0.000 A 
ATOM      9  C   UNL     1     -12.907  56.448  47.752  0.00  0.00    +0.000 A 
ATOM     10  C   UNL     1     -14.579  56.910  49.424  0.00  0.00    +0.000 A 
ATOM     11  C   UNL     1     -14.193  56.870  48.092  0.00  0.00    +0.000 A 
ENDROOT
BRANCH   1  17
ATOM     12  S   UNL     1      -7.038  54.658  53.043  0.00  0.00    +0.000 S 
ATOM     13  O   UNL     1      -6.932  55.630  54.112  0.00  0.00    +0.000 OA
ATOM     14  O   UNL     1      -5.862  54.266  52.287  0.00  0.00    +0.000 OA
ATOM     15  N   UNL     1      -8.145  55.202  51.991  0.00  0.00    +0.000 N 
ATOM     16  C   UNL     1      -7.649  53.187  53.781  0.00  0.00    +0.000 A 
ATOM     17  C   UNL     1      -9.304  54.622  51.875  0.00  0.00    +0.000 C 
ATOM     18  C   UNL     1      -8.942  52.798  53.474  0.00  0.00    +0.000 A 
ATOM     19  C   UNL     1      -6.834  52.442  54.638  0.00  0.00    +0.000 A 
ATOM     20  N   UNL     1      -9.746  53.555  52.626  0.00  0.00    +0.000 N 
ATOM     21  C   UNL     1      -9.458  51.661  54.106  0.00  0.00    +0.000 A 
ATOM     22  C   UNL     1      -7.349  51.291  55.232  0.00  0.00    +0.000 A 
ATOM     23  C   UNL     1      -8.663  50.906  54.973  0.00  0.00    +0.000 A 
ATOM     24  H   UNL     1      -7.937  55.985  51.430  0.00  0.00    +0.000 HD
ATOM     25  H   UNL     1     -10.697  53.310  52.558  0.00  0.00    +0.000 HD
ENDBRANCH   1  17
BRANCH   3  26
ATOM     26  O   UNL     1     -11.943  55.727  52.425  0.00  0.00    +0.000 OA
ATOM     27  H   UNL     1     -12.437  56.476  52.696  0.00  0.00    +0.000 HD
ENDBRANCH   3  26
BRANCH   5  28
ATOM     28  C   UNL     1     -10.179  55.634  47.016  0.00  0.00    +0.000 C 
BRANCH  28  29
ATOM     29  C   UNL     1     -10.445  54.338  46.231  0.00  0.00    +0.000 C 
BRANCH  29  30
ATOM     30  C   UNL     1      -9.223  53.629  45.623  0.00  0.00    +0.000 C 
ATOM     31  C   UNL     1      -9.514  53.031  44.248  0.00  0.00    +0.000 C 
ATOM     32  C   UNL     1      -8.073  54.639  45.511  0.00  0.00    +0.000 C 
ENDBRANCH  29  30
ENDBRANCH  28  29
ENDBRANCH   5  28
TORSDOF 5
ENDMDL
MODEL 7
REMARK VINA RESULT:      -7.7      4.434      6.338
REMARK  Name = 298159
REMARK  7 active torsions:
REMARK  status: ('A' for Active; 'I' for Inactive)
REMARK    1  A    between atoms: C_6  and  C_10
REMARK    2  A    between atoms: C_14  and  O_18
REMARK    3  A    between atoms: N_17  and  C_21
REMARK    4  A    between atoms: C_21  and  C_24
REMARK    5  A    between atoms: C_24  and  C_27
REMARK    6  A    between atoms: C_27  and  C_28
REMARK    7  A    between atoms: C_27  and  C_29
REMARK                            x       y       z     vdW  Elec       q    Type
REMARK                         _______ _______ _______ _____ _____    ______ ____
ROOT
ATOM      1  C   UNL     1     -10.954  55.661  48.588  0.00  0.00    +0.000 A 
ATOM      2  C   UNL     1     -11.365  55.214  47.222  0.00  0.00    +0.000 A 
ATOM      3  C   UNL     1      -9.690  55.475  49.004  0.00  0.00    +0.000 A 
ATOM      4  O   UNL     1     -12.497  55.511  46.829  0.00  0.00    +0.000 OA
ATOM      5  N   UNL     1     -10.456  54.503  46.446  0.00  0.00    +0.000 N 
ATOM      6  C   UNL     1      -8.699  54.847  48.117  0.00  0.00    +0.000 A 
ATOM      7  C   UNL     1      -9.087  54.385  46.847  0.00  0.00    +0.000 A 
ATOM      8  C   UNL     1      -7.356  54.728  48.517  0.00  0.00    +0.000 A 
ATOM      9  C   UNL     1      -8.104  53.850  45.998  0.00  0.00    +0.000 A 
ATOM     10  C   UNL     1      -6.401  54.168  47.672  0.00  0.00    +0.000 A 
ATOM     11  C   UNL     1      -6.776  53.732  46.410  0.00  0.00    +0.000 A 
ENDROOT
BRANCH   1  17
ATOM     12  S   UNL     1     -13.572  56.389  51.433  0.00  0.00    +0.000 S 
ATOM     13  O   UNL     1     -12.953  56.688  52.708  0.00  0.00    +0.000 OA
ATOM     14  O   UNL     1     -14.748  55.541  51.368  0.00  0.00    +0.000 OA
ATOM     15  N   UNL     1     -12.437  55.740  50.474  0.00  0.00    +0.000 N 
ATOM     16  C   UNL     1     -14.055  57.934  50.752  0.00  0.00    +0.000 A 
ATOM     17  C   UNL     1     -11.963  56.395  49.455  0.00  0.00    +0.000 C 
ATOM     18  C   UNL     1     -13.363  58.398  49.646  0.00  0.00    +0.000 A 
ATOM     19  C   UNL     1     -15.115  58.649  51.319  0.00  0.00    +0.000 A 
ATOM     20  N   UNL     1     -12.304  57.681  49.099  0.00  0.00    +0.000 N 
ATOM     21  C   UNL     1     -13.701  59.657  49.136  0.00  0.00    +0.000 A 
ATOM     22  C   UNL     1     -15.464  59.884  50.777  0.00  0.00    +0.000 A 
ATOM     23  C   UNL     1     -14.751  60.392  49.692  0.00  0.00    +0.000 A 
ATOM     24  H   UNL     1     -12.101  54.834  50.667  0.00  0.00    +0.000 HD
ATOM     25  H   UNL     1     -11.760  58.123  48.408  0.00  0.00    +0.000 HD
ENDBRANCH   1  17
BRANCH   3  26
ATOM     26  O   UNL     1      -9.204  55.882  50.235  0.00  0.00    +0.000 OA
ATOM     27  H   UNL     1      -9.707  55.731  51.010  0.00  0.00    +0.000 HD
ENDBRANCH   3  26
BRANCH   5  28
ATOM     28  C   UNL     1     -10.910  54.018  45.136  0.00  0.00    +0.000 C 
BRANCH  28  29
ATOM     29  C   UNL     1     -11.476  52.588  45.103  0.00  0.00    +0.000 C 
BRANCH  29  30
ATOM     30  C   UNL     1     -10.780  51.586  44.167  0.00  0.00    +0.000 C 
ATOM     31  C   UNL     1      -9.958  52.271  43.077  0.00  0.00    +0.000 C 
ATOM     32  C   UNL     1      -9.867  50.680  45.006  0.00  0.00    +0.000 C 
ENDBRANCH  29  30
ENDBRANCH  28  29
ENDBRANCH   5  28
TORSDOF 5
ENDMDL
MODEL 8
REMARK VINA RESULT:      -7.7      4.084      5.872
REMARK  Name = 298159
REMARK  7 active torsions:
REMARK  status: ('A' for Active; 'I' for Inactive)
REMARK    1  A    between atoms: C_6  and  C_10
REMARK    2  A    between atoms: C_14  and  O_18
REMARK    3  A    between atoms: N_17  and  C_21
REMARK    4  A    between atoms: C_21  and  C_24
REMARK    5  A    between atoms: C_24  and  C_27
REMARK    6  A    between atoms: C_27  and  C_28
REMARK    7  A    between atoms: C_27  and  C_29
REMARK                            x       y       z     vdW  Elec       q    Type
REMARK                         _______ _______ _______ _____ _____    ______ ____
ROOT
ATOM      1  C   UNL     1     -11.437  55.853  48.876  0.00  0.00    +0.000 A 
ATOM      2  C   UNL     1     -11.555  55.488  47.432  0.00  0.00    +0.000 A 
ATOM      3  C   UNL     1     -10.427  55.360  49.614  0.00  0.00    +0.000 A 
ATOM      4  O   UNL     1     -12.420  56.055  46.758  0.00  0.00    +0.000 OA
ATOM      5  N   UNL     1     -10.680  54.545  46.903  0.00  0.00    +0.000 N 
ATOM      6  C   UNL     1      -9.424  54.474  49.004  0.00  0.00    +0.000 A 
ATOM      7  C   UNL     1      -9.551  54.091  47.657  0.00  0.00    +0.000 A 
ATOM      8  C   UNL     1      -8.319  54.025  49.751  0.00  0.00    +0.000 A 
ATOM      9  C   UNL     1      -8.542  53.297  47.087  0.00  0.00    +0.000 A 
ATOM     10  C   UNL     1      -7.344  53.215  49.176  0.00  0.00    +0.000 A 
ATOM     11  C   UNL     1      -7.454  52.854  47.840  0.00  0.00    +0.000 A 
ENDROOT
BRANCH   1  17
ATOM     12  S   UNL     1     -13.501  59.156  49.428  0.00  0.00    +0.000 S 
ATOM     13  O   UNL     1     -14.630  59.274  48.528  0.00  0.00    +0.000 OA
ATOM     14  O   UNL     1     -12.675  60.312  49.726  0.00  0.00    +0.000 OA
ATOM     15  N   UNL     1     -12.534  57.988  48.854  0.00  0.00    +0.000 N 
ATOM     16  C   UNL     1     -14.159  58.625  50.967  0.00  0.00    +0.000 A 
ATOM     17  C   UNL     1     -12.424  56.845  49.466  0.00  0.00    +0.000 C 
ATOM     18  C   UNL     1     -13.877  57.334  51.380  0.00  0.00    +0.000 A 
ATOM     19  C   UNL     1     -14.930  59.499  51.738  0.00  0.00    +0.000 A 
ATOM     20  N   UNL     1     -13.116  56.471  50.597  0.00  0.00    +0.000 N 
ATOM     21  C   UNL     1     -14.448  56.883  52.575  0.00  0.00    +0.000 A 
ATOM     22  C   UNL     1     -15.463  59.048  52.945  0.00  0.00    +0.000 A 
ATOM     23  C   UNL     1     -15.229  57.737  53.358  0.00  0.00    +0.000 A 
ATOM     24  H   UNL     1     -12.021  58.147  48.028  0.00  0.00    +0.000 HD
ATOM     25  H   UNL     1     -13.068  55.527  50.871  0.00  0.00    +0.000 HD
ENDBRANCH   1  17
BRANCH   3  26
ATOM     26  O   UNL     1     -10.212  55.664  50.947  0.00  0.00    +0.000 OA
ATOM     27  H   UNL     1      -9.625  56.356  51.181  0.00  0.00    +0.000 HD
ENDBRANCH   3  26
BRANCH   5  28
ATOM     28  C   UNL     1     -10.863  54.156  45.499  0.00  0.00    +0.000 C 
BRANCH  28  29
ATOM     29  C   UNL     1     -11.817  52.977  45.242  0.00  0.00    +0.000 C 
BRANCH  29  30
ATOM     30  C   UNL     1     -11.244  51.772  44.478  0.00  0.00    +0.000 C 
ATOM     31  C   UNL     1     -10.146  52.168  43.492  0.00  0.00    +0.000 C 
ATOM     32  C   UNL     1     -10.685  50.766  45.493  0.00  0.00    +0.000 C 
ENDBRANCH  29  30
ENDBRANCH  28  29
ENDBRANCH   5  28
TORSDOF 5
ENDMDL
MODEL 9
REMARK VINA RESULT:      -7.7      2.606      8.116
REMARK  Name = 298159
REMARK  7 active torsions:
REMARK  status: ('A' for Active; 'I' for Inactive)
REMARK    1  A    between atoms: C_6  and  C_10
REMARK    2  A    between atoms: C_14  and  O_18
REMARK    3  A    between atoms: N_17  and  C_21
REMARK    4  A    between atoms: C_21  and  C_24
REMARK    5  A    between atoms: C_24  and  C_27
REMARK    6  A    between atoms: C_27  and  C_28
REMARK    7  A    between atoms: C_27  and  C_29
REMARK                            x       y       z     vdW  Elec       q    Type
REMARK                         _______ _______ _______ _____ _____    ______ ____
ROOT
ATOM      1  C   UNL     1      -9.990  55.013  50.414  0.00  0.00    +0.000 A 
ATOM      2  C   UNL     1     -11.052  55.292  51.427  0.00  0.00    +0.000 A 
ATOM      3  C   UNL     1     -10.226  55.243  49.111  0.00  0.00    +0.000 A 
ATOM      4  O   UNL     1     -10.758  55.187  52.622  0.00  0.00    +0.000 OA
ATOM      5  N   UNL     1     -12.315  55.675  50.989  0.00  0.00    +0.000 N 
ATOM      6  C   UNL     1     -11.522  55.784  48.674  0.00  0.00    +0.000 A 
ATOM      7  C   UNL     1     -12.543  56.009  49.615  0.00  0.00    +0.000 A 
ATOM      8  C   UNL     1     -11.744  56.105  47.322  0.00  0.00    +0.000 A 
ATOM      9  C   UNL     1     -13.745  56.588  49.177  0.00  0.00    +0.000 A 
ATOM     10  C   UNL     1     -12.953  56.652  46.902  0.00  0.00    +0.000 A 
ATOM     11  C   UNL     1     -13.953  56.897  47.832  0.00  0.00    +0.000 A 
ENDROOT
BRANCH   1  17
ATOM     12  S   UNL     1      -6.718  52.858  50.771  0.00  0.00    +0.000 S 
ATOM     13  O   UNL     1      -5.750  53.123  49.726  0.00  0.00    +0.000 OA
ATOM     14  O   UNL     1      -6.966  51.498  51.215  0.00  0.00    +0.000 OA
ATOM     15  N   UNL     1      -8.134  53.494  50.303  0.00  0.00    +0.000 N 
ATOM     16  C   UNL     1      -6.158  53.732  52.187  0.00  0.00    +0.000 A 
ATOM     17  C   UNL     1      -8.625  54.546  50.890  0.00  0.00    +0.000 C 
ATOM     18  C   UNL     1      -6.888  54.836  52.596  0.00  0.00    +0.000 A 
ATOM     19  C   UNL     1      -5.015  53.304  52.869  0.00  0.00    +0.000 A 
ATOM     20  N   UNL     1      -8.018  55.257  51.901  0.00  0.00    +0.000 N 
ATOM     21  C   UNL     1      -6.414  55.574  53.686  0.00  0.00    +0.000 A 
ATOM     22  C   UNL     1      -4.576  54.028  53.975  0.00  0.00    +0.000 A 
ATOM     23  C   UNL     1      -5.269  55.168  54.378  0.00  0.00    +0.000 A 
ATOM     24  H   UNL     1      -8.631  53.077  49.561  0.00  0.00    +0.000 HD
ATOM     25  H   UNL     1      -8.412  56.124  52.151  0.00  0.00    +0.000 HD
ENDBRANCH   1  17
BRANCH   3  26
ATOM     26  O   UNL     1      -9.299  55.048  48.101  0.00  0.00    +0.000 OA
ATOM     27  H   UNL     1      -8.429  54.774  48.312  0.00  0.00    +0.000 HD
ENDBRANCH   3  26
BRANCH   5  28
ATOM     28  C   UNL     1     -13.358  55.877  52.003  0.00  0.00    +0.000 C 
BRANCH  28  29
ATOM     29  C   UNL     1     -13.421  57.276  52.640  0.00  0.00    +0.000 C 
BRANCH  29  30
ATOM     30  C   UNL     1     -14.802  57.948  52.710  0.00  0.00    +0.000 C 
ATOM     31  C   UNL     1     -14.889  59.207  51.851  0.00  0.00    +0.000 C 
ATOM     32  C   UNL     1     -15.864  56.939  52.252  0.00  0.00    +0.000 C 
ENDBRANCH  29  30
ENDBRANCH  28  29
ENDBRANCH   5  28
TORSDOF 5
ENDMDL
