MODEL 1
REMARK VINA RESULT:      -8.8      0.000      0.000
REMARK  Name = 338166
REMARK  5 active torsions:
REMARK  status: ('A' for Active; 'I' for Inactive)
REMARK    1  A    between atoms: C_6  and  C_10
REMARK    2  A    between atoms: C_14  and  O_18
REMARK    3  A    between atoms: N_17  and  C_21
REMARK    4  A    between atoms: C_21  and  C_24
REMARK    5  A    between atoms: C_27  and  N_29
REMARK                            x       y       z     vdW  Elec       q    Type
REMARK                         _______ _______ _______ _____ _____    ______ ____
ROOT
ATOM      1  C   UNL     1     -10.177  55.268  50.747  0.00  0.00    +0.000 A 
ATOM      2  C   UNL     1      -9.694  55.318  49.339  0.00  0.00    +0.000 A 
ATOM      3  C   UNL     1     -11.432  55.628  51.058  0.00  0.00    +0.000 A 
ATOM      4  O   UNL     1      -8.536  54.970  49.103  0.00  0.00    +0.000 OA
ATOM      5  N   UNL     1     -10.593  55.687  48.347  0.00  0.00    +0.000 N 
ATOM      6  C   UNL     1     -12.352  56.079  50.003  0.00  0.00    +0.000 A 
ATOM      7  C   UNL     1     -11.928  56.095  48.661  0.00  0.00    +0.000 A 
ATOM      8  C   UNL     1     -13.665  56.476  50.314  0.00  0.00    +0.000 A 
ATOM      9  C   UNL     1     -12.833  56.507  47.670  0.00  0.00    +0.000 A 
ATOM     10  C   UNL     1     -14.552  56.875  49.317  0.00  0.00    +0.000 A 
ATOM     11  C   UNL     1     -14.136  56.886  47.993  0.00  0.00    +0.000 A 
ENDROOT
BRANCH   1  17
ATOM     12  S   UNL     1      -7.090  54.738  53.091  0.00  0.00    +0.000 S 
ATOM     13  O   UNL     1      -7.049  55.662  54.206  0.00  0.00    +0.000 OA
ATOM     14  O   UNL     1      -5.877  54.398  52.370  0.00  0.00    +0.000 OA
ATOM     15  N   UNL     1      -8.171  55.305  52.025  0.00  0.00    +0.000 N 
ATOM     16  C   UNL     1      -7.698  53.224  53.744  0.00  0.00    +0.000 A 
ATOM     17  C   UNL     1      -9.285  54.678  51.806  0.00  0.00    +0.000 C 
ATOM     18  C   UNL     1      -8.961  52.807  53.352  0.00  0.00    +0.000 A 
ATOM     19  C   UNL     1      -6.911  52.483  54.633  0.00  0.00    +0.000 A 
ATOM     20  N   UNL     1      -9.730  53.552  52.462  0.00  0.00    +0.000 N 
ATOM     21  C   UNL     1      -9.478  51.645  53.936  0.00  0.00    +0.000 A 
ATOM     22  C   UNL     1      -7.425  51.307  55.174  0.00  0.00    +0.000 A 
ATOM     23  C   UNL     1      -8.713  50.896  54.836  0.00  0.00    +0.000 A 
ATOM     24  H   UNL     1      -7.979  56.139  51.537  0.00  0.00    +0.000 HD
ATOM     25  H   UNL     1     -10.653  53.255  52.291  0.00  0.00    +0.000 HD
ENDBRANCH   1  17
BRANCH   3  26
ATOM     26  O   UNL     1     -11.972  55.563  52.331  0.00  0.00    +0.000 OA
ATOM     27  H   UNL     1     -11.500  55.133  53.018  0.00  0.00    +0.000 HD
ENDBRANCH   3  26
BRANCH   5  28
ATOM     28  C   UNL     1     -10.134  55.639  46.950  0.00  0.00    +0.000 C 
BRANCH  28  29
ATOM     29  C   UNL     1     -10.125  54.246  46.334  0.00  0.00    +0.000 A 
ATOM     30  C   UNL     1      -8.971  53.660  45.772  0.00  0.00    +0.000 A 
ATOM     31  C   UNL     1     -11.269  53.429  46.419  0.00  0.00    +0.000 A 
ATOM     32  C   UNL     1      -8.947  52.329  45.326  0.00  0.00    +0.000 A 
ATOM     33  C   UNL     1     -11.256  52.103  45.971  0.00  0.00    +0.000 A 
ATOM     34  C   UNL     1     -10.096  51.549  45.435  0.00  0.00    +0.000 A 
BRANCH  30  35
ATOM     35  N   UNL     1      -7.738  54.415  45.615  0.00  0.00    +0.000 N 
ATOM     36  O   UNL     1      -7.647  55.150  44.622  0.00  0.00    +0.000 OA
ATOM     37  O   UNL     1      -6.860  54.245  46.468  0.00  0.00    +0.000 OA
ENDBRANCH  30  35
ENDBRANCH  28  29
ENDBRANCH   5  28
TORSDOF 5
ENDMDL
MODEL 2
REMARK VINA RESULT:      -8.7      3.286      6.471
REMARK  Name = 338166
REMARK  5 active torsions:
REMARK  status: ('A' for Active; 'I' for Inactive)
REMARK    1  A    between atoms: C_6  and  C_10
REMARK    2  A    between atoms: C_14  and  O_18
REMARK    3  A    between atoms: N_17  and  C_21
REMARK    4  A    between atoms: C_21  and  C_24
REMARK    5  A    between atoms: C_27  and  N_29
REMARK                            x       y       z     vdW  Elec       q    Type
REMARK                         _______ _______ _______ _____ _____    ______ ____
ROOT
ATOM      1  C   UNL     1     -12.233  54.174  50.329  0.00  0.00    +0.000 A 
ATOM      2  C   UNL     1     -11.988  53.675  48.948  0.00  0.00    +0.000 A 
ATOM      3  C   UNL     1     -11.614  53.617  51.383  0.00  0.00    +0.000 A 
ATOM      4  O   UNL     1     -12.574  54.225  48.014  0.00  0.00    +0.000 OA
ATOM      5  N   UNL     1     -11.055  52.662  48.769  0.00  0.00    +0.000 N 
ATOM      6  C   UNL     1     -10.678  52.500  51.181  0.00  0.00    +0.000 A 
ATOM      7  C   UNL     1     -10.402  52.042  49.880  0.00  0.00    +0.000 A 
ATOM      8  C   UNL     1     -10.034  51.895  52.275  0.00  0.00    +0.000 A 
ATOM      9  C   UNL     1      -9.486  50.991  49.713  0.00  0.00    +0.000 A 
ATOM     10  C   UNL     1      -9.123  50.858  52.091  0.00  0.00    +0.000 A 
ATOM     11  C   UNL     1      -8.846  50.408  50.808  0.00  0.00    +0.000 A 
ENDROOT
BRANCH   1  17
ATOM     12  S   UNL     1     -15.257  56.443  51.335  0.00  0.00    +0.000 S 
ATOM     13  O   UNL     1     -15.319  56.721  52.756  0.00  0.00    +0.000 OA
ATOM     14  O   UNL     1     -16.465  56.149  50.588  0.00  0.00    +0.000 OA
ATOM     15  N   UNL     1     -14.218  55.217  51.123  0.00  0.00    +0.000 N 
ATOM     16  C   UNL     1     -14.573  57.883  50.594  0.00  0.00    +0.000 A 
ATOM     17  C   UNL     1     -13.081  55.401  50.526  0.00  0.00    +0.000 C 
ATOM     18  C   UNL     1     -13.301  57.794  50.052  0.00  0.00    +0.000 A 
ATOM     19  C   UNL     1     -15.314  59.070  50.567  0.00  0.00    +0.000 A 
ATOM     20  N   UNL     1     -12.578  56.604  50.082  0.00  0.00    +0.000 N 
ATOM     21  C   UNL     1     -12.724  58.961  49.537  0.00  0.00    +0.000 A 
ATOM     22  C   UNL     1     -14.741  60.213  50.014  0.00  0.00    +0.000 A 
ATOM     23  C   UNL     1     -13.442  60.161  49.511  0.00  0.00    +0.000 A 
ATOM     24  H   UNL     1     -14.453  54.320  51.453  0.00  0.00    +0.000 HD
ATOM     25  H   UNL     1     -11.646  56.624  49.764  0.00  0.00    +0.000 HD
ENDBRANCH   1  17
BRANCH   3  26
ATOM     26  O   UNL     1     -11.749  54.053  52.690  0.00  0.00    +0.000 OA
ATOM     27  H   UNL     1     -11.165  53.737  53.352  0.00  0.00    +0.000 HD
ENDBRANCH   3  26
BRANCH   5  28
ATOM     28  C   UNL     1     -10.749  52.245  47.392  0.00  0.00    +0.000 C 
BRANCH  28  29
ATOM     29  C   UNL     1      -9.676  53.078  46.702  0.00  0.00    +0.000 A 
ATOM     30  C   UNL     1      -9.336  52.920  45.342  0.00  0.00    +0.000 A 
ATOM     31  C   UNL     1      -9.059  54.142  47.386  0.00  0.00    +0.000 A 
ATOM     32  C   UNL     1      -8.438  53.780  44.689  0.00  0.00    +0.000 A 
ATOM     33  C   UNL     1      -8.159  55.001  46.746  0.00  0.00    +0.000 A 
ATOM     34  C   UNL     1      -7.856  54.828  45.397  0.00  0.00    +0.000 A 
BRANCH  30  35
ATOM     35  N   UNL     1      -9.895  51.843  44.541  0.00  0.00    +0.000 N 
ATOM     36  O   UNL     1      -9.280  50.767  44.531  0.00  0.00    +0.000 OA
ATOM     37  O   UNL     1     -10.925  52.089  43.905  0.00  0.00    +0.000 OA
ENDBRANCH  30  35
ENDBRANCH  28  29
ENDBRANCH   5  28
TORSDOF 5
ENDMDL
MODEL 3
REMARK VINA RESULT:      -8.6      1.481      2.027
REMARK  Name = 338166
REMARK  5 active torsions:
REMARK  status: ('A' for Active; 'I' for Inactive)
REMARK    1  A    between atoms: C_6  and  C_10
REMARK    2  A    between atoms: C_14  and  O_18
REMARK    3  A    between atoms: N_17  and  C_21
REMARK    4  A    between atoms: C_21  and  C_24
REMARK    5  A    between atoms: C_27  and  N_29
REMARK                            x       y       z     vdW  Elec       q    Type
REMARK                         _______ _______ _______ _____ _____    ______ ____
ROOT
ATOM      1  C   UNL     1     -10.345  54.943  50.440  0.00  0.00    +0.000 A 
ATOM      2  C   UNL     1      -9.838  55.071  49.046  0.00  0.00    +0.000 A 
ATOM      3  C   UNL     1     -11.581  55.356  50.764  0.00  0.00    +0.000 A 
ATOM      4  O   UNL     1      -8.700  54.671  48.797  0.00  0.00    +0.000 OA
ATOM      5  N   UNL     1     -10.697  55.569  48.075  0.00  0.00    +0.000 N 
ATOM      6  C   UNL     1     -12.455  55.942  49.736  0.00  0.00    +0.000 A 
ATOM      7  C   UNL     1     -12.010  56.034  48.405  0.00  0.00    +0.000 A 
ATOM      8  C   UNL     1     -13.746  56.393  50.063  0.00  0.00    +0.000 A 
ATOM      9  C   UNL     1     -12.872  56.574  47.438  0.00  0.00    +0.000 A 
ATOM     10  C   UNL     1     -14.591  56.922  49.090  0.00  0.00    +0.000 A 
ATOM     11  C   UNL     1     -14.155  57.008  47.776  0.00  0.00    +0.000 A 
ENDROOT
BRANCH   1  17
ATOM     12  S   UNL     1      -9.176  52.208  52.981  0.00  0.00    +0.000 S 
ATOM     13  O   UNL     1      -8.603  51.039  52.344  0.00  0.00    +0.000 OA
ATOM     14  O   UNL     1     -10.066  52.066  54.117  0.00  0.00    +0.000 OA
ATOM     15  N   UNL     1      -9.946  53.059  51.836  0.00  0.00    +0.000 N 
ATOM     16  C   UNL     1      -7.814  53.158  53.555  0.00  0.00    +0.000 A 
ATOM     17  C   UNL     1      -9.508  54.221  51.461  0.00  0.00    +0.000 C 
ATOM     18  C   UNL     1      -7.557  54.369  52.934  0.00  0.00    +0.000 A 
ATOM     19  C   UNL     1      -7.027  52.680  54.610  0.00  0.00    +0.000 A 
ATOM     20  N   UNL     1      -8.352  54.835  51.889  0.00  0.00    +0.000 N 
ATOM     21  C   UNL     1      -6.423  55.085  53.335  0.00  0.00    +0.000 A 
ATOM     22  C   UNL     1      -5.926  53.424  55.025  0.00  0.00    +0.000 A 
ATOM     23  C   UNL     1      -5.617  54.620  54.379  0.00  0.00    +0.000 A 
ATOM     24  H   UNL     1     -10.757  52.688  51.420  0.00  0.00    +0.000 HD
ATOM     25  H   UNL     1      -8.069  55.656  51.427  0.00  0.00    +0.000 HD
ENDBRANCH   1  17
BRANCH   3  26
ATOM     26  O   UNL     1     -12.143  55.227  52.023  0.00  0.00    +0.000 OA
ATOM     27  H   UNL     1     -11.656  55.484  52.781  0.00  0.00    +0.000 HD
ENDBRANCH   3  26
BRANCH   5  28
ATOM     28  C   UNL     1     -10.219  55.600  46.684  0.00  0.00    +0.000 C 
BRANCH  28  29
ATOM     29  C   UNL     1     -10.406  54.294  45.922  0.00  0.00    +0.000 A 
ATOM     30  C   UNL     1      -9.328  53.537  45.418  0.00  0.00    +0.000 A 
ATOM     31  C   UNL     1     -11.688  53.724  45.800  0.00  0.00    +0.000 A 
ATOM     32  C   UNL     1      -9.508  52.273  44.832  0.00  0.00    +0.000 A 
ATOM     33  C   UNL     1     -11.877  52.468  45.212  0.00  0.00    +0.000 A 
ATOM     34  C   UNL     1     -10.790  51.738  44.739  0.00  0.00    +0.000 A 
BRANCH  30  35
ATOM     35  N   UNL     1      -7.962  54.034  45.471  0.00  0.00    +0.000 N 
ATOM     36  O   UNL     1      -7.680  54.992  44.737  0.00  0.00    +0.000 OA
ATOM     37  O   UNL     1      -7.176  53.446  46.221  0.00  0.00    +0.000 OA
ENDBRANCH  30  35
ENDBRANCH  28  29
ENDBRANCH   5  28
TORSDOF 5
ENDMDL
MODEL 4
REMARK VINA RESULT:      -8.5      2.960      6.697
REMARK  Name = 338166
REMARK  5 active torsions:
REMARK  status: ('A' for Active; 'I' for Inactive)
REMARK    1  A    between atoms: C_6  and  C_10
REMARK    2  A    between atoms: C_14  and  O_18
REMARK    3  A    between atoms: N_17  and  C_21
REMARK    4  A    between atoms: C_21  and  C_24
REMARK    5  A    between atoms: C_27  and  N_29
REMARK                            x       y       z     vdW  Elec       q    Type
REMARK                         _______ _______ _______ _____ _____    ______ ____
ROOT
ATOM      1  C   UNL     1     -11.470  56.152  48.700  0.00  0.00    +0.000 A 
ATOM      2  C   UNL     1     -10.286  55.649  49.452  0.00  0.00    +0.000 A 
ATOM      3  C   UNL     1     -11.747  55.698  47.467  0.00  0.00    +0.000 A 
ATOM      4  O   UNL     1     -10.079  56.091  50.583  0.00  0.00    +0.000 OA
ATOM      5  N   UNL     1      -9.512  54.652  48.872  0.00  0.00    +0.000 N 
ATOM      6  C   UNL     1     -10.878  54.689  46.841  0.00  0.00    +0.000 A 
ATOM      7  C   UNL     1      -9.779  54.172  47.551  0.00  0.00    +0.000 A 
ATOM      8  C   UNL     1     -11.145  54.215  45.545  0.00  0.00    +0.000 A 
ATOM      9  C   UNL     1      -8.980  53.192  46.940  0.00  0.00    +0.000 A 
ATOM     10  C   UNL     1     -10.345  53.238  44.956  0.00  0.00    +0.000 A 
ATOM     11  C   UNL     1      -9.264  52.724  45.657  0.00  0.00    +0.000 A 
ENDROOT
BRANCH   1  17
ATOM     12  S   UNL     1     -13.580  59.348  49.497  0.00  0.00    +0.000 S 
ATOM     13  O   UNL     1     -14.742  59.496  48.645  0.00  0.00    +0.000 OA
ATOM     14  O   UNL     1     -12.766  60.499  49.840  0.00  0.00    +0.000 OA
ATOM     15  N   UNL     1     -12.619  58.231  48.822  0.00  0.00    +0.000 N 
ATOM     16  C   UNL     1     -14.181  58.714  51.022  0.00  0.00    +0.000 A 
ATOM     17  C   UNL     1     -12.435  57.078  49.389  0.00  0.00    +0.000 C 
ATOM     18  C   UNL     1     -13.845  57.413  51.362  0.00  0.00    +0.000 A 
ATOM     19  C   UNL     1     -14.973  59.520  51.847  0.00  0.00    +0.000 A 
ATOM     20  N   UNL     1     -13.051  56.625  50.534  0.00  0.00    +0.000 N 
ATOM     21  C   UNL     1     -14.392  56.881  52.536  0.00  0.00    +0.000 A 
ATOM     22  C   UNL     1     -15.477  58.988  53.032  0.00  0.00    +0.000 A 
ATOM     23  C   UNL     1     -15.197  57.665  53.369  0.00  0.00    +0.000 A 
ATOM     24  H   UNL     1     -12.170  58.430  47.969  0.00  0.00    +0.000 HD
ATOM     25  H   UNL     1     -12.921  55.682  50.783  0.00  0.00    +0.000 HD
ENDBRANCH   1  17
BRANCH   3  26
ATOM     26  O   UNL     1     -12.852  56.077  46.724  0.00  0.00    +0.000 OA
ATOM     27  H   UNL     1     -12.762  56.250  45.807  0.00  0.00    +0.000 HD
ENDBRANCH   3  26
BRANCH   5  28
ATOM     28  C   UNL     1      -8.405  54.094  49.663  0.00  0.00    +0.000 C 
BRANCH  28  29
ATOM     29  C   UNL     1      -8.839  53.193  50.811  0.00  0.00    +0.000 A 
ATOM     30  C   UNL     1      -8.401  53.375  52.140  0.00  0.00    +0.000 A 
ATOM     31  C   UNL     1      -9.812  52.198  50.599  0.00  0.00    +0.000 A 
ATOM     32  C   UNL     1      -8.909  52.618  53.207  0.00  0.00    +0.000 A 
ATOM     33  C   UNL     1     -10.320  51.434  51.656  0.00  0.00    +0.000 A 
ATOM     34  C   UNL     1      -9.879  51.649  52.960  0.00  0.00    +0.000 A 
BRANCH  30  35
ATOM     35  N   UNL     1      -7.384  54.359  52.474  0.00  0.00    +0.000 N 
ATOM     36  O   UNL     1      -6.201  54.003  52.386  0.00  0.00    +0.000 OA
ATOM     37  O   UNL     1      -7.775  55.469  52.851  0.00  0.00    +0.000 OA
ENDBRANCH  30  35
ENDBRANCH  28  29
ENDBRANCH   5  28
TORSDOF 5
ENDMDL
MODEL 5
REMARK VINA RESULT:      -8.5      3.693      7.181
REMARK  Name = 338166
REMARK  5 active torsions:
REMARK  status: ('A' for Active; 'I' for Inactive)
REMARK    1  A    between atoms: C_6  and  C_10
REMARK    2  A    between atoms: C_14  and  O_18
REMARK    3  A    between atoms: N_17  and  C_21
REMARK    4  A    between atoms: C_21  and  C_24
REMARK    5  A    between atoms: C_27  and  N_29
REMARK                            x       y       z     vdW  Elec       q    Type
REMARK                         _______ _______ _______ _____ _____    ______ ____
ROOT
ATOM      1  C   UNL     1     -11.211  54.609  50.801  0.00  0.00    +0.000 A 
ATOM      2  C   UNL     1      -9.787  54.965  50.549  0.00  0.00    +0.000 A 
ATOM      3  C   UNL     1     -11.553  53.368  51.186  0.00  0.00    +0.000 A 
ATOM      4  O   UNL     1      -9.523  56.119  50.206  0.00  0.00    +0.000 OA
ATOM      5  N   UNL     1      -8.815  54.002  50.785  0.00  0.00    +0.000 N 
ATOM      6  C   UNL     1     -10.516  52.341  51.367  0.00  0.00    +0.000 A 
ATOM      7  C   UNL     1      -9.162  52.669  51.174  0.00  0.00    +0.000 A 
ATOM      8  C   UNL     1     -10.859  51.034  51.754  0.00  0.00    +0.000 A 
ATOM      9  C   UNL     1      -8.190  51.677  51.376  0.00  0.00    +0.000 A 
ATOM     10  C   UNL     1      -9.881  50.063  51.956  0.00  0.00    +0.000 A 
ATOM     11  C   UNL     1      -8.545  50.386  51.771  0.00  0.00    +0.000 A 
ENDROOT
BRANCH   1  17
ATOM     12  S   UNL     1     -13.565  57.399  49.394  0.00  0.00    +0.000 S 
ATOM     13  O   UNL     1     -14.714  56.877  48.684  0.00  0.00    +0.000 OA
ATOM     14  O   UNL     1     -12.845  58.551  48.886  0.00  0.00    +0.000 OA
ATOM     15  N   UNL     1     -12.510  56.182  49.578  0.00  0.00    +0.000 N 
ATOM     16  C   UNL     1     -14.154  57.866  50.983  0.00  0.00    +0.000 A 
ATOM     17  C   UNL     1     -12.257  55.690  50.751  0.00  0.00    +0.000 C 
ATOM     18  C   UNL     1     -13.734  57.125  52.076  0.00  0.00    +0.000 A 
ATOM     19  C   UNL     1     -15.022  58.956  51.111  0.00  0.00    +0.000 A 
ATOM     20  N   UNL     1     -12.865  56.046  51.934  0.00  0.00    +0.000 N 
ATOM     21  C   UNL     1     -14.269  57.445  53.330  0.00  0.00    +0.000 A 
ATOM     22  C   UNL     1     -15.514  59.287  52.371  0.00  0.00    +0.000 A 
ATOM     23  C   UNL     1     -15.147  58.522  53.478  0.00  0.00    +0.000 A 
ATOM     24  H   UNL     1     -12.056  55.811  48.788  0.00  0.00    +0.000 HD
ATOM     25  H   UNL     1     -12.674  55.502  52.732  0.00  0.00    +0.000 HD
ENDBRANCH   1  17
BRANCH   3  26
ATOM     26  O   UNL     1     -12.845  52.972  51.487  0.00  0.00    +0.000 OA
ATOM     27  H   UNL     1     -13.084  52.789  52.375  0.00  0.00    +0.000 HD
ENDBRANCH   3  26
BRANCH   5  28
ATOM     28  C   UNL     1      -7.406  54.393  50.627  0.00  0.00    +0.000 C 
BRANCH  28  29
ATOM     29  C   UNL     1      -6.630  54.503  51.934  0.00  0.00    +0.000 A 
ATOM     30  C   UNL     1      -5.320  54.006  52.094  0.00  0.00    +0.000 A 
ATOM     31  C   UNL     1      -7.165  55.230  53.014  0.00  0.00    +0.000 A 
ATOM     32  C   UNL     1      -4.571  54.228  53.261  0.00  0.00    +0.000 A 
ATOM     33  C   UNL     1      -6.429  55.450  54.183  0.00  0.00    +0.000 A 
ATOM     34  C   UNL     1      -5.130  54.961  54.304  0.00  0.00    +0.000 A 
BRANCH  30  35
ATOM     35  N   UNL     1      -4.674  53.223  51.052  0.00  0.00    +0.000 N 
ATOM     36  O   UNL     1      -4.212  53.842  50.084  0.00  0.00    +0.000 OA
ATOM     37  O   UNL     1      -4.660  51.996  51.195  0.00  0.00    +0.000 OA
ENDBRANCH  30  35
ENDBRANCH  28  29
ENDBRANCH   5  28
TORSDOF 5
ENDMDL
MODEL 6
REMARK VINA RESULT:      -8.4      3.221      6.746
REMARK  Name = 338166
REMARK  5 active torsions:
REMARK  status: ('A' for Active; 'I' for Inactive)
REMARK    1  A    between atoms: C_6  and  C_10
REMARK    2  A    between atoms: C_14  and  O_18
REMARK    3  A    between atoms: N_17  and  C_21
REMARK    4  A    between atoms: C_21  and  C_24
REMARK    5  A    between atoms: C_27  and  N_29
REMARK                            x       y       z     vdW  Elec       q    Type
REMARK                         _______ _______ _______ _____ _____    ______ ____
ROOT
ATOM      1  C   UNL     1     -11.625  55.781  48.742  0.00  0.00    +0.000 A 
ATOM      2  C   UNL     1     -10.668  55.007  49.580  0.00  0.00    +0.000 A 
ATOM      3  C   UNL     1     -11.782  55.500  47.438  0.00  0.00    +0.000 A 
ATOM      4  O   UNL     1     -10.566  55.298  50.773  0.00  0.00    +0.000 OA
ATOM      5  N   UNL     1      -9.990  53.945  48.996  0.00  0.00    +0.000 N 
ATOM      6  C   UNL     1     -11.006  54.414  46.820  0.00  0.00    +0.000 A 
ATOM      7  C   UNL     1     -10.127  53.644  47.604  0.00  0.00    +0.000 A 
ATOM      8  C   UNL     1     -11.147  54.117  45.453  0.00  0.00    +0.000 A 
ATOM      9  C   UNL     1      -9.416  52.598  46.996  0.00  0.00    +0.000 A 
ATOM     10  C   UNL     1     -10.438  53.072  44.866  0.00  0.00    +0.000 A 
ATOM     11  C   UNL     1      -9.575  52.309  45.640  0.00  0.00    +0.000 A 
ENDROOT
BRANCH   1  17
ATOM     12  S   UNL     1     -13.504  59.144  49.424  0.00  0.00    +0.000 S 
ATOM     13  O   UNL     1     -14.660  59.339  48.574  0.00  0.00    +0.000 OA
ATOM     14  O   UNL     1     -12.610  60.248  49.718  0.00  0.00    +0.000 OA
ATOM     15  N   UNL     1     -12.628  57.937  48.788  0.00  0.00    +0.000 N 
ATOM     16  C   UNL     1     -14.134  58.612  50.976  0.00  0.00    +0.000 A 
ATOM     17  C   UNL     1     -12.519  56.798  49.399  0.00  0.00    +0.000 C 
ATOM     18  C   UNL     1     -13.886  57.305  51.366  0.00  0.00    +0.000 A 
ATOM     19  C   UNL     1     -14.863  59.502  51.774  0.00  0.00    +0.000 A 
ATOM     20  N   UNL     1     -13.155  56.433  50.564  0.00  0.00    +0.000 N 
ATOM     21  C   UNL     1     -14.459  56.858  52.562  0.00  0.00    +0.000 A 
ATOM     22  C   UNL     1     -15.392  59.052  52.981  0.00  0.00    +0.000 A 
ATOM     23  C   UNL     1     -15.201  57.727  53.368  0.00  0.00    +0.000 A 
ATOM     24  H   UNL     1     -12.173  58.071  47.926  0.00  0.00    +0.000 HD
ATOM     25  H   UNL     1     -13.088  55.493  50.849  0.00  0.00    +0.000 HD
ENDBRANCH   1  17
BRANCH   3  26
ATOM     26  O   UNL     1     -12.684  56.138  46.604  0.00  0.00    +0.000 OA
ATOM     27  H   UNL     1     -13.343  56.697  46.967  0.00  0.00    +0.000 HD
ENDBRANCH   3  26
BRANCH   5  28
ATOM     28  C   UNL     1      -9.122  53.127  49.857  0.00  0.00    +0.000 C 
BRANCH  28  29
ATOM     29  C   UNL     1      -7.746  53.726  50.120  0.00  0.00    +0.000 A 
ATOM     30  C   UNL     1      -7.138  53.728  51.393  0.00  0.00    +0.000 A 
ATOM     31  C   UNL     1      -6.966  54.200  49.048  0.00  0.00    +0.000 A 
ATOM     32  C   UNL     1      -5.819  54.167  51.593  0.00  0.00    +0.000 A 
ATOM     33  C   UNL     1      -5.653  54.645  49.239  0.00  0.00    +0.000 A 
ATOM     34  C   UNL     1      -5.075  54.619  50.506  0.00  0.00    +0.000 A 
BRANCH  30  35
ATOM     35  N   UNL     1      -7.855  53.281  52.576  0.00  0.00    +0.000 N 
ATOM     36  O   UNL     1      -8.511  54.130  53.194  0.00  0.00    +0.000 OA
ATOM     37  O   UNL     1      -7.732  52.093  52.894  0.00  0.00    +0.000 OA
ENDBRANCH  30  35
ENDBRANCH  28  29
ENDBRANCH   5  28
TORSDOF 5
ENDMDL
MODEL 7
REMARK VINA RESULT:      -8.4      2.473      5.566
REMARK  Name = 338166
REMARK  5 active torsions:
REMARK  status: ('A' for Active; 'I' for Inactive)
REMARK    1  A    between atoms: C_6  and  C_10
REMARK    2  A    between atoms: C_14  and  O_18
REMARK    3  A    between atoms: N_17  and  C_21
REMARK    4  A    between atoms: C_21  and  C_24
REMARK    5  A    between atoms: C_27  and  N_29
REMARK                            x       y       z     vdW  Elec       q    Type
REMARK                         _______ _______ _______ _____ _____    ______ ____
ROOT
ATOM      1  C   UNL     1      -9.422  54.810  50.388  0.00  0.00    +0.000 A 
ATOM      2  C   UNL     1     -10.830  55.048  50.808  0.00  0.00    +0.000 A 
ATOM      3  C   UNL     1      -9.101  54.693  49.089  0.00  0.00    +0.000 A 
ATOM      4  O   UNL     1     -11.072  55.157  52.011  0.00  0.00    +0.000 OA
ATOM      5  N   UNL     1     -11.794  55.211  49.821  0.00  0.00    +0.000 N 
ATOM      6  C   UNL     1     -10.145  54.802  48.059  0.00  0.00    +0.000 A 
ATOM      7  C   UNL     1     -11.475  55.068  48.434  0.00  0.00    +0.000 A 
ATOM      8  C   UNL     1      -9.828  54.666  46.696  0.00  0.00    +0.000 A 
ATOM      9  C   UNL     1     -12.449  55.192  47.430  0.00  0.00    +0.000 A 
ATOM     10  C   UNL     1     -10.807  54.798  45.713  0.00  0.00    +0.000 A 
ATOM     11  C   UNL     1     -12.117  55.066  46.081  0.00  0.00    +0.000 A 
ENDROOT
BRANCH   1  17
ATOM     12  S   UNL     1      -7.305  55.921  53.484  0.00  0.00    +0.000 S 
ATOM     13  O   UNL     1      -7.885  55.520  54.750  0.00  0.00    +0.000 OA
ATOM     14  O   UNL     1      -6.711  57.235  53.329  0.00  0.00    +0.000 OA
ATOM     15  N   UNL     1      -8.445  55.741  52.347  0.00  0.00    +0.000 N 
ATOM     16  C   UNL     1      -6.015  54.771  53.162  0.00  0.00    +0.000 A 
ATOM     17  C   UNL     1      -8.333  54.834  51.426  0.00  0.00    +0.000 C 
ATOM     18  C   UNL     1      -6.185  53.881  52.114  0.00  0.00    +0.000 A 
ATOM     19  C   UNL     1      -4.864  54.775  53.958  0.00  0.00    +0.000 A 
ATOM     20  N   UNL     1      -7.334  53.892  51.327  0.00  0.00    +0.000 N 
ATOM     21  C   UNL     1      -5.195  52.911  51.910  0.00  0.00    +0.000 A 
ATOM     22  C   UNL     1      -3.870  53.830  53.717  0.00  0.00    +0.000 A 
ATOM     23  C   UNL     1      -4.042  52.890  52.701  0.00  0.00    +0.000 A 
ATOM     24  H   UNL     1      -9.235  56.329  52.355  0.00  0.00    +0.000 HD
ATOM     25  H   UNL     1      -7.438  53.179  50.656  0.00  0.00    +0.000 HD
ENDBRANCH   1  17
BRANCH   3  26
ATOM     26  O   UNL     1      -7.812  54.520  48.615  0.00  0.00    +0.000 OA
ATOM     27  H   UNL     1      -7.429  53.664  48.600  0.00  0.00    +0.000 HD
ENDBRANCH   3  26
BRANCH   5  28
ATOM     28  C   UNL     1     -13.163  55.544  50.245  0.00  0.00    +0.000 C 
BRANCH  28  29
ATOM     29  C   UNL     1     -13.512  57.024  50.153  0.00  0.00    +0.000 A 
ATOM     30  C   UNL     1     -14.667  57.580  50.742  0.00  0.00    +0.000 A 
ATOM     31  C   UNL     1     -12.606  57.927  49.565  0.00  0.00    +0.000 A 
ATOM     32  C   UNL     1     -14.907  58.963  50.758  0.00  0.00    +0.000 A 
ATOM     33  C   UNL     1     -12.841  59.307  49.571  0.00  0.00    +0.000 A 
ATOM     34  C   UNL     1     -13.983  59.826  50.176  0.00  0.00    +0.000 A 
BRANCH  30  35
ATOM     35  N   UNL     1     -15.681  56.741  51.359  0.00  0.00    +0.000 N 
ATOM     36  O   UNL     1     -16.435  56.115  50.603  0.00  0.00    +0.000 OA
ATOM     37  O   UNL     1     -15.736  56.739  52.594  0.00  0.00    +0.000 OA
ENDBRANCH  30  35
ENDBRANCH  28  29
ENDBRANCH   5  28
TORSDOF 5
ENDMDL
MODEL 8
REMARK VINA RESULT:      -8.2      2.535      6.708
REMARK  Name = 338166
REMARK  5 active torsions:
REMARK  status: ('A' for Active; 'I' for Inactive)
REMARK    1  A    between atoms: C_6  and  C_10
REMARK    2  A    between atoms: C_14  and  O_18
REMARK    3  A    between atoms: N_17  and  C_21
REMARK    4  A    between atoms: C_21  and  C_24
REMARK    5  A    between atoms: C_27  and  N_29
REMARK                            x       y       z     vdW  Elec       q    Type
REMARK                         _______ _______ _______ _____ _____    ______ ____
ROOT
ATOM      1  C   UNL     1     -10.768  55.611  48.518  0.00  0.00    +0.000 A 
ATOM      2  C   UNL     1      -9.425  55.329  49.096  0.00  0.00    +0.000 A 
ATOM      3  C   UNL     1     -11.103  55.159  47.299  0.00  0.00    +0.000 A 
ATOM      4  O   UNL     1      -9.168  55.759  50.221  0.00  0.00    +0.000 OA
ATOM      5  N   UNL     1      -8.550  54.532  48.369  0.00  0.00    +0.000 N 
ATOM      6  C   UNL     1     -10.140  54.371  46.515  0.00  0.00    +0.000 A 
ATOM      7  C   UNL     1      -8.880  54.059  47.060  0.00  0.00    +0.000 A 
ATOM      8  C   UNL     1     -10.469  53.904  45.231  0.00  0.00    +0.000 A 
ATOM      9  C   UNL     1      -7.988  53.285  46.301  0.00  0.00    +0.000 A 
ATOM     10  C   UNL     1      -9.573  53.131  44.494  0.00  0.00    +0.000 A 
ATOM     11  C   UNL     1      -8.334  52.818  45.033  0.00  0.00    +0.000 A 
ENDROOT
BRANCH   1  17
ATOM     12  S   UNL     1     -13.383  56.227  51.362  0.00  0.00    +0.000 S 
ATOM     13  O   UNL     1     -12.779  56.530  52.643  0.00  0.00    +0.000 OA
ATOM     14  O   UNL     1     -14.534  55.348  51.279  0.00  0.00    +0.000 OA
ATOM     15  N   UNL     1     -12.221  55.632  50.402  0.00  0.00    +0.000 N 
ATOM     16  C   UNL     1     -13.910  57.769  50.703  0.00  0.00    +0.000 A 
ATOM     17  C   UNL     1     -11.802  56.297  49.369  0.00  0.00    +0.000 C 
ATOM     18  C   UNL     1     -13.245  58.263  49.592  0.00  0.00    +0.000 A 
ATOM     19  C   UNL     1     -14.970  58.457  51.304  0.00  0.00    +0.000 A 
ATOM     20  N   UNL     1     -12.196  57.564  49.001  0.00  0.00    +0.000 N 
ATOM     21  C   UNL     1     -13.610  59.529  49.119  0.00  0.00    +0.000 A 
ATOM     22  C   UNL     1     -15.347  59.698  50.797  0.00  0.00    +0.000 A 
ATOM     23  C   UNL     1     -14.658  60.239  49.712  0.00  0.00    +0.000 A 
ATOM     24  H   UNL     1     -11.826  54.753  50.606  0.00  0.00    +0.000 HD
ATOM     25  H   UNL     1     -11.703  58.005  48.271  0.00  0.00    +0.000 HD
ENDBRANCH   1  17
BRANCH   3  26
ATOM     26  O   UNL     1     -12.345  55.336  46.713  0.00  0.00    +0.000 OA
ATOM     27  H   UNL     1     -12.406  55.634  45.826  0.00  0.00    +0.000 HD
ENDBRANCH   3  26
BRANCH   5  28
ATOM     28  C   UNL     1      -7.264  54.178  48.991  0.00  0.00    +0.000 C 
BRANCH  28  29
ATOM     29  C   UNL     1      -7.351  53.077  50.041  0.00  0.00    +0.000 A 
ATOM     30  C   UNL     1      -6.825  53.213  51.343  0.00  0.00    +0.000 A 
ATOM     31  C   UNL     1      -8.085  51.905  49.776  0.00  0.00    +0.000 A 
ATOM     32  C   UNL     1      -7.026  52.242  52.337  0.00  0.00    +0.000 A 
ATOM     33  C   UNL     1      -8.284  50.929  50.758  0.00  0.00    +0.000 A 
ATOM     34  C   UNL     1      -7.766  51.100  52.040  0.00  0.00    +0.000 A 
BRANCH  30  35
ATOM     35  N   UNL     1      -6.033  54.371  51.723  0.00  0.00    +0.000 N 
ATOM     36  O   UNL     1      -4.830  54.357  51.429  0.00  0.00    +0.000 OA
ATOM     37  O   UNL     1      -6.612  55.273  52.340  0.00  0.00    +0.000 OA
ENDBRANCH  30  35
ENDBRANCH  28  29
ENDBRANCH   5  28
TORSDOF 5
ENDMDL
MODEL 9
REMARK VINA RESULT:      -8.2      3.558      7.286
REMARK  Name = 338166
REMARK  5 active torsions:
REMARK  status: ('A' for Active; 'I' for Inactive)
REMARK    1  A    between atoms: C_6  and  C_10
REMARK    2  A    between atoms: C_14  and  O_18
REMARK    3  A    between atoms: N_17  and  C_21
REMARK    4  A    between atoms: C_21  and  C_24
REMARK    5  A    between atoms: C_27  and  N_29
REMARK                            x       y       z     vdW  Elec       q    Type
REMARK                         _______ _______ _______ _____ _____    ______ ____
ROOT
ATOM      1  C   UNL     1     -11.358  54.106  50.702  0.00  0.00    +0.000 A 
ATOM      2  C   UNL     1     -10.202  54.131  51.639  0.00  0.00    +0.000 A 
ATOM      3  C   UNL     1     -11.663  52.994  50.012  0.00  0.00    +0.000 A 
ATOM      4  O   UNL     1      -9.968  55.172  52.255  0.00  0.00    +0.000 OA
ATOM      5  N   UNL     1      -9.484  52.957  51.832  0.00  0.00    +0.000 N 
ATOM      6  C   UNL     1     -10.852  51.779  50.179  0.00  0.00    +0.000 A 
ATOM      7  C   UNL     1      -9.780  51.770  51.090  0.00  0.00    +0.000 A 
ATOM      8  C   UNL     1     -11.147  50.612  49.452  0.00  0.00    +0.000 A 
ATOM      9  C   UNL     1      -9.036  50.590  51.248  0.00  0.00    +0.000 A 
ATOM     10  C   UNL     1     -10.402  49.448  49.626  0.00  0.00    +0.000 A 
ATOM     11  C   UNL     1      -9.349  49.436  50.528  0.00  0.00    +0.000 A 
ENDROOT
BRANCH   1  17
ATOM     12  S   UNL     1     -13.337  57.153  49.253  0.00  0.00    +0.000 S 
ATOM     13  O   UNL     1     -14.521  56.770  48.511  0.00  0.00    +0.000 OA
ATOM     14  O   UNL     1     -12.476  58.216  48.769  0.00  0.00    +0.000 OA
ATOM     15  N   UNL     1     -12.436  55.822  49.456  0.00  0.00    +0.000 N 
ATOM     16  C   UNL     1     -13.910  57.680  50.829  0.00  0.00    +0.000 A 
ATOM     17  C   UNL     1     -12.271  55.300  50.632  0.00  0.00    +0.000 C 
ATOM     18  C   UNL     1     -13.606  56.893  51.928  0.00  0.00    +0.000 A 
ATOM     19  C   UNL     1     -14.649  58.863  50.941  0.00  0.00    +0.000 A 
ATOM     20  N   UNL     1     -12.864  55.721  51.801  0.00  0.00    +0.000 N 
ATOM     21  C   UNL     1     -14.133  57.268  53.169  0.00  0.00    +0.000 A 
ATOM     22  C   UNL     1     -15.132  59.245  52.191  0.00  0.00    +0.000 A 
ATOM     23  C   UNL     1     -14.884  58.440  53.302  0.00  0.00    +0.000 A 
ATOM     24  H   UNL     1     -12.007  55.403  48.675  0.00  0.00    +0.000 HD
ATOM     25  H   UNL     1     -12.757  55.156  52.601  0.00  0.00    +0.000 HD
ENDBRANCH   1  17
BRANCH   3  26
ATOM     26  O   UNL     1     -12.748  52.875  49.161  0.00  0.00    +0.000 OA
ATOM     27  H   UNL     1     -13.322  53.605  49.030  0.00  0.00    +0.000 HD
ENDBRANCH   3  26
BRANCH   5  28
ATOM     28  C   UNL     1      -8.406  52.967  52.832  0.00  0.00    +0.000 C 
BRANCH  28  29
ATOM     29  C   UNL     1      -7.058  53.441  52.305  0.00  0.00    +0.000 A 
ATOM     30  C   UNL     1      -6.207  54.300  53.031  0.00  0.00    +0.000 A 
ATOM     31  C   UNL     1      -6.552  52.926  51.096  0.00  0.00    +0.000 A 
ATOM     32  C   UNL     1      -4.914  54.624  52.588  0.00  0.00    +0.000 A 
ATOM     33  C   UNL     1      -5.267  53.248  50.644  0.00  0.00    +0.000 A 
ATOM     34  C   UNL     1      -4.445  54.087  51.393  0.00  0.00    +0.000 A 
BRANCH  30  35
ATOM     35  N   UNL     1      -6.631  54.907  54.282  0.00  0.00    +0.000 N 
ATOM     36  O   UNL     1      -7.372  55.897  54.208  0.00  0.00    +0.000 OA
ATOM     37  O   UNL     1      -6.197  54.410  55.326  0.00  0.00    +0.000 OA
ENDBRANCH  30  35
ENDBRANCH  28  29
ENDBRANCH   5  28
TORSDOF 5
ENDMDL
