MODEL 1
REMARK VINA RESULT:      -8.3      0.000      0.000
REMARK  Name = 338396
REMARK  13 active torsions:
REMARK  status: ('A' for Active; 'I' for Inactive)
REMARK    1  A    between atoms: C_6  and  C_10
REMARK    2  A    between atoms: C_14  and  O_18
REMARK    3  A    between atoms: N_17  and  C_21
REMARK    4  A    between atoms: C_21  and  C_24
REMARK    5  A    between atoms: C_24  and  C_27
REMARK    6  A    between atoms: C_25  and  N_28
REMARK    7  A    between atoms: C_27  and  C_29
REMARK    8  A    between atoms: C_27  and  C_30
REMARK    9  A    between atoms: N_28  and  C_31
REMARK   10  A    between atoms: C_31  and  C_32
REMARK   11  A    between atoms: C_32  and  O_34
REMARK   12  A    between atoms: O_34  and  C_35
REMARK   13  A    between atoms: C_35  and  C_36
REMARK                            x       y       z     vdW  Elec       q    Type
REMARK                         _______ _______ _______ _____ _____    ______ ____
ROOT
ATOM      1  C   UNL     1      -9.339  55.049  50.453  0.00  0.00    +0.000 A 
ATOM      2  C   UNL     1      -8.832  54.907  49.052  0.00  0.00    +0.000 A 
ATOM      3  C   UNL     1     -10.583  55.505  50.677  0.00  0.00    +0.000 A 
ATOM      4  O   UNL     1      -7.738  54.365  48.879  0.00  0.00    +0.000 OA
ATOM      5  N   UNL     1      -9.620  55.370  48.005  0.00  0.00    +0.000 N 
ATOM      6  C   UNL     1     -11.453  55.857  49.547  0.00  0.00    +0.000 A 
ATOM      7  C   UNL     1     -10.968  55.772  48.233  0.00  0.00    +0.000 A 
ATOM      8  C   UNL     1     -12.783  56.238  49.772  0.00  0.00    +0.000 A 
ATOM      9  C   UNL     1     -11.853  56.048  47.179  0.00  0.00    +0.000 A 
ATOM     10  C   UNL     1     -13.650  56.556  48.721  0.00  0.00    +0.000 A 
ATOM     11  C   UNL     1     -13.171  56.438  47.423  0.00  0.00    +0.000 A 
ENDROOT
BRANCH   1  17
ATOM     12  S   UNL     1      -6.253  54.694  52.855  0.00  0.00    +0.000 S 
ATOM     13  O   UNL     1      -6.189  55.754  53.845  0.00  0.00    +0.000 OA
ATOM     14  O   UNL     1      -5.048  54.234  52.200  0.00  0.00    +0.000 OA
ATOM     15  N   UNL     1      -7.301  55.154  51.708  0.00  0.00    +0.000 N 
ATOM     16  C   UNL     1      -6.920  53.296  53.683  0.00  0.00    +0.000 A 
ATOM     17  C   UNL     1      -8.465  54.588  51.599  0.00  0.00    +0.000 C 
ATOM     18  C   UNL     1      -8.206  52.904  53.355  0.00  0.00    +0.000 A 
ATOM     19  C   UNL     1      -6.154  52.608  54.627  0.00  0.00    +0.000 A 
ATOM     20  N   UNL     1      -8.966  53.607  52.426  0.00  0.00    +0.000 N 
ATOM     21  C   UNL     1      -8.765  51.821  54.042  0.00  0.00    +0.000 A 
ATOM     22  C   UNL     1      -6.711  51.511  55.280  0.00  0.00    +0.000 A 
ATOM     23  C   UNL     1      -8.018  51.122  54.993  0.00  0.00    +0.000 A 
ATOM     24  H   UNL     1      -7.052  55.874  51.085  0.00  0.00    +0.000 HD
ATOM     25  H   UNL     1      -9.923  53.388  52.354  0.00  0.00    +0.000 HD
ENDBRANCH   1  17
BRANCH   3  26
ATOM     26  O   UNL     1     -11.160  55.631  51.930  0.00  0.00    +0.000 OA
ATOM     27  H   UNL     1     -11.970  55.199  52.119  0.00  0.00    +0.000 HD
ENDBRANCH   3  26
BRANCH  10  28
ATOM     28  N   UNL     1     -14.980  56.834  49.008  0.00  0.00    +0.000 N 
ATOM     29  H   UNL     1     -15.525  57.372  48.390  0.00  0.00    +0.000 HD
BRANCH  28  30
ATOM     30  C   UNL     1     -15.558  56.311  50.251  0.00  0.00    +0.000 C 
BRANCH  30  31
ATOM     31  C   UNL     1     -15.461  57.375  51.334  0.00  0.00    +0.000 C 
ATOM     32  O   UNL     1     -15.488  57.146  52.538  0.00  0.00    +0.000 OA
BRANCH  31  33
ATOM     33  O   UNL     1     -15.407  58.610  50.763  0.00  0.00    +0.000 OA
BRANCH  33  34
ATOM     34  C   UNL     1     -14.331  59.430  51.234  0.00  0.00    +0.000 C 
ATOM     35  C   UNL     1     -13.693  60.078  50.018  0.00  0.00    +0.000 C 
ENDBRANCH  33  34
ENDBRANCH  31  33
ENDBRANCH  30  31
ENDBRANCH  28  30
ENDBRANCH  10  28
BRANCH   5  36
ATOM     36  C   UNL     1      -9.081  55.267  46.644  0.00  0.00    +0.000 C 
BRANCH  36  37
ATOM     37  C   UNL     1      -9.134  53.868  46.006  0.00  0.00    +0.000 C 
BRANCH  37  38
ATOM     38  C   UNL     1     -10.406  53.518  45.219  0.00  0.00    +0.000 C 
ATOM     39  C   UNL     1     -10.099  52.795  43.909  0.00  0.00    +0.000 C 
ATOM     40  C   UNL     1     -11.299  52.637  46.101  0.00  0.00    +0.000 C 
ENDBRANCH  37  38
ENDBRANCH  36  37
ENDBRANCH   5  36
TORSDOF 10
ENDMDL
MODEL 2
REMARK VINA RESULT:      -7.9      2.711      7.712
REMARK  Name = 338396
REMARK  13 active torsions:
REMARK  status: ('A' for Active; 'I' for Inactive)
REMARK    1  A    between atoms: C_6  and  C_10
REMARK    2  A    between atoms: C_14  and  O_18
REMARK    3  A    between atoms: N_17  and  C_21
REMARK    4  A    between atoms: C_21  and  C_24
REMARK    5  A    between atoms: C_24  and  C_27
REMARK    6  A    between atoms: C_25  and  N_28
REMARK    7  A    between atoms: C_27  and  C_29
REMARK    8  A    between atoms: C_27  and  C_30
REMARK    9  A    between atoms: N_28  and  C_31
REMARK   10  A    between atoms: C_31  and  C_32
REMARK   11  A    between atoms: C_32  and  O_34
REMARK   12  A    between atoms: O_34  and  C_35
REMARK   13  A    between atoms: C_35  and  C_36
REMARK                            x       y       z     vdW  Elec       q    Type
REMARK                         _______ _______ _______ _____ _____    ______ ____
ROOT
ATOM      1  C   UNL     1     -12.120  54.416  50.374  0.00  0.00    +0.000 A 
ATOM      2  C   UNL     1     -11.910  53.931  48.974  0.00  0.00    +0.000 A 
ATOM      3  C   UNL     1     -11.442  53.857  51.390  0.00  0.00    +0.000 A 
ATOM      4  O   UNL     1     -12.448  54.550  48.054  0.00  0.00    +0.000 OA
ATOM      5  N   UNL     1     -11.102  52.819  48.766  0.00  0.00    +0.000 N 
ATOM      6  C   UNL     1     -10.484  52.775  51.130  0.00  0.00    +0.000 A 
ATOM      7  C   UNL     1     -10.318  52.282  49.827  0.00  0.00    +0.000 A 
ATOM      8  C   UNL     1      -9.703  52.257  52.173  0.00  0.00    +0.000 A 
ATOM      9  C   UNL     1      -9.342  51.297  49.609  0.00  0.00    +0.000 A 
ATOM     10  C   UNL     1      -8.762  51.244  51.960  0.00  0.00    +0.000 A 
ATOM     11  C   UNL     1      -8.581  50.785  50.662  0.00  0.00    +0.000 A 
ENDROOT
BRANCH   1  17
ATOM     12  S   UNL     1     -15.275  56.520  51.396  0.00  0.00    +0.000 S 
ATOM     13  O   UNL     1     -15.336  56.781  52.823  0.00  0.00    +0.000 OA
ATOM     14  O   UNL     1     -16.475  56.172  50.666  0.00  0.00    +0.000 OA
ATOM     15  N   UNL     1     -14.187  55.344  51.157  0.00  0.00    +0.000 N 
ATOM     16  C   UNL     1     -14.667  57.993  50.658  0.00  0.00    +0.000 A 
ATOM     17  C   UNL     1     -13.035  55.599  50.610  0.00  0.00    +0.000 C 
ATOM     18  C   UNL     1     -13.384  57.973  50.138  0.00  0.00    +0.000 A 
ATOM     19  C   UNL     1     -15.476  59.130  50.593  0.00  0.00    +0.000 A 
ATOM     20  N   UNL     1     -12.582  56.840  50.224  0.00  0.00    +0.000 N 
ATOM     21  C   UNL     1     -12.873  59.155  49.592  0.00  0.00    +0.000 A 
ATOM     22  C   UNL     1     -14.965  60.291  50.015  0.00  0.00    +0.000 A 
ATOM     23  C   UNL     1     -13.662  60.305  49.521  0.00  0.00    +0.000 A 
ATOM     24  H   UNL     1     -14.400  54.422  51.430  0.00  0.00    +0.000 HD
ATOM     25  H   UNL     1     -11.630  56.932  49.992  0.00  0.00    +0.000 HD
ENDBRANCH   1  17
BRANCH   3  26
ATOM     26  O   UNL     1     -11.532  54.263  52.712  0.00  0.00    +0.000 OA
ATOM     27  H   UNL     1     -11.245  53.693  53.398  0.00  0.00    +0.000 HD
ENDBRANCH   3  26
BRANCH  10  28
ATOM     28  N   UNL     1      -7.956  50.844  53.018  0.00  0.00    +0.000 N 
ATOM     29  H   UNL     1      -7.408  50.029  52.950  0.00  0.00    +0.000 HD
BRANCH  28  30
ATOM     30  C   UNL     1      -7.937  51.657  54.238  0.00  0.00    +0.000 C 
BRANCH  30  31
ATOM     31  C   UNL     1      -6.533  52.204  54.453  0.00  0.00    +0.000 C 
ATOM     32  O   UNL     1      -5.507  51.538  54.370  0.00  0.00    +0.000 OA
BRANCH  31  33
ATOM     33  O   UNL     1      -6.600  53.515  54.815  0.00  0.00    +0.000 OA
BRANCH  33  34
ATOM     34  C   UNL     1      -6.755  54.421  53.717  0.00  0.00    +0.000 C 
ATOM     35  C   UNL     1      -7.865  55.389  54.084  0.00  0.00    +0.000 C 
ENDBRANCH  33  34
ENDBRANCH  31  33
ENDBRANCH  30  31
ENDBRANCH  28  30
ENDBRANCH  10  28
BRANCH   5  36
ATOM     36  C   UNL     1     -10.951  52.329  47.391  0.00  0.00    +0.000 C 
BRANCH  36  37
ATOM     37  C   UNL     1      -9.776  52.922  46.594  0.00  0.00    +0.000 C 
BRANCH  37  38
ATOM     38  C   UNL     1     -10.117  53.575  45.245  0.00  0.00    +0.000 C 
ATOM     39  C   UNL     1      -9.174  53.134  44.129  0.00  0.00    +0.000 C 
ATOM     40  C   UNL     1     -11.562  53.211  44.879  0.00  0.00    +0.000 C 
ENDBRANCH  37  38
ENDBRANCH  36  37
ENDBRANCH   5  36
TORSDOF 10
ENDMDL
MODEL 3
REMARK VINA RESULT:      -7.8      3.099      7.696
REMARK  Name = 338396
REMARK  13 active torsions:
REMARK  status: ('A' for Active; 'I' for Inactive)
REMARK    1  A    between atoms: C_6  and  C_10
REMARK    2  A    between atoms: C_14  and  O_18
REMARK    3  A    between atoms: N_17  and  C_21
REMARK    4  A    between atoms: C_21  and  C_24
REMARK    5  A    between atoms: C_24  and  C_27
REMARK    6  A    between atoms: C_25  and  N_28
REMARK    7  A    between atoms: C_27  and  C_29
REMARK    8  A    between atoms: C_27  and  C_30
REMARK    9  A    between atoms: N_28  and  C_31
REMARK   10  A    between atoms: C_31  and  C_32
REMARK   11  A    between atoms: C_32  and  O_34
REMARK   12  A    between atoms: O_34  and  C_35
REMARK   13  A    between atoms: C_35  and  C_36
REMARK                            x       y       z     vdW  Elec       q    Type
REMARK                         _______ _______ _______ _____ _____    ______ ____
ROOT
ATOM      1  C   UNL     1     -11.106  55.952  49.085  0.00  0.00    +0.000 A 
ATOM      2  C   UNL     1     -10.172  55.333  50.077  0.00  0.00    +0.000 A 
ATOM      3  C   UNL     1     -11.027  55.620  47.786  0.00  0.00    +0.000 A 
ATOM      4  O   UNL     1     -10.356  55.561  51.275  0.00  0.00    +0.000 OA
ATOM      5  N   UNL     1      -9.151  54.511  49.612  0.00  0.00    +0.000 N 
ATOM      6  C   UNL     1     -10.031  54.639  47.335  0.00  0.00    +0.000 A 
ATOM      7  C   UNL     1      -9.120  54.091  48.251  0.00  0.00    +0.000 A 
ATOM      8  C   UNL     1     -10.011  54.216  45.999  0.00  0.00    +0.000 A 
ATOM      9  C   UNL     1      -8.231  53.106  47.795  0.00  0.00    +0.000 A 
ATOM     10  C   UNL     1      -9.094  53.266  45.537  0.00  0.00    +0.000 A 
ATOM     11  C   UNL     1      -8.218  52.705  46.457  0.00  0.00    +0.000 A 
ENDROOT
BRANCH   1  17
ATOM     12  S   UNL     1     -13.431  59.100  49.411  0.00  0.00    +0.000 S 
ATOM     13  O   UNL     1     -14.524  59.091  48.456  0.00  0.00    +0.000 OA
ATOM     14  O   UNL     1     -12.720  60.329  49.695  0.00  0.00    +0.000 OA
ATOM     15  N   UNL     1     -12.346  57.997  48.930  0.00  0.00    +0.000 N 
ATOM     16  C   UNL     1     -14.116  58.572  50.939  0.00  0.00    +0.000 A 
ATOM     17  C   UNL     1     -12.191  56.883  49.583  0.00  0.00    +0.000 C 
ATOM     18  C   UNL     1     -13.761  57.319  51.408  0.00  0.00    +0.000 A 
ATOM     19  C   UNL     1     -14.977  59.412  51.650  0.00  0.00    +0.000 A 
ATOM     20  N   UNL     1     -12.916  56.484  50.683  0.00  0.00    +0.000 N 
ATOM     21  C   UNL     1     -14.339  56.869  52.599  0.00  0.00    +0.000 A 
ATOM     22  C   UNL     1     -15.519  58.964  52.852  0.00  0.00    +0.000 A 
ATOM     23  C   UNL     1     -15.205  57.690  53.323  0.00  0.00    +0.000 A 
ATOM     24  H   UNL     1     -11.798  58.171  48.132  0.00  0.00    +0.000 HD
ATOM     25  H   UNL     1     -12.831  55.549  50.976  0.00  0.00    +0.000 HD
ENDBRANCH   1  17
BRANCH   3  26
ATOM     26  O   UNL     1     -11.872  56.102  46.799  0.00  0.00    +0.000 OA
ATOM     27  H   UNL     1     -11.516  56.532  46.046  0.00  0.00    +0.000 HD
ENDBRANCH   3  26
BRANCH  10  28
ATOM     28  N   UNL     1      -9.190  52.822  44.225  0.00  0.00    +0.000 N 
ATOM     29  H   UNL     1      -8.420  52.887  43.615  0.00  0.00    +0.000 HD
BRANCH  28  30
ATOM     30  C   UNL     1     -10.462  52.255  43.763  0.00  0.00    +0.000 C 
BRANCH  30  31
ATOM     31  C   UNL     1     -10.570  50.815  44.241  0.00  0.00    +0.000 C 
ATOM     32  O   UNL     1      -9.665  49.990  44.175  0.00  0.00    +0.000 OA
BRANCH  31  33
ATOM     33  O   UNL     1     -11.834  50.570  44.685  0.00  0.00    +0.000 OA
BRANCH  33  34
ATOM     34  C   UNL     1     -12.264  51.437  45.742  0.00  0.00    +0.000 C 
ATOM     35  C   UNL     1     -11.665  50.906  47.031  0.00  0.00    +0.000 C 
ENDBRANCH  33  34
ENDBRANCH  31  33
ENDBRANCH  30  31
ENDBRANCH  28  30
ENDBRANCH  10  28
BRANCH   5  36
ATOM     36  C   UNL     1      -8.216  53.956  50.597  0.00  0.00    +0.000 C 
BRANCH  36  37
ATOM     37  C   UNL     1      -6.945  54.784  50.855  0.00  0.00    +0.000 C 
BRANCH  37  38
ATOM     38  C   UNL     1      -5.617  54.175  50.378  0.00  0.00    +0.000 C 
ATOM     39  C   UNL     1      -5.045  54.904  49.165  0.00  0.00    +0.000 C 
ATOM     40  C   UNL     1      -4.614  54.226  51.537  0.00  0.00    +0.000 C 
ENDBRANCH  37  38
ENDBRANCH  36  37
ENDBRANCH   5  36
TORSDOF 10
ENDMDL
MODEL 4
REMARK VINA RESULT:      -7.8      3.055      6.559
REMARK  Name = 338396
REMARK  13 active torsions:
REMARK  status: ('A' for Active; 'I' for Inactive)
REMARK    1  A    between atoms: C_6  and  C_10
REMARK    2  A    between atoms: C_14  and  O_18
REMARK    3  A    between atoms: N_17  and  C_21
REMARK    4  A    between atoms: C_21  and  C_24
REMARK    5  A    between atoms: C_24  and  C_27
REMARK    6  A    between atoms: C_25  and  N_28
REMARK    7  A    between atoms: C_27  and  C_29
REMARK    8  A    between atoms: C_27  and  C_30
REMARK    9  A    between atoms: N_28  and  C_31
REMARK   10  A    between atoms: C_31  and  C_32
REMARK   11  A    between atoms: C_32  and  O_34
REMARK   12  A    between atoms: O_34  and  C_35
REMARK   13  A    between atoms: C_35  and  C_36
REMARK                            x       y       z     vdW  Elec       q    Type
REMARK                         _______ _______ _______ _____ _____    ______ ____
ROOT
ATOM      1  C   UNL     1      -9.487  53.649  48.070  0.00  0.00    +0.000 A 
ATOM      2  C   UNL     1      -8.455  54.158  49.027  0.00  0.00    +0.000 A 
ATOM      3  C   UNL     1     -10.793  53.747  48.371  0.00  0.00    +0.000 A 
ATOM      4  O   UNL     1      -7.277  54.171  48.664  0.00  0.00    +0.000 OA
ATOM      5  N   UNL     1      -8.866  54.614  50.274  0.00  0.00    +0.000 N 
ATOM      6  C   UNL     1     -11.213  54.363  49.637  0.00  0.00    +0.000 A 
ATOM      7  C   UNL     1     -10.250  54.798  50.560  0.00  0.00    +0.000 A 
ATOM      8  C   UNL     1     -12.574  54.556  49.911  0.00  0.00    +0.000 A 
ATOM      9  C   UNL     1     -10.691  55.445  51.725  0.00  0.00    +0.000 A 
ATOM     10  C   UNL     1     -13.013  55.162  51.093  0.00  0.00    +0.000 A 
ATOM     11  C   UNL     1     -12.052  55.619  51.986  0.00  0.00    +0.000 A 
ENDROOT
BRANCH   1  17
ATOM     12  S   UNL     1      -9.147  53.184  44.185  0.00  0.00    +0.000 S 
ATOM     13  O   UNL     1      -8.229  54.135  43.585  0.00  0.00    +0.000 OA
ATOM     14  O   UNL     1     -10.390  52.850  43.523  0.00  0.00    +0.000 OA
ATOM     15  N   UNL     1      -9.503  53.714  45.674  0.00  0.00    +0.000 N 
ATOM     16  C   UNL     1      -8.256  51.677  44.334  0.00  0.00    +0.000 A 
ATOM     17  C   UNL     1      -9.040  53.110  46.728  0.00  0.00    +0.000 C 
ATOM     18  C   UNL     1      -7.895  51.263  45.604  0.00  0.00    +0.000 A 
ATOM     19  C   UNL     1      -7.949  50.929  43.195  0.00  0.00    +0.000 A 
ATOM     20  N   UNL     1      -8.192  52.025  46.729  0.00  0.00    +0.000 N 
ATOM     21  C   UNL     1      -7.143  50.090  45.730  0.00  0.00    +0.000 A 
ATOM     22  C   UNL     1      -7.229  49.744  43.338  0.00  0.00    +0.000 A 
ATOM     23  C   UNL     1      -6.821  49.329  44.604  0.00  0.00    +0.000 A 
ATOM     24  H   UNL     1     -10.077  54.506  45.783  0.00  0.00    +0.000 HD
ATOM     25  H   UNL     1      -7.769  51.771  47.582  0.00  0.00    +0.000 HD
ENDBRANCH   1  17
BRANCH   3  26
ATOM     26  O   UNL     1     -11.824  53.347  47.536  0.00  0.00    +0.000 OA
ATOM     27  H   UNL     1     -12.438  52.702  47.826  0.00  0.00    +0.000 HD
ENDBRANCH   3  26
BRANCH  10  28
ATOM     28  N   UNL     1     -14.369  55.408  51.258  0.00  0.00    +0.000 N 
ATOM     29  H   UNL     1     -14.836  55.117  52.074  0.00  0.00    +0.000 HD
BRANCH  28  30
ATOM     30  C   UNL     1     -15.094  56.110  50.193  0.00  0.00    +0.000 C 
BRANCH  30  31
ATOM     31  C   UNL     1     -14.641  57.562  50.152  0.00  0.00    +0.000 C 
ATOM     32  O   UNL     1     -13.715  57.983  49.468  0.00  0.00    +0.000 OA
BRANCH  31  33
ATOM     33  O   UNL     1     -15.373  58.297  51.034  0.00  0.00    +0.000 OA
BRANCH  33  34
ATOM     34  C   UNL     1     -14.613  58.836  52.123  0.00  0.00    +0.000 C 
ATOM     35  C   UNL     1     -15.089  58.147  53.389  0.00  0.00    +0.000 C 
ENDBRANCH  33  34
ENDBRANCH  31  33
ENDBRANCH  30  31
ENDBRANCH  28  30
ENDBRANCH  10  28
BRANCH   5  36
ATOM     36  C   UNL     1      -7.833  55.060  51.216  0.00  0.00    +0.000 C 
BRANCH  36  37
ATOM     37  C   UNL     1      -7.341  54.003  52.220  0.00  0.00    +0.000 C 
BRANCH  37  38
ATOM     38  C   UNL     1      -6.830  54.524  53.572  0.00  0.00    +0.000 C 
ATOM     39  C   UNL     1      -7.811  55.491  54.232  0.00  0.00    +0.000 C 
ATOM     40  C   UNL     1      -6.584  53.324  54.495  0.00  0.00    +0.000 C 
ENDBRANCH  37  38
ENDBRANCH  36  37
ENDBRANCH   5  36
TORSDOF 10
ENDMDL
MODEL 5
REMARK VINA RESULT:      -7.6      2.509      7.346
REMARK  Name = 338396
REMARK  13 active torsions:
REMARK  status: ('A' for Active; 'I' for Inactive)
REMARK    1  A    between atoms: C_6  and  C_10
REMARK    2  A    between atoms: C_14  and  O_18
REMARK    3  A    between atoms: N_17  and  C_21
REMARK    4  A    between atoms: C_21  and  C_24
REMARK    5  A    between atoms: C_24  and  C_27
REMARK    6  A    between atoms: C_25  and  N_28
REMARK    7  A    between atoms: C_27  and  C_29
REMARK    8  A    between atoms: C_27  and  C_30
REMARK    9  A    between atoms: N_28  and  C_31
REMARK   10  A    between atoms: C_31  and  C_32
REMARK   11  A    between atoms: C_32  and  O_34
REMARK   12  A    between atoms: O_34  and  C_35
REMARK   13  A    between atoms: C_35  and  C_36
REMARK                            x       y       z     vdW  Elec       q    Type
REMARK                         _______ _______ _______ _____ _____    ______ ____
ROOT
ATOM      1  C   UNL     1     -11.434  55.911  48.863  0.00  0.00    +0.000 A 
ATOM      2  C   UNL     1     -11.580  55.510  47.429  0.00  0.00    +0.000 A 
ATOM      3  C   UNL     1     -10.390  55.468  49.584  0.00  0.00    +0.000 A 
ATOM      4  O   UNL     1     -12.474  56.036  46.763  0.00  0.00    +0.000 OA
ATOM      5  N   UNL     1     -10.692  54.581  46.900  0.00  0.00    +0.000 N 
ATOM      6  C   UNL     1      -9.382  54.598  48.964  0.00  0.00    +0.000 A 
ATOM      7  C   UNL     1      -9.539  54.179  47.634  0.00  0.00    +0.000 A 
ATOM      8  C   UNL     1      -8.241  54.215  49.683  0.00  0.00    +0.000 A 
ATOM      9  C   UNL     1      -8.519  53.406  47.057  0.00  0.00    +0.000 A 
ATOM     10  C   UNL     1      -7.248  53.408  49.119  0.00  0.00    +0.000 A 
ATOM     11  C   UNL     1      -7.395  53.025  47.792  0.00  0.00    +0.000 A 
ENDROOT
BRANCH   1  17
ATOM     12  S   UNL     1     -13.522  59.186  49.440  0.00  0.00    +0.000 S 
ATOM     13  O   UNL     1     -14.663  59.288  48.548  0.00  0.00    +0.000 OA
ATOM     14  O   UNL     1     -12.717  60.353  49.730  0.00  0.00    +0.000 OA
ATOM     15  N   UNL     1     -12.542  58.036  48.857  0.00  0.00    +0.000 N 
ATOM     16  C   UNL     1     -14.159  58.640  50.983  0.00  0.00    +0.000 A 
ATOM     17  C   UNL     1     -12.426  56.888  49.456  0.00  0.00    +0.000 C 
ATOM     18  C   UNL     1     -13.863  57.347  51.382  0.00  0.00    +0.000 A 
ATOM     19  C   UNL     1     -14.922  59.503  51.773  0.00  0.00    +0.000 A 
ATOM     20  N   UNL     1     -13.116  56.491  50.579  0.00  0.00    +0.000 N 
ATOM     21  C   UNL     1     -14.405  56.886  52.586  0.00  0.00    +0.000 A 
ATOM     22  C   UNL     1     -15.427  59.040  52.986  0.00  0.00    +0.000 A 
ATOM     23  C   UNL     1     -15.174  57.731  53.389  0.00  0.00    +0.000 A 
ATOM     24  H   UNL     1     -12.027  58.208  48.036  0.00  0.00    +0.000 HD
ATOM     25  H   UNL     1     -13.078  55.541  50.832  0.00  0.00    +0.000 HD
ENDBRANCH   1  17
BRANCH   3  26
ATOM     26  O   UNL     1     -10.142  55.816  50.902  0.00  0.00    +0.000 OA
ATOM     27  H   UNL     1     -10.378  55.230  51.594  0.00  0.00    +0.000 HD
ENDBRANCH   3  26
BRANCH  10  28
ATOM     28  N   UNL     1      -6.099  53.145  49.854  0.00  0.00    +0.000 N 
ATOM     29  H   UNL     1      -5.839  52.219  50.063  0.00  0.00    +0.000 HD
BRANCH  28  30
ATOM     30  C   UNL     1      -5.281  54.272  50.313  0.00  0.00    +0.000 C 
BRANCH  30  31
ATOM     31  C   UNL     1      -5.068  54.157  51.815  0.00  0.00    +0.000 C 
ATOM     32  O   UNL     1      -4.107  53.607  52.341  0.00  0.00    +0.000 OA
BRANCH  31  33
ATOM     33  O   UNL     1      -6.132  54.694  52.473  0.00  0.00    +0.000 OA
BRANCH  33  34
ATOM     34  C   UNL     1      -6.620  53.892  53.555  0.00  0.00    +0.000 C 
ATOM     35  C   UNL     1      -8.119  53.746  53.367  0.00  0.00    +0.000 C 
ENDBRANCH  33  34
ENDBRANCH  31  33
ENDBRANCH  30  31
ENDBRANCH  28  30
ENDBRANCH  10  28
BRANCH   5  36
ATOM     36  C   UNL     1     -10.885  54.164  45.507  0.00  0.00    +0.000 C 
BRANCH  36  37
ATOM     37  C   UNL     1     -11.811  52.954  45.292  0.00  0.00    +0.000 C 
BRANCH  37  38
ATOM     38  C   UNL     1     -11.193  51.728  44.601  0.00  0.00    +0.000 C 
ATOM     39  C   UNL     1     -10.038  52.102  43.675  0.00  0.00    +0.000 C 
ATOM     40  C   UNL     1     -10.701  50.756  45.680  0.00  0.00    +0.000 C 
ENDBRANCH  37  38
ENDBRANCH  36  37
ENDBRANCH   5  36
TORSDOF 10
ENDMDL
MODEL 6
REMARK VINA RESULT:      -7.6      2.244      5.789
REMARK  Name = 338396
REMARK  13 active torsions:
REMARK  status: ('A' for Active; 'I' for Inactive)
REMARK    1  A    between atoms: C_6  and  C_10
REMARK    2  A    between atoms: C_14  and  O_18
REMARK    3  A    between atoms: N_17  and  C_21
REMARK    4  A    between atoms: C_21  and  C_24
REMARK    5  A    between atoms: C_24  and  C_27
REMARK    6  A    between atoms: C_25  and  N_28
REMARK    7  A    between atoms: C_27  and  C_29
REMARK    8  A    between atoms: C_27  and  C_30
REMARK    9  A    between atoms: N_28  and  C_31
REMARK   10  A    between atoms: C_31  and  C_32
REMARK   11  A    between atoms: C_32  and  O_34
REMARK   12  A    between atoms: O_34  and  C_35
REMARK   13  A    between atoms: C_35  and  C_36
REMARK                            x       y       z     vdW  Elec       q    Type
REMARK                         _______ _______ _______ _____ _____    ______ ____
ROOT
ATOM      1  C   UNL     1      -9.829  53.964  50.947  0.00  0.00    +0.000 A 
ATOM      2  C   UNL     1     -10.866  55.013  51.198  0.00  0.00    +0.000 A 
ATOM      3  C   UNL     1      -9.624  53.504  49.701  0.00  0.00    +0.000 A 
ATOM      4  O   UNL     1     -10.938  55.505  52.327  0.00  0.00    +0.000 OA
ATOM      5  N   UNL     1     -11.690  55.405  50.150  0.00  0.00    +0.000 N 
ATOM      6  C   UNL     1     -10.411  54.036  48.580  0.00  0.00    +0.000 A 
ATOM      7  C   UNL     1     -11.419  54.983  48.816  0.00  0.00    +0.000 A 
ATOM      8  C   UNL     1     -10.133  53.631  47.267  0.00  0.00    +0.000 A 
ATOM      9  C   UNL     1     -12.099  55.519  47.712  0.00  0.00    +0.000 A 
ATOM     10  C   UNL     1     -10.843  54.133  46.172  0.00  0.00    +0.000 A 
ATOM     11  C   UNL     1     -11.816  55.095  46.412  0.00  0.00    +0.000 A 
ENDROOT
BRANCH   1  17
ATOM     12  S   UNL     1      -6.676  53.390  53.216  0.00  0.00    +0.000 S 
ATOM     13  O   UNL     1      -6.379  54.532  54.062  0.00  0.00    +0.000 OA
ATOM     14  O   UNL     1      -5.605  52.668  52.562  0.00  0.00    +0.000 OA
ATOM     15  N   UNL     1      -7.716  53.880  52.075  0.00  0.00    +0.000 N 
ATOM     16  C   UNL     1      -7.492  52.223  54.243  0.00  0.00    +0.000 A 
ATOM     17  C   UNL     1      -8.960  53.501  52.096  0.00  0.00    +0.000 C 
ATOM     18  C   UNL     1      -8.843  52.009  54.031  0.00  0.00    +0.000 A 
ATOM     19  C   UNL     1      -6.778  51.532  55.225  0.00  0.00    +0.000 A 
ATOM     20  N   UNL     1      -9.548  52.716  53.062  0.00  0.00    +0.000 N 
ATOM     21  C   UNL     1      -9.513  51.118  54.875  0.00  0.00    +0.000 A 
ATOM     22  C   UNL     1      -7.451  50.622  56.037  0.00  0.00    +0.000 A 
ATOM     23  C   UNL     1      -8.820  50.420  55.866  0.00  0.00    +0.000 A 
ATOM     24  H   UNL     1      -7.403  54.473  51.355  0.00  0.00    +0.000 HD
ATOM     25  H   UNL     1     -10.530  52.648  53.066  0.00  0.00    +0.000 HD
ENDBRANCH   1  17
BRANCH   3  26
ATOM     26  O   UNL     1      -8.661  52.569  49.357  0.00  0.00    +0.000 OA
ATOM     27  H   UNL     1      -8.557  52.311  48.462  0.00  0.00    +0.000 HD
ENDBRANCH   3  26
BRANCH  10  28
ATOM     28  N   UNL     1     -10.453  53.762  44.891  0.00  0.00    +0.000 N 
ATOM     29  H   UNL     1     -10.648  54.342  44.120  0.00  0.00    +0.000 HD
BRANCH  28  30
ATOM     30  C   UNL     1      -9.748  52.489  44.710  0.00  0.00    +0.000 C 
BRANCH  30  31
ATOM     31  C   UNL     1     -10.572  51.585  43.805  0.00  0.00    +0.000 C 
ATOM     32  O   UNL     1     -10.217  51.200  42.696  0.00  0.00    +0.000 OA
BRANCH  31  33
ATOM     33  O   UNL     1     -11.778  51.330  44.384  0.00  0.00    +0.000 OA
BRANCH  33  34
ATOM     34  C   UNL     1     -11.725  50.384  45.459  0.00  0.00    +0.000 C 
ATOM     35  C   UNL     1     -12.577  50.936  46.587  0.00  0.00    +0.000 C 
ENDBRANCH  33  34
ENDBRANCH  31  33
ENDBRANCH  30  31
ENDBRANCH  28  30
ENDBRANCH  10  28
BRANCH   5  36
ATOM     36  C   UNL     1     -12.734  56.397  50.432  0.00  0.00    +0.000 C 
BRANCH  36  37
ATOM     37  C   UNL     1     -14.099  55.829  50.859  0.00  0.00    +0.000 C 
BRANCH  37  38
ATOM     38  C   UNL     1     -15.219  56.850  51.117  0.00  0.00    +0.000 C 
ATOM     39  C   UNL     1     -15.499  57.041  52.606  0.00  0.00    +0.000 C 
ATOM     40  C   UNL     1     -14.813  58.189  50.489  0.00  0.00    +0.000 C 
ENDBRANCH  37  38
ENDBRANCH  36  37
ENDBRANCH   5  36
TORSDOF 10
ENDMDL
MODEL 7
REMARK VINA RESULT:      -7.6      2.539      7.542
REMARK  Name = 338396
REMARK  13 active torsions:
REMARK  status: ('A' for Active; 'I' for Inactive)
REMARK    1  A    between atoms: C_6  and  C_10
REMARK    2  A    between atoms: C_14  and  O_18
REMARK    3  A    between atoms: N_17  and  C_21
REMARK    4  A    between atoms: C_21  and  C_24
REMARK    5  A    between atoms: C_24  and  C_27
REMARK    6  A    between atoms: C_25  and  N_28
REMARK    7  A    between atoms: C_27  and  C_29
REMARK    8  A    between atoms: C_27  and  C_30
REMARK    9  A    between atoms: N_28  and  C_31
REMARK   10  A    between atoms: C_31  and  C_32
REMARK   11  A    between atoms: C_32  and  O_34
REMARK   12  A    between atoms: O_34  and  C_35
REMARK   13  A    between atoms: C_35  and  C_36
REMARK                            x       y       z     vdW  Elec       q    Type
REMARK                         _______ _______ _______ _____ _____    ______ ____
ROOT
ATOM      1  C   UNL     1     -11.438  55.210  49.583  0.00  0.00    +0.000 A 
ATOM      2  C   UNL     1     -11.483  54.590  48.222  0.00  0.00    +0.000 A 
ATOM      3  C   UNL     1     -10.504  54.827  50.469  0.00  0.00    +0.000 A 
ATOM      4  O   UNL     1     -12.267  55.056  47.392  0.00  0.00    +0.000 OA
ATOM      5  N   UNL     1     -10.626  53.532  47.941  0.00  0.00    +0.000 N 
ATOM      6  C   UNL     1      -9.516  53.804  50.101  0.00  0.00    +0.000 A 
ATOM      7  C   UNL     1      -9.582  53.183  48.845  0.00  0.00    +0.000 A 
ATOM      8  C   UNL     1      -8.480  53.472  50.986  0.00  0.00    +0.000 A 
ATOM      9  C   UNL     1      -8.578  52.263  48.505  0.00  0.00    +0.000 A 
ATOM     10  C   UNL     1      -7.507  52.521  50.662  0.00  0.00    +0.000 A 
ATOM     11  C   UNL     1      -7.560  51.936  49.404  0.00  0.00    +0.000 A 
ENDROOT
BRANCH   1  17
ATOM     12  S   UNL     1     -13.328  58.648  49.395  0.00  0.00    +0.000 S 
ATOM     13  O   UNL     1     -14.392  58.649  48.407  0.00  0.00    +0.000 OA
ATOM     14  O   UNL     1     -12.466  59.801  49.542  0.00  0.00    +0.000 OA
ATOM     15  N   UNL     1     -12.391  57.358  49.109  0.00  0.00    +0.000 N 
ATOM     16  C   UNL     1     -14.112  58.426  50.951  0.00  0.00    +0.000 A 
ATOM     17  C   UNL     1     -12.400  56.333  49.909  0.00  0.00    +0.000 C 
ATOM     18  C   UNL     1     -13.937  57.214  51.596  0.00  0.00    +0.000 A 
ATOM     19  C   UNL     1     -14.868  59.460  51.510  0.00  0.00    +0.000 A 
ATOM     20  N   UNL     1     -13.196  56.186  51.022  0.00  0.00    +0.000 N 
ATOM     21  C   UNL     1     -14.596  57.009  52.813  0.00  0.00    +0.000 A 
ATOM     22  C   UNL     1     -15.491  59.254  52.739  0.00  0.00    +0.000 A 
ATOM     23  C   UNL     1     -15.361  58.027  53.386  0.00  0.00    +0.000 A 
ATOM     24  H   UNL     1     -11.807  57.349  48.317  0.00  0.00    +0.000 HD
ATOM     25  H   UNL     1     -13.243  55.296  51.441  0.00  0.00    +0.000 HD
ENDBRANCH   1  17
BRANCH   3  26
ATOM     26  O   UNL     1     -10.352  55.369  51.735  0.00  0.00    +0.000 OA
ATOM     27  H   UNL     1     -10.275  54.806  52.480  0.00  0.00    +0.000 HD
ENDBRANCH   3  26
BRANCH  10  28
ATOM     28  N   UNL     1      -6.455  52.310  51.545  0.00  0.00    +0.000 N 
ATOM     29  H   UNL     1      -5.574  52.717  51.382  0.00  0.00    +0.000 HD
BRANCH  28  30
ATOM     30  C   UNL     1      -6.682  51.466  52.723  0.00  0.00    +0.000 C 
BRANCH  30  31
ATOM     31  C   UNL     1      -6.299  52.241  53.975  0.00  0.00    +0.000 C 
ATOM     32  O   UNL     1      -5.387  53.058  54.035  0.00  0.00    +0.000 OA
BRANCH  31  33
ATOM     33  O   UNL     1      -7.075  51.840  55.020  0.00  0.00    +0.000 OA
BRANCH  33  34
ATOM     34  C   UNL     1      -8.314  51.234  54.634  0.00  0.00    +0.000 C 
ATOM     35  C   UNL     1      -8.822  50.448  55.829  0.00  0.00    +0.000 C 
ENDBRANCH  33  34
ENDBRANCH  31  33
ENDBRANCH  30  31
ENDBRANCH  28  30
ENDBRANCH  10  28
BRANCH   5  36
ATOM     36  C   UNL     1     -10.723  52.905  46.617  0.00  0.00    +0.000 C 
BRANCH  36  37
ATOM     37  C   UNL     1     -10.173  53.732  45.443  0.00  0.00    +0.000 C 
BRANCH  37  38
ATOM     38  C   UNL     1      -8.712  53.476  45.043  0.00  0.00    +0.000 C 
ATOM     39  C   UNL     1      -8.560  53.170  43.555  0.00  0.00    +0.000 C 
ATOM     40  C   UNL     1      -7.883  54.714  45.406  0.00  0.00    +0.000 C 
ENDBRANCH  37  38
ENDBRANCH  36  37
ENDBRANCH   5  36
TORSDOF 10
ENDMDL
MODEL 8
REMARK VINA RESULT:      -7.5      3.032      8.417
REMARK  Name = 338396
REMARK  13 active torsions:
REMARK  status: ('A' for Active; 'I' for Inactive)
REMARK    1  A    between atoms: C_6  and  C_10
REMARK    2  A    between atoms: C_14  and  O_18
REMARK    3  A    between atoms: N_17  and  C_21
REMARK    4  A    between atoms: C_21  and  C_24
REMARK    5  A    between atoms: C_24  and  C_27
REMARK    6  A    between atoms: C_25  and  N_28
REMARK    7  A    between atoms: C_27  and  C_29
REMARK    8  A    between atoms: C_27  and  C_30
REMARK    9  A    between atoms: N_28  and  C_31
REMARK   10  A    between atoms: C_31  and  C_32
REMARK   11  A    between atoms: C_32  and  O_34
REMARK   12  A    between atoms: O_34  and  C_35
REMARK   13  A    between atoms: C_35  and  C_36
REMARK                            x       y       z     vdW  Elec       q    Type
REMARK                         _______ _______ _______ _____ _____    ______ ____
ROOT
ATOM      1  C   UNL     1     -10.142  53.477  48.916  0.00  0.00    +0.000 A 
ATOM      2  C   UNL     1     -11.408  53.791  49.649  0.00  0.00    +0.000 A 
ATOM      3  C   UNL     1      -8.952  53.686  49.505  0.00  0.00    +0.000 A 
ATOM      4  O   UNL     1     -12.479  53.467  49.132  0.00  0.00    +0.000 OA
ATOM      5  N   UNL     1     -11.326  54.413  50.890  0.00  0.00    +0.000 N 
ATOM      6  C   UNL     1      -8.890  54.213  50.874  0.00  0.00    +0.000 A 
ATOM      7  C   UNL     1     -10.071  54.555  51.550  0.00  0.00    +0.000 A 
ATOM      8  C   UNL     1      -7.656  54.339  51.527  0.00  0.00    +0.000 A 
ATOM      9  C   UNL     1      -9.973  54.989  52.881  0.00  0.00    +0.000 A 
ATOM     10  C   UNL     1      -7.558  54.814  52.839  0.00  0.00    +0.000 A 
ATOM     11  C   UNL     1      -8.734  55.119  53.511  0.00  0.00    +0.000 A 
ENDROOT
BRANCH   1  17
ATOM     12  S   UNL     1     -10.955  50.900  46.067  0.00  0.00    +0.000 S 
ATOM     13  O   UNL     1     -12.323  51.004  45.591  0.00  0.00    +0.000 OA
ATOM     14  O   UNL     1     -10.345  49.602  46.257  0.00  0.00    +0.000 OA
ATOM     15  N   UNL     1     -10.858  51.707  47.468  0.00  0.00    +0.000 N 
ATOM     16  C   UNL     1      -9.964  51.733  44.880  0.00  0.00    +0.000 A 
ATOM     17  C   UNL     1     -10.227  52.840  47.545  0.00  0.00    +0.000 C 
ATOM     18  C   UNL     1      -9.396  52.942  45.247  0.00  0.00    +0.000 A 
ATOM     19  C   UNL     1      -9.754  51.168  43.620  0.00  0.00    +0.000 A 
ATOM     20  N   UNL     1      -9.626  53.503  46.498  0.00  0.00    +0.000 N 
ATOM     21  C   UNL     1      -8.645  53.637  44.293  0.00  0.00    +0.000 A 
ATOM     22  C   UNL     1      -8.975  51.855  42.692  0.00  0.00    +0.000 A 
ATOM     23  C   UNL     1      -8.426  53.092  43.026  0.00  0.00    +0.000 A 
ATOM     24  H   UNL     1     -11.285  51.334  48.273  0.00  0.00    +0.000 HD
ATOM     25  H   UNL     1      -9.340  54.433  46.645  0.00  0.00    +0.000 HD
ENDBRANCH   1  17
BRANCH   3  26
ATOM     26  O   UNL     1      -7.728  53.387  48.929  0.00  0.00    +0.000 OA
ATOM     27  H   UNL     1      -7.189  52.714  49.296  0.00  0.00    +0.000 HD
ENDBRANCH   3  26
BRANCH  10  28
ATOM     28  N   UNL     1      -6.315  54.824  53.459  0.00  0.00    +0.000 N 
ATOM     29  H   UNL     1      -5.552  55.288  53.044  0.00  0.00    +0.000 HD
BRANCH  28  30
ATOM     30  C   UNL     1      -6.160  54.129  54.742  0.00  0.00    +0.000 C 
BRANCH  30  31
ATOM     31  C   UNL     1      -6.078  52.631  54.492  0.00  0.00    +0.000 C 
ATOM     32  O   UNL     1      -5.160  52.073  53.902  0.00  0.00    +0.000 OA
BRANCH  31  33
ATOM     33  O   UNL     1      -7.203  52.024  54.963  0.00  0.00    +0.000 OA
BRANCH  33  34
ATOM     34  C   UNL     1      -7.932  51.288  53.973  0.00  0.00    +0.000 C 
ATOM     35  C   UNL     1      -9.408  51.537  54.222  0.00  0.00    +0.000 C 
ENDBRANCH  33  34
ENDBRANCH  31  33
ENDBRANCH  30  31
ENDBRANCH  28  30
ENDBRANCH  10  28
BRANCH   5  36
ATOM     36  C   UNL     1     -12.581  54.758  51.568  0.00  0.00    +0.000 C 
BRANCH  36  37
ATOM     37  C   UNL     1     -13.076  56.201  51.367  0.00  0.00    +0.000 C 
BRANCH  37  38
ATOM     38  C   UNL     1     -14.409  56.571  52.036  0.00  0.00    +0.000 C 
ATOM     39  C   UNL     1     -14.286  57.794  52.941  0.00  0.00    +0.000 C 
ATOM     40  C   UNL     1     -15.447  56.839  50.939  0.00  0.00    +0.000 C 
ENDBRANCH  37  38
ENDBRANCH  36  37
ENDBRANCH   5  36
TORSDOF 10
ENDMDL
MODEL 9
REMARK VINA RESULT:      -7.5      2.599      6.424
REMARK  Name = 338396
REMARK  13 active torsions:
REMARK  status: ('A' for Active; 'I' for Inactive)
REMARK    1  A    between atoms: C_6  and  C_10
REMARK    2  A    between atoms: C_14  and  O_18
REMARK    3  A    between atoms: N_17  and  C_21
REMARK    4  A    between atoms: C_21  and  C_24
REMARK    5  A    between atoms: C_24  and  C_27
REMARK    6  A    between atoms: C_25  and  N_28
REMARK    7  A    between atoms: C_27  and  C_29
REMARK    8  A    between atoms: C_27  and  C_30
REMARK    9  A    between atoms: N_28  and  C_31
REMARK   10  A    between atoms: C_31  and  C_32
REMARK   11  A    between atoms: C_32  and  O_34
REMARK   12  A    between atoms: O_34  and  C_35
REMARK   13  A    between atoms: C_35  and  C_36
REMARK                            x       y       z     vdW  Elec       q    Type
REMARK                         _______ _______ _______ _____ _____    ______ ____
ROOT
ATOM      1  C   UNL     1     -10.023  53.221  48.814  0.00  0.00    +0.000 A 
ATOM      2  C   UNL     1      -9.011  53.682  49.815  0.00  0.00    +0.000 A 
ATOM      3  C   UNL     1     -11.317  53.553  48.960  0.00  0.00    +0.000 A 
ATOM      4  O   UNL     1      -7.819  53.471  49.581  0.00  0.00    +0.000 OA
ATOM      5  N   UNL     1      -9.451  54.346  50.954  0.00  0.00    +0.000 N 
ATOM      6  C   UNL     1     -11.741  54.378  50.099  0.00  0.00    +0.000 A 
ATOM      7  C   UNL     1     -10.806  54.772  51.068  0.00  0.00    +0.000 A 
ATOM      8  C   UNL     1     -13.071  54.808  50.203  0.00  0.00    +0.000 A 
ATOM      9  C   UNL     1     -11.238  55.618  52.101  0.00  0.00    +0.000 A 
ATOM     10  C   UNL     1     -13.509  55.615  51.258  0.00  0.00    +0.000 A 
ATOM     11  C   UNL     1     -12.570  56.027  52.195  0.00  0.00    +0.000 A 
ENDROOT
BRANCH   1  17
ATOM     12  S   UNL     1      -8.073  50.659  46.565  0.00  0.00    +0.000 S 
ATOM     13  O   UNL     1      -8.655  49.330  46.596  0.00  0.00    +0.000 OA
ATOM     14  O   UNL     1      -6.636  50.828  46.592  0.00  0.00    +0.000 OA
ATOM     15  N   UNL     1      -8.698  51.500  47.800  0.00  0.00    +0.000 N 
ATOM     16  C   UNL     1      -8.620  51.393  45.065  0.00  0.00    +0.000 A 
ATOM     17  C   UNL     1      -9.552  52.458  47.594  0.00  0.00    +0.000 C 
ATOM     18  C   UNL     1      -9.544  52.420  45.148  0.00  0.00    +0.000 A 
ATOM     19  C   UNL     1      -8.111  50.950  43.842  0.00  0.00    +0.000 A 
ATOM     20  N   UNL     1     -10.056  52.840  46.371  0.00  0.00    +0.000 N 
ATOM     21  C   UNL     1     -10.022  52.978  43.958  0.00  0.00    +0.000 A 
ATOM     22  C   UNL     1      -8.572  51.539  42.666  0.00  0.00    +0.000 A 
ATOM     23  C   UNL     1      -9.531  52.547  42.724  0.00  0.00    +0.000 A 
ATOM     24  H   UNL     1      -8.428  51.282  48.721  0.00  0.00    +0.000 HD
ATOM     25  H   UNL     1     -10.827  53.452  46.361  0.00  0.00    +0.000 HD
ENDBRANCH   1  17
BRANCH   3  26
ATOM     26  O   UNL     1     -12.321  53.214  48.067  0.00  0.00    +0.000 OA
ATOM     27  H   UNL     1     -12.228  53.420  47.158  0.00  0.00    +0.000 HD
ENDBRANCH   3  26
BRANCH  10  28
ATOM     28  N   UNL     1     -14.816  56.083  51.249  0.00  0.00    +0.000 N 
ATOM     29  H   UNL     1     -15.418  55.873  50.499  0.00  0.00    +0.000 HD
BRANCH  28  30
ATOM     30  C   UNL     1     -15.282  56.897  52.376  0.00  0.00    +0.000 C 
BRANCH  30  31
ATOM     31  C   UNL     1     -15.128  58.370  52.027  0.00  0.00    +0.000 C 
ATOM     32  O   UNL     1     -14.952  59.265  52.846  0.00  0.00    +0.000 OA
BRANCH  31  33
ATOM     33  O   UNL     1     -15.281  58.543  50.685  0.00  0.00    +0.000 OA
BRANCH  33  34
ATOM     34  C   UNL     1     -14.452  59.570  50.126  0.00  0.00    +0.000 C 
ATOM     35  C   UNL     1     -13.287  58.882  49.438  0.00  0.00    +0.000 C 
ENDBRANCH  33  34
ENDBRANCH  31  33
ENDBRANCH  30  31
ENDBRANCH  28  30
ENDBRANCH  10  28
BRANCH   5  36
ATOM     36  C   UNL     1      -8.447  54.744  51.947  0.00  0.00    +0.000 C 
BRANCH  36  37
ATOM     37  C   UNL     1      -8.271  53.789  53.141  0.00  0.00    +0.000 C 
BRANCH  37  38
ATOM     38  C   UNL     1      -6.829  53.510  53.593  0.00  0.00    +0.000 C 
ATOM     39  C   UNL     1      -5.823  53.660  52.454  0.00  0.00    +0.000 C 
ATOM     40  C   UNL     1      -6.478  54.479  54.728  0.00  0.00    +0.000 C 
ENDBRANCH  37  38
ENDBRANCH  36  37
ENDBRANCH   5  36
TORSDOF 10
ENDMDL
