MODEL 1
REMARK VINA RESULT:      -8.4      0.000      0.000
REMARK  Name = 338240
REMARK  8 active torsions:
REMARK  status: ('A' for Active; 'I' for Inactive)
REMARK    1  A    between atoms: C_6  and  C_10
REMARK    2  A    between atoms: C_14  and  O_18
REMARK    3  A    between atoms: N_17  and  C_21
REMARK    4  A    between atoms: C_21  and  C_24
REMARK    5  A    between atoms: C_24  and  C_27
REMARK    6  A    between atoms: C_25  and  N_28
REMARK    7  A    between atoms: C_27  and  C_29
REMARK    8  A    between atoms: C_27  and  C_30
REMARK                            x       y       z     vdW  Elec       q    Type
REMARK                         _______ _______ _______ _____ _____    ______ ____
ROOT
ATOM      1  C   UNL     1     -10.138  54.394  52.208  0.00  0.00    +0.000 A 
ATOM      2  C   UNL     1      -8.762  54.977  52.133  0.00  0.00    +0.000 A 
ATOM      3  C   UNL     1     -10.355  53.275  52.921  0.00  0.00    +0.000 A 
ATOM      4  O   UNL     1      -8.624  56.065  51.564  0.00  0.00    +0.000 OA
ATOM      5  N   UNL     1      -7.709  54.287  52.718  0.00  0.00    +0.000 N 
ATOM      6  C   UNL     1      -9.251  52.625  53.642  0.00  0.00    +0.000 A 
ATOM      7  C   UNL     1      -7.949  53.150  53.551  0.00  0.00    +0.000 A 
ATOM      8  C   UNL     1      -9.489  51.502  54.459  0.00  0.00    +0.000 A 
ATOM      9  C   UNL     1      -6.940  52.562  54.323  0.00  0.00    +0.000 A 
ATOM     10  C   UNL     1      -8.460  50.873  55.160  0.00  0.00    +0.000 A 
ATOM     11  C   UNL     1      -7.194  51.445  55.122  0.00  0.00    +0.000 A 
ENDROOT
BRANCH   1  17
ATOM     12  S   UNL     1     -12.414  55.941  49.400  0.00  0.00    +0.000 S 
ATOM     13  O   UNL     1     -13.274  54.959  48.776  0.00  0.00    +0.000 OA
ATOM     14  O   UNL     1     -11.748  56.947  48.595  0.00  0.00    +0.000 OA
ATOM     15  N   UNL     1     -11.276  55.139  50.232  0.00  0.00    +0.000 N 
ATOM     16  C   UNL     1     -13.419  56.818  50.539  0.00  0.00    +0.000 A 
ATOM     17  C   UNL     1     -11.284  55.121  51.533  0.00  0.00    +0.000 C 
ATOM     18  C   UNL     1     -13.204  56.604  51.889  0.00  0.00    +0.000 A 
ATOM     19  C   UNL     1     -14.389  57.709  50.071  0.00  0.00    +0.000 A 
ATOM     20  N   UNL     1     -12.239  55.708  52.338  0.00  0.00    +0.000 N 
ATOM     21  C   UNL     1     -14.039  57.257  52.801  0.00  0.00    +0.000 A 
ATOM     22  C   UNL     1     -15.190  58.380  50.993  0.00  0.00    +0.000 A 
ATOM     23  C   UNL     1     -15.022  58.146  52.357  0.00  0.00    +0.000 A 
ATOM     24  H   UNL     1     -10.568  54.659  49.746  0.00  0.00    +0.000 HD
ATOM     25  H   UNL     1     -12.238  55.476  53.295  0.00  0.00    +0.000 HD
ENDBRANCH   1  17
BRANCH  10  26
ATOM     26  N   UNL     1      -8.741  49.857  56.077  0.00  0.00    +0.000 N 
ATOM     27  H   UNL     1      -8.108  49.663  56.807  0.00  0.00    +0.000 HD
ATOM     28  H   UNL     1      -9.571  49.334  55.993  0.00  0.00    +0.000 HD
ENDBRANCH  10  26
BRANCH   3  29
ATOM     29  O   UNL     1     -11.594  52.679  53.082  0.00  0.00    +0.000 OA
ATOM     30  H   UNL     1     -11.711  51.774  52.867  0.00  0.00    +0.000 HD
ENDBRANCH   3  29
BRANCH   5  31
ATOM     31  C   UNL     1      -6.362  54.856  52.587  0.00  0.00    +0.000 C 
BRANCH  31  32
ATOM     32  C   UNL     1      -5.430  54.160  51.581  0.00  0.00    +0.000 C 
BRANCH  32  33
ATOM     33  C   UNL     1      -4.063  53.698  52.110  0.00  0.00    +0.000 C 
ATOM     34  C   UNL     1      -3.850  54.060  53.578  0.00  0.00    +0.000 C 
ATOM     35  C   UNL     1      -3.959  52.177  51.931  0.00  0.00    +0.000 C 
ENDBRANCH  32  33
ENDBRANCH  31  32
ENDBRANCH   5  31
TORSDOF 6
ENDMDL
MODEL 2
REMARK VINA RESULT:      -8.2      4.682      6.442
REMARK  Name = 338240
REMARK  8 active torsions:
REMARK  status: ('A' for Active; 'I' for Inactive)
REMARK    1  A    between atoms: C_6  and  C_10
REMARK    2  A    between atoms: C_14  and  O_18
REMARK    3  A    between atoms: N_17  and  C_21
REMARK    4  A    between atoms: C_21  and  C_24
REMARK    5  A    between atoms: C_24  and  C_27
REMARK    6  A    between atoms: C_25  and  N_28
REMARK    7  A    between atoms: C_27  and  C_29
REMARK    8  A    between atoms: C_27  and  C_30
REMARK                            x       y       z     vdW  Elec       q    Type
REMARK                         _______ _______ _______ _____ _____    ______ ____
ROOT
ATOM      1  C   UNL     1     -11.451  56.296  48.492  0.00  0.00    +0.000 A 
ATOM      2  C   UNL     1     -11.847  55.666  47.195  0.00  0.00    +0.000 A 
ATOM      3  C   UNL     1     -10.199  56.143  48.958  0.00  0.00    +0.000 A 
ATOM      4  O   UNL     1     -12.969  55.923  46.744  0.00  0.00    +0.000 OA
ATOM      5  N   UNL     1     -10.939  54.841  46.545  0.00  0.00    +0.000 N 
ATOM      6  C   UNL     1      -9.208  55.371  48.194  0.00  0.00    +0.000 A 
ATOM      7  C   UNL     1      -9.583  54.750  46.989  0.00  0.00    +0.000 A 
ATOM      8  C   UNL     1      -7.874  55.278  48.635  0.00  0.00    +0.000 A 
ATOM      9  C   UNL     1      -8.593  54.101  46.241  0.00  0.00    +0.000 A 
ATOM     10  C   UNL     1      -6.913  54.559  47.923  0.00  0.00    +0.000 A 
ATOM     11  C   UNL     1      -7.276  54.014  46.698  0.00  0.00    +0.000 A 
ENDROOT
BRANCH   1  17
ATOM     12  S   UNL     1     -13.645  59.401  49.495  0.00  0.00    +0.000 S 
ATOM     13  O   UNL     1     -14.820  59.545  48.664  0.00  0.00    +0.000 OA
ATOM     14  O   UNL     1     -12.869  60.567  49.873  0.00  0.00    +0.000 OA
ATOM     15  N   UNL     1     -12.645  58.360  48.756  0.00  0.00    +0.000 N 
ATOM     16  C   UNL     1     -14.191  58.675  50.995  0.00  0.00    +0.000 A 
ATOM     17  C   UNL     1     -12.454  57.163  49.228  0.00  0.00    +0.000 C 
ATOM     18  C   UNL     1     -13.833  57.361  51.245  0.00  0.00    +0.000 A 
ATOM     19  C   UNL     1     -14.950  59.424  51.897  0.00  0.00    +0.000 A 
ATOM     20  N   UNL     1     -13.083  56.626  50.333  0.00  0.00    +0.000 N 
ATOM     21  C   UNL     1     -14.313  56.759  52.412  0.00  0.00    +0.000 A 
ATOM     22  C   UNL     1     -15.392  58.821  53.073  0.00  0.00    +0.000 A 
ATOM     23  C   UNL     1     -15.081  57.485  53.326  0.00  0.00    +0.000 A 
ATOM     24  H   UNL     1     -12.174  58.639  47.937  0.00  0.00    +0.000 HD
ATOM     25  H   UNL     1     -12.993  55.658  50.486  0.00  0.00    +0.000 HD
ENDBRANCH   1  17
BRANCH  10  26
ATOM     26  N   UNL     1      -5.568  54.604  48.298  0.00  0.00    +0.000 N 
ATOM     27  H   UNL     1      -4.866  54.393  47.640  0.00  0.00    +0.000 HD
ATOM     28  H   UNL     1      -5.321  54.845  49.221  0.00  0.00    +0.000 HD
ENDBRANCH  10  26
BRANCH   3  29
ATOM     29  O   UNL     1      -9.724  56.714  50.127  0.00  0.00    +0.000 OA
ATOM     30  H   UNL     1      -9.520  57.629  50.154  0.00  0.00    +0.000 HD
ENDBRANCH   3  29
BRANCH   5  31
ATOM     31  C   UNL     1     -11.371  54.196  45.298  0.00  0.00    +0.000 C 
BRANCH  31  32
ATOM     32  C   UNL     1     -11.892  52.755  45.431  0.00  0.00    +0.000 C 
BRANCH  32  33
ATOM     33  C   UNL     1     -11.165  51.679  44.608  0.00  0.00    +0.000 C 
ATOM     34  C   UNL     1     -10.293  52.275  43.505  0.00  0.00    +0.000 C 
ATOM     35  C   UNL     1     -10.299  50.841  45.557  0.00  0.00    +0.000 C 
ENDBRANCH  32  33
ENDBRANCH  31  32
ENDBRANCH   5  31
TORSDOF 6
ENDMDL
MODEL 3
REMARK VINA RESULT:      -8.1      3.616      5.646
REMARK  Name = 338240
REMARK  8 active torsions:
REMARK  status: ('A' for Active; 'I' for Inactive)
REMARK    1  A    between atoms: C_6  and  C_10
REMARK    2  A    between atoms: C_14  and  O_18
REMARK    3  A    between atoms: N_17  and  C_21
REMARK    4  A    between atoms: C_21  and  C_24
REMARK    5  A    between atoms: C_24  and  C_27
REMARK    6  A    between atoms: C_25  and  N_28
REMARK    7  A    between atoms: C_27  and  C_29
REMARK    8  A    between atoms: C_27  and  C_30
REMARK                            x       y       z     vdW  Elec       q    Type
REMARK                         _______ _______ _______ _____ _____    ______ ____
ROOT
ATOM      1  C   UNL     1     -11.698  55.999  48.687  0.00  0.00    +0.000 A 
ATOM      2  C   UNL     1     -10.622  55.348  49.497  0.00  0.00    +0.000 A 
ATOM      3  C   UNL     1     -11.866  55.658  47.397  0.00  0.00    +0.000 A 
ATOM      4  O   UNL     1     -10.572  55.603  50.706  0.00  0.00    +0.000 OA
ATOM      5  N   UNL     1      -9.744  54.476  48.868  0.00  0.00    +0.000 N 
ATOM      6  C   UNL     1     -11.009  54.637  46.778  0.00  0.00    +0.000 A 
ATOM      7  C   UNL     1      -9.976  54.043  47.526  0.00  0.00    +0.000 A 
ATOM      8  C   UNL     1     -11.236  54.216  45.453  0.00  0.00    +0.000 A 
ATOM      9  C   UNL     1      -9.239  53.009  46.935  0.00  0.00    +0.000 A 
ATOM     10  C   UNL     1     -10.443  53.242  44.847  0.00  0.00    +0.000 A 
ATOM     11  C   UNL     1      -9.475  52.610  45.618  0.00  0.00    +0.000 A 
ENDROOT
BRANCH   1  17
ATOM     12  S   UNL     1     -13.626  59.330  49.492  0.00  0.00    +0.000 S 
ATOM     13  O   UNL     1     -14.772  59.532  48.634  0.00  0.00    +0.000 OA
ATOM     14  O   UNL     1     -12.757  60.443  49.826  0.00  0.00    +0.000 OA
ATOM     15  N   UNL     1     -12.710  58.170  48.825  0.00  0.00    +0.000 N 
ATOM     16  C   UNL     1     -14.255  58.732  51.016  0.00  0.00    +0.000 A 
ATOM     17  C   UNL     1     -12.632  56.986  49.360  0.00  0.00    +0.000 C 
ATOM     18  C   UNL     1     -14.016  57.407  51.338  0.00  0.00    +0.000 A 
ATOM     19  C   UNL     1     -14.958  59.590  51.866  0.00  0.00    +0.000 A 
ATOM     20  N   UNL     1     -13.320  56.564  50.479  0.00  0.00    +0.000 N 
ATOM     21  C   UNL     1     -14.563  56.910  52.526  0.00  0.00    +0.000 A 
ATOM     22  C   UNL     1     -15.467  59.089  53.062  0.00  0.00    +0.000 A 
ATOM     23  C   UNL     1     -15.278  57.746  53.387  0.00  0.00    +0.000 A 
ATOM     24  H   UNL     1     -12.205  58.364  48.002  0.00  0.00    +0.000 HD
ATOM     25  H   UNL     1     -13.318  55.601  50.682  0.00  0.00    +0.000 HD
ENDBRANCH   1  17
BRANCH  10  26
ATOM     26  N   UNL     1     -10.776  52.734  43.589  0.00  0.00    +0.000 N 
ATOM     27  H   UNL     1     -11.354  51.939  43.516  0.00  0.00    +0.000 HD
ATOM     28  H   UNL     1     -10.435  53.171  42.774  0.00  0.00    +0.000 HD
ENDBRANCH  10  26
BRANCH   3  29
ATOM     29  O   UNL     1     -12.853  56.175  46.575  0.00  0.00    +0.000 OA
ATOM     30  H   UNL     1     -12.624  56.560  45.751  0.00  0.00    +0.000 HD
ENDBRANCH   3  29
BRANCH   5  31
ATOM     31  C   UNL     1      -8.668  53.888  49.676  0.00  0.00    +0.000 C 
BRANCH  31  32
ATOM     32  C   UNL     1      -7.312  54.612  49.620  0.00  0.00    +0.000 C 
BRANCH  32  33
ATOM     33  C   UNL     1      -6.920  55.441  50.854  0.00  0.00    +0.000 C 
ATOM     34  C   UNL     1      -7.484  56.859  50.810  0.00  0.00    +0.000 C 
ATOM     35  C   UNL     1      -7.429  54.719  52.109  0.00  0.00    +0.000 C 
ENDBRANCH  32  33
ENDBRANCH  31  32
ENDBRANCH   5  31
TORSDOF 6
ENDMDL
MODEL 4
REMARK VINA RESULT:      -7.9      4.418      6.401
REMARK  Name = 338240
REMARK  8 active torsions:
REMARK  status: ('A' for Active; 'I' for Inactive)
REMARK    1  A    between atoms: C_6  and  C_10
REMARK    2  A    between atoms: C_14  and  O_18
REMARK    3  A    between atoms: N_17  and  C_21
REMARK    4  A    between atoms: C_21  and  C_24
REMARK    5  A    between atoms: C_24  and  C_27
REMARK    6  A    between atoms: C_25  and  N_28
REMARK    7  A    between atoms: C_27  and  C_29
REMARK    8  A    between atoms: C_27  and  C_30
REMARK                            x       y       z     vdW  Elec       q    Type
REMARK                         _______ _______ _______ _____ _____    ______ ____
ROOT
ATOM      1  C   UNL     1     -10.899  55.675  48.634  0.00  0.00    +0.000 A 
ATOM      2  C   UNL     1     -11.286  55.219  47.264  0.00  0.00    +0.000 A 
ATOM      3  C   UNL     1      -9.639  55.497  49.071  0.00  0.00    +0.000 A 
ATOM      4  O   UNL     1     -12.418  55.502  46.856  0.00  0.00    +0.000 OA
ATOM      5  N   UNL     1     -10.359  54.519  46.503  0.00  0.00    +0.000 N 
ATOM      6  C   UNL     1      -8.633  54.867  48.204  0.00  0.00    +0.000 A 
ATOM      7  C   UNL     1      -8.998  54.407  46.926  0.00  0.00    +0.000 A 
ATOM      8  C   UNL     1      -7.293  54.754  48.624  0.00  0.00    +0.000 A 
ATOM      9  C   UNL     1      -7.995  53.898  46.092  0.00  0.00    +0.000 A 
ATOM     10  C   UNL     1      -6.317  54.169  47.817  0.00  0.00    +0.000 A 
ATOM     11  C   UNL     1      -6.673  53.788  46.529  0.00  0.00    +0.000 A 
ENDROOT
BRANCH   1  17
ATOM     12  S   UNL     1     -13.571  56.387  51.429  0.00  0.00    +0.000 S 
ATOM     13  O   UNL     1     -12.972  56.683  52.712  0.00  0.00    +0.000 OA
ATOM     14  O   UNL     1     -14.743  55.536  51.348  0.00  0.00    +0.000 OA
ATOM     15  N   UNL     1     -12.422  55.739  50.487  0.00  0.00    +0.000 N 
ATOM     16  C   UNL     1     -14.045  57.931  50.743  0.00  0.00    +0.000 A 
ATOM     17  C   UNL     1     -11.922  56.402  49.485  0.00  0.00    +0.000 C 
ATOM     18  C   UNL     1     -13.325  58.404  49.660  0.00  0.00    +0.000 A 
ATOM     19  C   UNL     1     -15.126  58.632  51.283  0.00  0.00    +0.000 A 
ATOM     20  N   UNL     1     -12.246  57.698  49.139  0.00  0.00    +0.000 N 
ATOM     21  C   UNL     1     -13.662  59.660  49.145  0.00  0.00    +0.000 A 
ATOM     22  C   UNL     1     -15.472  59.866  50.736  0.00  0.00    +0.000 A 
ATOM     23  C   UNL     1     -14.733  60.384  49.673  0.00  0.00    +0.000 A 
ATOM     24  H   UNL     1     -12.098  54.828  50.675  0.00  0.00    +0.000 HD
ATOM     25  H   UNL     1     -11.676  58.152  48.478  0.00  0.00    +0.000 HD
ENDBRANCH   1  17
BRANCH  10  26
ATOM     26  N   UNL     1      -4.971  54.201  48.190  0.00  0.00    +0.000 N 
ATOM     27  H   UNL     1      -4.386  54.922  47.860  0.00  0.00    +0.000 HD
ATOM     28  H   UNL     1      -4.608  53.504  48.783  0.00  0.00    +0.000 HD
ENDBRANCH  10  26
BRANCH   3  29
ATOM     29  O   UNL     1      -9.173  55.915  50.306  0.00  0.00    +0.000 OA
ATOM     30  H   UNL     1      -8.898  55.284  50.942  0.00  0.00    +0.000 HD
ENDBRANCH   3  29
BRANCH   5  31
ATOM     31  C   UNL     1     -10.781  54.039  45.181  0.00  0.00    +0.000 C 
BRANCH  31  32
ATOM     32  C   UNL     1     -11.334  52.605  45.129  0.00  0.00    +0.000 C 
BRANCH  32  33
ATOM     33  C   UNL     1     -10.655  51.637  44.147  0.00  0.00    +0.000 C 
ATOM     34  C   UNL     1      -9.921  52.364  43.022  0.00  0.00    +0.000 C 
ATOM     35  C   UNL     1      -9.667  50.761  44.929  0.00  0.00    +0.000 C 
ENDBRANCH  32  33
ENDBRANCH  31  32
ENDBRANCH   5  31
TORSDOF 6
ENDMDL
MODEL 5
REMARK VINA RESULT:      -7.9      3.872      4.954
REMARK  Name = 338240
REMARK  8 active torsions:
REMARK  status: ('A' for Active; 'I' for Inactive)
REMARK    1  A    between atoms: C_6  and  C_10
REMARK    2  A    between atoms: C_14  and  O_18
REMARK    3  A    between atoms: N_17  and  C_21
REMARK    4  A    between atoms: C_21  and  C_24
REMARK    5  A    between atoms: C_24  and  C_27
REMARK    6  A    between atoms: C_25  and  N_28
REMARK    7  A    between atoms: C_27  and  C_29
REMARK    8  A    between atoms: C_27  and  C_30
REMARK                            x       y       z     vdW  Elec       q    Type
REMARK                         _______ _______ _______ _____ _____    ______ ____
ROOT
ATOM      1  C   UNL     1     -12.422  54.349  49.726  0.00  0.00    +0.000 A 
ATOM      2  C   UNL     1     -12.034  54.213  48.288  0.00  0.00    +0.000 A 
ATOM      3  C   UNL     1     -11.975  53.457  50.629  0.00  0.00    +0.000 A 
ATOM      4  O   UNL     1     -12.368  55.113  47.510  0.00  0.00    +0.000 OA
ATOM      5  N   UNL     1     -11.302  53.101  47.892  0.00  0.00    +0.000 N 
ATOM      6  C   UNL     1     -11.095  52.355  50.215  0.00  0.00    +0.000 A 
ATOM      7  C   UNL     1     -10.751  52.204  48.860  0.00  0.00    +0.000 A 
ATOM      8  C   UNL     1     -10.556  51.469  51.169  0.00  0.00    +0.000 A 
ATOM      9  C   UNL     1      -9.838  51.201  48.514  0.00  0.00    +0.000 A 
ATOM     10  C   UNL     1      -9.711  50.421  50.802  0.00  0.00    +0.000 A 
ATOM     11  C   UNL     1      -9.320  50.328  49.473  0.00  0.00    +0.000 A 
ENDROOT
BRANCH   1  17
ATOM     12  S   UNL     1     -15.382  56.461  51.221  0.00  0.00    +0.000 S 
ATOM     13  O   UNL     1     -15.319  56.568  52.662  0.00  0.00    +0.000 OA
ATOM     14  O   UNL     1     -16.653  56.236  50.558  0.00  0.00    +0.000 OA
ATOM     15  N   UNL     1     -14.373  55.274  50.771  0.00  0.00    +0.000 N 
ATOM     16  C   UNL     1     -14.769  57.978  50.590  0.00  0.00    +0.000 A 
ATOM     17  C   UNL     1     -13.257  55.538  50.155  0.00  0.00    +0.000 C 
ATOM     18  C   UNL     1     -13.532  57.967  49.970  0.00  0.00    +0.000 A 
ATOM     19  C   UNL     1     -15.531  59.143  50.711  0.00  0.00    +0.000 A 
ATOM     20  N   UNL     1     -12.782  56.800  49.863  0.00  0.00    +0.000 N 
ATOM     21  C   UNL     1     -13.012  59.184  49.515  0.00  0.00    +0.000 A 
ATOM     22  C   UNL     1     -15.015  60.342  50.222  0.00  0.00    +0.000 A 
ATOM     23  C   UNL     1     -13.752  60.363  49.633  0.00  0.00    +0.000 A 
ATOM     24  H   UNL     1     -14.608  54.338  50.966  0.00  0.00    +0.000 HD
ATOM     25  H   UNL     1     -11.849  56.880  49.559  0.00  0.00    +0.000 HD
ENDBRANCH   1  17
BRANCH  10  26
ATOM     26  N   UNL     1      -9.073  49.648  51.776  0.00  0.00    +0.000 N 
ATOM     27  H   UNL     1      -8.439  48.943  51.507  0.00  0.00    +0.000 HD
ATOM     28  H   UNL     1      -9.256  49.808  52.730  0.00  0.00    +0.000 HD
ENDBRANCH  10  26
BRANCH   3  29
ATOM     29  O   UNL     1     -12.247  53.515  51.985  0.00  0.00    +0.000 OA
ATOM     30  H   UNL     1     -11.835  52.911  52.573  0.00  0.00    +0.000 HD
ENDBRANCH   3  29
BRANCH   5  31
ATOM     31  C   UNL     1     -10.977  52.968  46.467  0.00  0.00    +0.000 C 
BRANCH  31  32
ATOM     32  C   UNL     1     -10.137  54.104  45.858  0.00  0.00    +0.000 C 
BRANCH  32  33
ATOM     33  C   UNL     1      -8.707  54.271  46.397  0.00  0.00    +0.000 C 
ATOM     34  C   UNL     1      -7.711  54.654  45.305  0.00  0.00    +0.000 C 
ATOM     35  C   UNL     1      -8.719  55.349  47.489  0.00  0.00    +0.000 C 
ENDBRANCH  32  33
ENDBRANCH  31  32
ENDBRANCH   5  31
TORSDOF 6
ENDMDL
MODEL 6
REMARK VINA RESULT:      -7.9      1.552      2.229
REMARK  Name = 338240
REMARK  8 active torsions:
REMARK  status: ('A' for Active; 'I' for Inactive)
REMARK    1  A    between atoms: C_6  and  C_10
REMARK    2  A    between atoms: C_14  and  O_18
REMARK    3  A    between atoms: N_17  and  C_21
REMARK    4  A    between atoms: C_21  and  C_24
REMARK    5  A    between atoms: C_24  and  C_27
REMARK    6  A    between atoms: C_25  and  N_28
REMARK    7  A    between atoms: C_27  and  C_29
REMARK    8  A    between atoms: C_27  and  C_30
REMARK                            x       y       z     vdW  Elec       q    Type
REMARK                         _______ _______ _______ _____ _____    ______ ____
ROOT
ATOM      1  C   UNL     1     -10.152  54.508  52.200  0.00  0.00    +0.000 A 
ATOM      2  C   UNL     1      -8.746  55.016  52.159  0.00  0.00    +0.000 A 
ATOM      3  C   UNL     1     -10.442  53.392  52.894  0.00  0.00    +0.000 A 
ATOM      4  O   UNL     1      -8.539  56.103  51.609  0.00  0.00    +0.000 OA
ATOM      5  N   UNL     1      -7.743  54.263  52.754  0.00  0.00    +0.000 N 
ATOM      6  C   UNL     1      -9.389  52.674  53.626  0.00  0.00    +0.000 A 
ATOM      7  C   UNL     1      -8.060  53.130  53.566  0.00  0.00    +0.000 A 
ATOM      8  C   UNL     1      -9.702  51.555  54.422  0.00  0.00    +0.000 A 
ATOM      9  C   UNL     1      -7.099  52.478  54.349  0.00  0.00    +0.000 A 
ATOM     10  C   UNL     1      -8.722  50.863  55.133  0.00  0.00    +0.000 A 
ATOM     11  C   UNL     1      -7.427  51.366  55.126  0.00  0.00    +0.000 A 
ENDROOT
BRANCH   1  17
ATOM     12  S   UNL     1     -13.498  56.492  51.627  0.00  0.00    +0.000 S 
ATOM     13  O   UNL     1     -13.418  57.863  52.082  0.00  0.00    +0.000 OA
ATOM     14  O   UNL     1     -14.692  55.707  51.875  0.00  0.00    +0.000 OA
ATOM     15  N   UNL     1     -12.238  55.689  52.261  0.00  0.00    +0.000 N 
ATOM     16  C   UNL     1     -13.303  56.542  49.885  0.00  0.00    +0.000 A 
ATOM     17  C   UNL     1     -11.244  55.304  51.515  0.00  0.00    +0.000 C 
ATOM     18  C   UNL     1     -12.123  56.054  49.352  0.00  0.00    +0.000 A 
ATOM     19  C   UNL     1     -14.328  57.050  49.083  0.00  0.00    +0.000 A 
ATOM     20  N   UNL     1     -11.109  55.557  50.165  0.00  0.00    +0.000 N 
ATOM     21  C   UNL     1     -11.939  56.142  47.968  0.00  0.00    +0.000 A 
ATOM     22  C   UNL     1     -14.144  57.100  47.702  0.00  0.00    +0.000 A 
ATOM     23  C   UNL     1     -12.945  56.655  47.146  0.00  0.00    +0.000 A 
ATOM     24  H   UNL     1     -12.226  55.491  53.225  0.00  0.00    +0.000 HD
ATOM     25  H   UNL     1     -10.236  55.373  49.749  0.00  0.00    +0.000 HD
ENDBRANCH   1  17
BRANCH  10  26
ATOM     26  N   UNL     1      -9.075  49.851  56.030  0.00  0.00    +0.000 N 
ATOM     27  H   UNL     1      -8.621  49.786  56.902  0.00  0.00    +0.000 HD
ATOM     28  H   UNL     1      -9.777  49.203  55.791  0.00  0.00    +0.000 HD
ENDBRANCH  10  26
BRANCH   3  29
ATOM     29  O   UNL     1     -11.715  52.861  53.023  0.00  0.00    +0.000 OA
ATOM     30  H   UNL     1     -11.864  51.952  52.849  0.00  0.00    +0.000 HD
ENDBRANCH   3  29
BRANCH   5  31
ATOM     31  C   UNL     1      -6.365  54.761  52.656  0.00  0.00    +0.000 C 
BRANCH  31  32
ATOM     32  C   UNL     1      -5.606  54.398  51.368  0.00  0.00    +0.000 C 
BRANCH  32  33
ATOM     33  C   UNL     1      -4.556  53.281  51.477  0.00  0.00    +0.000 C 
ATOM     34  C   UNL     1      -3.847  53.273  52.829  0.00  0.00    +0.000 C 
ATOM     35  C   UNL     1      -5.251  51.932  51.247  0.00  0.00    +0.000 C 
ENDBRANCH  32  33
ENDBRANCH  31  32
ENDBRANCH   5  31
TORSDOF 6
ENDMDL
MODEL 7
REMARK VINA RESULT:      -7.8      3.303      7.542
REMARK  Name = 338240
REMARK  8 active torsions:
REMARK  status: ('A' for Active; 'I' for Inactive)
REMARK    1  A    between atoms: C_6  and  C_10
REMARK    2  A    between atoms: C_14  and  O_18
REMARK    3  A    between atoms: N_17  and  C_21
REMARK    4  A    between atoms: C_21  and  C_24
REMARK    5  A    between atoms: C_24  and  C_27
REMARK    6  A    between atoms: C_25  and  N_28
REMARK    7  A    between atoms: C_27  and  C_29
REMARK    8  A    between atoms: C_27  and  C_30
REMARK                            x       y       z     vdW  Elec       q    Type
REMARK                         _______ _______ _______ _____ _____    ______ ____
ROOT
ATOM      1  C   UNL     1     -10.129  55.210  50.948  0.00  0.00    +0.000 A 
ATOM      2  C   UNL     1      -9.794  55.194  49.491  0.00  0.00    +0.000 A 
ATOM      3  C   UNL     1     -11.352  55.600  51.351  0.00  0.00    +0.000 A 
ATOM      4  O   UNL     1      -8.702  54.722  49.152  0.00  0.00    +0.000 OA
ATOM      5  N   UNL     1     -10.721  55.687  48.583  0.00  0.00    +0.000 N 
ATOM      6  C   UNL     1     -12.369  55.999  50.367  0.00  0.00    +0.000 A 
ATOM      7  C   UNL     1     -12.049  56.015  48.998  0.00  0.00    +0.000 A 
ATOM      8  C   UNL     1     -13.676  56.326  50.778  0.00  0.00    +0.000 A 
ATOM      9  C   UNL     1     -13.068  56.310  48.082  0.00  0.00    +0.000 A 
ATOM     10  C   UNL     1     -14.661  56.699  49.863  0.00  0.00    +0.000 A 
ATOM     11  C   UNL     1     -14.356  56.639  48.509  0.00  0.00    +0.000 A 
ENDROOT
BRANCH   1  17
ATOM     12  S   UNL     1      -6.756  54.845  52.934  0.00  0.00    +0.000 S 
ATOM     13  O   UNL     1      -6.610  55.841  53.973  0.00  0.00    +0.000 OA
ATOM     14  O   UNL     1      -5.624  54.484  52.102  0.00  0.00    +0.000 OA
ATOM     15  N   UNL     1      -7.956  55.328  51.955  0.00  0.00    +0.000 N 
ATOM     16  C   UNL     1      -7.257  53.369  53.739  0.00  0.00    +0.000 A 
ATOM     17  C   UNL     1      -9.103  54.714  51.947  0.00  0.00    +0.000 C 
ATOM     18  C   UNL     1      -8.558  52.939  53.547  0.00  0.00    +0.000 A 
ATOM     19  C   UNL     1      -6.347  52.662  54.529  0.00  0.00    +0.000 A 
ATOM     20  N   UNL     1      -9.454  53.657  52.762  0.00  0.00    +0.000 N 
ATOM     21  C   UNL     1      -8.980  51.793  54.231  0.00  0.00    +0.000 A 
ATOM     22  C   UNL     1      -6.772  51.503  55.176  0.00  0.00    +0.000 A 
ATOM     23  C   UNL     1      -8.091  51.075  55.034  0.00  0.00    +0.000 A 
ATOM     24  H   UNL     1      -7.814  56.097  51.358  0.00  0.00    +0.000 HD
ATOM     25  H   UNL     1     -10.402  53.395  52.790  0.00  0.00    +0.000 HD
ENDBRANCH   1  17
BRANCH  10  26
ATOM     26  N   UNL     1     -15.984  56.875  50.275  0.00  0.00    +0.000 N 
ATOM     27  H   UNL     1     -16.216  56.807  51.230  0.00  0.00    +0.000 HD
ATOM     28  H   UNL     1     -16.686  57.068  49.611  0.00  0.00    +0.000 HD
ENDBRANCH  10  26
BRANCH   3  29
ATOM     29  O   UNL     1     -11.772  55.616  52.670  0.00  0.00    +0.000 OA
ATOM     30  H   UNL     1     -11.283  55.155  53.324  0.00  0.00    +0.000 HD
ENDBRANCH   3  29
BRANCH   5  31
ATOM     31  C   UNL     1     -10.347  55.705  47.164  0.00  0.00    +0.000 C 
BRANCH  31  32
ATOM     32  C   UNL     1     -10.597  54.403  46.384  0.00  0.00    +0.000 C 
BRANCH  32  33
ATOM     33  C   UNL     1      -9.365  53.716  45.773  0.00  0.00    +0.000 C 
ATOM     34  C   UNL     1      -9.649  53.123  44.394  0.00  0.00    +0.000 C 
ATOM     35  C   UNL     1      -8.232  54.746  45.671  0.00  0.00    +0.000 C 
ENDBRANCH  32  33
ENDBRANCH  31  32
ENDBRANCH   5  31
TORSDOF 6
ENDMDL
MODEL 8
REMARK VINA RESULT:      -7.5      4.648      7.249
REMARK  Name = 338240
REMARK  8 active torsions:
REMARK  status: ('A' for Active; 'I' for Inactive)
REMARK    1  A    between atoms: C_6  and  C_10
REMARK    2  A    between atoms: C_14  and  O_18
REMARK    3  A    between atoms: N_17  and  C_21
REMARK    4  A    between atoms: C_21  and  C_24
REMARK    5  A    between atoms: C_24  and  C_27
REMARK    6  A    between atoms: C_25  and  N_28
REMARK    7  A    between atoms: C_27  and  C_29
REMARK    8  A    between atoms: C_27  and  C_30
REMARK                            x       y       z     vdW  Elec       q    Type
REMARK                         _______ _______ _______ _____ _____    ______ ____
ROOT
ATOM      1  C   UNL     1     -10.848  54.479  48.553  0.00  0.00    +0.000 A 
ATOM      2  C   UNL     1     -10.413  54.023  49.909  0.00  0.00    +0.000 A 
ATOM      3  C   UNL     1     -11.840  55.379  48.433  0.00  0.00    +0.000 A 
ATOM      4  O   UNL     1      -9.425  53.284  49.983  0.00  0.00    +0.000 OA
ATOM      5  N   UNL     1     -11.118  54.461  51.022  0.00  0.00    +0.000 N 
ATOM      6  C   UNL     1     -12.494  55.931  49.629  0.00  0.00    +0.000 A 
ATOM      7  C   UNL     1     -12.110  55.484  50.906  0.00  0.00    +0.000 A 
ATOM      8  C   UNL     1     -13.474  56.936  49.512  0.00  0.00    +0.000 A 
ATOM      9  C   UNL     1     -12.686  56.098  52.025  0.00  0.00    +0.000 A 
ATOM     10  C   UNL     1     -14.101  57.483  50.631  0.00  0.00    +0.000 A 
ATOM     11  C   UNL     1     -13.662  57.088  51.889  0.00  0.00    +0.000 A 
ENDROOT
BRANCH   1  17
ATOM     12  S   UNL     1      -8.029  53.983  45.857  0.00  0.00    +0.000 S 
ATOM     13  O   UNL     1      -6.991  53.077  46.296  0.00  0.00    +0.000 OA
ATOM     14  O   UNL     1      -7.687  55.196  45.140  0.00  0.00    +0.000 OA
ATOM     15  N   UNL     1      -8.896  54.407  47.161  0.00  0.00    +0.000 N 
ATOM     16  C   UNL     1      -9.061  53.059  44.782  0.00  0.00    +0.000 A 
ATOM     17  C   UNL     1     -10.109  53.969  47.331  0.00  0.00    +0.000 C 
ATOM     18  C   UNL     1     -10.328  52.726  45.229  0.00  0.00    +0.000 A 
ATOM     19  C   UNL     1      -8.601  52.696  43.513  0.00  0.00    +0.000 A 
ATOM     20  N   UNL     1     -10.770  53.090  46.498  0.00  0.00    +0.000 N 
ATOM     21  C   UNL     1     -11.135  51.942  44.399  0.00  0.00    +0.000 A 
ATOM     22  C   UNL     1      -9.429  51.944  42.683  0.00  0.00    +0.000 A 
ATOM     23  C   UNL     1     -10.693  51.558  43.130  0.00  0.00    +0.000 A 
ATOM     24  H   UNL     1      -8.498  55.006  47.833  0.00  0.00    +0.000 HD
ATOM     25  H   UNL     1     -11.610  52.693  46.822  0.00  0.00    +0.000 HD
ENDBRANCH   1  17
BRANCH  10  26
ATOM     26  N   UNL     1     -14.960  58.577  50.502  0.00  0.00    +0.000 N 
ATOM     27  H   UNL     1     -15.782  58.498  49.965  0.00  0.00    +0.000 HD
ATOM     28  H   UNL     1     -14.744  59.429  50.948  0.00  0.00    +0.000 HD
ENDBRANCH  10  26
BRANCH   3  29
ATOM     29  O   UNL     1     -12.291  55.890  47.228  0.00  0.00    +0.000 OA
ATOM     30  H   UNL     1     -12.650  56.755  47.189  0.00  0.00    +0.000 HD
ENDBRANCH   3  29
BRANCH   5  31
ATOM     31  C   UNL     1     -10.700  53.960  52.338  0.00  0.00    +0.000 C 
BRANCH  31  32
ATOM     32  C   UNL     1      -9.846  54.920  53.184  0.00  0.00    +0.000 C 
BRANCH  32  33
ATOM     33  C   UNL     1      -8.333  54.918  52.915  0.00  0.00    +0.000 C 
ATOM     34  C   UNL     1      -7.929  55.918  51.834  0.00  0.00    +0.000 C 
ATOM     35  C   UNL     1      -7.604  55.247  54.225  0.00  0.00    +0.000 C 
ENDBRANCH  32  33
ENDBRANCH  31  32
ENDBRANCH   5  31
TORSDOF 6
ENDMDL
MODEL 9
REMARK VINA RESULT:      -7.4      2.721      3.419
REMARK  Name = 338240
REMARK  8 active torsions:
REMARK  status: ('A' for Active; 'I' for Inactive)
REMARK    1  A    between atoms: C_6  and  C_10
REMARK    2  A    between atoms: C_14  and  O_18
REMARK    3  A    between atoms: N_17  and  C_21
REMARK    4  A    between atoms: C_21  and  C_24
REMARK    5  A    between atoms: C_24  and  C_27
REMARK    6  A    between atoms: C_25  and  N_28
REMARK    7  A    between atoms: C_27  and  C_29
REMARK    8  A    between atoms: C_27  and  C_30
REMARK                            x       y       z     vdW  Elec       q    Type
REMARK                         _______ _______ _______ _____ _____    ______ ____
ROOT
ATOM      1  C   UNL     1     -11.009  54.947  50.598  0.00  0.00    +0.000 A 
ATOM      2  C   UNL     1      -9.755  55.322  49.876  0.00  0.00    +0.000 A 
ATOM      3  C   UNL     1     -11.057  53.807  51.312  0.00  0.00    +0.000 A 
ATOM      4  O   UNL     1      -9.711  56.428  49.326  0.00  0.00    +0.000 OA
ATOM      5  N   UNL     1      -8.692  54.429  49.869  0.00  0.00    +0.000 N 
ATOM      6  C   UNL     1      -9.879  52.933  51.400  0.00  0.00    +0.000 A 
ATOM      7  C   UNL     1      -8.707  53.265  50.698  0.00  0.00    +0.000 A 
ATOM      8  C   UNL     1      -9.897  51.783  52.214  0.00  0.00    +0.000 A 
ATOM      9  C   UNL     1      -7.575  52.460  50.878  0.00  0.00    +0.000 A 
ATOM     10  C   UNL     1      -8.789  50.942  52.321  0.00  0.00    +0.000 A 
ATOM     11  C   UNL     1      -7.614  51.320  51.684  0.00  0.00    +0.000 A 
ENDROOT
BRANCH   1  17
ATOM     12  S   UNL     1     -13.759  57.415  49.256  0.00  0.00    +0.000 S 
ATOM     13  O   UNL     1     -14.890  56.727  48.674  0.00  0.00    +0.000 OA
ATOM     14  O   UNL     1     -13.219  58.602  48.621  0.00  0.00    +0.000 OA
ATOM     15  N   UNL     1     -12.553  56.341  49.404  0.00  0.00    +0.000 N 
ATOM     16  C   UNL     1     -14.261  57.910  50.862  0.00  0.00    +0.000 A 
ATOM     17  C   UNL     1     -12.188  55.899  50.572  0.00  0.00    +0.000 C 
ATOM     18  C   UNL     1     -13.698  57.257  51.945  0.00  0.00    +0.000 A 
ATOM     19  C   UNL     1     -15.190  58.943  51.015  0.00  0.00    +0.000 A 
ATOM     20  N   UNL     1     -12.780  56.226  51.775  0.00  0.00    +0.000 N 
ATOM     21  C   UNL     1     -14.136  57.609  53.226  0.00  0.00    +0.000 A 
ATOM     22  C   UNL     1     -15.591  59.306  52.300  0.00  0.00    +0.000 A 
ATOM     23  C   UNL     1     -15.071  58.632  53.404  0.00  0.00    +0.000 A 
ATOM     24  H   UNL     1     -12.089  56.019  48.598  0.00  0.00    +0.000 HD
ATOM     25  H   UNL     1     -12.535  55.695  52.566  0.00  0.00    +0.000 HD
ENDBRANCH   1  17
BRANCH  10  26
ATOM     26  N   UNL     1      -8.778  49.894  53.245  0.00  0.00    +0.000 N 
ATOM     27  H   UNL     1      -8.526  48.986  52.957  0.00  0.00    +0.000 HD
ATOM     28  H   UNL     1      -9.022  50.062  54.185  0.00  0.00    +0.000 HD
ENDBRANCH  10  26
BRANCH   3  29
ATOM     29  O   UNL     1     -12.156  53.390  52.044  0.00  0.00    +0.000 OA
ATOM     30  H   UNL     1     -12.916  53.062  51.604  0.00  0.00    +0.000 HD
ENDBRANCH   3  29
BRANCH   5  31
ATOM     31  C   UNL     1      -7.490  54.801  49.111  0.00  0.00    +0.000 C 
BRANCH  31  32
ATOM     32  C   UNL     1      -7.365  54.192  47.704  0.00  0.00    +0.000 C 
BRANCH  32  33
ATOM     33  C   UNL     1      -8.349  54.702  46.640  0.00  0.00    +0.000 C 
ATOM     34  C   UNL     1      -7.702  54.845  45.264  0.00  0.00    +0.000 C 
ATOM     35  C   UNL     1      -9.531  53.726  46.558  0.00  0.00    +0.000 C 
ENDBRANCH  32  33
ENDBRANCH  31  32
ENDBRANCH   5  31
TORSDOF 6
ENDMDL
