MODEL 1
REMARK VINA RESULT:      -8.1      0.000      0.000
REMARK  Name = 338160
REMARK  9 active torsions:
REMARK  status: ('A' for Active; 'I' for Inactive)
REMARK    1  A    between atoms: C_6  and  C_10
REMARK    2  A    between atoms: C_14  and  O_18
REMARK    3  A    between atoms: N_17  and  C_21
REMARK    4  A    between atoms: C_21  and  C_24
REMARK    5  A    between atoms: C_24  and  C_27
REMARK    6  A    between atoms: C_25  and  O_28
REMARK    7  A    between atoms: C_27  and  C_29
REMARK    8  A    between atoms: C_27  and  C_30
REMARK    9  A    between atoms: O_28  and  C_31
REMARK                            x       y       z     vdW  Elec       q    Type
REMARK                         _______ _______ _______ _____ _____    ______ ____
ROOT
ATOM      1  C   UNL     1     -10.298  54.633  52.071  0.00  0.00    +0.000 A 
ATOM      2  C   UNL     1      -8.921  55.185  51.880  0.00  0.00    +0.000 A 
ATOM      3  C   UNL     1     -10.489  53.522  52.801  0.00  0.00    +0.000 A 
ATOM      4  O   UNL     1      -8.801  56.277  51.317  0.00  0.00    +0.000 OA
ATOM      5  N   UNL     1      -7.841  54.461  52.365  0.00  0.00    +0.000 N 
ATOM      6  C   UNL     1      -9.344  52.841  53.422  0.00  0.00    +0.000 A 
ATOM      7  C   UNL     1      -8.045  53.331  53.213  0.00  0.00    +0.000 A 
ATOM      8  C   UNL     1      -9.535  51.718  54.247  0.00  0.00    +0.000 A 
ATOM      9  C   UNL     1      -6.981  52.711  53.881  0.00  0.00    +0.000 A 
ATOM     10  C   UNL     1      -8.460  51.095  54.884  0.00  0.00    +0.000 A 
ATOM     11  C   UNL     1      -7.183  51.600  54.698  0.00  0.00    +0.000 A 
ENDROOT
BRANCH   1  17
ATOM     12  S   UNL     1     -12.686  56.321  49.453  0.00  0.00    +0.000 S 
ATOM     13  O   UNL     1     -13.604  55.388  48.830  0.00  0.00    +0.000 OA
ATOM     14  O   UNL     1     -12.038  57.349  48.663  0.00  0.00    +0.000 OA
ATOM     15  N   UNL     1     -11.530  55.456  50.191  0.00  0.00    +0.000 N 
ATOM     16  C   UNL     1     -13.609  57.168  50.681  0.00  0.00    +0.000 A 
ATOM     17  C   UNL     1     -11.470  55.394  51.489  0.00  0.00    +0.000 C 
ATOM     18  C   UNL     1     -13.323  56.903  52.009  0.00  0.00    +0.000 A 
ATOM     19  C   UNL     1     -14.594  58.090  50.306  0.00  0.00    +0.000 A 
ATOM     20  N   UNL     1     -12.360  55.963  52.369  0.00  0.00    +0.000 N 
ATOM     21  C   UNL     1     -14.085  57.540  52.991  0.00  0.00    +0.000 A 
ATOM     22  C   UNL     1     -15.323  58.738  51.297  0.00  0.00    +0.000 A 
ATOM     23  C   UNL     1     -15.077  58.460  52.639  0.00  0.00    +0.000 A 
ATOM     24  H   UNL     1     -10.864  54.973  49.650  0.00  0.00    +0.000 HD
ATOM     25  H   UNL     1     -12.312  55.690  53.314  0.00  0.00    +0.000 HD
ENDBRANCH   1  17
BRANCH   3  26
ATOM     26  O   UNL     1     -11.726  52.966  53.073  0.00  0.00    +0.000 OA
ATOM     27  H   UNL     1     -12.145  53.132  53.894  0.00  0.00    +0.000 HD
ENDBRANCH   3  26
BRANCH  10  28
ATOM     28  O   UNL     1      -8.784  50.021  55.664  0.00  0.00    +0.000 OA
ATOM     29  C   UNL     1      -7.955  49.795  56.799  0.00  0.00    +0.000 C 
ENDBRANCH  10  28
BRANCH   5  30
ATOM     30  C   UNL     1      -6.496  54.986  52.111  0.00  0.00    +0.000 C 
BRANCH  30  31
ATOM     31  C   UNL     1      -5.804  54.472  50.838  0.00  0.00    +0.000 C 
BRANCH  31  32
ATOM     32  C   UNL     1      -4.487  53.705  51.029  0.00  0.00    +0.000 C 
ATOM     33  C   UNL     1      -3.847  53.980  52.387  0.00  0.00    +0.000 C 
ATOM     34  C   UNL     1      -4.775  52.206  50.879  0.00  0.00    +0.000 C 
ENDBRANCH  31  32
ENDBRANCH  30  31
ENDBRANCH   5  30
TORSDOF 6
ENDMDL
MODEL 2
REMARK VINA RESULT:      -7.9      3.752      5.784
REMARK  Name = 338160
REMARK  9 active torsions:
REMARK  status: ('A' for Active; 'I' for Inactive)
REMARK    1  A    between atoms: C_6  and  C_10
REMARK    2  A    between atoms: C_14  and  O_18
REMARK    3  A    between atoms: N_17  and  C_21
REMARK    4  A    between atoms: C_21  and  C_24
REMARK    5  A    between atoms: C_24  and  C_27
REMARK    6  A    between atoms: C_25  and  O_28
REMARK    7  A    between atoms: C_27  and  C_29
REMARK    8  A    between atoms: C_27  and  C_30
REMARK    9  A    between atoms: O_28  and  C_31
REMARK                            x       y       z     vdW  Elec       q    Type
REMARK                         _______ _______ _______ _____ _____    ______ ____
ROOT
ATOM      1  C   UNL     1     -11.675  55.948  48.751  0.00  0.00    +0.000 A 
ATOM      2  C   UNL     1     -10.633  55.294  49.602  0.00  0.00    +0.000 A 
ATOM      3  C   UNL     1     -11.801  55.612  47.457  0.00  0.00    +0.000 A 
ATOM      4  O   UNL     1     -10.635  55.531  50.814  0.00  0.00    +0.000 OA
ATOM      5  N   UNL     1      -9.728  54.432  49.002  0.00  0.00    +0.000 N 
ATOM      6  C   UNL     1     -10.919  54.595  46.867  0.00  0.00    +0.000 A 
ATOM      7  C   UNL     1      -9.913  54.007  47.651  0.00  0.00    +0.000 A 
ATOM      8  C   UNL     1     -11.085  54.182  45.533  0.00  0.00    +0.000 A 
ATOM      9  C   UNL     1      -9.139  52.985  47.088  0.00  0.00    +0.000 A 
ATOM     10  C   UNL     1     -10.287  53.180  44.979  0.00  0.00    +0.000 A 
ATOM     11  C   UNL     1      -9.315  52.582  45.766  0.00  0.00    +0.000 A 
ENDROOT
BRANCH   1  17
ATOM     12  S   UNL     1     -13.615  59.277  49.494  0.00  0.00    +0.000 S 
ATOM     13  O   UNL     1     -14.764  59.475  48.632  0.00  0.00    +0.000 OA
ATOM     14  O   UNL     1     -12.745  60.389  49.822  0.00  0.00    +0.000 OA
ATOM     15  N   UNL     1     -12.704  58.106  48.840  0.00  0.00    +0.000 N 
ATOM     16  C   UNL     1     -14.247  58.693  51.023  0.00  0.00    +0.000 A 
ATOM     17  C   UNL     1     -12.624  56.934  49.397  0.00  0.00    +0.000 C 
ATOM     18  C   UNL     1     -14.000  57.376  51.369  0.00  0.00    +0.000 A 
ATOM     19  C   UNL     1     -14.967  59.556  51.859  0.00  0.00    +0.000 A 
ATOM     20  N   UNL     1     -13.306  56.521  50.516  0.00  0.00    +0.000 N 
ATOM     21  C   UNL     1     -14.539  56.892  52.564  0.00  0.00    +0.000 A 
ATOM     22  C   UNL     1     -15.471  59.067  53.059  0.00  0.00    +0.000 A 
ATOM     23  C   UNL     1     -15.265  57.735  53.411  0.00  0.00    +0.000 A 
ATOM     24  H   UNL     1     -12.205  58.285  48.010  0.00  0.00    +0.000 HD
ATOM     25  H   UNL     1     -13.302  55.560  50.730  0.00  0.00    +0.000 HD
ENDBRANCH   1  17
BRANCH   3  26
ATOM     26  O   UNL     1     -12.764  56.125  46.605  0.00  0.00    +0.000 OA
ATOM     27  H   UNL     1     -13.672  55.977  46.779  0.00  0.00    +0.000 HD
ENDBRANCH   3  26
BRANCH  10  28
ATOM     28  O   UNL     1     -10.560  52.867  43.677  0.00  0.00    +0.000 OA
ATOM     29  C   UNL     1      -9.444  52.511  42.869  0.00  0.00    +0.000 C 
ENDBRANCH  10  28
BRANCH   5  30
ATOM     30  C   UNL     1      -8.675  53.851  49.841  0.00  0.00    +0.000 C 
BRANCH  30  31
ATOM     31  C   UNL     1      -7.318  54.574  49.812  0.00  0.00    +0.000 C 
BRANCH  31  32
ATOM     32  C   UNL     1      -6.972  55.444  51.029  0.00  0.00    +0.000 C 
ATOM     33  C   UNL     1      -7.518  56.863  50.904  0.00  0.00    +0.000 C 
ATOM     34  C   UNL     1      -7.545  54.770  52.283  0.00  0.00    +0.000 C 
ENDBRANCH  31  32
ENDBRANCH  30  31
ENDBRANCH   5  30
TORSDOF 6
ENDMDL
MODEL 3
REMARK VINA RESULT:      -7.9      4.308      6.106
REMARK  Name = 338160
REMARK  9 active torsions:
REMARK  status: ('A' for Active; 'I' for Inactive)
REMARK    1  A    between atoms: C_6  and  C_10
REMARK    2  A    between atoms: C_14  and  O_18
REMARK    3  A    between atoms: N_17  and  C_21
REMARK    4  A    between atoms: C_21  and  C_24
REMARK    5  A    between atoms: C_24  and  C_27
REMARK    6  A    between atoms: C_25  and  O_28
REMARK    7  A    between atoms: C_27  and  C_29
REMARK    8  A    between atoms: C_27  and  C_30
REMARK    9  A    between atoms: O_28  and  C_31
REMARK                            x       y       z     vdW  Elec       q    Type
REMARK                         _______ _______ _______ _____ _____    ______ ____
ROOT
ATOM      1  C   UNL     1     -11.500  56.233  48.508  0.00  0.00    +0.000 A 
ATOM      2  C   UNL     1     -11.889  55.651  47.186  0.00  0.00    +0.000 A 
ATOM      3  C   UNL     1     -10.270  56.022  49.006  0.00  0.00    +0.000 A 
ATOM      4  O   UNL     1     -12.977  55.976  46.701  0.00  0.00    +0.000 OA
ATOM      5  N   UNL     1     -11.003  54.793  46.550  0.00  0.00    +0.000 N 
ATOM      6  C   UNL     1      -9.296  55.220  48.254  0.00  0.00    +0.000 A 
ATOM      7  C   UNL     1      -9.668  54.638  47.032  0.00  0.00    +0.000 A 
ATOM      8  C   UNL     1      -7.982  55.049  48.729  0.00  0.00    +0.000 A 
ATOM      9  C   UNL     1      -8.696  53.945  46.297  0.00  0.00    +0.000 A 
ATOM     10  C   UNL     1      -7.033  54.334  47.997  0.00  0.00    +0.000 A 
ATOM     11  C   UNL     1      -7.398  53.786  46.776  0.00  0.00    +0.000 A 
ENDROOT
BRANCH   1  17
ATOM     12  S   UNL     1     -13.616  59.390  49.486  0.00  0.00    +0.000 S 
ATOM     13  O   UNL     1     -14.791  59.571  48.657  0.00  0.00    +0.000 OA
ATOM     14  O   UNL     1     -12.806  60.530  49.868  0.00  0.00    +0.000 OA
ATOM     15  N   UNL     1     -12.651  58.317  48.746  0.00  0.00    +0.000 N 
ATOM     16  C   UNL     1     -14.182  58.678  50.987  0.00  0.00    +0.000 A 
ATOM     17  C   UNL     1     -12.492  57.120  49.229  0.00  0.00    +0.000 C 
ATOM     18  C   UNL     1     -13.852  57.359  51.247  0.00  0.00    +0.000 A 
ATOM     19  C   UNL     1     -14.934  59.444  51.886  0.00  0.00    +0.000 A 
ATOM     20  N   UNL     1     -13.126  56.600  50.332  0.00  0.00    +0.000 N 
ATOM     21  C   UNL     1     -14.337  56.773  52.418  0.00  0.00    +0.000 A 
ATOM     22  C   UNL     1     -15.384  58.854  53.062  0.00  0.00    +0.000 A 
ATOM     23  C   UNL     1     -15.094  57.518  53.327  0.00  0.00    +0.000 A 
ATOM     24  H   UNL     1     -12.181  58.575  47.921  0.00  0.00    +0.000 HD
ATOM     25  H   UNL     1     -13.062  55.630  50.485  0.00  0.00    +0.000 HD
ENDBRANCH   1  17
BRANCH   3  26
ATOM     26  O   UNL     1      -9.804  56.558  50.194  0.00  0.00    +0.000 OA
ATOM     27  H   UNL     1     -10.274  57.252  50.612  0.00  0.00    +0.000 HD
ENDBRANCH   3  26
BRANCH  10  28
ATOM     28  O   UNL     1      -5.794  54.252  48.566  0.00  0.00    +0.000 OA
ATOM     29  C   UNL     1      -5.464  55.271  49.503  0.00  0.00    +0.000 C 
ENDBRANCH  10  28
BRANCH   5  30
ATOM     30  C   UNL     1     -11.429  54.183  45.287  0.00  0.00    +0.000 C 
BRANCH  30  31
ATOM     31  C   UNL     1     -11.882  52.716  45.370  0.00  0.00    +0.000 C 
BRANCH  31  32
ATOM     32  C   UNL     1     -11.199  51.726  44.414  0.00  0.00    +0.000 C 
ATOM     33  C   UNL     1     -10.264  52.422  43.430  0.00  0.00    +0.000 C 
ATOM     34  C   UNL     1     -10.415  50.708  45.252  0.00  0.00    +0.000 C 
ENDBRANCH  31  32
ENDBRANCH  30  31
ENDBRANCH   5  30
TORSDOF 6
ENDMDL
MODEL 4
REMARK VINA RESULT:      -7.7      3.526      4.568
REMARK  Name = 338160
REMARK  9 active torsions:
REMARK  status: ('A' for Active; 'I' for Inactive)
REMARK    1  A    between atoms: C_6  and  C_10
REMARK    2  A    between atoms: C_14  and  O_18
REMARK    3  A    between atoms: N_17  and  C_21
REMARK    4  A    between atoms: C_21  and  C_24
REMARK    5  A    between atoms: C_24  and  C_27
REMARK    6  A    between atoms: C_25  and  O_28
REMARK    7  A    between atoms: C_27  and  C_29
REMARK    8  A    between atoms: C_27  and  C_30
REMARK    9  A    between atoms: O_28  and  C_31
REMARK                            x       y       z     vdW  Elec       q    Type
REMARK                         _______ _______ _______ _____ _____    ______ ____
ROOT
ATOM      1  C   UNL     1     -12.242  54.182  50.256  0.00  0.00    +0.000 A 
ATOM      2  C   UNL     1     -11.980  53.785  48.838  0.00  0.00    +0.000 A 
ATOM      3  C   UNL     1     -11.690  53.491  51.267  0.00  0.00    +0.000 A 
ATOM      4  O   UNL     1     -12.394  54.522  47.938  0.00  0.00    +0.000 OA
ATOM      5  N   UNL     1     -11.262  52.622  48.594  0.00  0.00    +0.000 N 
ATOM      6  C   UNL     1     -10.821  52.340  50.987  0.00  0.00    +0.000 A 
ATOM      7  C   UNL     1     -10.603  51.937  49.660  0.00  0.00    +0.000 A 
ATOM      8  C   UNL     1     -10.180  51.649  52.032  0.00  0.00    +0.000 A 
ATOM      9  C   UNL     1      -9.708  50.887  49.417  0.00  0.00    +0.000 A 
ATOM     10  C   UNL     1      -9.311  50.588  51.775  0.00  0.00    +0.000 A 
ATOM     11  C   UNL     1      -9.077  50.213  50.460  0.00  0.00    +0.000 A 
ENDROOT
BRANCH   1  17
ATOM     12  S   UNL     1     -15.253  56.458  51.332  0.00  0.00    +0.000 S 
ATOM     13  O   UNL     1     -15.296  56.714  52.758  0.00  0.00    +0.000 OA
ATOM     14  O   UNL     1     -16.473  56.181  50.600  0.00  0.00    +0.000 OA
ATOM     15  N   UNL     1     -14.231  55.223  51.084  0.00  0.00    +0.000 N 
ATOM     16  C   UNL     1     -14.566  57.896  50.598  0.00  0.00    +0.000 A 
ATOM     17  C   UNL     1     -13.076  55.417  50.520  0.00  0.00    +0.000 C 
ATOM     18  C   UNL     1     -13.294  57.810  50.061  0.00  0.00    +0.000 A 
ATOM     19  C   UNL     1     -15.308  59.083  50.556  0.00  0.00    +0.000 A 
ATOM     20  N   UNL     1     -12.556  56.630  50.133  0.00  0.00    +0.000 N 
ATOM     21  C   UNL     1     -12.724  58.963  49.516  0.00  0.00    +0.000 A 
ATOM     22  C   UNL     1     -14.738  60.214  49.983  0.00  0.00    +0.000 A 
ATOM     23  C   UNL     1     -13.445  60.160  49.469  0.00  0.00    +0.000 A 
ATOM     24  H   UNL     1     -14.489  54.315  51.363  0.00  0.00    +0.000 HD
ATOM     25  H   UNL     1     -11.603  56.667  49.890  0.00  0.00    +0.000 HD
ENDBRANCH   1  17
BRANCH   3  26
ATOM     26  O   UNL     1     -11.835  53.811  52.606  0.00  0.00    +0.000 OA
ATOM     27  H   UNL     1     -12.136  54.663  52.854  0.00  0.00    +0.000 HD
ENDBRANCH   3  26
BRANCH  10  28
ATOM     28  O   UNL     1      -8.747  50.011  52.878  0.00  0.00    +0.000 OA
ATOM     29  C   UNL     1      -8.520  50.870  53.989  0.00  0.00    +0.000 C 
ENDBRANCH  10  28
BRANCH   5  30
ATOM     30  C   UNL     1     -11.071  52.216  47.198  0.00  0.00    +0.000 C 
BRANCH  30  31
ATOM     31  C   UNL     1      -9.770  52.693  46.533  0.00  0.00    +0.000 C 
BRANCH  31  32
ATOM     32  C   UNL     1      -9.914  53.620  45.317  0.00  0.00    +0.000 C 
ATOM     33  C   UNL     1      -8.822  53.388  44.278  0.00  0.00    +0.000 C 
ATOM     34  C   UNL     1     -11.294  53.381  44.690  0.00  0.00    +0.000 C 
ENDBRANCH  31  32
ENDBRANCH  30  31
ENDBRANCH   5  30
TORSDOF 6
ENDMDL
MODEL 5
REMARK VINA RESULT:      -7.7      3.268      7.549
REMARK  Name = 338160
REMARK  9 active torsions:
REMARK  status: ('A' for Active; 'I' for Inactive)
REMARK    1  A    between atoms: C_6  and  C_10
REMARK    2  A    between atoms: C_14  and  O_18
REMARK    3  A    between atoms: N_17  and  C_21
REMARK    4  A    between atoms: C_21  and  C_24
REMARK    5  A    between atoms: C_24  and  C_27
REMARK    6  A    between atoms: C_25  and  O_28
REMARK    7  A    between atoms: C_27  and  C_29
REMARK    8  A    between atoms: C_27  and  C_30
REMARK    9  A    between atoms: O_28  and  C_31
REMARK                            x       y       z     vdW  Elec       q    Type
REMARK                         _______ _______ _______ _____ _____    ______ ____
ROOT
ATOM      1  C   UNL     1      -9.989  55.155  50.971  0.00  0.00    +0.000 A 
ATOM      2  C   UNL     1      -9.601  55.111  49.527  0.00  0.00    +0.000 A 
ATOM      3  C   UNL     1     -11.208  55.590  51.332  0.00  0.00    +0.000 A 
ATOM      4  O   UNL     1      -8.526  54.582  49.226  0.00  0.00    +0.000 OA
ATOM      5  N   UNL     1     -10.472  55.642  48.587  0.00  0.00    +0.000 N 
ATOM      6  C   UNL     1     -12.171  56.023  50.310  0.00  0.00    +0.000 A 
ATOM      7  C   UNL     1     -11.798  56.022  48.957  0.00  0.00    +0.000 A 
ATOM      8  C   UNL     1     -13.474  56.414  50.667  0.00  0.00    +0.000 A 
ATOM      9  C   UNL     1     -12.760  56.363  47.997  0.00  0.00    +0.000 A 
ATOM     10  C   UNL     1     -14.413  56.777  49.701  0.00  0.00    +0.000 A 
ATOM     11  C   UNL     1     -14.049  56.746  48.363  0.00  0.00    +0.000 A 
ENDROOT
BRANCH   1  17
ATOM     12  S   UNL     1      -6.683  54.671  53.028  0.00  0.00    +0.000 S 
ATOM     13  O   UNL     1      -6.509  55.660  54.075  0.00  0.00    +0.000 OA
ATOM     14  O   UNL     1      -5.555  54.259  52.216  0.00  0.00    +0.000 OA
ATOM     15  N   UNL     1      -7.846  55.206  52.033  0.00  0.00    +0.000 N 
ATOM     16  C   UNL     1      -7.263  53.217  53.821  0.00  0.00    +0.000 A 
ATOM     17  C   UNL     1      -9.011  54.631  52.000  0.00  0.00    +0.000 C 
ATOM     18  C   UNL     1      -8.572  52.832  53.597  0.00  0.00    +0.000 A 
ATOM     19  C   UNL     1      -6.403  52.478  54.643  0.00  0.00    +0.000 A 
ATOM     20  N   UNL     1      -9.425  53.591  52.799  0.00  0.00    +0.000 N 
ATOM     21  C   UNL     1      -9.054  51.700  54.261  0.00  0.00    +0.000 A 
ATOM     22  C   UNL     1      -6.889  51.336  55.272  0.00  0.00    +0.000 A 
ATOM     23  C   UNL     1      -8.215  50.950  55.090  0.00  0.00    +0.000 A 
ATOM     24  H   UNL     1      -7.666  55.976  51.446  0.00  0.00    +0.000 HD
ATOM     25  H   UNL     1     -10.384  53.369  52.806  0.00  0.00    +0.000 HD
ENDBRANCH   1  17
BRANCH   3  26
ATOM     26  O   UNL     1     -11.674  55.621  52.635  0.00  0.00    +0.000 OA
ATOM     27  H   UNL     1     -11.182  56.062  53.299  0.00  0.00    +0.000 HD
ENDBRANCH   3  26
BRANCH  10  28
ATOM     28  O   UNL     1     -15.644  57.125  50.181  0.00  0.00    +0.000 OA
ATOM     29  C   UNL     1     -15.932  56.730  51.518  0.00  0.00    +0.000 C 
ENDBRANCH  10  28
BRANCH   5  30
ATOM     30  C   UNL     1     -10.045  55.647  47.184  0.00  0.00    +0.000 C 
BRANCH  30  31
ATOM     31  C   UNL     1     -10.373  54.380  46.378  0.00  0.00    +0.000 C 
BRANCH  31  32
ATOM     32  C   UNL     1      -9.191  53.655  45.717  0.00  0.00    +0.000 C 
ATOM     33  C   UNL     1      -9.558  53.063  44.360  0.00  0.00    +0.000 C 
ATOM     34  C   UNL     1      -8.039  54.656  45.558  0.00  0.00    +0.000 C 
ENDBRANCH  31  32
ENDBRANCH  30  31
ENDBRANCH   5  30
TORSDOF 6
ENDMDL
MODEL 6
REMARK VINA RESULT:      -7.6      4.533      7.595
REMARK  Name = 338160
REMARK  9 active torsions:
REMARK  status: ('A' for Active; 'I' for Inactive)
REMARK    1  A    between atoms: C_6  and  C_10
REMARK    2  A    between atoms: C_14  and  O_18
REMARK    3  A    between atoms: N_17  and  C_21
REMARK    4  A    between atoms: C_21  and  C_24
REMARK    5  A    between atoms: C_24  and  C_27
REMARK    6  A    between atoms: C_25  and  O_28
REMARK    7  A    between atoms: C_27  and  C_29
REMARK    8  A    between atoms: C_27  and  C_30
REMARK    9  A    between atoms: O_28  and  C_31
REMARK                            x       y       z     vdW  Elec       q    Type
REMARK                         _______ _______ _______ _____ _____    ______ ____
ROOT
ATOM      1  C   UNL     1     -10.876  54.488  48.554  0.00  0.00    +0.000 A 
ATOM      2  C   UNL     1     -10.474  54.030  49.919  0.00  0.00    +0.000 A 
ATOM      3  C   UNL     1     -11.847  55.405  48.405  0.00  0.00    +0.000 A 
ATOM      4  O   UNL     1      -9.491  53.290  50.022  0.00  0.00    +0.000 OA
ATOM      5  N   UNL     1     -11.203  54.474  51.012  0.00  0.00    +0.000 N 
ATOM      6  C   UNL     1     -12.520  55.967  49.584  0.00  0.00    +0.000 A 
ATOM      7  C   UNL     1     -12.174  55.512  50.866  0.00  0.00    +0.000 A 
ATOM      8  C   UNL     1     -13.488  56.978  49.448  0.00  0.00    +0.000 A 
ATOM      9  C   UNL     1     -12.773  56.120  51.976  0.00  0.00    +0.000 A 
ATOM     10  C   UNL     1     -14.095  57.557  50.564  0.00  0.00    +0.000 A 
ATOM     11  C   UNL     1     -13.729  57.123  51.829  0.00  0.00    +0.000 A 
ENDROOT
BRANCH   1  17
ATOM     12  S   UNL     1      -8.017  53.954  45.919  0.00  0.00    +0.000 S 
ATOM     13  O   UNL     1      -6.984  53.043  46.372  0.00  0.00    +0.000 OA
ATOM     14  O   UNL     1      -7.665  55.162  45.200  0.00  0.00    +0.000 OA
ATOM     15  N   UNL     1      -8.898  54.382  47.212  0.00  0.00    +0.000 N 
ATOM     16  C   UNL     1      -9.042  53.030  44.835  0.00  0.00    +0.000 A 
ATOM     17  C   UNL     1     -10.117  53.955  47.358  0.00  0.00    +0.000 C 
ATOM     18  C   UNL     1     -10.321  52.715  45.259  0.00  0.00    +0.000 A 
ATOM     19  C   UNL     1      -8.563  52.644  43.578  0.00  0.00    +0.000 A 
ATOM     20  N   UNL     1     -10.776  53.082  46.524  0.00  0.00    +0.000 N 
ATOM     21  C   UNL     1     -11.126  51.941  44.420  0.00  0.00    +0.000 A 
ATOM     22  C   UNL     1      -9.388  51.900  42.741  0.00  0.00    +0.000 A 
ATOM     23  C   UNL     1     -10.666  51.541  43.163  0.00  0.00    +0.000 A 
ATOM     24  H   UNL     1      -8.504  54.972  47.894  0.00  0.00    +0.000 HD
ATOM     25  H   UNL     1     -11.623  52.694  46.840  0.00  0.00    +0.000 HD
ENDBRANCH   1  17
BRANCH   3  26
ATOM     26  O   UNL     1     -12.253  55.925  47.188  0.00  0.00    +0.000 OA
ATOM     27  H   UNL     1     -13.166  56.001  46.992  0.00  0.00    +0.000 HD
ENDBRANCH   3  26
BRANCH  10  28
ATOM     28  O   UNL     1     -15.010  58.534  50.292  0.00  0.00    +0.000 OA
ATOM     29  C   UNL     1     -14.524  59.871  50.304  0.00  0.00    +0.000 C 
ENDBRANCH  10  28
BRANCH   5  30
ATOM     30  C   UNL     1     -10.834  53.963  52.336  0.00  0.00    +0.000 C 
BRANCH  30  31
ATOM     31  C   UNL     1      -9.916  54.870  53.173  0.00  0.00    +0.000 C 
BRANCH  31  32
ATOM     32  C   UNL     1      -8.417  54.533  53.164  0.00  0.00    +0.000 C 
ATOM     33  C   UNL     1      -7.634  55.345  54.192  0.00  0.00    +0.000 C 
ATOM     34  C   UNL     1      -8.257  53.034  53.448  0.00  0.00    +0.000 C 
ENDBRANCH  31  32
ENDBRANCH  30  31
ENDBRANCH   5  30
TORSDOF 6
ENDMDL
MODEL 7
REMARK VINA RESULT:      -7.5      4.038      5.949
REMARK  Name = 338160
REMARK  9 active torsions:
REMARK  status: ('A' for Active; 'I' for Inactive)
REMARK    1  A    between atoms: C_6  and  C_10
REMARK    2  A    between atoms: C_14  and  O_18
REMARK    3  A    between atoms: N_17  and  C_21
REMARK    4  A    between atoms: C_21  and  C_24
REMARK    5  A    between atoms: C_24  and  C_27
REMARK    6  A    between atoms: C_25  and  O_28
REMARK    7  A    between atoms: C_27  and  C_29
REMARK    8  A    between atoms: C_27  and  C_30
REMARK    9  A    between atoms: O_28  and  C_31
REMARK                            x       y       z     vdW  Elec       q    Type
REMARK                         _______ _______ _______ _____ _____    ______ ____
ROOT
ATOM      1  C   UNL     1     -10.762  55.690  48.401  0.00  0.00    +0.000 A 
ATOM      2  C   UNL     1      -9.350  55.525  48.868  0.00  0.00    +0.000 A 
ATOM      3  C   UNL     1     -11.145  55.195  47.212  0.00  0.00    +0.000 A 
ATOM      4  O   UNL     1      -9.070  55.874  50.019  0.00  0.00    +0.000 OA
ATOM      5  N   UNL     1      -8.424  54.965  48.001  0.00  0.00    +0.000 N 
ATOM      6  C   UNL     1     -10.180  54.484  46.362  0.00  0.00    +0.000 A 
ATOM      7  C   UNL     1      -8.844  54.361  46.777  0.00  0.00    +0.000 A 
ATOM      8  C   UNL     1     -10.583  53.900  45.147  0.00  0.00    +0.000 A 
ATOM      9  C   UNL     1      -7.964  53.611  45.986  0.00  0.00    +0.000 A 
ATOM     10  C   UNL     1      -9.687  53.177  44.358  0.00  0.00    +0.000 A 
ATOM     11  C   UNL     1      -8.376  53.034  44.787  0.00  0.00    +0.000 A 
ENDROOT
BRANCH   1  17
ATOM     12  S   UNL     1     -13.327  56.210  51.324  0.00  0.00    +0.000 S 
ATOM     13  O   UNL     1     -12.695  56.477  52.601  0.00  0.00    +0.000 OA
ATOM     14  O   UNL     1     -14.475  55.328  51.246  0.00  0.00    +0.000 OA
ATOM     15  N   UNL     1     -12.190  55.639  50.320  0.00  0.00    +0.000 N 
ATOM     16  C   UNL     1     -13.871  57.763  50.714  0.00  0.00    +0.000 A 
ATOM     17  C   UNL     1     -11.758  56.356  49.326  0.00  0.00    +0.000 C 
ATOM     18  C   UNL     1     -13.216  58.297  49.618  0.00  0.00    +0.000 A 
ATOM     19  C   UNL     1     -14.946  58.419  51.327  0.00  0.00    +0.000 A 
ATOM     20  N   UNL     1     -12.131  57.647  49.035  0.00  0.00    +0.000 N 
ATOM     21  C   UNL     1     -13.614  59.553  49.155  0.00  0.00    +0.000 A 
ATOM     22  C   UNL     1     -15.349  59.655  50.835  0.00  0.00    +0.000 A 
ATOM     23  C   UNL     1     -14.681  60.228  49.755  0.00  0.00    +0.000 A 
ATOM     24  H   UNL     1     -11.822  54.738  50.466  0.00  0.00    +0.000 HD
ATOM     25  H   UNL     1     -11.599  58.142  48.371  0.00  0.00    +0.000 HD
ENDBRANCH   1  17
BRANCH   3  26
ATOM     26  O   UNL     1     -12.436  55.256  46.718  0.00  0.00    +0.000 OA
ATOM     27  H   UNL     1     -12.815  56.083  46.495  0.00  0.00    +0.000 HD
ENDBRANCH   3  26
BRANCH  10  28
ATOM     28  O   UNL     1     -10.209  52.653  43.209  0.00  0.00    +0.000 OA
ATOM     29  C   UNL     1      -9.961  51.271  42.979  0.00  0.00    +0.000 C 
ENDBRANCH  10  28
BRANCH   5  30
ATOM     30  C   UNL     1      -7.032  54.871  48.454  0.00  0.00    +0.000 C 
BRANCH  30  31
ATOM     31  C   UNL     1      -6.699  53.667  49.350  0.00  0.00    +0.000 C 
BRANCH  31  32
ATOM     32  C   UNL     1      -5.251  53.155  49.309  0.00  0.00    +0.000 C 
ATOM     33  C   UNL     1      -4.557  53.480  47.990  0.00  0.00    +0.000 C 
ATOM     34  C   UNL     1      -4.482  53.787  50.476  0.00  0.00    +0.000 C 
ENDBRANCH  31  32
ENDBRANCH  30  31
ENDBRANCH   5  30
TORSDOF 6
ENDMDL
MODEL 8
REMARK VINA RESULT:      -7.5      3.562      7.726
REMARK  Name = 338160
REMARK  9 active torsions:
REMARK  status: ('A' for Active; 'I' for Inactive)
REMARK    1  A    between atoms: C_6  and  C_10
REMARK    2  A    between atoms: C_14  and  O_18
REMARK    3  A    between atoms: N_17  and  C_21
REMARK    4  A    between atoms: C_21  and  C_24
REMARK    5  A    between atoms: C_24  and  C_27
REMARK    6  A    between atoms: C_25  and  O_28
REMARK    7  A    between atoms: C_27  and  C_29
REMARK    8  A    between atoms: C_27  and  C_30
REMARK    9  A    between atoms: O_28  and  C_31
REMARK                            x       y       z     vdW  Elec       q    Type
REMARK                         _______ _______ _______ _____ _____    ______ ____
ROOT
ATOM      1  C   UNL     1     -10.202  54.754  50.357  0.00  0.00    +0.000 A 
ATOM      2  C   UNL     1     -10.143  54.690  48.863  0.00  0.00    +0.000 A 
ATOM      3  C   UNL     1     -11.224  55.374  50.969  0.00  0.00    +0.000 A 
ATOM      4  O   UNL     1      -9.263  53.998  48.342  0.00  0.00    +0.000 OA
ATOM      5  N   UNL     1     -11.092  55.386  48.129  0.00  0.00    +0.000 N 
ATOM      6  C   UNL     1     -12.295  55.993  50.175  0.00  0.00    +0.000 A 
ATOM      7  C   UNL     1     -12.225  55.971  48.773  0.00  0.00    +0.000 A 
ATOM      8  C   UNL     1     -13.407  56.584  50.802  0.00  0.00    +0.000 A 
ATOM      9  C   UNL     1     -13.297  56.496  48.041  0.00  0.00    +0.000 A 
ATOM     10  C   UNL     1     -14.455  57.127  50.057  0.00  0.00    +0.000 A 
ATOM     11  C   UNL     1     -14.395  57.077  48.673  0.00  0.00    +0.000 A 
ENDROOT
BRANCH   1  17
ATOM     12  S   UNL     1      -7.938  51.884  51.784  0.00  0.00    +0.000 S 
ATOM     13  O   UNL     1      -6.838  51.532  50.907  0.00  0.00    +0.000 OA
ATOM     14  O   UNL     1      -8.685  50.849  52.472  0.00  0.00    +0.000 OA
ATOM     15  N   UNL     1      -8.988  52.771  50.925  0.00  0.00    +0.000 N 
ATOM     16  C   UNL     1      -7.255  52.901  53.040  0.00  0.00    +0.000 A 
ATOM     17  C   UNL     1      -9.130  54.043  51.155  0.00  0.00    +0.000 C 
ATOM     18  C   UNL     1      -7.590  54.244  53.044  0.00  0.00    +0.000 A 
ATOM     19  C   UNL     1      -6.410  52.346  54.008  0.00  0.00    +0.000 A 
ATOM     20  N   UNL     1      -8.411  54.789  52.059  0.00  0.00    +0.000 N 
ATOM     21  C   UNL     1      -7.014  55.068  54.014  0.00  0.00    +0.000 A 
ATOM     22  C   UNL     1      -5.869  53.175  54.986  0.00  0.00    +0.000 A 
ATOM     23  C   UNL     1      -6.163  54.536  54.987  0.00  0.00    +0.000 A 
ATOM     24  H   UNL     1      -9.525  52.342  50.221  0.00  0.00    +0.000 HD
ATOM     25  H   UNL     1      -8.483  55.769  52.008  0.00  0.00    +0.000 HD
ENDBRANCH   1  17
BRANCH   3  26
ATOM     26  O   UNL     1     -11.390  55.443  52.341  0.00  0.00    +0.000 OA
ATOM     27  H   UNL     1     -12.055  54.933  52.759  0.00  0.00    +0.000 HD
ENDBRANCH   3  26
BRANCH  10  28
ATOM     28  O   UNL     1     -15.478  57.661  50.789  0.00  0.00    +0.000 OA
ATOM     29  C   UNL     1     -15.567  57.241  52.146  0.00  0.00    +0.000 C 
ENDBRANCH  10  28
BRANCH   5  30
ATOM     30  C   UNL     1     -10.979  55.363  46.668  0.00  0.00    +0.000 C 
BRANCH  30  31
ATOM     31  C   UNL     1     -11.723  54.222  45.955  0.00  0.00    +0.000 C 
BRANCH  31  32
ATOM     32  C   UNL     1     -10.997  53.550  44.780  0.00  0.00    +0.000 C 
ATOM     33  C   UNL     1      -9.481  53.557  44.955  0.00  0.00    +0.000 C 
ATOM     34  C   UNL     1     -11.504  52.107  44.661  0.00  0.00    +0.000 C 
ENDBRANCH  31  32
ENDBRANCH  30  31
ENDBRANCH   5  30
TORSDOF 6
ENDMDL
MODEL 9
REMARK VINA RESULT:      -7.4      3.362      8.201
REMARK  Name = 338160
REMARK  9 active torsions:
REMARK  status: ('A' for Active; 'I' for Inactive)
REMARK    1  A    between atoms: C_6  and  C_10
REMARK    2  A    between atoms: C_14  and  O_18
REMARK    3  A    between atoms: N_17  and  C_21
REMARK    4  A    between atoms: C_21  and  C_24
REMARK    5  A    between atoms: C_24  and  C_27
REMARK    6  A    between atoms: C_25  and  O_28
REMARK    7  A    between atoms: C_27  and  C_29
REMARK    8  A    between atoms: C_27  and  C_30
REMARK    9  A    between atoms: O_28  and  C_31
REMARK                            x       y       z     vdW  Elec       q    Type
REMARK                         _______ _______ _______ _____ _____    ______ ____
ROOT
ATOM      1  C   UNL     1      -9.696  54.080  50.967  0.00  0.00    +0.000 A 
ATOM      2  C   UNL     1     -10.761  55.101  51.212  0.00  0.00    +0.000 A 
ATOM      3  C   UNL     1      -9.456  53.636  49.722  0.00  0.00    +0.000 A 
ATOM      4  O   UNL     1     -10.862  55.581  52.346  0.00  0.00    +0.000 OA
ATOM      5  N   UNL     1     -11.571  55.485  50.154  0.00  0.00    +0.000 N 
ATOM      6  C   UNL     1     -10.235  54.155  48.590  0.00  0.00    +0.000 A 
ATOM      7  C   UNL     1     -11.263  55.084  48.818  0.00  0.00    +0.000 A 
ATOM      8  C   UNL     1      -9.948  53.753  47.273  0.00  0.00    +0.000 A 
ATOM      9  C   UNL     1     -11.937  55.621  47.714  0.00  0.00    +0.000 A 
ATOM     10  C   UNL     1     -10.647  54.279  46.185  0.00  0.00    +0.000 A 
ATOM     11  C   UNL     1     -11.641  55.218  46.414  0.00  0.00    +0.000 A 
ENDROOT
BRANCH   1  17
ATOM     12  S   UNL     1      -6.597  53.537  53.312  0.00  0.00    +0.000 S 
ATOM     13  O   UNL     1      -6.344  54.658  54.196  0.00  0.00    +0.000 OA
ATOM     14  O   UNL     1      -5.495  52.855  52.661  0.00  0.00    +0.000 OA
ATOM     15  N   UNL     1      -7.623  54.039  52.161  0.00  0.00    +0.000 N 
ATOM     16  C   UNL     1      -7.409  52.323  54.283  0.00  0.00    +0.000 A 
ATOM     17  C   UNL     1      -8.853  53.618  52.136  0.00  0.00    +0.000 C 
ATOM     18  C   UNL     1      -8.746  52.073  54.029  0.00  0.00    +0.000 A 
ATOM     19  C   UNL     1      -6.702  51.629  55.273  0.00  0.00    +0.000 A 
ATOM     20  N   UNL     1      -9.445  52.789  53.059  0.00  0.00    +0.000 N 
ATOM     21  C   UNL     1      -9.411  51.140  54.828  0.00  0.00    +0.000 A 
ATOM     22  C   UNL     1      -7.370  50.681  56.041  0.00  0.00    +0.000 A 
ATOM     23  C   UNL     1      -8.725  50.440  55.826  0.00  0.00    +0.000 A 
ATOM     24  H   UNL     1      -7.311  54.670  51.473  0.00  0.00    +0.000 HD
ATOM     25  H   UNL     1     -10.424  52.693  53.032  0.00  0.00    +0.000 HD
ENDBRANCH   1  17
BRANCH   3  26
ATOM     26  O   UNL     1      -8.462  52.731  49.392  0.00  0.00    +0.000 OA
ATOM     27  H   UNL     1      -8.125  52.704  48.518  0.00  0.00    +0.000 HD
ENDBRANCH   3  26
BRANCH  10  28
ATOM     28  O   UNL     1     -10.262  53.812  44.960  0.00  0.00    +0.000 OA
ATOM     29  C   UNL     1     -11.038  52.747  44.421  0.00  0.00    +0.000 C 
ENDBRANCH  10  28
BRANCH   5  30
ATOM     30  C   UNL     1     -12.650  56.440  50.429  0.00  0.00    +0.000 C 
BRANCH  30  31
ATOM     31  C   UNL     1     -13.879  55.871  51.156  0.00  0.00    +0.000 C 
BRANCH  31  32
ATOM     32  C   UNL     1     -14.761  56.876  51.913  0.00  0.00    +0.000 C 
ATOM     33  C   UNL     1     -14.001  57.593  53.024  0.00  0.00    +0.000 C 
ATOM     34  C   UNL     1     -15.304  57.897  50.905  0.00  0.00    +0.000 C 
ENDBRANCH  31  32
ENDBRANCH  30  31
ENDBRANCH   5  30
TORSDOF 6
ENDMDL
