MODEL 1
REMARK VINA RESULT:      -8.2      0.000      0.000
REMARK  Name = 338298
REMARK  5 active torsions:
REMARK  status: ('A' for Active; 'I' for Inactive)
REMARK    1  A    between atoms: C_6  and  C_10
REMARK    2  A    between atoms: C_14  and  O_18
REMARK    3  A    between atoms: N_17  and  C_21
REMARK    4  A    between atoms: C_21  and  C_24
REMARK    5  A    between atoms: C_24  and  C_27
REMARK                            x       y       z     vdW  Elec       q    Type
REMARK                         _______ _______ _______ _____ _____    ______ ____
ROOT
ATOM      1  C   UNL     1     -10.107  54.386  52.339  0.00  0.00    +0.000 A 
ATOM      2  C   UNL     1      -8.728  54.933  52.212  0.00  0.00    +0.000 A 
ATOM      3  C   UNL     1     -10.330  53.281  53.065  0.00  0.00    +0.000 A 
ATOM      4  O   UNL     1      -8.601  55.945  51.520  0.00  0.00    +0.000 OA
ATOM      5  N   UNL     1      -7.675  54.315  52.879  0.00  0.00    +0.000 N 
ATOM      6  C   UNL     1      -9.221  52.622  53.770  0.00  0.00    +0.000 A 
ATOM      7  C   UNL     1      -7.908  53.125  53.656  0.00  0.00    +0.000 A 
ATOM      8  C   UNL     1      -9.472  51.492  54.573  0.00  0.00    +0.000 A 
ATOM      9  C   UNL     1      -6.880  52.448  54.336  0.00  0.00    +0.000 A 
ATOM     10  C   UNL     1      -8.446  50.864  55.270  0.00  0.00    +0.000 A 
ATOM     11  C   UNL     1      -7.150  51.340  55.148  0.00  0.00    +0.000 A 
ENDROOT
BRANCH   1  17
ATOM     12  S   UNL     1     -12.352  56.017  49.551  0.00  0.00    +0.000 S 
ATOM     13  O   UNL     1     -13.221  55.065  48.884  0.00  0.00    +0.000 OA
ATOM     14  O   UNL     1     -11.661  57.037  48.788  0.00  0.00    +0.000 OA
ATOM     15  N   UNL     1     -11.236  55.169  50.369  0.00  0.00    +0.000 N 
ATOM     16  C   UNL     1     -13.359  56.874  50.705  0.00  0.00    +0.000 A 
ATOM     17  C   UNL     1     -11.244  55.135  51.668  0.00  0.00    +0.000 C 
ATOM     18  C   UNL     1     -13.140  56.641  52.051  0.00  0.00    +0.000 A 
ATOM     19  C   UNL     1     -14.333  57.770  50.258  0.00  0.00    +0.000 A 
ATOM     20  N   UNL     1     -12.184  55.728  52.484  0.00  0.00    +0.000 N 
ATOM     21  C   UNL     1     -13.972  57.282  52.976  0.00  0.00    +0.000 A 
ATOM     22  C   UNL     1     -15.133  58.426  51.189  0.00  0.00    +0.000 A 
ATOM     23  C   UNL     1     -14.958  58.176  52.551  0.00  0.00    +0.000 A 
ATOM     24  H   UNL     1     -10.544  54.673  49.875  0.00  0.00    +0.000 HD
ATOM     25  H   UNL     1     -12.177  55.488  53.439  0.00  0.00    +0.000 HD
ENDBRANCH   1  17
BRANCH   3  26
ATOM     26  O   UNL     1     -11.574  52.698  53.233  0.00  0.00    +0.000 OA
ATOM     27  H   UNL     1     -11.684  51.994  53.843  0.00  0.00    +0.000 HD
ENDBRANCH   3  26
BRANCH   5  28
ATOM     28  C   UNL     1      -6.298  54.812  52.649  0.00  0.00    +0.000 C 
BRANCH  28  29
ATOM     29  C   UNL     1      -5.516  54.153  51.498  0.00  0.00    +0.000 C 
BRANCH  29  30
ATOM     30  C   UNL     1      -5.537  54.951  50.225  0.00  0.00    +0.000 C 
ATOM     31  C   UNL     1      -6.397  54.598  49.041  0.00  0.00    +0.000 C 
ATOM     32  C   UNL     1      -4.918  54.338  48.994  0.00  0.00    +0.000 C 
ENDBRANCH  29  30
ENDBRANCH  28  29
ENDBRANCH   5  28
TORSDOF 5
ENDMDL
MODEL 2
REMARK VINA RESULT:      -8.0      2.597      7.805
REMARK  Name = 338298
REMARK  5 active torsions:
REMARK  status: ('A' for Active; 'I' for Inactive)
REMARK    1  A    between atoms: C_6  and  C_10
REMARK    2  A    between atoms: C_14  and  O_18
REMARK    3  A    between atoms: N_17  and  C_21
REMARK    4  A    between atoms: C_21  and  C_24
REMARK    5  A    between atoms: C_24  and  C_27
REMARK                            x       y       z     vdW  Elec       q    Type
REMARK                         _______ _______ _______ _____ _____    ______ ____
ROOT
ATOM      1  C   UNL     1     -10.023  54.792  50.887  0.00  0.00    +0.000 A 
ATOM      2  C   UNL     1     -11.351  55.309  51.316  0.00  0.00    +0.000 A 
ATOM      3  C   UNL     1      -9.718  54.716  49.583  0.00  0.00    +0.000 A 
ATOM      4  O   UNL     1     -11.562  55.338  52.531  0.00  0.00    +0.000 OA
ATOM      5  N   UNL     1     -12.263  55.749  50.363  0.00  0.00    +0.000 N 
ATOM      6  C   UNL     1     -10.678  55.178  48.571  0.00  0.00    +0.000 A 
ATOM      7  C   UNL     1     -11.943  55.666  48.961  0.00  0.00    +0.000 A 
ATOM      8  C   UNL     1     -10.330  55.144  47.206  0.00  0.00    +0.000 A 
ATOM      9  C   UNL     1     -12.832  56.078  47.953  0.00  0.00    +0.000 A 
ATOM     10  C   UNL     1     -11.209  55.597  46.229  0.00  0.00    +0.000 A 
ATOM     11  C   UNL     1     -12.462  56.060  46.602  0.00  0.00    +0.000 A 
ENDROOT
BRANCH   1  17
ATOM     12  S   UNL     1      -6.743  54.702  53.056  0.00  0.00    +0.000 S 
ATOM     13  O   UNL     1      -6.692  55.747  54.063  0.00  0.00    +0.000 OA
ATOM     14  O   UNL     1      -5.560  54.369  52.287  0.00  0.00    +0.000 OA
ATOM     15  N   UNL     1      -7.921  55.091  52.009  0.00  0.00    +0.000 N 
ATOM     16  C   UNL     1      -7.205  53.234  53.898  0.00  0.00    +0.000 A 
ATOM     17  C   UNL     1      -9.021  54.401  51.959  0.00  0.00    +0.000 C 
ATOM     18  C   UNL     1      -8.460  52.711  53.644  0.00  0.00    +0.000 A 
ATOM     19  C   UNL     1      -6.312  52.620  54.780  0.00  0.00    +0.000 A 
ATOM     20  N   UNL     1      -9.350  53.345  52.782  0.00  0.00    +0.000 N 
ATOM     21  C   UNL     1      -8.855  51.568  54.348  0.00  0.00    +0.000 A 
ATOM     22  C   UNL     1      -6.705  51.466  55.451  0.00  0.00    +0.000 A 
ATOM     23  C   UNL     1      -7.982  50.943  55.242  0.00  0.00    +0.000 A 
ATOM     24  H   UNL     1      -7.801  55.859  51.405  0.00  0.00    +0.000 HD
ATOM     25  H   UNL     1     -10.278  53.017  52.758  0.00  0.00    +0.000 HD
ENDBRANCH   1  17
BRANCH   3  26
ATOM     26  O   UNL     1      -8.513  54.244  49.092  0.00  0.00    +0.000 OA
ATOM     27  H   UNL     1      -8.330  54.293  48.174  0.00  0.00    +0.000 HD
ENDBRANCH   3  26
BRANCH   5  28
ATOM     28  C   UNL     1     -13.617  56.156  50.807  0.00  0.00    +0.000 C 
BRANCH  28  29
ATOM     29  C   UNL     1     -13.844  57.665  51.015  0.00  0.00    +0.000 C 
BRANCH  29  30
ATOM     30  C   UNL     1     -14.081  58.044  52.450  0.00  0.00    +0.000 C 
ATOM     31  C   UNL     1     -15.349  57.720  53.193  0.00  0.00    +0.000 C 
ATOM     32  C   UNL     1     -15.087  59.129  52.740  0.00  0.00    +0.000 C 
ENDBRANCH  29  30
ENDBRANCH  28  29
ENDBRANCH   5  28
TORSDOF 5
ENDMDL
MODEL 3
REMARK VINA RESULT:      -8.0      3.184      7.129
REMARK  Name = 338298
REMARK  5 active torsions:
REMARK  status: ('A' for Active; 'I' for Inactive)
REMARK    1  A    between atoms: C_6  and  C_10
REMARK    2  A    between atoms: C_14  and  O_18
REMARK    3  A    between atoms: N_17  and  C_21
REMARK    4  A    between atoms: C_21  and  C_24
REMARK    5  A    between atoms: C_24  and  C_27
REMARK                            x       y       z     vdW  Elec       q    Type
REMARK                         _______ _______ _______ _____ _____    ______ ____
ROOT
ATOM      1  C   UNL     1     -10.229  55.209  50.844  0.00  0.00    +0.000 A 
ATOM      2  C   UNL     1      -9.771  55.181  49.428  0.00  0.00    +0.000 A 
ATOM      3  C   UNL     1     -11.456  55.655  51.148  0.00  0.00    +0.000 A 
ATOM      4  O   UNL     1      -8.626  54.767  49.230  0.00  0.00    +0.000 OA
ATOM      5  N   UNL     1     -10.633  55.585  48.415  0.00  0.00    +0.000 N 
ATOM      6  C   UNL     1     -12.372  56.086  50.081  0.00  0.00    +0.000 A 
ATOM      7  C   UNL     1     -11.951  56.070  48.735  0.00  0.00    +0.000 A 
ATOM      8  C   UNL     1     -13.678  56.504  50.403  0.00  0.00    +0.000 A 
ATOM      9  C   UNL     1     -12.859  56.509  47.754  0.00  0.00    +0.000 A 
ATOM     10  C   UNL     1     -14.572  56.893  49.413  0.00  0.00    +0.000 A 
ATOM     11  C   UNL     1     -14.161  56.900  48.089  0.00  0.00    +0.000 A 
ENDROOT
BRANCH   1  17
ATOM     12  S   UNL     1      -7.044  54.763  53.110  0.00  0.00    +0.000 S 
ATOM     13  O   UNL     1      -6.976  55.722  54.199  0.00  0.00    +0.000 OA
ATOM     14  O   UNL     1      -5.853  54.423  52.358  0.00  0.00    +0.000 OA
ATOM     15  N   UNL     1      -8.158  55.299  52.059  0.00  0.00    +0.000 N 
ATOM     16  C   UNL     1      -7.618  53.262  53.816  0.00  0.00    +0.000 A 
ATOM     17  C   UNL     1      -9.291  54.680  51.915  0.00  0.00    +0.000 C 
ATOM     18  C   UNL     1      -8.889  52.834  53.477  0.00  0.00    +0.000 A 
ATOM     19  C   UNL     1      -6.795  52.531  54.676  0.00  0.00    +0.000 A 
ATOM     20  N   UNL     1      -9.709  53.583  52.639  0.00  0.00    +0.000 N 
ATOM     21  C   UNL     1      -9.373  51.664  54.074  0.00  0.00    +0.000 A 
ATOM     22  C   UNL     1      -7.275  51.352  55.238  0.00  0.00    +0.000 A 
ATOM     23  C   UNL     1      -8.570  50.921  54.945  0.00  0.00    +0.000 A 
ATOM     24  H   UNL     1      -7.974  56.104  51.522  0.00  0.00    +0.000 HD
ATOM     25  H   UNL     1     -10.652  53.311  52.557  0.00  0.00    +0.000 HD
ENDBRANCH   1  17
BRANCH   3  26
ATOM     26  O   UNL     1     -11.964  55.723  52.434  0.00  0.00    +0.000 OA
ATOM     27  H   UNL     1     -12.784  55.318  52.636  0.00  0.00    +0.000 HD
ENDBRANCH   3  26
BRANCH   5  28
ATOM     28  C   UNL     1     -10.118  55.652  47.027  0.00  0.00    +0.000 C 
BRANCH  28  29
ATOM     29  C   UNL     1     -10.021  54.316  46.267  0.00  0.00    +0.000 C 
BRANCH  29  30
ATOM     30  C   UNL     1     -11.235  54.009  45.436  0.00  0.00    +0.000 C 
ATOM     31  C   UNL     1     -11.987  52.708  45.517  0.00  0.00    +0.000 C 
ATOM     32  C   UNL     1     -11.100  52.986  44.337  0.00  0.00    +0.000 C 
ENDBRANCH  29  30
ENDBRANCH  28  29
ENDBRANCH   5  28
TORSDOF 5
ENDMDL
MODEL 4
REMARK VINA RESULT:      -7.9      2.195      3.114
REMARK  Name = 338298
REMARK  5 active torsions:
REMARK  status: ('A' for Active; 'I' for Inactive)
REMARK    1  A    between atoms: C_6  and  C_10
REMARK    2  A    between atoms: C_14  and  O_18
REMARK    3  A    between atoms: N_17  and  C_21
REMARK    4  A    between atoms: C_21  and  C_24
REMARK    5  A    between atoms: C_24  and  C_27
REMARK                            x       y       z     vdW  Elec       q    Type
REMARK                         _______ _______ _______ _____ _____    ______ ____
ROOT
ATOM      1  C   UNL     1     -11.666  53.998  51.091  0.00  0.00    +0.000 A 
ATOM      2  C   UNL     1     -10.754  54.019  52.268  0.00  0.00    +0.000 A 
ATOM      3  C   UNL     1     -11.745  52.906  50.317  0.00  0.00    +0.000 A 
ATOM      4  O   UNL     1     -10.730  55.062  52.925  0.00  0.00    +0.000 OA
ATOM      5  N   UNL     1     -10.009  52.888  52.584  0.00  0.00    +0.000 N 
ATOM      6  C   UNL     1     -10.957  51.709  50.645  0.00  0.00    +0.000 A 
ATOM      7  C   UNL     1     -10.084  51.714  51.753  0.00  0.00    +0.000 A 
ATOM      8  C   UNL     1     -11.084  50.548  49.857  0.00  0.00    +0.000 A 
ATOM      9  C   UNL     1      -9.341  50.550  52.013  0.00  0.00    +0.000 A 
ATOM     10  C   UNL     1     -10.370  49.394  50.159  0.00  0.00    +0.000 A 
ATOM     11  C   UNL     1      -9.495  49.397  51.234  0.00  0.00    +0.000 A 
ENDROOT
BRANCH   1  17
ATOM     12  S   UNL     1     -13.319  57.057  49.250  0.00  0.00    +0.000 S 
ATOM     13  O   UNL     1     -14.428  56.679  48.392  0.00  0.00    +0.000 OA
ATOM     14  O   UNL     1     -12.354  58.044  48.807  0.00  0.00    +0.000 OA
ATOM     15  N   UNL     1     -12.506  55.702  49.620  0.00  0.00    +0.000 N 
ATOM     16  C   UNL     1     -14.033  57.700  50.718  0.00  0.00    +0.000 A 
ATOM     17  C   UNL     1     -12.529  55.220  50.827  0.00  0.00    +0.000 C 
ATOM     18  C   UNL     1     -13.898  56.960  51.880  0.00  0.00    +0.000 A 
ATOM     19  C   UNL     1     -14.697  58.929  50.697  0.00  0.00    +0.000 A 
ATOM     20  N   UNL     1     -13.256  55.726  51.884  0.00  0.00    +0.000 N 
ATOM     21  C   UNL     1     -14.507  57.441  53.044  0.00  0.00    +0.000 A 
ATOM     22  C   UNL     1     -15.271  59.412  51.868  0.00  0.00    +0.000 A 
ATOM     23  C   UNL     1     -15.185  58.664  53.043  0.00  0.00    +0.000 A 
ATOM     24  H   UNL     1     -11.989  55.239  48.922  0.00  0.00    +0.000 HD
ATOM     25  H   UNL     1     -13.324  55.176  52.698  0.00  0.00    +0.000 HD
ENDBRANCH   1  17
BRANCH   3  26
ATOM     26  O   UNL     1     -12.558  52.799  49.202  0.00  0.00    +0.000 OA
ATOM     27  H   UNL     1     -12.398  52.127  48.568  0.00  0.00    +0.000 HD
ENDBRANCH   3  26
BRANCH   5  28
ATOM     28  C   UNL     1      -9.028  52.970  53.692  0.00  0.00    +0.000 C 
BRANCH  28  29
ATOM     29  C   UNL     1      -7.643  53.543  53.339  0.00  0.00    +0.000 C 
BRANCH  29  30
ATOM     30  C   UNL     1      -7.270  54.752  54.150  0.00  0.00    +0.000 C 
ATOM     31  C   UNL     1      -6.976  56.097  53.544  0.00  0.00    +0.000 C 
ATOM     32  C   UNL     1      -5.850  55.251  54.066  0.00  0.00    +0.000 C 
ENDBRANCH  29  30
ENDBRANCH  28  29
ENDBRANCH   5  28
TORSDOF 5
ENDMDL
MODEL 5
REMARK VINA RESULT:      -7.8      3.584      4.582
REMARK  Name = 338298
REMARK  5 active torsions:
REMARK  status: ('A' for Active; 'I' for Inactive)
REMARK    1  A    between atoms: C_6  and  C_10
REMARK    2  A    between atoms: C_14  and  O_18
REMARK    3  A    between atoms: N_17  and  C_21
REMARK    4  A    between atoms: C_21  and  C_24
REMARK    5  A    between atoms: C_24  and  C_27
REMARK                            x       y       z     vdW  Elec       q    Type
REMARK                         _______ _______ _______ _____ _____    ______ ____
ROOT
ATOM      1  C   UNL     1     -12.429  54.306  49.722  0.00  0.00    +0.000 A 
ATOM      2  C   UNL     1     -12.064  54.179  48.284  0.00  0.00    +0.000 A 
ATOM      3  C   UNL     1     -11.999  53.397  50.610  0.00  0.00    +0.000 A 
ATOM      4  O   UNL     1     -12.505  55.047  47.528  0.00  0.00    +0.000 OA
ATOM      5  N   UNL     1     -11.245  53.134  47.869  0.00  0.00    +0.000 N 
ATOM      6  C   UNL     1     -11.135  52.290  50.176  0.00  0.00    +0.000 A 
ATOM      7  C   UNL     1     -10.785  52.153  48.816  0.00  0.00    +0.000 A 
ATOM      8  C   UNL     1     -10.646  51.369  51.123  0.00  0.00    +0.000 A 
ATOM      9  C   UNL     1      -9.972  51.066  48.451  0.00  0.00    +0.000 A 
ATOM     10  C   UNL     1      -9.808  50.327  50.745  0.00  0.00    +0.000 A 
ATOM     11  C   UNL     1      -9.474  50.173  49.408  0.00  0.00    +0.000 A 
ENDROOT
BRANCH   1  17
ATOM     12  S   UNL     1     -15.356  56.463  51.223  0.00  0.00    +0.000 S 
ATOM     13  O   UNL     1     -15.293  56.589  52.668  0.00  0.00    +0.000 OA
ATOM     14  O   UNL     1     -16.626  56.238  50.563  0.00  0.00    +0.000 OA
ATOM     15  N   UNL     1     -14.355  55.259  50.795  0.00  0.00    +0.000 N 
ATOM     16  C   UNL     1     -14.730  57.969  50.574  0.00  0.00    +0.000 A 
ATOM     17  C   UNL     1     -13.252  55.507  50.153  0.00  0.00    +0.000 C 
ATOM     18  C   UNL     1     -13.509  57.934  49.924  0.00  0.00    +0.000 A 
ATOM     19  C   UNL     1     -15.466  59.149  50.705  0.00  0.00    +0.000 A 
ATOM     20  N   UNL     1     -12.774  56.757  49.822  0.00  0.00    +0.000 N 
ATOM     21  C   UNL     1     -12.980  59.139  49.447  0.00  0.00    +0.000 A 
ATOM     22  C   UNL     1     -14.944  60.335  50.198  0.00  0.00    +0.000 A 
ATOM     23  C   UNL     1     -13.695  60.333  49.576  0.00  0.00    +0.000 A 
ATOM     24  H   UNL     1     -14.585  54.330  51.024  0.00  0.00    +0.000 HD
ATOM     25  H   UNL     1     -11.850  56.821  49.489  0.00  0.00    +0.000 HD
ENDBRANCH   1  17
BRANCH   3  26
ATOM     26  O   UNL     1     -12.293  53.431  51.962  0.00  0.00    +0.000 OA
ATOM     27  H   UNL     1     -11.654  53.152  52.588  0.00  0.00    +0.000 HD
ENDBRANCH   3  26
BRANCH   5  28
ATOM     28  C   UNL     1     -10.987  52.966  46.419  0.00  0.00    +0.000 C 
BRANCH  28  29
ATOM     29  C   UNL     1     -10.108  54.041  45.751  0.00  0.00    +0.000 C 
BRANCH  29  30
ATOM     30  C   UNL     1      -8.699  53.587  45.492  0.00  0.00    +0.000 C 
ATOM     31  C   UNL     1      -7.684  53.376  46.582  0.00  0.00    +0.000 C 
ATOM     32  C   UNL     1      -7.586  54.583  45.694  0.00  0.00    +0.000 C 
ENDBRANCH  29  30
ENDBRANCH  28  29
ENDBRANCH   5  28
TORSDOF 5
ENDMDL
MODEL 6
REMARK VINA RESULT:      -7.6      2.908      4.964
REMARK  Name = 338298
REMARK  5 active torsions:
REMARK  status: ('A' for Active; 'I' for Inactive)
REMARK    1  A    between atoms: C_6  and  C_10
REMARK    2  A    between atoms: C_14  and  O_18
REMARK    3  A    between atoms: N_17  and  C_21
REMARK    4  A    between atoms: C_21  and  C_24
REMARK    5  A    between atoms: C_24  and  C_27
REMARK                            x       y       z     vdW  Elec       q    Type
REMARK                         _______ _______ _______ _____ _____    ______ ____
ROOT
ATOM      1  C   UNL     1     -11.474  55.869  48.839  0.00  0.00    +0.000 A 
ATOM      2  C   UNL     1     -10.474  55.238  49.742  0.00  0.00    +0.000 A 
ATOM      3  C   UNL     1     -11.522  55.529  47.542  0.00  0.00    +0.000 A 
ATOM      4  O   UNL     1     -10.485  55.610  50.918  0.00  0.00    +0.000 OA
ATOM      5  N   UNL     1      -9.610  54.267  49.247  0.00  0.00    +0.000 N 
ATOM      6  C   UNL     1     -10.610  54.505  47.012  0.00  0.00    +0.000 A 
ATOM      7  C   UNL     1      -9.652  53.902  47.855  0.00  0.00    +0.000 A 
ATOM      8  C   UNL     1     -10.700  54.116  45.661  0.00  0.00    +0.000 A 
ATOM      9  C   UNL     1      -8.792  52.941  47.294  0.00  0.00    +0.000 A 
ATOM     10  C   UNL     1      -9.867  53.133  45.140  0.00  0.00    +0.000 A 
ATOM     11  C   UNL     1      -8.910  52.549  45.955  0.00  0.00    +0.000 A 
ENDROOT
BRANCH   1  17
ATOM     12  S   UNL     1     -13.528  59.172  49.428  0.00  0.00    +0.000 S 
ATOM     13  O   UNL     1     -14.665  59.307  48.535  0.00  0.00    +0.000 OA
ATOM     14  O   UNL     1     -12.692  60.317  49.726  0.00  0.00    +0.000 OA
ATOM     15  N   UNL     1     -12.574  58.004  48.827  0.00  0.00    +0.000 N 
ATOM     16  C   UNL     1     -14.175  58.629  50.966  0.00  0.00    +0.000 A 
ATOM     17  C   UNL     1     -12.458  56.861  49.433  0.00  0.00    +0.000 C 
ATOM     18  C   UNL     1     -13.884  57.338  51.370  0.00  0.00    +0.000 A 
ATOM     19  C   UNL     1     -14.943  59.494  51.749  0.00  0.00    +0.000 A 
ATOM     20  N   UNL     1     -13.139  56.478  50.570  0.00  0.00    +0.000 N 
ATOM     21  C   UNL     1     -14.437  56.881  52.571  0.00  0.00    +0.000 A 
ATOM     22  C   UNL     1     -15.461  59.039  52.957  0.00  0.00    +0.000 A 
ATOM     23  C   UNL     1     -15.216  57.727  53.366  0.00  0.00    +0.000 A 
ATOM     24  H   UNL     1     -12.076  58.164  47.993  0.00  0.00    +0.000 HD
ATOM     25  H   UNL     1     -13.094  55.530  50.833  0.00  0.00    +0.000 HD
ENDBRANCH   1  17
BRANCH   3  26
ATOM     26  O   UNL     1     -12.412  56.066  46.628  0.00  0.00    +0.000 OA
ATOM     27  H   UNL     1     -13.291  56.258  46.888  0.00  0.00    +0.000 HD
ENDBRANCH   3  26
BRANCH   5  28
ATOM     28  C   UNL     1      -8.552  53.735  50.137  0.00  0.00    +0.000 C 
BRANCH  28  29
ATOM     29  C   UNL     1      -7.318  54.632  50.347  0.00  0.00    +0.000 C 
BRANCH  29  30
ATOM     30  C   UNL     1      -6.885  54.732  51.782  0.00  0.00    +0.000 C 
ATOM     31  C   UNL     1      -7.840  54.648  52.942  0.00  0.00    +0.000 C 
ATOM     32  C   UNL     1      -7.255  55.975  52.550  0.00  0.00    +0.000 C 
ENDBRANCH  29  30
ENDBRANCH  28  29
ENDBRANCH   5  28
TORSDOF 5
ENDMDL
MODEL 7
REMARK VINA RESULT:      -7.6      2.245      2.540
REMARK  Name = 338298
REMARK  5 active torsions:
REMARK  status: ('A' for Active; 'I' for Inactive)
REMARK    1  A    between atoms: C_6  and  C_10
REMARK    2  A    between atoms: C_14  and  O_18
REMARK    3  A    between atoms: N_17  and  C_21
REMARK    4  A    between atoms: C_21  and  C_24
REMARK    5  A    between atoms: C_24  and  C_27
REMARK                            x       y       z     vdW  Elec       q    Type
REMARK                         _______ _______ _______ _____ _____    ______ ____
ROOT
ATOM      1  C   UNL     1     -11.235  54.479  50.697  0.00  0.00    +0.000 A 
ATOM      2  C   UNL     1      -9.869  54.833  50.224  0.00  0.00    +0.000 A 
ATOM      3  C   UNL     1     -11.479  53.262  51.205  0.00  0.00    +0.000 A 
ATOM      4  O   UNL     1      -9.726  55.967  49.760  0.00  0.00    +0.000 OA
ATOM      5  N   UNL     1      -8.836  53.909  50.342  0.00  0.00    +0.000 N 
ATOM      6  C   UNL     1     -10.392  52.281  51.330  0.00  0.00    +0.000 A 
ATOM      7  C   UNL     1      -9.093  52.599  50.881  0.00  0.00    +0.000 A 
ATOM      8  C   UNL     1     -10.644  51.023  51.912  0.00  0.00    +0.000 A 
ATOM      9  C   UNL     1      -8.092  51.620  51.007  0.00  0.00    +0.000 A 
ATOM     10  C   UNL     1      -9.629  50.086  52.065  0.00  0.00    +0.000 A 
ATOM     11  C   UNL     1      -8.354  50.383  51.609  0.00  0.00    +0.000 A 
ENDROOT
BRANCH   1  17
ATOM     12  S   UNL     1     -13.688  57.208  49.279  0.00  0.00    +0.000 S 
ATOM     13  O   UNL     1     -14.868  56.645  48.647  0.00  0.00    +0.000 OA
ATOM     14  O   UNL     1     -13.001  58.333  48.677  0.00  0.00    +0.000 OA
ATOM     15  N   UNL     1     -12.611  56.006  49.455  0.00  0.00    +0.000 N 
ATOM     16  C   UNL     1     -14.194  57.743  50.872  0.00  0.00    +0.000 A 
ATOM     17  C   UNL     1     -12.318  55.541  50.632  0.00  0.00    +0.000 C 
ATOM     18  C   UNL     1     -13.716  57.048  51.968  0.00  0.00    +0.000 A 
ATOM     19  C   UNL     1     -15.039  58.848  51.005  0.00  0.00    +0.000 A 
ATOM     20  N   UNL     1     -12.895  55.935  51.821  0.00  0.00    +0.000 N 
ATOM     21  C   UNL     1     -14.154  57.437  53.239  0.00  0.00    +0.000 A 
ATOM     22  C   UNL     1     -15.442  59.245  52.276  0.00  0.00    +0.000 A 
ATOM     23  C   UNL     1     -15.007  58.534  53.396  0.00  0.00    +0.000 A 
ATOM     24  H   UNL     1     -12.173  55.625  48.660  0.00  0.00    +0.000 HD
ATOM     25  H   UNL     1     -12.713  55.390  52.621  0.00  0.00    +0.000 HD
ENDBRANCH   1  17
BRANCH   3  26
ATOM     26  O   UNL     1     -12.717  52.843  51.663  0.00  0.00    +0.000 OA
ATOM     27  H   UNL     1     -13.434  52.763  51.067  0.00  0.00    +0.000 HD
ENDBRANCH   3  26
BRANCH   5  28
ATOM     28  C   UNL     1      -7.513  54.244  49.764  0.00  0.00    +0.000 C 
BRANCH  28  29
ATOM     29  C   UNL     1      -7.268  53.797  48.310  0.00  0.00    +0.000 C 
BRANCH  29  30
ATOM     30  C   UNL     1      -7.507  54.883  47.300  0.00  0.00    +0.000 C 
ATOM     31  C   UNL     1      -8.788  55.024  46.523  0.00  0.00    +0.000 C 
ATOM     32  C   UNL     1      -7.556  54.499  45.844  0.00  0.00    +0.000 C 
ENDBRANCH  29  30
ENDBRANCH  28  29
ENDBRANCH   5  28
TORSDOF 5
ENDMDL
MODEL 8
REMARK VINA RESULT:      -7.6      3.171      7.119
REMARK  Name = 338298
REMARK  5 active torsions:
REMARK  status: ('A' for Active; 'I' for Inactive)
REMARK    1  A    between atoms: C_6  and  C_10
REMARK    2  A    between atoms: C_14  and  O_18
REMARK    3  A    between atoms: N_17  and  C_21
REMARK    4  A    between atoms: C_21  and  C_24
REMARK    5  A    between atoms: C_24  and  C_27
REMARK                            x       y       z     vdW  Elec       q    Type
REMARK                         _______ _______ _______ _____ _____    ______ ____
ROOT
ATOM      1  C   UNL     1     -10.470  54.819  50.509  0.00  0.00    +0.000 A 
ATOM      2  C   UNL     1     -10.137  54.787  49.059  0.00  0.00    +0.000 A 
ATOM      3  C   UNL     1     -11.598  55.411  50.929  0.00  0.00    +0.000 A 
ATOM      4  O   UNL     1      -9.078  54.234  48.751  0.00  0.00    +0.000 OA
ATOM      5  N   UNL     1     -11.016  55.342  48.135  0.00  0.00    +0.000 N 
ATOM      6  C   UNL     1     -12.530  56.001  49.958  0.00  0.00    +0.000 A 
ATOM      7  C   UNL     1     -12.226  55.983  48.580  0.00  0.00    +0.000 A 
ATOM      8  C   UNL     1     -13.738  56.574  50.403  0.00  0.00    +0.000 A 
ATOM      9  C   UNL     1     -13.143  56.577  47.694  0.00  0.00    +0.000 A 
ATOM     10  C   UNL     1     -14.648  57.118  49.504  0.00  0.00    +0.000 A 
ATOM     11  C   UNL     1     -14.349  57.122  48.150  0.00  0.00    +0.000 A 
ENDROOT
BRANCH   1  17
ATOM     12  S   UNL     1      -8.962  52.125  52.946  0.00  0.00    +0.000 S 
ATOM     13  O   UNL     1      -8.272  51.049  52.256  0.00  0.00    +0.000 OA
ATOM     14  O   UNL     1      -9.820  51.837  54.078  0.00  0.00    +0.000 OA
ATOM     15  N   UNL     1      -9.847  52.922  51.844  0.00  0.00    +0.000 N 
ATOM     16  C   UNL     1      -7.712  53.202  53.545  0.00  0.00    +0.000 A 
ATOM     17  C   UNL     1      -9.530  54.128  51.480  0.00  0.00    +0.000 C 
ATOM     18  C   UNL     1      -7.603  54.452  52.962  0.00  0.00    +0.000 A 
ATOM     19  C   UNL     1      -6.878  52.797  54.589  0.00  0.00    +0.000 A 
ATOM     20  N   UNL     1      -8.425  54.835  51.906  0.00  0.00    +0.000 N 
ATOM     21  C   UNL     1      -6.578  55.298  53.400  0.00  0.00    +0.000 A 
ATOM     22  C   UNL     1      -5.882  53.659  55.038  0.00  0.00    +0.000 A 
ATOM     23  C   UNL     1      -5.725  54.909  54.437  0.00  0.00    +0.000 A 
ATOM     24  H   UNL     1     -10.635  52.486  51.445  0.00  0.00    +0.000 HD
ATOM     25  H   UNL     1      -8.202  55.668  51.431  0.00  0.00    +0.000 HD
ENDBRANCH   1  17
BRANCH   3  26
ATOM     26  O   UNL     1     -11.986  55.494  52.255  0.00  0.00    +0.000 OA
ATOM     27  H   UNL     1     -11.340  55.488  52.934  0.00  0.00    +0.000 HD
ENDBRANCH   3  26
BRANCH   5  28
ATOM     28  C   UNL     1     -10.611  55.396  46.710  0.00  0.00    +0.000 C 
BRANCH  28  29
ATOM     29  C   UNL     1     -11.164  54.284  45.799  0.00  0.00    +0.000 C 
BRANCH  29  30
ATOM     30  C   UNL     1     -10.145  53.240  45.440  0.00  0.00    +0.000 C 
ATOM     31  C   UNL     1      -8.888  53.540  44.671  0.00  0.00    +0.000 C 
ATOM     32  C   UNL     1     -10.027  52.832  43.994  0.00  0.00    +0.000 C 
ENDBRANCH  29  30
ENDBRANCH  28  29
ENDBRANCH   5  28
TORSDOF 5
ENDMDL
MODEL 9
REMARK VINA RESULT:      -7.5      2.814      8.060
REMARK  Name = 338298
REMARK  5 active torsions:
REMARK  status: ('A' for Active; 'I' for Inactive)
REMARK    1  A    between atoms: C_6  and  C_10
REMARK    2  A    between atoms: C_14  and  O_18
REMARK    3  A    between atoms: N_17  and  C_21
REMARK    4  A    between atoms: C_21  and  C_24
REMARK    5  A    between atoms: C_24  and  C_27
REMARK                            x       y       z     vdW  Elec       q    Type
REMARK                         _______ _______ _______ _____ _____    ______ ____
ROOT
ATOM      1  C   UNL     1      -9.729  54.054  50.603  0.00  0.00    +0.000 A 
ATOM      2  C   UNL     1     -10.927  54.474  51.380  0.00  0.00    +0.000 A 
ATOM      3  C   UNL     1      -9.674  54.267  49.280  0.00  0.00    +0.000 A 
ATOM      4  O   UNL     1     -10.907  54.236  52.590  0.00  0.00    +0.000 OA
ATOM      5  N   UNL     1     -11.976  55.122  50.736  0.00  0.00    +0.000 N 
ATOM      6  C   UNL     1     -10.781  54.948  48.594  0.00  0.00    +0.000 A 
ATOM      7  C   UNL     1     -11.926  55.348  49.315  0.00  0.00    +0.000 A 
ATOM      8  C   UNL     1     -10.693  55.215  47.213  0.00  0.00    +0.000 A 
ATOM      9  C   UNL     1     -12.964  55.980  48.608  0.00  0.00    +0.000 A 
ATOM     10  C   UNL     1     -11.714  55.879  46.544  0.00  0.00    +0.000 A 
ATOM     11  C   UNL     1     -12.851  56.258  47.241  0.00  0.00    +0.000 A 
ENDROOT
BRANCH   1  17
ATOM     12  S   UNL     1      -7.692  51.721  53.028  0.00  0.00    +0.000 S 
ATOM     13  O   UNL     1      -7.411  50.413  52.464  0.00  0.00    +0.000 OA
ATOM     14  O   UNL     1      -8.095  51.849  54.414  0.00  0.00    +0.000 OA
ATOM     15  N   UNL     1      -8.841  52.409  52.112  0.00  0.00    +0.000 N 
ATOM     16  C   UNL     1      -6.213  52.651  52.863  0.00  0.00    +0.000 A 
ATOM     17  C   UNL     1      -8.566  53.428  51.353  0.00  0.00    +0.000 C 
ATOM     18  C   UNL     1      -6.208  53.702  51.964  0.00  0.00    +0.000 A 
ATOM     19  C   UNL     1      -5.094  52.335  53.638  0.00  0.00    +0.000 A 
ATOM     20  N   UNL     1      -7.320  53.993  51.180  0.00  0.00    +0.000 N 
ATOM     21  C   UNL     1      -5.018  54.418  51.790  0.00  0.00    +0.000 A 
ATOM     22  C   UNL     1      -3.926  53.074  53.480  0.00  0.00    +0.000 A 
ATOM     23  C   UNL     1      -3.884  54.113  52.548  0.00  0.00    +0.000 A 
ATOM     24  H   UNL     1      -9.758  52.052  52.131  0.00  0.00    +0.000 HD
ATOM     25  H   UNL     1      -7.211  54.647  50.452  0.00  0.00    +0.000 HD
ENDBRANCH   1  17
BRANCH   3  26
ATOM     26  O   UNL     1      -8.606  53.905  48.476  0.00  0.00    +0.000 OA
ATOM     27  H   UNL     1      -7.976  54.548  48.218  0.00  0.00    +0.000 HD
ENDBRANCH   3  26
BRANCH   5  28
ATOM     28  C   UNL     1     -13.202  55.431  51.509  0.00  0.00    +0.000 C 
BRANCH  28  29
ATOM     29  C   UNL     1     -13.235  56.795  52.224  0.00  0.00    +0.000 C 
BRANCH  29  30
ATOM     30  C   UNL     1     -14.532  57.532  52.050  0.00  0.00    +0.000 C 
ATOM     31  C   UNL     1     -14.670  59.020  52.231  0.00  0.00    +0.000 C 
ATOM     32  C   UNL     1     -15.203  58.087  53.281  0.00  0.00    +0.000 C 
ENDBRANCH  29  30
ENDBRANCH  28  29
ENDBRANCH   5  28
TORSDOF 5
ENDMDL
