MODEL 1
REMARK VINA RESULT:      -8.2      0.000      0.000
REMARK  Name = 298159
REMARK  7 active torsions:
REMARK  status: ('A' for Active; 'I' for Inactive)
REMARK    1  A    between atoms: C_6  and  C_10
REMARK    2  A    between atoms: C_14  and  O_18
REMARK    3  A    between atoms: N_17  and  C_21
REMARK    4  A    between atoms: C_21  and  C_24
REMARK    5  A    between atoms: C_24  and  C_27
REMARK    6  A    between atoms: C_27  and  C_28
REMARK    7  A    between atoms: C_27  and  C_29
REMARK                            x       y       z     vdW  Elec       q    Type
REMARK                         _______ _______ _______ _____ _____    ______ ____
ROOT
ATOM      1  C   UNL     1     -10.275  54.546  52.195  0.00  0.00    +0.000 A 
ATOM      2  C   UNL     1      -8.895  55.107  52.070  0.00  0.00    +0.000 A 
ATOM      3  C   UNL     1     -10.484  53.423  52.908  0.00  0.00    +0.000 A 
ATOM      4  O   UNL     1      -8.762  56.205  51.521  0.00  0.00    +0.000 OA
ATOM      5  N   UNL     1      -7.827  54.385  52.590  0.00  0.00    +0.000 N 
ATOM      6  C   UNL     1      -9.361  52.751  53.578  0.00  0.00    +0.000 A 
ATOM      7  C   UNL     1      -8.052  53.245  53.426  0.00  0.00    +0.000 A 
ATOM      8  C   UNL     1      -9.586  51.627  54.395  0.00  0.00    +0.000 A 
ATOM      9  C   UNL     1      -7.013  52.619  54.131  0.00  0.00    +0.000 A 
ATOM     10  C   UNL     1      -8.535  51.003  55.064  0.00  0.00    +0.000 A 
ATOM     11  C   UNL     1      -7.248  51.502  54.934  0.00  0.00    +0.000 A 
ENDROOT
BRANCH   1  17
ATOM     12  S   UNL     1     -12.652  56.141  49.498  0.00  0.00    +0.000 S 
ATOM     13  O   UNL     1     -13.577  55.182  48.923  0.00  0.00    +0.000 OA
ATOM     14  O   UNL     1     -12.000  57.129  48.660  0.00  0.00    +0.000 OA
ATOM     15  N   UNL     1     -11.499  55.306  50.277  0.00  0.00    +0.000 N 
ATOM     16  C   UNL     1     -13.574  57.051  50.685  0.00  0.00    +0.000 A 
ATOM     17  C   UNL     1     -11.434  55.301  51.575  0.00  0.00    +0.000 C 
ATOM     18  C   UNL     1     -13.283  56.847  52.025  0.00  0.00    +0.000 A 
ATOM     19  C   UNL     1     -14.550  57.960  50.268  0.00  0.00    +0.000 A 
ATOM     20  N   UNL     1     -12.318  55.931  52.427  0.00  0.00    +0.000 N 
ATOM     21  C   UNL     1     -14.048  57.529  52.978  0.00  0.00    +0.000 A 
ATOM     22  C   UNL     1     -15.280  58.658  51.229  0.00  0.00    +0.000 A 
ATOM     23  C   UNL     1     -15.034  58.437  52.583  0.00  0.00    +0.000 A 
ATOM     24  H   UNL     1     -10.838  54.795  49.757  0.00  0.00    +0.000 HD
ATOM     25  H   UNL     1     -12.263  55.716  53.386  0.00  0.00    +0.000 HD
ENDBRANCH   1  17
BRANCH   3  26
ATOM     26  O   UNL     1     -11.724  52.848  53.114  0.00  0.00    +0.000 OA
ATOM     27  H   UNL     1     -12.321  53.230  53.726  0.00  0.00    +0.000 HD
ENDBRANCH   3  26
BRANCH   5  28
ATOM     28  C   UNL     1      -6.477  54.926  52.391  0.00  0.00    +0.000 C 
BRANCH  28  29
ATOM     29  C   UNL     1      -5.680  54.336  51.214  0.00  0.00    +0.000 C 
BRANCH  29  30
ATOM     30  C   UNL     1      -4.263  53.821  51.523  0.00  0.00    +0.000 C 
ATOM     31  C   UNL     1      -3.847  54.080  52.969  0.00  0.00    +0.000 C 
ATOM     32  C   UNL     1      -4.217  52.315  51.235  0.00  0.00    +0.000 C 
ENDBRANCH  29  30
ENDBRANCH  28  29
ENDBRANCH   5  28
TORSDOF 5
ENDMDL
MODEL 2
REMARK VINA RESULT:      -8.1      3.953      4.758
REMARK  Name = 298159
REMARK  7 active torsions:
REMARK  status: ('A' for Active; 'I' for Inactive)
REMARK    1  A    between atoms: C_6  and  C_10
REMARK    2  A    between atoms: C_14  and  O_18
REMARK    3  A    between atoms: N_17  and  C_21
REMARK    4  A    between atoms: C_21  and  C_24
REMARK    5  A    between atoms: C_24  and  C_27
REMARK    6  A    between atoms: C_27  and  C_28
REMARK    7  A    between atoms: C_27  and  C_29
REMARK                            x       y       z     vdW  Elec       q    Type
REMARK                         _______ _______ _______ _____ _____    ______ ____
ROOT
ATOM      1  C   UNL     1     -12.536  54.224  49.708  0.00  0.00    +0.000 A 
ATOM      2  C   UNL     1     -12.001  54.151  48.314  0.00  0.00    +0.000 A 
ATOM      3  C   UNL     1     -12.261  53.241  50.587  0.00  0.00    +0.000 A 
ATOM      4  O   UNL     1     -12.163  55.130  47.579  0.00  0.00    +0.000 OA
ATOM      5  N   UNL     1     -11.330  53.003  47.910  0.00  0.00    +0.000 N 
ATOM      6  C   UNL     1     -11.422  52.102  50.186  0.00  0.00    +0.000 A 
ATOM      7  C   UNL     1     -10.955  52.002  48.863  0.00  0.00    +0.000 A 
ATOM      8  C   UNL     1     -11.060  51.117  51.124  0.00  0.00    +0.000 A 
ATOM      9  C   UNL     1     -10.104  50.937  48.531  0.00  0.00    +0.000 A 
ATOM     10  C   UNL     1     -10.237  50.051  50.765  0.00  0.00    +0.000 A 
ATOM     11  C   UNL     1      -9.757  49.963  49.468  0.00  0.00    +0.000 A 
ENDROOT
BRANCH   1  17
ATOM     12  S   UNL     1     -15.402  56.467  51.198  0.00  0.00    +0.000 S 
ATOM     13  O   UNL     1     -15.333  56.586  52.642  0.00  0.00    +0.000 OA
ATOM     14  O   UNL     1     -16.680  56.294  50.534  0.00  0.00    +0.000 OA
ATOM     15  N   UNL     1     -14.440  55.237  50.759  0.00  0.00    +0.000 N 
ATOM     16  C   UNL     1     -14.725  57.955  50.556  0.00  0.00    +0.000 A 
ATOM     17  C   UNL     1     -13.321  55.449  50.132  0.00  0.00    +0.000 C 
ATOM     18  C   UNL     1     -13.496  57.885  49.918  0.00  0.00    +0.000 A 
ATOM     19  C   UNL     1     -15.429  59.156  50.679  0.00  0.00    +0.000 A 
ATOM     20  N   UNL     1     -12.800  56.687  49.814  0.00  0.00    +0.000 N 
ATOM     21  C   UNL     1     -12.926  59.074  49.451  0.00  0.00    +0.000 A 
ATOM     22  C   UNL     1     -14.863  60.327  50.176  0.00  0.00    +0.000 A 
ATOM     23  C   UNL     1     -13.610  60.287  49.570  0.00  0.00    +0.000 A 
ATOM     24  H   UNL     1     -14.708  54.314  50.971  0.00  0.00    +0.000 HD
ATOM     25  H   UNL     1     -11.871  56.724  49.492  0.00  0.00    +0.000 HD
ENDBRANCH   1  17
BRANCH   3  26
ATOM     26  O   UNL     1     -12.675  53.234  51.905  0.00  0.00    +0.000 OA
ATOM     27  H   UNL     1     -12.271  53.807  52.527  0.00  0.00    +0.000 HD
ENDBRANCH   3  26
BRANCH   5  28
ATOM     28  C   UNL     1     -10.878  52.932  46.516  0.00  0.00    +0.000 C 
BRANCH  28  29
ATOM     29  C   UNL     1      -9.389  53.230  46.271  0.00  0.00    +0.000 C 
BRANCH  29  30
ATOM     30  C   UNL     1      -8.982  54.711  46.185  0.00  0.00    +0.000 C 
ATOM     31  C   UNL     1      -8.567  55.286  47.537  0.00  0.00    +0.000 C 
ATOM     32  C   UNL     1      -7.819  54.841  45.191  0.00  0.00    +0.000 C 
ENDBRANCH  29  30
ENDBRANCH  28  29
ENDBRANCH   5  28
TORSDOF 5
ENDMDL
MODEL 3
REMARK VINA RESULT:      -7.9      2.658      8.008
REMARK  Name = 298159
REMARK  7 active torsions:
REMARK  status: ('A' for Active; 'I' for Inactive)
REMARK    1  A    between atoms: C_6  and  C_10
REMARK    2  A    between atoms: C_14  and  O_18
REMARK    3  A    between atoms: N_17  and  C_21
REMARK    4  A    between atoms: C_21  and  C_24
REMARK    5  A    between atoms: C_24  and  C_27
REMARK    6  A    between atoms: C_27  and  C_28
REMARK    7  A    between atoms: C_27  and  C_29
REMARK                            x       y       z     vdW  Elec       q    Type
REMARK                         _______ _______ _______ _____ _____    ______ ____
ROOT
ATOM      1  C   UNL     1     -10.090  54.719  50.928  0.00  0.00    +0.000 A 
ATOM      2  C   UNL     1     -11.416  55.263  51.355  0.00  0.00    +0.000 A 
ATOM      3  C   UNL     1      -9.784  54.642  49.619  0.00  0.00    +0.000 A 
ATOM      4  O   UNL     1     -11.609  55.441  52.561  0.00  0.00    +0.000 OA
ATOM      5  N   UNL     1     -12.363  55.564  50.384  0.00  0.00    +0.000 N 
ATOM      6  C   UNL     1     -10.743  55.104  48.605  0.00  0.00    +0.000 A 
ATOM      7  C   UNL     1     -12.010  55.572  48.996  0.00  0.00    +0.000 A 
ATOM      8  C   UNL     1     -10.394  55.107  47.241  0.00  0.00    +0.000 A 
ATOM      9  C   UNL     1     -12.877  56.067  48.008  0.00  0.00    +0.000 A 
ATOM     10  C   UNL     1     -11.281  55.575  46.274  0.00  0.00    +0.000 A 
ATOM     11  C   UNL     1     -12.522  56.058  46.659  0.00  0.00    +0.000 A 
ENDROOT
BRANCH   1  17
ATOM     12  S   UNL     1      -6.780  54.646  53.051  0.00  0.00    +0.000 S 
ATOM     13  O   UNL     1      -6.723  55.701  54.045  0.00  0.00    +0.000 OA
ATOM     14  O   UNL     1      -5.603  54.297  52.279  0.00  0.00    +0.000 OA
ATOM     15  N   UNL     1      -7.969  55.014  52.010  0.00  0.00    +0.000 N 
ATOM     16  C   UNL     1      -7.235  53.187  53.918  0.00  0.00    +0.000 A 
ATOM     17  C   UNL     1      -9.078  54.334  51.988  0.00  0.00    +0.000 C 
ATOM     18  C   UNL     1      -8.501  52.668  53.693  0.00  0.00    +0.000 A 
ATOM     19  C   UNL     1      -6.328  52.577  54.788  0.00  0.00    +0.000 A 
ATOM     20  N   UNL     1      -9.399  53.293  52.835  0.00  0.00    +0.000 N 
ATOM     21  C   UNL     1      -8.890  51.538  54.419  0.00  0.00    +0.000 A 
ATOM     22  C   UNL     1      -6.718  51.429  55.478  0.00  0.00    +0.000 A 
ATOM     23  C   UNL     1      -8.001  50.915  55.299  0.00  0.00    +0.000 A 
ATOM     24  H   UNL     1      -7.850  55.764  51.385  0.00  0.00    +0.000 HD
ATOM     25  H   UNL     1     -10.329  52.970  52.832  0.00  0.00    +0.000 HD
ENDBRANCH   1  17
BRANCH   3  26
ATOM     26  O   UNL     1      -8.574  54.191  49.126  0.00  0.00    +0.000 OA
ATOM     27  H   UNL     1      -8.203  53.394  49.450  0.00  0.00    +0.000 HD
ENDBRANCH   3  26
BRANCH   5  28
ATOM     28  C   UNL     1     -13.680  56.030  50.835  0.00  0.00    +0.000 C 
BRANCH  28  29
ATOM     29  C   UNL     1     -13.777  57.516  51.217  0.00  0.00    +0.000 C 
BRANCH  29  30
ATOM     30  C   UNL     1     -14.518  57.851  52.523  0.00  0.00    +0.000 C 
ATOM     31  C   UNL     1     -15.039  59.287  52.550  0.00  0.00    +0.000 C 
ATOM     32  C   UNL     1     -15.691  56.875  52.684  0.00  0.00    +0.000 C 
ENDBRANCH  29  30
ENDBRANCH  28  29
ENDBRANCH   5  28
TORSDOF 5
ENDMDL
MODEL 4
REMARK VINA RESULT:      -7.9      2.068      2.817
REMARK  Name = 298159
REMARK  7 active torsions:
REMARK  status: ('A' for Active; 'I' for Inactive)
REMARK    1  A    between atoms: C_6  and  C_10
REMARK    2  A    between atoms: C_14  and  O_18
REMARK    3  A    between atoms: N_17  and  C_21
REMARK    4  A    between atoms: C_21  and  C_24
REMARK    5  A    between atoms: C_24  and  C_27
REMARK    6  A    between atoms: C_27  and  C_28
REMARK    7  A    between atoms: C_27  and  C_29
REMARK                            x       y       z     vdW  Elec       q    Type
REMARK                         _______ _______ _______ _____ _____    ______ ____
ROOT
ATOM      1  C   UNL     1     -11.589  54.039  51.179  0.00  0.00    +0.000 A 
ATOM      2  C   UNL     1     -10.673  54.066  52.361  0.00  0.00    +0.000 A 
ATOM      3  C   UNL     1     -11.675  52.931  50.419  0.00  0.00    +0.000 A 
ATOM      4  O   UNL     1     -10.719  55.048  53.108  0.00  0.00    +0.000 OA
ATOM      5  N   UNL     1      -9.829  52.984  52.582  0.00  0.00    +0.000 N 
ATOM      6  C   UNL     1     -10.882  51.739  50.755  0.00  0.00    +0.000 A 
ATOM      7  C   UNL     1      -9.983  51.772  51.836  0.00  0.00    +0.000 A 
ATOM      8  C   UNL     1     -11.033  50.550  50.016  0.00  0.00    +0.000 A 
ATOM      9  C   UNL     1      -9.291  50.597  52.168  0.00  0.00    +0.000 A 
ATOM     10  C   UNL     1     -10.314  49.403  50.346  0.00  0.00    +0.000 A 
ATOM     11  C   UNL     1      -9.444  49.427  51.425  0.00  0.00    +0.000 A 
ENDROOT
BRANCH   1  17
ATOM     12  S   UNL     1     -13.286  57.043  49.291  0.00  0.00    +0.000 S 
ATOM     13  O   UNL     1     -14.390  56.628  48.447  0.00  0.00    +0.000 OA
ATOM     14  O   UNL     1     -12.345  58.047  48.832  0.00  0.00    +0.000 OA
ATOM     15  N   UNL     1     -12.445  55.714  49.690  0.00  0.00    +0.000 N 
ATOM     16  C   UNL     1     -14.012  57.697  50.751  0.00  0.00    +0.000 A 
ATOM     17  C   UNL     1     -12.468  55.243  50.902  0.00  0.00    +0.000 C 
ATOM     18  C   UNL     1     -13.872  56.972  51.925  0.00  0.00    +0.000 A 
ATOM     19  C   UNL     1     -14.687  58.920  50.711  0.00  0.00    +0.000 A 
ATOM     20  N   UNL     1     -13.209  55.751  51.948  0.00  0.00    +0.000 N 
ATOM     21  C   UNL     1     -14.492  57.460  53.080  0.00  0.00    +0.000 A 
ATOM     22  C   UNL     1     -15.270  59.410  51.879  0.00  0.00    +0.000 A 
ATOM     23  C   UNL     1     -15.178  58.677  53.060  0.00  0.00    +0.000 A 
ATOM     24  H   UNL     1     -11.908  55.257  49.004  0.00  0.00    +0.000 HD
ATOM     25  H   UNL     1     -13.274  55.211  52.769  0.00  0.00    +0.000 HD
ENDBRANCH   1  17
BRANCH   3  26
ATOM     26  O   UNL     1     -12.517  52.793  49.332  0.00  0.00    +0.000 OA
ATOM     27  H   UNL     1     -13.176  53.438  49.165  0.00  0.00    +0.000 HD
ENDBRANCH   3  26
BRANCH   5  28
ATOM     28  C   UNL     1      -8.892  53.069  53.708  0.00  0.00    +0.000 C 
BRANCH  28  29
ATOM     29  C   UNL     1      -7.489  53.608  53.381  0.00  0.00    +0.000 C 
BRANCH  29  30
ATOM     30  C   UNL     1      -6.967  54.763  54.253  0.00  0.00    +0.000 C 
ATOM     31  C   UNL     1      -5.496  54.595  54.630  0.00  0.00    +0.000 C 
ATOM     32  C   UNL     1      -7.156  56.078  53.486  0.00  0.00    +0.000 C 
ENDBRANCH  29  30
ENDBRANCH  28  29
ENDBRANCH   5  28
TORSDOF 5
ENDMDL
MODEL 5
REMARK VINA RESULT:      -7.8      3.381      7.280
REMARK  Name = 298159
REMARK  7 active torsions:
REMARK  status: ('A' for Active; 'I' for Inactive)
REMARK    1  A    between atoms: C_6  and  C_10
REMARK    2  A    between atoms: C_14  and  O_18
REMARK    3  A    between atoms: N_17  and  C_21
REMARK    4  A    between atoms: C_21  and  C_24
REMARK    5  A    between atoms: C_24  and  C_27
REMARK    6  A    between atoms: C_27  and  C_28
REMARK    7  A    between atoms: C_27  and  C_29
REMARK                            x       y       z     vdW  Elec       q    Type
REMARK                         _______ _______ _______ _____ _____    ______ ____
ROOT
ATOM      1  C   UNL     1     -10.250  55.186  50.807  0.00  0.00    +0.000 A 
ATOM      2  C   UNL     1      -9.841  55.107  49.371  0.00  0.00    +0.000 A 
ATOM      3  C   UNL     1     -11.464  55.669  51.136  0.00  0.00    +0.000 A 
ATOM      4  O   UNL     1      -8.779  54.540  49.101  0.00  0.00    +0.000 OA
ATOM      5  N   UNL     1     -10.676  55.653  48.404  0.00  0.00    +0.000 N 
ATOM      6  C   UNL     1     -12.396  56.106  50.087  0.00  0.00    +0.000 A 
ATOM      7  C   UNL     1     -12.002  56.080  48.737  0.00  0.00    +0.000 A 
ATOM      8  C   UNL     1     -13.697  56.530  50.420  0.00  0.00    +0.000 A 
ATOM      9  C   UNL     1     -12.938  56.442  47.757  0.00  0.00    +0.000 A 
ATOM     10  C   UNL     1     -14.602  56.913  49.432  0.00  0.00    +0.000 A 
ATOM     11  C   UNL     1     -14.223  56.866  48.100  0.00  0.00    +0.000 A 
ENDROOT
BRANCH   1  17
ATOM     12  S   UNL     1      -7.042  54.691  53.027  0.00  0.00    +0.000 S 
ATOM     13  O   UNL     1      -6.938  55.667  54.096  0.00  0.00    +0.000 OA
ATOM     14  O   UNL     1      -5.867  54.300  52.272  0.00  0.00    +0.000 OA
ATOM     15  N   UNL     1      -8.156  55.228  51.977  0.00  0.00    +0.000 N 
ATOM     16  C   UNL     1      -7.646  53.220  53.772  0.00  0.00    +0.000 A 
ATOM     17  C   UNL     1      -9.314  54.646  51.870  0.00  0.00    +0.000 C 
ATOM     18  C   UNL     1      -8.940  52.824  53.468  0.00  0.00    +0.000 A 
ATOM     19  C   UNL     1      -6.826  52.477  54.625  0.00  0.00    +0.000 A 
ATOM     20  N   UNL     1      -9.750  53.579  52.628  0.00  0.00    +0.000 N 
ATOM     21  C   UNL     1      -9.447  51.683  54.097  0.00  0.00    +0.000 A 
ATOM     22  C   UNL     1      -7.334  51.322  55.217  0.00  0.00    +0.000 A 
ATOM     23  C   UNL     1      -8.646  50.929  54.959  0.00  0.00    +0.000 A 
ATOM     24  H   UNL     1      -7.952  56.007  51.412  0.00  0.00    +0.000 HD
ATOM     25  H   UNL     1     -10.703  53.336  52.571  0.00  0.00    +0.000 HD
ENDBRANCH   1  17
BRANCH   3  26
ATOM     26  O   UNL     1     -11.948  55.747  52.428  0.00  0.00    +0.000 OA
ATOM     27  H   UNL     1     -12.867  55.661  52.590  0.00  0.00    +0.000 HD
ENDBRANCH   3  26
BRANCH   5  28
ATOM     28  C   UNL     1     -10.216  55.624  47.010  0.00  0.00    +0.000 C 
BRANCH  28  29
ATOM     29  C   UNL     1     -10.503  54.329  46.230  0.00  0.00    +0.000 C 
BRANCH  29  30
ATOM     30  C   UNL     1      -9.292  53.599  45.626  0.00  0.00    +0.000 C 
ATOM     31  C   UNL     1      -9.597  52.987  44.260  0.00  0.00    +0.000 C 
ATOM     32  C   UNL     1      -8.134  54.598  45.496  0.00  0.00    +0.000 C 
ENDBRANCH  29  30
ENDBRANCH  28  29
ENDBRANCH   5  28
TORSDOF 5
ENDMDL
MODEL 6
REMARK VINA RESULT:      -7.8      3.319      4.873
REMARK  Name = 298159
REMARK  7 active torsions:
REMARK  status: ('A' for Active; 'I' for Inactive)
REMARK    1  A    between atoms: C_6  and  C_10
REMARK    2  A    between atoms: C_14  and  O_18
REMARK    3  A    between atoms: N_17  and  C_21
REMARK    4  A    between atoms: C_21  and  C_24
REMARK    5  A    between atoms: C_24  and  C_27
REMARK    6  A    between atoms: C_27  and  C_28
REMARK    7  A    between atoms: C_27  and  C_29
REMARK                            x       y       z     vdW  Elec       q    Type
REMARK                         _______ _______ _______ _____ _____    ______ ____
ROOT
ATOM      1  C   UNL     1     -11.514  55.878  48.821  0.00  0.00    +0.000 A 
ATOM      2  C   UNL     1     -10.521  55.200  49.710  0.00  0.00    +0.000 A 
ATOM      3  C   UNL     1     -11.581  55.556  47.516  0.00  0.00    +0.000 A 
ATOM      4  O   UNL     1     -10.578  55.425  50.922  0.00  0.00    +0.000 OA
ATOM      5  N   UNL     1      -9.594  54.334  49.143  0.00  0.00    +0.000 N 
ATOM      6  C   UNL     1     -10.689  54.527  46.960  0.00  0.00    +0.000 A 
ATOM      7  C   UNL     1      -9.721  53.918  47.778  0.00  0.00    +0.000 A 
ATOM      8  C   UNL     1     -10.814  54.124  45.617  0.00  0.00    +0.000 A 
ATOM      9  C   UNL     1      -8.931  52.894  47.234  0.00  0.00    +0.000 A 
ATOM     10  C   UNL     1      -9.999  53.125  45.089  0.00  0.00    +0.000 A 
ATOM     11  C   UNL     1      -9.059  52.508  45.899  0.00  0.00    +0.000 A 
ENDROOT
BRANCH   1  17
ATOM     12  S   UNL     1     -13.541  59.192  49.437  0.00  0.00    +0.000 S 
ATOM     13  O   UNL     1     -14.678  59.333  48.546  0.00  0.00    +0.000 OA
ATOM     14  O   UNL     1     -12.705  60.335  49.750  0.00  0.00    +0.000 OA
ATOM     15  N   UNL     1     -12.588  58.024  48.838  0.00  0.00    +0.000 N 
ATOM     16  C   UNL     1     -14.195  58.641  50.972  0.00  0.00    +0.000 A 
ATOM     17  C   UNL     1     -12.488  56.870  49.428  0.00  0.00    +0.000 C 
ATOM     18  C   UNL     1     -13.919  57.339  51.362  0.00  0.00    +0.000 A 
ATOM     19  C   UNL     1     -14.949  59.509  51.765  0.00  0.00    +0.000 A 
ATOM     20  N   UNL     1     -13.178  56.482  50.557  0.00  0.00    +0.000 N 
ATOM     21  C   UNL     1     -14.479  56.876  52.558  0.00  0.00    +0.000 A 
ATOM     22  C   UNL     1     -15.471  59.043  52.971  0.00  0.00    +0.000 A 
ATOM     23  C   UNL     1     -15.242  57.726  53.363  0.00  0.00    +0.000 A 
ATOM     24  H   UNL     1     -12.077  58.192  48.014  0.00  0.00    +0.000 HD
ATOM     25  H   UNL     1     -13.146  55.531  50.811  0.00  0.00    +0.000 HD
ENDBRANCH   1  17
BRANCH   3  26
ATOM     26  O   UNL     1     -12.487  56.097  46.623  0.00  0.00    +0.000 OA
ATOM     27  H   UNL     1     -12.653  57.019  46.625  0.00  0.00    +0.000 HD
ENDBRANCH   3  26
BRANCH   5  28
ATOM     28  C   UNL     1      -8.587  53.737  50.028  0.00  0.00    +0.000 C 
BRANCH  28  29
ATOM     29  C   UNL     1      -7.210  54.422  50.044  0.00  0.00    +0.000 C 
BRANCH  29  30
ATOM     30  C   UNL     1      -6.924  55.381  51.211  0.00  0.00    +0.000 C 
ATOM     31  C   UNL     1      -7.470  56.786  50.963  0.00  0.00    +0.000 C 
ATOM     32  C   UNL     1      -7.553  54.802  52.486  0.00  0.00    +0.000 C 
ENDBRANCH  29  30
ENDBRANCH  28  29
ENDBRANCH   5  28
TORSDOF 5
ENDMDL
MODEL 7
REMARK VINA RESULT:      -7.6      3.518      4.948
REMARK  Name = 298159
REMARK  7 active torsions:
REMARK  status: ('A' for Active; 'I' for Inactive)
REMARK    1  A    between atoms: C_6  and  C_10
REMARK    2  A    between atoms: C_14  and  O_18
REMARK    3  A    between atoms: N_17  and  C_21
REMARK    4  A    between atoms: C_21  and  C_24
REMARK    5  A    between atoms: C_24  and  C_27
REMARK    6  A    between atoms: C_27  and  C_28
REMARK    7  A    between atoms: C_27  and  C_29
REMARK                            x       y       z     vdW  Elec       q    Type
REMARK                         _______ _______ _______ _____ _____    ______ ____
ROOT
ATOM      1  C   UNL     1     -10.863  55.536  48.714  0.00  0.00    +0.000 A 
ATOM      2  C   UNL     1      -9.590  55.098  49.364  0.00  0.00    +0.000 A 
ATOM      3  C   UNL     1     -11.118  55.199  47.435  0.00  0.00    +0.000 A 
ATOM      4  O   UNL     1      -9.451  55.313  50.571  0.00  0.00    +0.000 OA
ATOM      5  N   UNL     1      -8.630  54.453  48.593  0.00  0.00    +0.000 N 
ATOM      6  C   UNL     1     -10.154  54.388  46.677  0.00  0.00    +0.000 A 
ATOM      7  C   UNL     1      -8.933  54.012  47.265  0.00  0.00    +0.000 A 
ATOM      8  C   UNL     1     -10.454  53.959  45.370  0.00  0.00    +0.000 A 
ATOM      9  C   UNL     1      -8.065  53.183  46.538  0.00  0.00    +0.000 A 
ATOM     10  C   UNL     1      -9.565  53.160  44.655  0.00  0.00    +0.000 A 
ATOM     11  C   UNL     1      -8.371  52.770  45.241  0.00  0.00    +0.000 A 
ENDROOT
BRANCH   1  17
ATOM     12  S   UNL     1     -13.568  56.337  51.454  0.00  0.00    +0.000 S 
ATOM     13  O   UNL     1     -12.988  56.647  52.748  0.00  0.00    +0.000 OA
ATOM     14  O   UNL     1     -14.755  55.509  51.359  0.00  0.00    +0.000 OA
ATOM     15  N   UNL     1     -12.410  55.658  50.544  0.00  0.00    +0.000 N 
ATOM     16  C   UNL     1     -14.002  57.881  50.736  0.00  0.00    +0.000 A 
ATOM     17  C   UNL     1     -11.887  56.293  49.537  0.00  0.00    +0.000 C 
ATOM     18  C   UNL     1     -13.263  58.319  49.647  0.00  0.00    +0.000 A 
ATOM     19  C   UNL     1     -15.072  58.618  51.250  0.00  0.00    +0.000 A 
ATOM     20  N   UNL     1     -12.193  57.582  49.154  0.00  0.00    +0.000 N 
ATOM     21  C   UNL     1     -13.568  59.571  49.103  0.00  0.00    +0.000 A 
ATOM     22  C   UNL     1     -15.386  59.848  50.675  0.00  0.00    +0.000 A 
ATOM     23  C   UNL     1     -14.630  60.327  49.607  0.00  0.00    +0.000 A 
ATOM     24  H   UNL     1     -12.097  54.750  50.758  0.00  0.00    +0.000 HD
ATOM     25  H   UNL     1     -11.613  58.011  48.484  0.00  0.00    +0.000 HD
ENDBRANCH   1  17
BRANCH   3  26
ATOM     26  O   UNL     1     -12.279  55.523  46.759  0.00  0.00    +0.000 OA
ATOM     27  H   UNL     1     -12.502  55.072  45.968  0.00  0.00    +0.000 HD
ENDBRANCH   3  26
BRANCH   5  28
ATOM     28  C   UNL     1      -7.362  54.097  49.241  0.00  0.00    +0.000 C 
BRANCH  28  29
ATOM     29  C   UNL     1      -6.276  55.187  49.245  0.00  0.00    +0.000 C 
BRANCH  29  30
ATOM     30  C   UNL     1      -4.823  54.719  49.434  0.00  0.00    +0.000 C 
ATOM     31  C   UNL     1      -4.586  54.076  50.798  0.00  0.00    +0.000 C 
ATOM     32  C   UNL     1      -4.484  53.714  48.324  0.00  0.00    +0.000 C 
ENDBRANCH  29  30
ENDBRANCH  28  29
ENDBRANCH   5  28
TORSDOF 5
ENDMDL
MODEL 8
REMARK VINA RESULT:      -7.5      3.646      7.453
REMARK  Name = 298159
REMARK  7 active torsions:
REMARK  status: ('A' for Active; 'I' for Inactive)
REMARK    1  A    between atoms: C_6  and  C_10
REMARK    2  A    between atoms: C_14  and  O_18
REMARK    3  A    between atoms: N_17  and  C_21
REMARK    4  A    between atoms: C_21  and  C_24
REMARK    5  A    between atoms: C_24  and  C_27
REMARK    6  A    between atoms: C_27  and  C_28
REMARK    7  A    between atoms: C_27  and  C_29
REMARK                            x       y       z     vdW  Elec       q    Type
REMARK                         _______ _______ _______ _____ _____    ______ ____
ROOT
ATOM      1  C   UNL     1     -10.326  54.889  50.314  0.00  0.00    +0.000 A 
ATOM      2  C   UNL     1      -9.995  54.747  48.863  0.00  0.00    +0.000 A 
ATOM      3  C   UNL     1     -11.434  55.555  50.690  0.00  0.00    +0.000 A 
ATOM      4  O   UNL     1      -9.046  54.021  48.552  0.00  0.00    +0.000 OA
ATOM      5  N   UNL     1     -10.775  55.416  47.927  0.00  0.00    +0.000 N 
ATOM      6  C   UNL     1     -12.331  56.132  49.678  0.00  0.00    +0.000 A 
ATOM      7  C   UNL     1     -12.003  56.045  48.313  0.00  0.00    +0.000 A 
ATOM      8  C   UNL     1     -13.535  56.753  50.062  0.00  0.00    +0.000 A 
ATOM      9  C   UNL     1     -12.912  56.548  47.370  0.00  0.00    +0.000 A 
ATOM     10  C   UNL     1     -14.410  57.273  49.110  0.00  0.00    +0.000 A 
ATOM     11  C   UNL     1     -14.099  57.167  47.763  0.00  0.00    +0.000 A 
ENDROOT
BRANCH   1  17
ATOM     12  S   UNL     1      -8.999  52.245  52.906  0.00  0.00    +0.000 S 
ATOM     13  O   UNL     1      -8.336  51.119  52.275  0.00  0.00    +0.000 OA
ATOM     14  O   UNL     1      -9.889  52.038  54.032  0.00  0.00    +0.000 OA
ATOM     15  N   UNL     1      -9.824  53.038  51.755  0.00  0.00    +0.000 N 
ATOM     16  C   UNL     1      -7.719  53.295  53.492  0.00  0.00    +0.000 A 
ATOM     17  C   UNL     1      -9.441  54.209  51.340  0.00  0.00    +0.000 C 
ATOM     18  C   UNL     1      -7.535  54.511  52.852  0.00  0.00    +0.000 A 
ATOM     19  C   UNL     1      -6.935  52.905  54.581  0.00  0.00    +0.000 A 
ATOM     20  N   UNL     1      -8.313  54.882  51.761  0.00  0.00    +0.000 N 
ATOM     21  C   UNL     1      -6.484  55.330  53.279  0.00  0.00    +0.000 A 
ATOM     22  C   UNL     1      -5.914  53.748  55.017  0.00  0.00    +0.000 A 
ATOM     23  C   UNL     1      -5.684  54.955  54.361  0.00  0.00    +0.000 A 
ATOM     24  H   UNL     1     -10.628  52.626  51.365  0.00  0.00    +0.000 HD
ATOM     25  H   UNL     1      -8.039  55.680  51.254  0.00  0.00    +0.000 HD
ENDBRANCH   1  17
BRANCH   3  26
ATOM     26  O   UNL     1     -11.846  55.708  52.000  0.00  0.00    +0.000 OA
ATOM     27  H   UNL     1     -12.155  56.540  52.301  0.00  0.00    +0.000 HD
ENDBRANCH   3  26
BRANCH   5  28
ATOM     28  C   UNL     1     -10.385  55.315  46.516  0.00  0.00    +0.000 C 
BRANCH  28  29
ATOM     29  C   UNL     1     -10.944  54.108  45.744  0.00  0.00    +0.000 C 
BRANCH  29  30
ATOM     30  C   UNL     1      -9.920  53.180  45.068  0.00  0.00    +0.000 C 
ATOM     31  C   UNL     1     -10.358  52.740  43.673  0.00  0.00    +0.000 C 
ATOM     32  C   UNL     1      -8.577  53.918  44.978  0.00  0.00    +0.000 C 
ENDBRANCH  29  30
ENDBRANCH  28  29
ENDBRANCH   5  28
TORSDOF 5
ENDMDL
MODEL 9
REMARK VINA RESULT:      -7.4      4.706      7.207
REMARK  Name = 298159
REMARK  7 active torsions:
REMARK  status: ('A' for Active; 'I' for Inactive)
REMARK    1  A    between atoms: C_6  and  C_10
REMARK    2  A    between atoms: C_14  and  O_18
REMARK    3  A    between atoms: N_17  and  C_21
REMARK    4  A    between atoms: C_21  and  C_24
REMARK    5  A    between atoms: C_24  and  C_27
REMARK    6  A    between atoms: C_27  and  C_28
REMARK    7  A    between atoms: C_27  and  C_29
REMARK                            x       y       z     vdW  Elec       q    Type
REMARK                         _______ _______ _______ _____ _____    ______ ____
ROOT
ATOM      1  C   UNL     1     -10.992  54.543  48.473  0.00  0.00    +0.000 A 
ATOM      2  C   UNL     1     -10.613  54.130  49.859  0.00  0.00    +0.000 A 
ATOM      3  C   UNL     1     -11.977  55.441  48.283  0.00  0.00    +0.000 A 
ATOM      4  O   UNL     1      -9.622  53.407  49.999  0.00  0.00    +0.000 OA
ATOM      5  N   UNL     1     -11.373  54.589  50.929  0.00  0.00    +0.000 N 
ATOM      6  C   UNL     1     -12.674  56.030  49.436  0.00  0.00    +0.000 A 
ATOM      7  C   UNL     1     -12.357  55.613  50.741  0.00  0.00    +0.000 A 
ATOM      8  C   UNL     1     -13.644  57.033  49.247  0.00  0.00    +0.000 A 
ATOM      9  C   UNL     1     -12.995  56.242  51.821  0.00  0.00    +0.000 A 
ATOM     10  C   UNL     1     -14.286  57.625  50.332  0.00  0.00    +0.000 A 
ATOM     11  C   UNL     1     -13.959  57.231  51.620  0.00  0.00    +0.000 A 
ENDROOT
BRANCH   1  17
ATOM     12  S   UNL     1      -8.060  53.962  45.917  0.00  0.00    +0.000 S 
ATOM     13  O   UNL     1      -7.039  53.064  46.424  0.00  0.00    +0.000 OA
ATOM     14  O   UNL     1      -7.691  55.153  45.176  0.00  0.00    +0.000 OA
ATOM     15  N   UNL     1      -8.980  54.420  47.173  0.00  0.00    +0.000 N 
ATOM     16  C   UNL     1      -9.049  53.005  44.827  0.00  0.00    +0.000 A 
ATOM     17  C   UNL     1     -10.202  53.995  47.301  0.00  0.00    +0.000 C 
ATOM     18  C   UNL     1     -10.342  52.699  45.224  0.00  0.00    +0.000 A 
ATOM     19  C   UNL     1      -8.536  52.591  43.595  0.00  0.00    +0.000 A 
ATOM     20  N   UNL     1     -10.836  53.106  46.458  0.00  0.00    +0.000 N 
ATOM     21  C   UNL     1     -11.118  51.894  44.385  0.00  0.00    +0.000 A 
ATOM     22  C   UNL     1      -9.335  51.818  42.753  0.00  0.00    +0.000 A 
ATOM     23  C   UNL     1     -10.622  51.463  43.152  0.00  0.00    +0.000 A 
ATOM     24  H   UNL     1      -8.606  55.028  47.850  0.00  0.00    +0.000 HD
ATOM     25  H   UNL     1     -11.699  52.733  46.751  0.00  0.00    +0.000 HD
ENDBRANCH   1  17
BRANCH   3  26
ATOM     26  O   UNL     1     -12.375  55.914  47.047  0.00  0.00    +0.000 OA
ATOM     27  H   UNL     1     -12.166  56.791  46.791  0.00  0.00    +0.000 HD
ENDBRANCH   3  26
BRANCH   5  28
ATOM     28  C   UNL     1     -11.021  54.111  52.271  0.00  0.00    +0.000 C 
BRANCH  28  29
ATOM     29  C   UNL     1     -10.066  55.007  53.078  0.00  0.00    +0.000 C 
BRANCH  29  30
ATOM     30  C   UNL     1      -8.586  54.588  53.115  0.00  0.00    +0.000 C 
ATOM     31  C   UNL     1      -7.776  55.386  54.135  0.00  0.00    +0.000 C 
ATOM     32  C   UNL     1      -8.509  53.093  53.451  0.00  0.00    +0.000 C 
ENDBRANCH  29  30
ENDBRANCH  28  29
ENDBRANCH   5  28
TORSDOF 5
ENDMDL
