MODEL 1
REMARK VINA RESULT:      -8.0      0.000      0.000
REMARK  Name = 338305
REMARK  6 active torsions:
REMARK  status: ('A' for Active; 'I' for Inactive)
REMARK    1  A    between atoms: C_6  and  C_10
REMARK    2  A    between atoms: C_14  and  O_18
REMARK    3  A    between atoms: N_17  and  C_21
REMARK    4  A    between atoms: C_21  and  C_24
REMARK    5  A    between atoms: C_24  and  C_27
REMARK    6  A    between atoms: C_27  and  C_28
REMARK                            x       y       z     vdW  Elec       q    Type
REMARK                         _______ _______ _______ _____ _____    ______ ____
ROOT
ATOM      1  C   UNL     1     -10.784  55.286  51.048  0.00  0.00    +0.000 A 
ATOM      2  C   UNL     1     -12.027  55.807  51.691  0.00  0.00    +0.000 A 
ATOM      3  C   UNL     1     -10.671  55.274  49.710  0.00  0.00    +0.000 A 
ATOM      4  O   UNL     1     -12.055  55.905  52.922  0.00  0.00    +0.000 OA
ATOM      5  N   UNL     1     -13.090  56.181  50.882  0.00  0.00    +0.000 N 
ATOM      6  C   UNL     1     -11.758  55.796  48.866  0.00  0.00    +0.000 A 
ATOM      7  C   UNL     1     -12.947  56.253  49.462  0.00  0.00    +0.000 A 
ATOM      8  C   UNL     1     -11.614  55.867  47.469  0.00  0.00    +0.000 A 
ATOM      9  C   UNL     1     -13.948  56.800  48.641  0.00  0.00    +0.000 A 
ATOM     10  C   UNL     1     -12.624  56.398  46.669  0.00  0.00    +0.000 A 
ATOM     11  C   UNL     1     -13.790  56.867  47.257  0.00  0.00    +0.000 A 
ENDROOT
BRANCH   1  17
ATOM     12  S   UNL     1      -7.221  55.114  52.707  0.00  0.00    +0.000 S 
ATOM     13  O   UNL     1      -7.023  56.095  53.752  0.00  0.00    +0.000 OA
ATOM     14  O   UNL     1      -6.161  54.834  51.757  0.00  0.00    +0.000 OA
ATOM     15  N   UNL     1      -8.540  55.545  51.867  0.00  0.00    +0.000 N 
ATOM     16  C   UNL     1      -7.550  53.593  53.520  0.00  0.00    +0.000 A 
ATOM     17  C   UNL     1      -9.634  54.848  51.939  0.00  0.00    +0.000 C 
ATOM     18  C   UNL     1      -8.828  53.073  53.426  0.00  0.00    +0.000 A 
ATOM     19  C   UNL     1      -6.534  52.937  54.222  0.00  0.00    +0.000 A 
ATOM     20  N   UNL     1      -9.835  53.742  52.736  0.00  0.00    +0.000 N 
ATOM     21  C   UNL     1      -9.116  51.890  54.116  0.00  0.00    +0.000 A 
ATOM     22  C   UNL     1      -6.826  51.743  54.878  0.00  0.00    +0.000 A 
ATOM     23  C   UNL     1      -8.120  51.224  54.831  0.00  0.00    +0.000 A 
ATOM     24  H   UNL     1      -8.511  56.345  51.295  0.00  0.00    +0.000 HD
ATOM     25  H   UNL     1     -10.754  53.402  52.825  0.00  0.00    +0.000 HD
ENDBRANCH   1  17
BRANCH   3  26
ATOM     26  O   UNL     1      -9.548  54.841  49.024  0.00  0.00    +0.000 OA
ATOM     27  H   UNL     1      -8.722  54.790  49.463  0.00  0.00    +0.000 HD
ENDBRANCH   3  26
BRANCH   5  28
ATOM     28  C   UNL     1     -14.320  56.637  51.538  0.00  0.00    +0.000 C 
BRANCH  28  29
ATOM     29  C   UNL     1     -14.215  58.038  52.162  0.00  0.00    +0.000 C 
BRANCH  29  30
ATOM     30  C   UNL     1     -14.961  59.093  51.342  0.00  0.00    +0.000 C 
BRANCH  30  31
ATOM     31  C   UNL     1     -14.066  59.822  50.428  0.00  0.00    +0.000 C 
ATOM     32  C   UNL     1     -13.312  60.430  49.718  0.00  0.00    +0.000 C 
ENDBRANCH  30  31
ENDBRANCH  29  30
ENDBRANCH  28  29
ENDBRANCH   5  28
TORSDOF 6
ENDMDL
MODEL 2
REMARK VINA RESULT:      -7.9      2.454      7.593
REMARK  Name = 338305
REMARK  6 active torsions:
REMARK  status: ('A' for Active; 'I' for Inactive)
REMARK    1  A    between atoms: C_6  and  C_10
REMARK    2  A    between atoms: C_14  and  O_18
REMARK    3  A    between atoms: N_17  and  C_21
REMARK    4  A    between atoms: C_21  and  C_24
REMARK    5  A    between atoms: C_24  and  C_27
REMARK    6  A    between atoms: C_27  and  C_28
REMARK                            x       y       z     vdW  Elec       q    Type
REMARK                         _______ _______ _______ _____ _____    ______ ____
ROOT
ATOM      1  C   UNL     1     -10.215  54.545  52.118  0.00  0.00    +0.000 A 
ATOM      2  C   UNL     1      -8.835  55.069  51.899  0.00  0.00    +0.000 A 
ATOM      3  C   UNL     1     -10.410  53.453  52.875  0.00  0.00    +0.000 A 
ATOM      4  O   UNL     1      -8.701  56.135  51.290  0.00  0.00    +0.000 OA
ATOM      5  N   UNL     1      -7.761  54.353  52.408  0.00  0.00    +0.000 N 
ATOM      6  C   UNL     1      -9.270  52.778  53.516  0.00  0.00    +0.000 A 
ATOM      7  C   UNL     1      -7.963  53.243  53.285  0.00  0.00    +0.000 A 
ATOM      8  C   UNL     1      -9.472  51.687  54.379  0.00  0.00    +0.000 A 
ATOM      9  C   UNL     1      -6.896  52.619  53.953  0.00  0.00    +0.000 A 
ATOM     10  C   UNL     1      -8.400  51.070  55.021  0.00  0.00    +0.000 A 
ATOM     11  C   UNL     1      -7.111  51.540  54.809  0.00  0.00    +0.000 A 
ENDROOT
BRANCH   1  17
ATOM     12  S   UNL     1     -12.611  56.253  49.507  0.00  0.00    +0.000 S 
ATOM     13  O   UNL     1     -13.528  55.329  48.872  0.00  0.00    +0.000 OA
ATOM     14  O   UNL     1     -11.961  57.289  48.726  0.00  0.00    +0.000 OA
ATOM     15  N   UNL     1     -11.455  55.381  50.237  0.00  0.00    +0.000 N 
ATOM     16  C   UNL     1     -13.539  57.093  50.738  0.00  0.00    +0.000 A 
ATOM     17  C   UNL     1     -11.386  55.316  51.532  0.00  0.00    +0.000 C 
ATOM     18  C   UNL     1     -13.245  56.825  52.064  0.00  0.00    +0.000 A 
ATOM     19  C   UNL     1     -14.528  58.010  50.371  0.00  0.00    +0.000 A 
ATOM     20  N   UNL     1     -12.268  55.899  52.417  0.00  0.00    +0.000 N 
ATOM     21  C   UNL     1     -14.015  57.445  53.053  0.00  0.00    +0.000 A 
ATOM     22  C   UNL     1     -15.266  58.646  51.368  0.00  0.00    +0.000 A 
ATOM     23  C   UNL     1     -15.014  58.357  52.709  0.00  0.00    +0.000 A 
ATOM     24  H   UNL     1     -10.797  54.895  49.691  0.00  0.00    +0.000 HD
ATOM     25  H   UNL     1     -12.202  55.642  53.365  0.00  0.00    +0.000 HD
ENDBRANCH   1  17
BRANCH   3  26
ATOM     26  O   UNL     1     -11.653  52.911  53.161  0.00  0.00    +0.000 OA
ATOM     27  H   UNL     1     -12.395  53.473  53.269  0.00  0.00    +0.000 HD
ENDBRANCH   3  26
BRANCH   5  28
ATOM     28  C   UNL     1      -6.411  54.859  52.134  0.00  0.00    +0.000 C 
BRANCH  28  29
ATOM     29  C   UNL     1      -5.742  54.223  50.904  0.00  0.00    +0.000 C 
BRANCH  29  30
ATOM     30  C   UNL     1      -5.654  55.199  49.727  0.00  0.00    +0.000 C 
BRANCH  30  31
ATOM     31  C   UNL     1      -6.703  54.954  48.724  0.00  0.00    +0.000 C 
ATOM     32  C   UNL     1      -7.527  54.744  47.876  0.00  0.00    +0.000 C 
ENDBRANCH  30  31
ENDBRANCH  29  30
ENDBRANCH  28  29
ENDBRANCH   5  28
TORSDOF 6
ENDMDL
MODEL 3
REMARK VINA RESULT:      -7.7      3.913      7.974
REMARK  Name = 338305
REMARK  6 active torsions:
REMARK  status: ('A' for Active; 'I' for Inactive)
REMARK    1  A    between atoms: C_6  and  C_10
REMARK    2  A    between atoms: C_14  and  O_18
REMARK    3  A    between atoms: N_17  and  C_21
REMARK    4  A    between atoms: C_21  and  C_24
REMARK    5  A    between atoms: C_24  and  C_27
REMARK    6  A    between atoms: C_27  and  C_28
REMARK                            x       y       z     vdW  Elec       q    Type
REMARK                         _______ _______ _______ _____ _____    ______ ____
ROOT
ATOM      1  C   UNL     1     -12.521  54.307  49.507  0.00  0.00    +0.000 A 
ATOM      2  C   UNL     1     -11.997  54.325  48.109  0.00  0.00    +0.000 A 
ATOM      3  C   UNL     1     -12.230  53.281  50.323  0.00  0.00    +0.000 A 
ATOM      4  O   UNL     1     -12.191  55.334  47.423  0.00  0.00    +0.000 OA
ATOM      5  N   UNL     1     -11.296  53.223  47.645  0.00  0.00    +0.000 N 
ATOM      6  C   UNL     1     -11.375  52.177  49.856  0.00  0.00    +0.000 A 
ATOM      7  C   UNL     1     -10.909  52.168  48.529  0.00  0.00    +0.000 A 
ATOM      8  C   UNL     1     -10.995  51.142  50.728  0.00  0.00    +0.000 A 
ATOM      9  C   UNL     1     -10.047  51.136  48.123  0.00  0.00    +0.000 A 
ATOM     10  C   UNL     1     -10.152  50.118  50.303  0.00  0.00    +0.000 A 
ATOM     11  C   UNL     1      -9.676  50.117  48.999  0.00  0.00    +0.000 A 
ENDROOT
BRANCH   1  17
ATOM     12  S   UNL     1     -15.378  56.453  51.152  0.00  0.00    +0.000 S 
ATOM     13  O   UNL     1     -15.284  56.532  52.595  0.00  0.00    +0.000 OA
ATOM     14  O   UNL     1     -16.669  56.274  50.514  0.00  0.00    +0.000 OA
ATOM     15  N   UNL     1     -14.407  55.252  50.658  0.00  0.00    +0.000 N 
ATOM     16  C   UNL     1     -14.746  57.971  50.538  0.00  0.00    +0.000 A 
ATOM     17  C   UNL     1     -13.315  55.505  50.001  0.00  0.00    +0.000 C 
ATOM     18  C   UNL     1     -13.538  57.943  49.863  0.00  0.00    +0.000 A 
ATOM     19  C   UNL     1     -15.462  59.158  50.722  0.00  0.00    +0.000 A 
ATOM     20  N   UNL     1     -12.828  56.758  49.698  0.00  0.00    +0.000 N 
ATOM     21  C   UNL     1     -12.998  59.153  49.418  0.00  0.00    +0.000 A 
ATOM     22  C   UNL     1     -14.928  60.353  50.245  0.00  0.00    +0.000 A 
ATOM     23  C   UNL     1     -13.691  60.351  49.600  0.00  0.00    +0.000 A 
ATOM     24  H   UNL     1     -14.648  54.320  50.858  0.00  0.00    +0.000 HD
ATOM     25  H   UNL     1     -11.913  56.819  49.341  0.00  0.00    +0.000 HD
ENDBRANCH   1  17
BRANCH   3  26
ATOM     26  O   UNL     1     -12.642  53.189  51.642  0.00  0.00    +0.000 OA
ATOM     27  H   UNL     1     -12.756  53.967  52.152  0.00  0.00    +0.000 HD
ENDBRANCH   3  26
BRANCH   5  28
ATOM     28  C   UNL     1     -10.839  53.240  46.251  0.00  0.00    +0.000 C 
BRANCH  28  29
ATOM     29  C   UNL     1     -11.860  52.676  45.250  0.00  0.00    +0.000 C 
BRANCH  29  30
ATOM     30  C   UNL     1     -11.273  51.543  44.404  0.00  0.00    +0.000 C 
BRANCH  30  31
ATOM     31  C   UNL     1     -10.335  52.039  43.384  0.00  0.00    +0.000 C 
ATOM     32  C   UNL     1      -9.601  52.474  42.539  0.00  0.00    +0.000 C 
ENDBRANCH  30  31
ENDBRANCH  29  30
ENDBRANCH  28  29
ENDBRANCH   5  28
TORSDOF 6
ENDMDL
MODEL 4
REMARK VINA RESULT:      -7.6      2.391      8.024
REMARK  Name = 338305
REMARK  6 active torsions:
REMARK  status: ('A' for Active; 'I' for Inactive)
REMARK    1  A    between atoms: C_6  and  C_10
REMARK    2  A    between atoms: C_14  and  O_18
REMARK    3  A    between atoms: N_17  and  C_21
REMARK    4  A    between atoms: C_21  and  C_24
REMARK    5  A    between atoms: C_24  and  C_27
REMARK    6  A    between atoms: C_27  and  C_28
REMARK                            x       y       z     vdW  Elec       q    Type
REMARK                         _______ _______ _______ _____ _____    ______ ____
ROOT
ATOM      1  C   UNL     1     -10.335  54.412  52.314  0.00  0.00    +0.000 A 
ATOM      2  C   UNL     1      -8.938  54.935  52.253  0.00  0.00    +0.000 A 
ATOM      3  C   UNL     1     -10.606  53.291  53.002  0.00  0.00    +0.000 A 
ATOM      4  O   UNL     1      -8.743  56.025  51.706  0.00  0.00    +0.000 OA
ATOM      5  N   UNL     1      -7.921  54.191  52.832  0.00  0.00    +0.000 N 
ATOM      6  C   UNL     1      -9.535  52.581  53.720  0.00  0.00    +0.000 A 
ATOM      7  C   UNL     1      -8.211  53.045  53.637  0.00  0.00    +0.000 A 
ATOM      8  C   UNL     1      -9.824  51.455  54.512  0.00  0.00    +0.000 A 
ATOM      9  C   UNL     1      -7.215  52.386  54.377  0.00  0.00    +0.000 A 
ATOM     10  C   UNL     1      -8.820  50.805  55.227  0.00  0.00    +0.000 A 
ATOM     11  C   UNL     1      -7.515  51.273  55.161  0.00  0.00    +0.000 A 
ENDROOT
BRANCH   1  17
ATOM     12  S   UNL     1     -12.522  56.153  49.545  0.00  0.00    +0.000 S 
ATOM     13  O   UNL     1     -13.443  55.251  48.886  0.00  0.00    +0.000 OA
ATOM     14  O   UNL     1     -11.790  57.141  48.776  0.00  0.00    +0.000 OA
ATOM     15  N   UNL     1     -11.442  55.252  50.354  0.00  0.00    +0.000 N 
ATOM     16  C   UNL     1     -13.474  57.059  50.708  0.00  0.00    +0.000 A 
ATOM     17  C   UNL     1     -11.441  55.216  51.652  0.00  0.00    +0.000 C 
ATOM     18  C   UNL     1     -13.260  56.812  52.053  0.00  0.00    +0.000 A 
ATOM     19  C   UNL     1     -14.404  58.007  50.270  0.00  0.00    +0.000 A 
ATOM     20  N   UNL     1     -12.341  55.856  52.477  0.00  0.00    +0.000 N 
ATOM     21  C   UNL     1     -14.051  57.488  52.987  0.00  0.00    +0.000 A 
ATOM     22  C   UNL     1     -15.164  58.697  51.213  0.00  0.00    +0.000 A 
ATOM     23  C   UNL     1     -14.992  58.431  52.571  0.00  0.00    +0.000 A 
ATOM     24  H   UNL     1     -10.778  54.726  49.853  0.00  0.00    +0.000 HD
ATOM     25  H   UNL     1     -12.334  55.621  53.432  0.00  0.00    +0.000 HD
ENDBRANCH   1  17
BRANCH   3  26
ATOM     26  O   UNL     1     -11.872  52.746  53.142  0.00  0.00    +0.000 OA
ATOM     27  H   UNL     1     -12.628  53.259  52.933  0.00  0.00    +0.000 HD
ENDBRANCH   3  26
BRANCH   5  28
ATOM     28  C   UNL     1      -6.549  54.697  52.711  0.00  0.00    +0.000 C 
BRANCH  28  29
ATOM     29  C   UNL     1      -5.985  55.293  54.011  0.00  0.00    +0.000 C 
BRANCH  29  30
ATOM     30  C   UNL     1      -4.486  55.024  54.167  0.00  0.00    +0.000 C 
BRANCH  30  31
ATOM     31  C   UNL     1      -4.122  53.659  53.753  0.00  0.00    +0.000 C 
ATOM     32  C   UNL     1      -3.848  52.529  53.450  0.00  0.00    +0.000 C 
ENDBRANCH  30  31
ENDBRANCH  29  30
ENDBRANCH  28  29
ENDBRANCH   5  28
TORSDOF 6
ENDMDL
MODEL 5
REMARK VINA RESULT:      -7.6      1.572      1.972
REMARK  Name = 338305
REMARK  6 active torsions:
REMARK  status: ('A' for Active; 'I' for Inactive)
REMARK    1  A    between atoms: C_6  and  C_10
REMARK    2  A    between atoms: C_14  and  O_18
REMARK    3  A    between atoms: N_17  and  C_21
REMARK    4  A    between atoms: C_21  and  C_24
REMARK    5  A    between atoms: C_24  and  C_27
REMARK    6  A    between atoms: C_27  and  C_28
REMARK                            x       y       z     vdW  Elec       q    Type
REMARK                         _______ _______ _______ _____ _____    ______ ____
ROOT
ATOM      1  C   UNL     1     -10.713  54.883  50.577  0.00  0.00    +0.000 A 
ATOM      2  C   UNL     1     -11.798  55.403  51.462  0.00  0.00    +0.000 A 
ATOM      3  C   UNL     1     -10.797  55.036  49.246  0.00  0.00    +0.000 A 
ATOM      4  O   UNL     1     -11.637  55.343  52.685  0.00  0.00    +0.000 OA
ATOM      5  N   UNL     1     -12.929  55.952  50.877  0.00  0.00    +0.000 N 
ATOM      6  C   UNL     1     -11.944  55.737  48.648  0.00  0.00    +0.000 A 
ATOM      7  C   UNL     1     -12.988  56.196  49.470  0.00  0.00    +0.000 A 
ATOM      8  C   UNL     1     -11.999  55.977  47.263  0.00  0.00    +0.000 A 
ATOM      9  C   UNL     1     -14.045  56.914  48.884  0.00  0.00    +0.000 A 
ATOM     10  C   UNL     1     -13.063  56.677  46.697  0.00  0.00    +0.000 A 
ATOM     11  C   UNL     1     -14.085  57.148  47.510  0.00  0.00    +0.000 A 
ENDROOT
BRANCH   1  17
ATOM     12  S   UNL     1      -7.958  52.245  51.543  0.00  0.00    +0.000 S 
ATOM     13  O   UNL     1      -6.904  52.124  50.559  0.00  0.00    +0.000 OA
ATOM     14  O   UNL     1      -8.499  51.061  52.184  0.00  0.00    +0.000 OA
ATOM     15  N   UNL     1      -9.190  53.045  50.855  0.00  0.00    +0.000 N 
ATOM     16  C   UNL     1      -7.305  53.235  52.838  0.00  0.00    +0.000 A 
ATOM     17  C   UNL     1      -9.489  54.254  51.222  0.00  0.00    +0.000 C 
ATOM     18  C   UNL     1      -7.822  54.508  53.003  0.00  0.00    +0.000 A 
ATOM     19  C   UNL     1      -6.306  52.729  53.674  0.00  0.00    +0.000 A 
ATOM     20  N   UNL     1      -8.808  55.005  52.156  0.00  0.00    +0.000 N 
ATOM     21  C   UNL     1      -7.272  55.325  53.996  0.00  0.00    +0.000 A 
ATOM     22  C   UNL     1      -5.788  53.542  54.680  0.00  0.00    +0.000 A 
ATOM     23  C   UNL     1      -6.266  54.843  54.835  0.00  0.00    +0.000 A 
ATOM     24  H   UNL     1      -9.717  52.608  50.148  0.00  0.00    +0.000 HD
ATOM     25  H   UNL     1      -9.033  55.961  52.227  0.00  0.00    +0.000 HD
ENDBRANCH   1  17
BRANCH   3  26
ATOM     26  O   UNL     1      -9.829  54.616  48.348  0.00  0.00    +0.000 OA
ATOM     27  H   UNL     1      -9.909  54.831  47.440  0.00  0.00    +0.000 HD
ENDBRANCH   3  26
BRANCH   5  28
ATOM     28  C   UNL     1     -14.005  56.406  51.765  0.00  0.00    +0.000 C 
BRANCH  28  29
ATOM     29  C   UNL     1     -13.741  57.770  52.423  0.00  0.00    +0.000 C 
BRANCH  29  30
ATOM     30  C   UNL     1     -14.761  58.827  51.992  0.00  0.00    +0.000 C 
BRANCH  30  31
ATOM     31  C   UNL     1     -14.283  59.629  50.854  0.00  0.00    +0.000 C 
ATOM     32  C   UNL     1     -13.893  60.246  49.901  0.00  0.00    +0.000 C 
ENDBRANCH  30  31
ENDBRANCH  29  30
ENDBRANCH  28  29
ENDBRANCH   5  28
TORSDOF 6
ENDMDL
MODEL 6
REMARK VINA RESULT:      -7.5      3.109      6.915
REMARK  Name = 338305
REMARK  6 active torsions:
REMARK  status: ('A' for Active; 'I' for Inactive)
REMARK    1  A    between atoms: C_6  and  C_10
REMARK    2  A    between atoms: C_14  and  O_18
REMARK    3  A    between atoms: N_17  and  C_21
REMARK    4  A    between atoms: C_21  and  C_24
REMARK    5  A    between atoms: C_24  and  C_27
REMARK    6  A    between atoms: C_27  and  C_28
REMARK                            x       y       z     vdW  Elec       q    Type
REMARK                         _______ _______ _______ _____ _____    ______ ____
ROOT
ATOM      1  C   UNL     1     -11.413  56.045  48.817  0.00  0.00    +0.000 A 
ATOM      2  C   UNL     1     -10.356  55.467  49.700  0.00  0.00    +0.000 A 
ATOM      3  C   UNL     1     -11.499  55.666  47.531  0.00  0.00    +0.000 A 
ATOM      4  O   UNL     1     -10.374  55.754  50.901  0.00  0.00    +0.000 OA
ATOM      5  N   UNL     1      -9.413  54.616  49.143  0.00  0.00    +0.000 N 
ATOM      6  C   UNL     1     -10.570  54.663  46.987  0.00  0.00    +0.000 A 
ATOM      7  C   UNL     1      -9.548  54.142  47.801  0.00  0.00    +0.000 A 
ATOM      8  C   UNL     1     -10.706  54.197  45.667  0.00  0.00    +0.000 A 
ATOM      9  C   UNL     1      -8.710  53.143  47.278  0.00  0.00    +0.000 A 
ATOM     10  C   UNL     1      -9.855  53.217  45.160  0.00  0.00    +0.000 A 
ATOM     11  C   UNL     1      -8.858  52.688  45.968  0.00  0.00    +0.000 A 
ENDROOT
BRANCH   1  17
ATOM     12  S   UNL     1     -13.557  59.281  49.455  0.00  0.00    +0.000 S 
ATOM     13  O   UNL     1     -14.697  59.402  48.570  0.00  0.00    +0.000 OA
ATOM     14  O   UNL     1     -12.754  60.446  49.774  0.00  0.00    +0.000 OA
ATOM     15  N   UNL     1     -12.571  58.150  48.839  0.00  0.00    +0.000 N 
ATOM     16  C   UNL     1     -14.187  58.698  50.986  0.00  0.00    +0.000 A 
ATOM     17  C   UNL     1     -12.425  57.001  49.426  0.00  0.00    +0.000 C 
ATOM     18  C   UNL     1     -13.865  57.407  51.369  0.00  0.00    +0.000 A 
ATOM     19  C   UNL     1     -14.975  59.531  51.786  0.00  0.00    +0.000 A 
ATOM     20  N   UNL     1     -13.092  56.583  50.557  0.00  0.00    +0.000 N 
ATOM     21  C   UNL     1     -14.406  56.913  52.560  0.00  0.00    +0.000 A 
ATOM     22  C   UNL     1     -15.482  59.036  52.986  0.00  0.00    +0.000 A 
ATOM     23  C   UNL     1     -15.204  57.724  53.368  0.00  0.00    +0.000 A 
ATOM     24  H   UNL     1     -12.077  58.338  48.009  0.00  0.00    +0.000 HD
ATOM     25  H   UNL     1     -13.016  55.634  50.809  0.00  0.00    +0.000 HD
ENDBRANCH   1  17
BRANCH   3  26
ATOM     26  O   UNL     1     -12.462  56.120  46.645  0.00  0.00    +0.000 OA
ATOM     27  H   UNL     1     -12.719  55.586  45.919  0.00  0.00    +0.000 HD
ENDBRANCH   3  26
BRANCH   5  28
ATOM     28  C   UNL     1      -8.352  54.105  50.018  0.00  0.00    +0.000 C 
BRANCH  28  29
ATOM     29  C   UNL     1      -7.123  55.023  50.114  0.00  0.00    +0.000 C 
BRANCH  29  30
ATOM     30  C   UNL     1      -6.380  54.856  51.442  0.00  0.00    +0.000 C 
BRANCH  30  31
ATOM     31  C   UNL     1      -7.250  55.115  52.601  0.00  0.00    +0.000 C 
ATOM     32  C   UNL     1      -7.928  55.311  53.573  0.00  0.00    +0.000 C 
ENDBRANCH  30  31
ENDBRANCH  29  30
ENDBRANCH  28  29
ENDBRANCH   5  28
TORSDOF 6
ENDMDL
MODEL 7
REMARK VINA RESULT:      -7.5      3.609      7.453
REMARK  Name = 338305
REMARK  6 active torsions:
REMARK  status: ('A' for Active; 'I' for Inactive)
REMARK    1  A    between atoms: C_6  and  C_10
REMARK    2  A    between atoms: C_14  and  O_18
REMARK    3  A    between atoms: N_17  and  C_21
REMARK    4  A    between atoms: C_21  and  C_24
REMARK    5  A    between atoms: C_24  and  C_27
REMARK    6  A    between atoms: C_27  and  C_28
REMARK                            x       y       z     vdW  Elec       q    Type
REMARK                         _______ _______ _______ _____ _____    ______ ____
ROOT
ATOM      1  C   UNL     1     -11.444  55.841  48.884  0.00  0.00    +0.000 A 
ATOM      2  C   UNL     1     -11.566  55.467  47.444  0.00  0.00    +0.000 A 
ATOM      3  C   UNL     1     -10.436  55.354  49.625  0.00  0.00    +0.000 A 
ATOM      4  O   UNL     1     -12.438  56.018  46.766  0.00  0.00    +0.000 OA
ATOM      5  N   UNL     1     -10.682  54.535  46.920  0.00  0.00    +0.000 N 
ATOM      6  C   UNL     1      -9.429  54.466  49.021  0.00  0.00    +0.000 A 
ATOM      7  C   UNL     1      -9.558  54.078  47.675  0.00  0.00    +0.000 A 
ATOM      8  C   UNL     1      -8.323  54.020  49.766  0.00  0.00    +0.000 A 
ATOM      9  C   UNL     1      -8.554  53.278  47.104  0.00  0.00    +0.000 A 
ATOM     10  C   UNL     1      -7.346  53.213  49.186  0.00  0.00    +0.000 A 
ATOM     11  C   UNL     1      -7.461  52.844  47.853  0.00  0.00    +0.000 A 
ENDROOT
BRANCH   1  17
ATOM     12  S   UNL     1     -13.507  59.148  49.420  0.00  0.00    +0.000 S 
ATOM     13  O   UNL     1     -14.640  59.273  48.527  0.00  0.00    +0.000 OA
ATOM     14  O   UNL     1     -12.676  60.301  49.709  0.00  0.00    +0.000 OA
ATOM     15  N   UNL     1     -12.548  57.975  48.841  0.00  0.00    +0.000 N 
ATOM     16  C   UNL     1     -14.157  58.625  50.964  0.00  0.00    +0.000 A 
ATOM     17  C   UNL     1     -12.433  56.840  49.461  0.00  0.00    +0.000 C 
ATOM     18  C   UNL     1     -13.870  57.339  51.385  0.00  0.00    +0.000 A 
ATOM     19  C   UNL     1     -14.927  59.501  51.736  0.00  0.00    +0.000 A 
ATOM     20  N   UNL     1     -13.114  56.472  50.601  0.00  0.00    +0.000 N 
ATOM     21  C   UNL     1     -14.428  56.893  52.588  0.00  0.00    +0.000 A 
ATOM     22  C   UNL     1     -15.450  59.054  52.948  0.00  0.00    +0.000 A 
ATOM     23  C   UNL     1     -15.207  57.747  53.369  0.00  0.00    +0.000 A 
ATOM     24  H   UNL     1     -12.046  58.127  48.008  0.00  0.00    +0.000 HD
ATOM     25  H   UNL     1     -13.064  55.529  50.881  0.00  0.00    +0.000 HD
ENDBRANCH   1  17
BRANCH   3  26
ATOM     26  O   UNL     1     -10.221  55.668  50.957  0.00  0.00    +0.000 OA
ATOM     27  H   UNL     1      -9.455  56.145  51.208  0.00  0.00    +0.000 HD
ENDBRANCH   3  26
BRANCH   5  28
ATOM     28  C   UNL     1     -10.856  54.141  45.518  0.00  0.00    +0.000 C 
BRANCH  28  29
ATOM     29  C   UNL     1     -11.797  52.943  45.315  0.00  0.00    +0.000 C 
BRANCH  29  30
ATOM     30  C   UNL     1     -11.099  51.771  44.619  0.00  0.00    +0.000 C 
BRANCH  30  31
ATOM     31  C   UNL     1     -10.262  52.215  43.493  0.00  0.00    +0.000 C 
ATOM     32  C   UNL     1      -9.546  52.587  42.603  0.00  0.00    +0.000 C 
ENDBRANCH  30  31
ENDBRANCH  29  30
ENDBRANCH  28  29
ENDBRANCH   5  28
TORSDOF 6
ENDMDL
MODEL 8
REMARK VINA RESULT:      -7.5      1.523      1.851
REMARK  Name = 338305
REMARK  6 active torsions:
REMARK  status: ('A' for Active; 'I' for Inactive)
REMARK    1  A    between atoms: C_6  and  C_10
REMARK    2  A    between atoms: C_14  and  O_18
REMARK    3  A    between atoms: N_17  and  C_21
REMARK    4  A    between atoms: C_21  and  C_24
REMARK    5  A    between atoms: C_24  and  C_27
REMARK    6  A    between atoms: C_27  and  C_28
REMARK                            x       y       z     vdW  Elec       q    Type
REMARK                         _______ _______ _______ _____ _____    ______ ____
ROOT
ATOM      1  C   UNL     1     -10.031  54.418  50.971  0.00  0.00    +0.000 A 
ATOM      2  C   UNL     1     -11.190  55.295  51.312  0.00  0.00    +0.000 A 
ATOM      3  C   UNL     1      -9.759  54.129  49.688  0.00  0.00    +0.000 A 
ATOM      4  O   UNL     1     -11.346  55.629  52.491  0.00  0.00    +0.000 OA
ATOM      5  N   UNL     1     -12.029  55.720  50.292  0.00  0.00    +0.000 N 
ATOM      6  C   UNL     1     -10.583  54.693  48.607  0.00  0.00    +0.000 A 
ATOM      7  C   UNL     1     -11.698  55.490  48.921  0.00  0.00    +0.000 A 
ATOM      8  C   UNL     1     -10.254  54.467  47.258  0.00  0.00    +0.000 A 
ATOM      9  C   UNL     1     -12.435  56.065  47.872  0.00  0.00    +0.000 A 
ATOM     10  C   UNL     1     -11.007  55.032  46.231  0.00  0.00    +0.000 A 
ATOM     11  C   UNL     1     -12.097  55.834  46.539  0.00  0.00    +0.000 A 
ENDROOT
BRANCH   1  17
ATOM     12  S   UNL     1      -6.875  53.945  53.271  0.00  0.00    +0.000 S 
ATOM     13  O   UNL     1      -6.706  55.004  54.244  0.00  0.00    +0.000 OA
ATOM     14  O   UNL     1      -5.725  53.414  52.563  0.00  0.00    +0.000 OA
ATOM     15  N   UNL     1      -7.947  54.456  52.166  0.00  0.00    +0.000 N 
ATOM     16  C   UNL     1      -7.572  52.589  54.140  0.00  0.00    +0.000 A 
ATOM     17  C   UNL     1      -9.133  53.931  52.095  0.00  0.00    +0.000 C 
ATOM     18  C   UNL     1      -8.882  52.244  53.857  0.00  0.00    +0.000 A 
ATOM     19  C   UNL     1      -6.807  51.884  55.074  0.00  0.00    +0.000 A 
ATOM     20  N   UNL     1      -9.638  52.962  52.936  0.00  0.00    +0.000 N 
ATOM     21  C   UNL     1      -9.465  51.200  54.583  0.00  0.00    +0.000 A 
ATOM     22  C   UNL     1      -7.390  50.825  55.767  0.00  0.00    +0.000 A 
ATOM     23  C   UNL     1      -8.722  50.489  55.527  0.00  0.00    +0.000 A 
ATOM     24  H   UNL     1      -7.696  55.173  51.541  0.00  0.00    +0.000 HD
ATOM     25  H   UNL     1     -10.601  52.765  52.882  0.00  0.00    +0.000 HD
ENDBRANCH   1  17
BRANCH   3  26
ATOM     26  O   UNL     1      -8.690  53.352  49.271  0.00  0.00    +0.000 OA
ATOM     27  H   UNL     1      -8.818  52.443  49.083  0.00  0.00    +0.000 HD
ENDBRANCH   3  26
BRANCH   5  28
ATOM     28  C   UNL     1     -13.192  56.536  50.659  0.00  0.00    +0.000 C 
BRANCH  28  29
ATOM     29  C   UNL     1     -14.509  55.747  50.743  0.00  0.00    +0.000 C 
BRANCH  29  30
ATOM     30  C   UNL     1     -15.679  56.625  51.197  0.00  0.00    +0.000 C 
BRANCH  30  31
ATOM     31  C   UNL     1     -15.348  57.415  52.394  0.00  0.00    +0.000 C 
ATOM     32  C   UNL     1     -15.098  58.028  53.396  0.00  0.00    +0.000 C 
ENDBRANCH  30  31
ENDBRANCH  29  30
ENDBRANCH  28  29
ENDBRANCH   5  28
TORSDOF 6
ENDMDL
MODEL 9
REMARK VINA RESULT:      -7.4      2.348      7.746
REMARK  Name = 338305
REMARK  6 active torsions:
REMARK  status: ('A' for Active; 'I' for Inactive)
REMARK    1  A    between atoms: C_6  and  C_10
REMARK    2  A    between atoms: C_14  and  O_18
REMARK    3  A    between atoms: N_17  and  C_21
REMARK    4  A    between atoms: C_21  and  C_24
REMARK    5  A    between atoms: C_24  and  C_27
REMARK    6  A    between atoms: C_27  and  C_28
REMARK                            x       y       z     vdW  Elec       q    Type
REMARK                         _______ _______ _______ _____ _____    ______ ____
ROOT
ATOM      1  C   UNL     1     -10.152  54.530  52.056  0.00  0.00    +0.000 A 
ATOM      2  C   UNL     1      -8.744  55.011  51.937  0.00  0.00    +0.000 A 
ATOM      3  C   UNL     1     -10.436  53.450  52.802  0.00  0.00    +0.000 A 
ATOM      4  O   UNL     1      -8.534  56.068  51.333  0.00  0.00    +0.000 OA
ATOM      5  N   UNL     1      -7.733  54.267  52.527  0.00  0.00    +0.000 N 
ATOM      6  C   UNL     1      -9.367  52.746  53.528  0.00  0.00    +0.000 A 
ATOM      7  C   UNL     1      -8.033  53.170  53.392  0.00  0.00    +0.000 A 
ATOM      8  C   UNL     1      -9.665  51.668  54.380  0.00  0.00    +0.000 A 
ATOM      9  C   UNL     1      -7.037  52.519  54.140  0.00  0.00    +0.000 A 
ATOM     10  C   UNL     1      -8.661  51.024  55.102  0.00  0.00    +0.000 A 
ATOM     11  C   UNL     1      -7.347  51.453  54.983  0.00  0.00    +0.000 A 
ENDROOT
BRANCH   1  17
ATOM     12  S   UNL     1     -13.504  56.515  51.505  0.00  0.00    +0.000 S 
ATOM     13  O   UNL     1     -13.442  57.890  51.954  0.00  0.00    +0.000 OA
ATOM     14  O   UNL     1     -14.689  55.718  51.757  0.00  0.00    +0.000 OA
ATOM     15  N   UNL     1     -12.233  55.730  52.136  0.00  0.00    +0.000 N 
ATOM     16  C   UNL     1     -13.321  56.563  49.760  0.00  0.00    +0.000 A 
ATOM     17  C   UNL     1     -11.253  55.332  51.382  0.00  0.00    +0.000 C 
ATOM     18  C   UNL     1     -12.151  56.059  49.218  0.00  0.00    +0.000 A 
ATOM     19  C   UNL     1     -14.342  57.083  48.959  0.00  0.00    +0.000 A 
ATOM     20  N   UNL     1     -11.135  55.557  50.027  0.00  0.00    +0.000 N 
ATOM     21  C   UNL     1     -11.970  56.142  47.834  0.00  0.00    +0.000 A 
ATOM     22  C   UNL     1     -14.162  57.130  47.578  0.00  0.00    +0.000 A 
ATOM     23  C   UNL     1     -12.972  56.667  47.017  0.00  0.00    +0.000 A 
ATOM     24  H   UNL     1     -12.204  55.553  53.103  0.00  0.00    +0.000 HD
ATOM     25  H   UNL     1     -10.273  55.348  49.601  0.00  0.00    +0.000 HD
ENDBRANCH   1  17
BRANCH   3  26
ATOM     26  O   UNL     1     -11.712  52.948  52.998  0.00  0.00    +0.000 OA
ATOM     27  H   UNL     1     -12.459  53.470  52.781  0.00  0.00    +0.000 HD
ENDBRANCH   3  26
BRANCH   5  28
ATOM     28  C   UNL     1      -6.352  54.730  52.350  0.00  0.00    +0.000 C 
BRANCH  28  29
ATOM     29  C   UNL     1      -5.569  53.967  51.269  0.00  0.00    +0.000 C 
BRANCH  29  30
ATOM     30  C   UNL     1      -5.225  54.855  50.070  0.00  0.00    +0.000 C 
BRANCH  30  31
ATOM     31  C   UNL     1      -6.297  54.863  49.061  0.00  0.00    +0.000 C 
ATOM     32  C   UNL     1      -7.149  54.838  48.215  0.00  0.00    +0.000 C 
ENDBRANCH  30  31
ENDBRANCH  29  30
ENDBRANCH  28  29
ENDBRANCH   5  28
TORSDOF 6
ENDMDL
