MODEL 1
REMARK VINA RESULT:      -8.8      0.000      0.000
REMARK  Name = 338549
REMARK  5 active torsions:
REMARK  status: ('A' for Active; 'I' for Inactive)
REMARK    1  A    between atoms: C_6  and  C_10
REMARK    2  A    between atoms: C_14  and  O_18
REMARK    3  A    between atoms: N_17  and  C_21
REMARK    4  A    between atoms: C_21  and  C_24
REMARK    5  A    between atoms: C_24  and  N_27
REMARK                            x       y       z     vdW  Elec       q    Type
REMARK                         _______ _______ _______ _____ _____    ______ ____
ROOT
ATOM      1  C   UNL     1     -11.813  53.988  51.030  0.00  0.00    +0.000 A 
ATOM      2  C   UNL     1     -10.921  53.860  52.227  0.00  0.00    +0.000 A 
ATOM      3  C   UNL     1     -11.860  52.994  50.124  0.00  0.00    +0.000 A 
ATOM      4  O   UNL     1     -10.846  54.818  53.001  0.00  0.00    +0.000 OA
ATOM      5  N   UNL     1     -10.207  52.680  52.409  0.00  0.00    +0.000 N 
ATOM      6  C   UNL     1     -11.108  51.749  50.334  0.00  0.00    +0.000 A 
ATOM      7  C   UNL     1     -10.317  51.593  51.484  0.00  0.00    +0.000 A 
ATOM      8  C   UNL     1     -11.202  50.695  49.407  0.00  0.00    +0.000 A 
ATOM      9  C   UNL     1      -9.663  50.365  51.685  0.00  0.00    +0.000 A 
ATOM     10  C   UNL     1     -10.524  49.496  49.609  0.00  0.00    +0.000 A 
ATOM     11  C   UNL     1      -9.755  49.332  50.750  0.00  0.00    +0.000 A 
ENDROOT
BRANCH   1  17
ATOM     12  S   UNL     1     -13.420  57.098  49.229  0.00  0.00    +0.000 S 
ATOM     13  O   UNL     1     -14.529  56.687  48.395  0.00  0.00    +0.000 OA
ATOM     14  O   UNL     1     -12.485  58.103  48.766  0.00  0.00    +0.000 OA
ATOM     15  N   UNL     1     -12.560  55.783  49.620  0.00  0.00    +0.000 N 
ATOM     16  C   UNL     1     -14.133  57.740  50.699  0.00  0.00    +0.000 A 
ATOM     17  C   UNL     1     -12.609  55.267  50.814  0.00  0.00    +0.000 C 
ATOM     18  C   UNL     1     -14.027  56.982  51.856  0.00  0.00    +0.000 A 
ATOM     19  C   UNL     1     -14.788  58.975  50.674  0.00  0.00    +0.000 A 
ATOM     20  N   UNL     1     -13.310  55.791  51.877  0.00  0.00    +0.000 N 
ATOM     21  C   UNL     1     -14.585  57.497  53.031  0.00  0.00    +0.000 A 
ATOM     22  C   UNL     1     -15.348  59.468  51.849  0.00  0.00    +0.000 A 
ATOM     23  C   UNL     1     -15.246  58.729  53.027  0.00  0.00    +0.000 A 
ATOM     24  H   UNL     1     -11.986  55.363  48.939  0.00  0.00    +0.000 HD
ATOM     25  H   UNL     1     -13.302  55.282  52.720  0.00  0.00    +0.000 HD
ENDBRANCH   1  17
BRANCH   3  26
ATOM     26  O   UNL     1     -12.598  53.033  48.952  0.00  0.00    +0.000 OA
ATOM     27  H   UNL     1     -12.667  52.267  48.417  0.00  0.00    +0.000 HD
ENDBRANCH   3  26
BRANCH   5  28
ATOM     28  C   UNL     1      -9.356  52.559  53.609  0.00  0.00    +0.000 C 
BRANCH  28  29
ATOM     29  C   UNL     1      -7.951  53.193  53.452  0.00  0.00    +0.000 C 
BRANCH  29  30
ATOM     30  N   UNL     1      -7.521  54.096  54.543  0.00  0.00    +0.000 N 
ATOM     31  C   UNL     1      -7.756  55.505  54.163  0.00  0.00    +0.000 C 
ATOM     32  C   UNL     1      -6.085  54.046  54.863  0.00  0.00    +0.000 C 
ATOM     33  C   UNL     1      -6.514  55.907  53.385  0.00  0.00    +0.000 C 
ATOM     34  C   UNL     1      -5.399  55.190  54.119  0.00  0.00    +0.000 C 
ATOM     35  H   UNL     1      -8.065  53.778  55.345  0.00  0.00    +0.000 HD
ENDBRANCH  29  30
ENDBRANCH  28  29
ENDBRANCH   5  28
TORSDOF 5
ENDMDL
MODEL 2
REMARK VINA RESULT:      -8.7      2.453      3.650
REMARK  Name = 338549
REMARK  5 active torsions:
REMARK  status: ('A' for Active; 'I' for Inactive)
REMARK    1  A    between atoms: C_6  and  C_10
REMARK    2  A    between atoms: C_14  and  O_18
REMARK    3  A    between atoms: N_17  and  C_21
REMARK    4  A    between atoms: C_21  and  C_24
REMARK    5  A    between atoms: C_24  and  N_27
REMARK                            x       y       z     vdW  Elec       q    Type
REMARK                         _______ _______ _______ _____ _____    ______ ____
ROOT
ATOM      1  C   UNL     1     -10.003  54.449  52.435  0.00  0.00    +0.000 A 
ATOM      2  C   UNL     1      -8.601  54.965  52.318  0.00  0.00    +0.000 A 
ATOM      3  C   UNL     1     -10.242  53.316  53.122  0.00  0.00    +0.000 A 
ATOM      4  O   UNL     1      -8.407  55.966  51.622  0.00  0.00    +0.000 OA
ATOM      5  N   UNL     1      -7.581  54.292  52.982  0.00  0.00    +0.000 N 
ATOM      6  C   UNL     1      -9.156  52.621  53.827  0.00  0.00    +0.000 A 
ATOM      7  C   UNL     1      -7.848  53.132  53.776  0.00  0.00    +0.000 A 
ATOM      8  C   UNL     1      -9.422  51.466  54.584  0.00  0.00    +0.000 A 
ATOM      9  C   UNL     1      -6.845  52.479  54.515  0.00  0.00    +0.000 A 
ATOM     10  C   UNL     1      -8.411  50.817  55.286  0.00  0.00    +0.000 A 
ATOM     11  C   UNL     1      -7.121  51.325  55.251  0.00  0.00    +0.000 A 
ENDROOT
BRANCH   1  17
ATOM     12  S   UNL     1     -12.302  55.794  49.536  0.00  0.00    +0.000 S 
ATOM     13  O   UNL     1     -13.116  54.727  48.994  0.00  0.00    +0.000 OA
ATOM     14  O   UNL     1     -11.691  56.771  48.658  0.00  0.00    +0.000 OA
ATOM     15  N   UNL     1     -11.117  55.134  50.421  0.00  0.00    +0.000 N 
ATOM     16  C   UNL     1     -13.348  56.700  50.615  0.00  0.00    +0.000 A 
ATOM     17  C   UNL     1     -11.136  55.173  51.722  0.00  0.00    +0.000 C 
ATOM     18  C   UNL     1     -13.141  56.569  51.980  0.00  0.00    +0.000 A 
ATOM     19  C   UNL     1     -14.358  57.511  50.088  0.00  0.00    +0.000 A 
ATOM     20  N   UNL     1     -12.087  55.815  52.483  0.00  0.00    +0.000 N 
ATOM     21  C   UNL     1     -13.967  57.299  52.842  0.00  0.00    +0.000 A 
ATOM     22  C   UNL     1     -15.179  58.222  50.959  0.00  0.00    +0.000 A 
ATOM     23  C   UNL     1     -14.983  58.116  52.336  0.00  0.00    +0.000 A 
ATOM     24  H   UNL     1     -10.364  54.694  49.965  0.00  0.00    +0.000 HD
ATOM     25  H   UNL     1     -12.015  55.733  53.461  0.00  0.00    +0.000 HD
ENDBRANCH   1  17
BRANCH   3  26
ATOM     26  O   UNL     1     -11.484  52.716  53.240  0.00  0.00    +0.000 OA
ATOM     27  H   UNL     1     -12.117  53.064  53.836  0.00  0.00    +0.000 HD
ENDBRANCH   3  26
BRANCH   5  28
ATOM     28  C   UNL     1      -6.210  54.832  52.881  0.00  0.00    +0.000 C 
BRANCH  28  29
ATOM     29  C   UNL     1      -5.392  54.254  51.700  0.00  0.00    +0.000 C 
BRANCH  29  30
ATOM     30  N   UNL     1      -6.012  54.376  50.361  0.00  0.00    +0.000 N 
ATOM     31  C   UNL     1      -6.289  53.035  49.803  0.00  0.00    +0.000 C 
ATOM     32  C   UNL     1      -5.169  55.020  49.340  0.00  0.00    +0.000 C 
ATOM     33  C   UNL     1      -4.993  52.621  49.129  0.00  0.00    +0.000 C 
ATOM     34  C   UNL     1      -4.480  53.919  48.537  0.00  0.00    +0.000 C 
ATOM     35  H   UNL     1      -6.841  54.943  50.532  0.00  0.00    +0.000 HD
ENDBRANCH  29  30
ENDBRANCH  28  29
ENDBRANCH   5  28
TORSDOF 5
ENDMDL
MODEL 3
REMARK VINA RESULT:      -8.4      3.133      7.443
REMARK  Name = 338549
REMARK  5 active torsions:
REMARK  status: ('A' for Active; 'I' for Inactive)
REMARK    1  A    between atoms: C_6  and  C_10
REMARK    2  A    between atoms: C_14  and  O_18
REMARK    3  A    between atoms: N_17  and  C_21
REMARK    4  A    between atoms: C_21  and  C_24
REMARK    5  A    between atoms: C_24  and  N_27
REMARK                            x       y       z     vdW  Elec       q    Type
REMARK                         _______ _______ _______ _____ _____    ______ ____
ROOT
ATOM      1  C   UNL     1      -9.562  54.138  50.808  0.00  0.00    +0.000 A 
ATOM      2  C   UNL     1     -10.697  55.058  51.138  0.00  0.00    +0.000 A 
ATOM      3  C   UNL     1      -9.353  53.767  49.531  0.00  0.00    +0.000 A 
ATOM      4  O   UNL     1     -10.905  55.323  52.326  0.00  0.00    +0.000 OA
ATOM      5  N   UNL     1     -11.476  55.562  50.101  0.00  0.00    +0.000 N 
ATOM      6  C   UNL     1     -10.177  54.315  48.445  0.00  0.00    +0.000 A 
ATOM      7  C   UNL     1     -11.205  55.227  48.736  0.00  0.00    +0.000 A 
ATOM      8  C   UNL     1      -9.920  53.960  47.108  0.00  0.00    +0.000 A 
ATOM      9  C   UNL     1     -11.930  55.782  47.667  0.00  0.00    +0.000 A 
ATOM     10  C   UNL     1     -10.668  54.498  46.064  0.00  0.00    +0.000 A 
ATOM     11  C   UNL     1     -11.674  55.410  46.345  0.00  0.00    +0.000 A 
ENDROOT
BRANCH   1  17
ATOM     12  S   UNL     1      -6.411  53.448  53.065  0.00  0.00    +0.000 S 
ATOM     13  O   UNL     1      -6.110  54.601  53.887  0.00  0.00    +0.000 OA
ATOM     14  O   UNL     1      -5.344  52.696  52.435  0.00  0.00    +0.000 OA
ATOM     15  N   UNL     1      -7.433  53.906  51.896  0.00  0.00    +0.000 N 
ATOM     16  C   UNL     1      -7.251  52.316  54.111  0.00  0.00    +0.000 A 
ATOM     17  C   UNL     1      -8.693  53.580  51.926  0.00  0.00    +0.000 C 
ATOM     18  C   UNL     1      -8.613  52.142  53.916  0.00  0.00    +0.000 A 
ATOM     19  C   UNL     1      -6.546  51.631  55.106  0.00  0.00    +0.000 A 
ATOM     20  N   UNL     1      -9.282  52.776  52.876  0.00  0.00    +0.000 N 
ATOM     21  C   UNL     1      -9.282  51.231  54.741  0.00  0.00    +0.000 A 
ATOM     22  C   UNL     1      -7.228  50.738  55.926  0.00  0.00    +0.000 A 
ATOM     23  C   UNL     1      -8.596  50.538  55.743  0.00  0.00    +0.000 A 
ATOM     24  H   UNL     1      -7.094  54.444  51.144  0.00  0.00    +0.000 HD
ATOM     25  H   UNL     1     -10.255  52.639  52.813  0.00  0.00    +0.000 HD
ENDBRANCH   1  17
BRANCH   3  26
ATOM     26  O   UNL     1      -8.376  52.874  49.122  0.00  0.00    +0.000 OA
ATOM     27  H   UNL     1      -8.520  51.952  49.207  0.00  0.00    +0.000 HD
ENDBRANCH   3  26
BRANCH   5  28
ATOM     28  C   UNL     1     -12.572  56.491  50.441  0.00  0.00    +0.000 C 
BRANCH  28  29
ATOM     29  C   UNL     1     -13.902  55.787  50.809  0.00  0.00    +0.000 C 
BRANCH  29  30
ATOM     30  N   UNL     1     -14.549  56.237  52.062  0.00  0.00    +0.000 N 
ATOM     31  C   UNL     1     -15.850  56.874  51.766  0.00  0.00    +0.000 C 
ATOM     32  C   UNL     1     -13.809  57.267  52.810  0.00  0.00    +0.000 C 
ATOM     33  C   UNL     1     -15.509  58.323  51.459  0.00  0.00    +0.000 C 
ATOM     34  C   UNL     1     -14.388  58.628  52.433  0.00  0.00    +0.000 C 
ATOM     35  H   UNL     1     -14.612  55.385  52.618  0.00  0.00    +0.000 HD
ENDBRANCH  29  30
ENDBRANCH  28  29
ENDBRANCH   5  28
TORSDOF 5
ENDMDL
MODEL 4
REMARK VINA RESULT:      -8.3      2.775      3.300
REMARK  Name = 338549
REMARK  5 active torsions:
REMARK  status: ('A' for Active; 'I' for Inactive)
REMARK    1  A    between atoms: C_6  and  C_10
REMARK    2  A    between atoms: C_14  and  O_18
REMARK    3  A    between atoms: N_17  and  C_21
REMARK    4  A    between atoms: C_21  and  C_24
REMARK    5  A    between atoms: C_24  and  N_27
REMARK                            x       y       z     vdW  Elec       q    Type
REMARK                         _______ _______ _______ _____ _____    ______ ____
ROOT
ATOM      1  C   UNL     1     -11.296  56.022  48.835  0.00  0.00    +0.000 A 
ATOM      2  C   UNL     1     -10.056  55.618  49.573  0.00  0.00    +0.000 A 
ATOM      3  C   UNL     1     -11.499  55.581  47.580  0.00  0.00    +0.000 A 
ATOM      4  O   UNL     1      -9.864  56.096  50.694  0.00  0.00    +0.000 OA
ATOM      5  N   UNL     1      -9.168  54.739  48.961  0.00  0.00    +0.000 N 
ATOM      6  C   UNL     1     -10.558  54.645  46.951  0.00  0.00    +0.000 A 
ATOM      7  C   UNL     1      -9.424  54.211  47.656  0.00  0.00    +0.000 A 
ATOM      8  C   UNL     1     -10.804  54.150  45.656  0.00  0.00    +0.000 A 
ATOM      9  C   UNL     1      -8.579  53.265  47.048  0.00  0.00    +0.000 A 
ATOM     10  C   UNL     1      -9.941  53.235  45.060  0.00  0.00    +0.000 A 
ATOM     11  C   UNL     1      -8.828  52.792  45.758  0.00  0.00    +0.000 A 
ENDROOT
BRANCH   1  17
ATOM     12  S   UNL     1     -13.512  59.217  49.449  0.00  0.00    +0.000 S 
ATOM     13  O   UNL     1     -14.633  59.243  48.534  0.00  0.00    +0.000 OA
ATOM     14  O   UNL     1     -12.784  60.433  49.754  0.00  0.00    +0.000 OA
ATOM     15  N   UNL     1     -12.436  58.134  48.909  0.00  0.00    +0.000 N 
ATOM     16  C   UNL     1     -14.149  58.637  50.978  0.00  0.00    +0.000 A 
ATOM     17  C   UNL     1     -12.284  56.978  49.488  0.00  0.00    +0.000 C 
ATOM     18  C   UNL     1     -13.815  57.351  51.373  0.00  0.00    +0.000 A 
ATOM     19  C   UNL     1     -14.973  59.464  51.748  0.00  0.00    +0.000 A 
ATOM     20  N   UNL     1     -12.936  56.570  50.630  0.00  0.00    +0.000 N 
ATOM     21  C   UNL     1     -14.312  56.890  52.597  0.00  0.00    +0.000 A 
ATOM     22  C   UNL     1     -15.469  58.987  52.958  0.00  0.00    +0.000 A 
ATOM     23  C   UNL     1     -15.139  57.700  53.382  0.00  0.00    +0.000 A 
ATOM     24  H   UNL     1     -11.885  58.354  48.124  0.00  0.00    +0.000 HD
ATOM     25  H   UNL     1     -12.767  55.653  50.945  0.00  0.00    +0.000 HD
ENDBRANCH   1  17
BRANCH   3  26
ATOM     26  O   UNL     1     -12.575  55.941  46.786  0.00  0.00    +0.000 OA
ATOM     27  H   UNL     1     -12.569  55.740  45.871  0.00  0.00    +0.000 HD
ENDBRANCH   3  26
BRANCH   5  28
ATOM     28  C   UNL     1      -7.966  54.328  49.713  0.00  0.00    +0.000 C 
BRANCH  28  29
ATOM     29  C   UNL     1      -8.265  53.411  50.926  0.00  0.00    +0.000 C 
BRANCH  29  30
ATOM     30  N   UNL     1      -7.323  53.514  52.064  0.00  0.00    +0.000 N 
ATOM     31  C   UNL     1      -8.057  53.426  53.344  0.00  0.00    +0.000 C 
ATOM     32  C   UNL     1      -6.596  54.791  52.157  0.00  0.00    +0.000 C 
ATOM     33  C   UNL     1      -8.508  54.848  53.630  0.00  0.00    +0.000 C 
ATOM     34  C   UNL     1      -7.341  55.685  53.145  0.00  0.00    +0.000 C 
ATOM     35  H   UNL     1      -6.666  52.753  51.899  0.00  0.00    +0.000 HD
ENDBRANCH  29  30
ENDBRANCH  28  29
ENDBRANCH   5  28
TORSDOF 5
ENDMDL
MODEL 5
REMARK VINA RESULT:      -8.3      3.877      6.805
REMARK  Name = 338549
REMARK  5 active torsions:
REMARK  status: ('A' for Active; 'I' for Inactive)
REMARK    1  A    between atoms: C_6  and  C_10
REMARK    2  A    between atoms: C_14  and  O_18
REMARK    3  A    between atoms: N_17  and  C_21
REMARK    4  A    between atoms: C_21  and  C_24
REMARK    5  A    between atoms: C_24  and  N_27
REMARK                            x       y       z     vdW  Elec       q    Type
REMARK                         _______ _______ _______ _____ _____    ______ ____
ROOT
ATOM      1  C   UNL     1     -11.048  54.660  48.284  0.00  0.00    +0.000 A 
ATOM      2  C   UNL     1     -10.769  54.138  49.661  0.00  0.00    +0.000 A 
ATOM      3  C   UNL     1     -12.033  55.557  48.098  0.00  0.00    +0.000 A 
ATOM      4  O   UNL     1      -9.908  53.263  49.787  0.00  0.00    +0.000 OA
ATOM      5  N   UNL     1     -11.499  54.645  50.731  0.00  0.00    +0.000 N 
ATOM      6  C   UNL     1     -12.789  56.092  49.239  0.00  0.00    +0.000 A 
ATOM      7  C   UNL     1     -12.494  55.655  50.541  0.00  0.00    +0.000 A 
ATOM      8  C   UNL     1     -13.784  57.067  49.042  0.00  0.00    +0.000 A 
ATOM      9  C   UNL     1     -13.191  56.235  51.616  0.00  0.00    +0.000 A 
ATOM     10  C   UNL     1     -14.484  57.609  50.116  0.00  0.00    +0.000 A 
ATOM     11  C   UNL     1     -14.186  57.193  51.404  0.00  0.00    +0.000 A 
ENDROOT
BRANCH   1  17
ATOM     12  S   UNL     1      -8.062  54.025  45.798  0.00  0.00    +0.000 S 
ATOM     13  O   UNL     1      -7.076  53.151  46.399  0.00  0.00    +0.000 OA
ATOM     14  O   UNL     1      -7.648  55.171  45.015  0.00  0.00    +0.000 OA
ATOM     15  N   UNL     1      -9.042  54.569  46.967  0.00  0.00    +0.000 N 
ATOM     16  C   UNL     1      -9.009  53.016  44.719  0.00  0.00    +0.000 A 
ATOM     17  C   UNL     1     -10.258  54.124  47.099  0.00  0.00    +0.000 C 
ATOM     18  C   UNL     1     -10.305  52.698  45.099  0.00  0.00    +0.000 A 
ATOM     19  C   UNL     1      -8.447  52.554  43.524  0.00  0.00    +0.000 A 
ATOM     20  N   UNL     1     -10.870  53.225  46.254  0.00  0.00    +0.000 N 
ATOM     21  C   UNL     1     -11.065  51.903  44.234  0.00  0.00    +0.000 A 
ATOM     22  C   UNL     1      -9.213  51.755  42.681  0.00  0.00    +0.000 A 
ATOM     23  C   UNL     1     -10.522  51.430  43.036  0.00  0.00    +0.000 A 
ATOM     24  H   UNL     1      -8.710  55.252  47.594  0.00  0.00    +0.000 HD
ATOM     25  H   UNL     1     -11.780  52.932  46.487  0.00  0.00    +0.000 HD
ENDBRANCH   1  17
BRANCH   3  26
ATOM     26  O   UNL     1     -12.418  56.057  46.865  0.00  0.00    +0.000 OA
ATOM     27  H   UNL     1     -13.281  55.889  46.540  0.00  0.00    +0.000 HD
ENDBRANCH   3  26
BRANCH   5  28
ATOM     28  C   UNL     1     -11.191  54.141  52.084  0.00  0.00    +0.000 C 
BRANCH  28  29
ATOM     29  C   UNL     1     -10.059  54.917  52.803  0.00  0.00    +0.000 C 
BRANCH  29  30
ATOM     30  N   UNL     1      -8.676  54.536  52.435  0.00  0.00    +0.000 N 
ATOM     31  C   UNL     1      -7.950  54.039  53.622  0.00  0.00    +0.000 C 
ATOM     32  C   UNL     1      -7.838  55.640  51.938  0.00  0.00    +0.000 C 
ATOM     33  C   UNL     1      -7.394  55.288  54.286  0.00  0.00    +0.000 C 
ATOM     34  C   UNL     1      -7.009  56.163  53.109  0.00  0.00    +0.000 C 
ATOM     35  H   UNL     1      -8.808  53.844  51.698  0.00  0.00    +0.000 HD
ENDBRANCH  29  30
ENDBRANCH  28  29
ENDBRANCH   5  28
TORSDOF 5
ENDMDL
MODEL 6
REMARK VINA RESULT:      -8.2      3.594      7.718
REMARK  Name = 338549
REMARK  5 active torsions:
REMARK  status: ('A' for Active; 'I' for Inactive)
REMARK    1  A    between atoms: C_6  and  C_10
REMARK    2  A    between atoms: C_14  and  O_18
REMARK    3  A    between atoms: N_17  and  C_21
REMARK    4  A    between atoms: C_21  and  C_24
REMARK    5  A    between atoms: C_24  and  N_27
REMARK                            x       y       z     vdW  Elec       q    Type
REMARK                         _______ _______ _______ _____ _____    ______ ____
ROOT
ATOM      1  C   UNL     1     -10.155  55.100  50.624  0.00  0.00    +0.000 A 
ATOM      2  C   UNL     1      -9.779  55.053  49.174  0.00  0.00    +0.000 A 
ATOM      3  C   UNL     1     -11.329  55.644  50.991  0.00  0.00    +0.000 A 
ATOM      4  O   UNL     1      -8.665  54.613  48.876  0.00  0.00    +0.000 OA
ATOM      5  N   UNL     1     -10.688  55.518  48.230  0.00  0.00    +0.000 N 
ATOM      6  C   UNL     1     -12.284  56.123  49.983  0.00  0.00    +0.000 A 
ATOM      7  C   UNL     1     -11.969  56.027  48.617  0.00  0.00    +0.000 A 
ATOM      8  C   UNL     1     -13.531  56.645  50.373  0.00  0.00    +0.000 A 
ATOM      9  C   UNL     1     -12.932  56.434  47.677  0.00  0.00    +0.000 A 
ATOM     10  C   UNL     1     -14.461  57.069  49.428  0.00  0.00    +0.000 A 
ATOM     11  C   UNL     1     -14.161  56.962  48.079  0.00  0.00    +0.000 A 
ENDROOT
BRANCH   1  17
ATOM     12  S   UNL     1      -6.947  54.843  52.892  0.00  0.00    +0.000 S 
ATOM     13  O   UNL     1      -6.962  55.868  53.914  0.00  0.00    +0.000 OA
ATOM     14  O   UNL     1      -5.718  54.514  52.199  0.00  0.00    +0.000 OA
ATOM     15  N   UNL     1      -8.046  55.227  51.766  0.00  0.00    +0.000 N 
ATOM     16  C   UNL     1      -7.469  53.365  53.681  0.00  0.00    +0.000 A 
ATOM     17  C   UNL     1      -9.178  54.590  51.674  0.00  0.00    +0.000 C 
ATOM     18  C   UNL     1      -8.738  52.886  53.389  0.00  0.00    +0.000 A 
ATOM     19  C   UNL     1      -6.616  52.716  54.580  0.00  0.00    +0.000 A 
ATOM     20  N   UNL     1      -9.543  53.505  52.439  0.00  0.00    +0.000 N 
ATOM     21  C   UNL     1      -9.151  51.702  54.008  0.00  0.00    +0.000 A 
ATOM     22  C   UNL     1      -7.047  51.546  55.197  0.00  0.00    +0.000 A 
ATOM     23  C   UNL     1      -8.314  51.039  54.911  0.00  0.00    +0.000 A 
ATOM     24  H   UNL     1      -7.855  55.960  51.138  0.00  0.00    +0.000 HD
ATOM     25  H   UNL     1     -10.446  53.138  52.302  0.00  0.00    +0.000 HD
ENDBRANCH   1  17
BRANCH   3  26
ATOM     26  O   UNL     1     -11.748  55.797  52.303  0.00  0.00    +0.000 OA
ATOM     27  H   UNL     1     -12.625  55.569  52.543  0.00  0.00    +0.000 HD
ENDBRANCH   3  26
BRANCH   5  28
ATOM     28  C   UNL     1     -10.314  55.437  46.804  0.00  0.00    +0.000 C 
BRANCH  28  29
ATOM     29  C   UNL     1     -10.558  54.046  46.167  0.00  0.00    +0.000 C 
BRANCH  29  30
ATOM     30  N   UNL     1      -9.396  53.128  46.150  0.00  0.00    +0.000 N 
ATOM     31  C   UNL     1      -8.320  53.681  45.301  0.00  0.00    +0.000 C 
ATOM     32  C   UNL     1      -9.661  51.800  45.574  0.00  0.00    +0.000 C 
ATOM     33  C   UNL     1      -8.663  53.220  43.895  0.00  0.00    +0.000 C 
ATOM     34  C   UNL     1      -9.217  51.826  44.113  0.00  0.00    +0.000 C 
ATOM     35  H   UNL     1      -9.152  53.034  47.136  0.00  0.00    +0.000 HD
ENDBRANCH  29  30
ENDBRANCH  28  29
ENDBRANCH   5  28
TORSDOF 5
ENDMDL
MODEL 7
REMARK VINA RESULT:      -8.2      3.145      7.542
REMARK  Name = 338549
REMARK  5 active torsions:
REMARK  status: ('A' for Active; 'I' for Inactive)
REMARK    1  A    between atoms: C_6  and  C_10
REMARK    2  A    between atoms: C_14  and  O_18
REMARK    3  A    between atoms: N_17  and  C_21
REMARK    4  A    between atoms: C_21  and  C_24
REMARK    5  A    between atoms: C_24  and  N_27
REMARK                            x       y       z     vdW  Elec       q    Type
REMARK                         _______ _______ _______ _____ _____    ______ ____
ROOT
ATOM      1  C   UNL     1      -9.405  54.491  49.718  0.00  0.00    +0.000 A 
ATOM      2  C   UNL     1     -10.551  55.457  49.747  0.00  0.00    +0.000 A 
ATOM      3  C   UNL     1      -9.224  53.704  48.643  0.00  0.00    +0.000 A 
ATOM      4  O   UNL     1     -10.733  56.113  50.777  0.00  0.00    +0.000 OA
ATOM      5  N   UNL     1     -11.368  55.562  48.626  0.00  0.00    +0.000 N 
ATOM      6  C   UNL     1     -10.087  53.833  47.461  0.00  0.00    +0.000 A 
ATOM      7  C   UNL     1     -11.127  54.779  47.453  0.00  0.00    +0.000 A 
ATOM      8  C   UNL     1      -9.860  53.041  46.321  0.00  0.00    +0.000 A 
ATOM      9  C   UNL     1     -11.892  54.921  46.282  0.00  0.00    +0.000 A 
ATOM     10  C   UNL     1     -10.647  53.177  45.181  0.00  0.00    +0.000 A 
ATOM     11  C   UNL     1     -11.664  54.119  45.163  0.00  0.00    +0.000 A 
ENDROOT
BRANCH   1  17
ATOM     12  S   UNL     1      -8.242  54.181  53.467  0.00  0.00    +0.000 S 
ATOM     13  O   UNL     1      -8.522  52.857  53.979  0.00  0.00    +0.000 OA
ATOM     14  O   UNL     1      -8.470  55.351  54.290  0.00  0.00    +0.000 OA
ATOM     15  N   UNL     1      -9.079  54.386  52.095  0.00  0.00    +0.000 N 
ATOM     16  C   UNL     1      -6.532  54.194  53.069  0.00  0.00    +0.000 A 
ATOM     17  C   UNL     1      -8.495  54.364  50.932  0.00  0.00    +0.000 C 
ATOM     18  C   UNL     1      -6.178  54.181  51.728  0.00  0.00    +0.000 A 
ATOM     19  C   UNL     1      -5.579  54.206  54.092  0.00  0.00    +0.000 A 
ATOM     20  N   UNL     1      -7.139  54.241  50.726  0.00  0.00    +0.000 N 
ATOM     21  C   UNL     1      -4.816  54.202  51.409  0.00  0.00    +0.000 A 
ATOM     22  C   UNL     1      -4.228  54.215  53.759  0.00  0.00    +0.000 A 
ATOM     23  C   UNL     1      -3.847  54.214  52.417  0.00  0.00    +0.000 A 
ATOM     24  H   UNL     1     -10.051  54.531  52.142  0.00  0.00    +0.000 HD
ATOM     25  H   UNL     1      -6.826  54.193  49.794  0.00  0.00    +0.000 HD
ENDBRANCH   1  17
BRANCH   3  26
ATOM     26  O   UNL     1      -8.239  52.735  48.536  0.00  0.00    +0.000 OA
ATOM     27  H   UNL     1      -8.273  52.109  47.839  0.00  0.00    +0.000 HD
ENDBRANCH   3  26
BRANCH   5  28
ATOM     28  C   UNL     1     -12.474  56.540  48.660  0.00  0.00    +0.000 C 
BRANCH  28  29
ATOM     29  C   UNL     1     -13.756  56.016  49.354  0.00  0.00    +0.000 C 
BRANCH  29  30
ATOM     30  N   UNL     1     -14.716  57.048  49.807  0.00  0.00    +0.000 N 
ATOM     31  C   UNL     1     -14.028  58.057  50.639  0.00  0.00    +0.000 C 
ATOM     32  C   UNL     1     -15.802  56.553  50.669  0.00  0.00    +0.000 C 
ATOM     33  C   UNL     1     -14.043  57.474  52.042  0.00  0.00    +0.000 C 
ATOM     34  C   UNL     1     -15.395  56.794  52.121  0.00  0.00    +0.000 C 
ATOM     35  H   UNL     1     -15.104  57.410  48.936  0.00  0.00    +0.000 HD
ENDBRANCH  29  30
ENDBRANCH  28  29
ENDBRANCH   5  28
TORSDOF 5
ENDMDL
MODEL 8
REMARK VINA RESULT:      -8.1      3.513      5.964
REMARK  Name = 338549
REMARK  5 active torsions:
REMARK  status: ('A' for Active; 'I' for Inactive)
REMARK    1  A    between atoms: C_6  and  C_10
REMARK    2  A    between atoms: C_14  and  O_18
REMARK    3  A    between atoms: N_17  and  C_21
REMARK    4  A    between atoms: C_21  and  C_24
REMARK    5  A    between atoms: C_24  and  N_27
REMARK                            x       y       z     vdW  Elec       q    Type
REMARK                         _______ _______ _______ _____ _____    ______ ____
ROOT
ATOM      1  C   UNL     1     -11.336  55.921  48.910  0.00  0.00    +0.000 A 
ATOM      2  C   UNL     1     -11.526  55.487  47.489  0.00  0.00    +0.000 A 
ATOM      3  C   UNL     1     -10.338  55.392  49.642  0.00  0.00    +0.000 A 
ATOM      4  O   UNL     1     -12.493  55.937  46.868  0.00  0.00    +0.000 OA
ATOM      5  N   UNL     1     -10.619  54.589  46.934  0.00  0.00    +0.000 N 
ATOM      6  C   UNL     1      -9.381  54.452  49.040  0.00  0.00    +0.000 A 
ATOM      7  C   UNL     1      -9.513  54.086  47.690  0.00  0.00    +0.000 A 
ATOM      8  C   UNL     1      -8.311  53.941  49.797  0.00  0.00    +0.000 A 
ATOM      9  C   UNL     1      -8.543  53.236  47.129  0.00  0.00    +0.000 A 
ATOM     10  C   UNL     1      -7.377  53.078  49.232  0.00  0.00    +0.000 A 
ATOM     11  C   UNL     1      -7.494  52.726  47.896  0.00  0.00    +0.000 A 
ENDROOT
BRANCH   1  17
ATOM     12  S   UNL     1     -13.494  59.169  49.446  0.00  0.00    +0.000 S 
ATOM     13  O   UNL     1     -14.605  59.201  48.518  0.00  0.00    +0.000 OA
ATOM     14  O   UNL     1     -12.746  60.375  49.738  0.00  0.00    +0.000 OA
ATOM     15  N   UNL     1     -12.435  58.056  48.936  0.00  0.00    +0.000 N 
ATOM     16  C   UNL     1     -14.159  58.627  50.978  0.00  0.00    +0.000 A 
ATOM     17  C   UNL     1     -12.312  56.907  49.536  0.00  0.00    +0.000 C 
ATOM     18  C   UNL     1     -13.854  57.341  51.398  0.00  0.00    +0.000 A 
ATOM     19  C   UNL     1     -14.975  59.483  51.725  0.00  0.00    +0.000 A 
ATOM     20  N   UNL     1     -12.984  56.532  50.677  0.00  0.00    +0.000 N 
ATOM     21  C   UNL     1     -14.374  56.912  52.624  0.00  0.00    +0.000 A 
ATOM     22  C   UNL     1     -15.494  59.036  52.936  0.00  0.00    +0.000 A 
ATOM     23  C   UNL     1     -15.193  57.751  53.386  0.00  0.00    +0.000 A 
ATOM     24  H   UNL     1     -11.871  58.252  48.153  0.00  0.00    +0.000 HD
ATOM     25  H   UNL     1     -12.836  55.617  51.010  0.00  0.00    +0.000 HD
ENDBRANCH   1  17
BRANCH   3  26
ATOM     26  O   UNL     1     -10.110  55.671  50.979  0.00  0.00    +0.000 OA
ATOM     27  H   UNL     1      -9.977  56.557  51.256  0.00  0.00    +0.000 HD
ENDBRANCH   3  26
BRANCH   5  28
ATOM     28  C   UNL     1     -10.804  54.196  45.524  0.00  0.00    +0.000 C 
BRANCH  28  29
ATOM     29  C   UNL     1     -11.677  52.930  45.332  0.00  0.00    +0.000 C 
BRANCH  29  30
ATOM     30  N   UNL     1     -11.411  52.138  44.109  0.00  0.00    +0.000 N 
ATOM     31  C   UNL     1     -11.281  50.705  44.447  0.00  0.00    +0.000 C 
ATOM     32  C   UNL     1     -10.150  52.460  43.421  0.00  0.00    +0.000 C 
ATOM     33  C   UNL     1      -9.823  50.531  44.837  0.00  0.00    +0.000 C 
ATOM     34  C   UNL     1      -9.097  51.455  43.879  0.00  0.00    +0.000 C 
ATOM     35  H   UNL     1     -12.201  52.361  43.505  0.00  0.00    +0.000 HD
ENDBRANCH  29  30
ENDBRANCH  28  29
ENDBRANCH   5  28
TORSDOF 5
ENDMDL
MODEL 9
REMARK VINA RESULT:      -8.0      2.778      4.830
REMARK  Name = 338549
REMARK  5 active torsions:
REMARK  status: ('A' for Active; 'I' for Inactive)
REMARK    1  A    between atoms: C_6  and  C_10
REMARK    2  A    between atoms: C_14  and  O_18
REMARK    3  A    between atoms: N_17  and  C_21
REMARK    4  A    between atoms: C_21  and  C_24
REMARK    5  A    between atoms: C_24  and  N_27
REMARK                            x       y       z     vdW  Elec       q    Type
REMARK                         _______ _______ _______ _____ _____    ______ ____
ROOT
ATOM      1  C   UNL     1     -12.075  54.312  50.673  0.00  0.00    +0.000 A 
ATOM      2  C   UNL     1     -12.085  53.653  49.328  0.00  0.00    +0.000 A 
ATOM      3  C   UNL     1     -11.413  53.735  51.693  0.00  0.00    +0.000 A 
ATOM      4  O   UNL     1     -12.760  54.170  48.433  0.00  0.00    +0.000 OA
ATOM      5  N   UNL     1     -11.352  52.485  49.146  0.00  0.00    +0.000 N 
ATOM      6  C   UNL     1     -10.634  52.507  51.485  0.00  0.00    +0.000 A 
ATOM      7  C   UNL     1     -10.586  51.914  50.212  0.00  0.00    +0.000 A 
ATOM      8  C   UNL     1      -9.904  51.937  52.545  0.00  0.00    +0.000 A 
ATOM      9  C   UNL     1      -9.779  50.777  50.033  0.00  0.00    +0.000 A 
ATOM     10  C   UNL     1      -9.133  50.794  52.355  0.00  0.00    +0.000 A 
ATOM     11  C   UNL     1      -9.070  50.214  51.097  0.00  0.00    +0.000 A 
ENDROOT
BRANCH   1  17
ATOM     12  S   UNL     1     -14.465  56.956  52.345  0.00  0.00    +0.000 S 
ATOM     13  O   UNL     1     -13.822  57.576  53.484  0.00  0.00    +0.000 OA
ATOM     14  O   UNL     1     -15.864  56.583  52.404  0.00  0.00    +0.000 OA
ATOM     15  N   UNL     1     -13.629  55.627  51.947  0.00  0.00    +0.000 N 
ATOM     16  C   UNL     1     -14.324  58.105  51.026  0.00  0.00    +0.000 A 
ATOM     17  C   UNL     1     -12.865  55.594  50.893  0.00  0.00    +0.000 C 
ATOM     18  C   UNL     1     -13.432  57.813  50.005  0.00  0.00    +0.000 A 
ATOM     19  C   UNL     1     -15.092  59.274  51.034  0.00  0.00    +0.000 A 
ATOM     20  N   UNL     1     -12.731  56.613  49.977  0.00  0.00    +0.000 N 
ATOM     21  C   UNL     1     -13.326  58.722  48.946  0.00  0.00    +0.000 A 
ATOM     22  C   UNL     1     -14.967  60.173  49.980  0.00  0.00    +0.000 A 
ATOM     23  C   UNL     1     -14.084  59.897  48.936  0.00  0.00    +0.000 A 
ATOM     24  H   UNL     1     -13.699  54.827  52.515  0.00  0.00    +0.000 HD
ATOM     25  H   UNL     1     -12.087  56.481  49.244  0.00  0.00    +0.000 HD
ENDBRANCH   1  17
BRANCH   3  26
ATOM     26  O   UNL     1     -11.390  54.221  52.990  0.00  0.00    +0.000 OA
ATOM     27  H   UNL     1     -12.165  54.190  53.515  0.00  0.00    +0.000 HD
ENDBRANCH   3  26
BRANCH   5  28
ATOM     28  C   UNL     1     -11.349  51.866  47.806  0.00  0.00    +0.000 C 
BRANCH  28  29
ATOM     29  C   UNL     1     -10.178  52.326  46.902  0.00  0.00    +0.000 C 
BRANCH  29  30
ATOM     30  N   UNL     1     -10.374  53.609  46.190  0.00  0.00    +0.000 N 
ATOM     31  C   UNL     1      -9.895  53.499  44.796  0.00  0.00    +0.000 C 
ATOM     32  C   UNL     1      -9.620  54.748  46.739  0.00  0.00    +0.000 C 
ATOM     33  C   UNL     1      -8.409  53.806  44.874  0.00  0.00    +0.000 C 
ATOM     34  C   UNL     1      -8.336  54.895  45.926  0.00  0.00    +0.000 C 
ATOM     35  H   UNL     1     -11.375  53.782  46.281  0.00  0.00    +0.000 HD
ENDBRANCH  29  30
ENDBRANCH  28  29
ENDBRANCH   5  28
TORSDOF 5
ENDMDL
