MODEL 1
REMARK VINA RESULT:      -8.6      0.000      0.000
REMARK  Name = 338063
REMARK  8 active torsions:
REMARK  status: ('A' for Active; 'I' for Inactive)
REMARK    1  A    between atoms: C_6  and  C_10
REMARK    2  A    between atoms: C_14  and  O_18
REMARK    3  A    between atoms: N_17  and  C_21
REMARK    4  A    between atoms: C_21  and  C_24
REMARK    5  A    between atoms: C_24  and  C_27
REMARK    6  A    between atoms: C_25  and  C_28
REMARK    7  A    between atoms: C_27  and  C_29
REMARK    8  A    between atoms: C_27  and  C_30
REMARK                            x       y       z     vdW  Elec       q    Type
REMARK                         _______ _______ _______ _____ _____    ______ ____
ROOT
ATOM      1  C   UNL     1     -10.164  54.424  52.205  0.00  0.00    +0.000 A 
ATOM      2  C   UNL     1      -8.783  54.996  52.120  0.00  0.00    +0.000 A 
ATOM      3  C   UNL     1     -10.388  53.319  52.936  0.00  0.00    +0.000 A 
ATOM      4  O   UNL     1      -8.635  56.069  51.527  0.00  0.00    +0.000 OA
ATOM      5  N   UNL     1      -7.735  54.312  52.725  0.00  0.00    +0.000 N 
ATOM      6  C   UNL     1      -9.289  52.673  53.668  0.00  0.00    +0.000 A 
ATOM      7  C   UNL     1      -7.986  53.191  53.576  0.00  0.00    +0.000 A 
ATOM      8  C   UNL     1      -9.533  51.550  54.483  0.00  0.00    +0.000 A 
ATOM      9  C   UNL     1      -6.975  52.602  54.351  0.00  0.00    +0.000 A 
ATOM     10  C   UNL     1      -8.509  50.944  55.214  0.00  0.00    +0.000 A 
ATOM     11  C   UNL     1      -7.228  51.485  55.149  0.00  0.00    +0.000 A 
ATOM     12  C   UNL     1      -8.777  49.756  56.089  0.00  0.00    +0.000 C 
ENDROOT
BRANCH   1  18
ATOM     13  S   UNL     1     -12.424  55.936  49.367  0.00  0.00    +0.000 S 
ATOM     14  O   UNL     1     -13.288  54.947  48.751  0.00  0.00    +0.000 OA
ATOM     15  O   UNL     1     -11.753  56.932  48.552  0.00  0.00    +0.000 OA
ATOM     16  N   UNL     1     -11.296  55.142  50.216  0.00  0.00    +0.000 N 
ATOM     17  C   UNL     1     -13.434  56.833  50.487  0.00  0.00    +0.000 A 
ATOM     18  C   UNL     1     -11.307  55.151  51.517  0.00  0.00    +0.000 C 
ATOM     19  C   UNL     1     -13.220  56.645  51.842  0.00  0.00    +0.000 A 
ATOM     20  C   UNL     1     -14.406  57.715  50.005  0.00  0.00    +0.000 A 
ATOM     21  N   UNL     1     -12.253  55.760  52.310  0.00  0.00    +0.000 N 
ATOM     22  C   UNL     1     -14.058  57.312  52.741  0.00  0.00    +0.000 A 
ATOM     23  C   UNL     1     -15.210  58.400  50.913  0.00  0.00    +0.000 A 
ATOM     24  C   UNL     1     -15.042  58.192  52.281  0.00  0.00    +0.000 A 
ATOM     25  H   UNL     1     -10.591  54.647  49.740  0.00  0.00    +0.000 HD
ATOM     26  H   UNL     1     -12.246  55.554  53.272  0.00  0.00    +0.000 HD
ENDBRANCH   1  18
BRANCH   3  27
ATOM     27  O   UNL     1     -11.632  52.736  53.109  0.00  0.00    +0.000 OA
ATOM     28  H   UNL     1     -12.316  52.899  52.489  0.00  0.00    +0.000 HD
ENDBRANCH   3  27
BRANCH   5  29
ATOM     29  C   UNL     1      -6.381  54.857  52.566  0.00  0.00    +0.000 C 
BRANCH  29  30
ATOM     30  C   UNL     1      -5.487  54.155  51.527  0.00  0.00    +0.000 C 
BRANCH  30  31
ATOM     31  C   UNL     1      -4.095  53.705  52.003  0.00  0.00    +0.000 C 
ATOM     32  C   UNL     1      -3.847  54.029  53.474  0.00  0.00    +0.000 C 
ATOM     33  C   UNL     1      -3.964  52.192  51.779  0.00  0.00    +0.000 C 
ENDBRANCH  30  31
ENDBRANCH  29  30
ENDBRANCH   5  29
TORSDOF 5
ENDMDL
MODEL 2
REMARK VINA RESULT:      -8.3      3.677      5.419
REMARK  Name = 338063
REMARK  8 active torsions:
REMARK  status: ('A' for Active; 'I' for Inactive)
REMARK    1  A    between atoms: C_6  and  C_10
REMARK    2  A    between atoms: C_14  and  O_18
REMARK    3  A    between atoms: N_17  and  C_21
REMARK    4  A    between atoms: C_21  and  C_24
REMARK    5  A    between atoms: C_24  and  C_27
REMARK    6  A    between atoms: C_25  and  C_28
REMARK    7  A    between atoms: C_27  and  C_29
REMARK    8  A    between atoms: C_27  and  C_30
REMARK                            x       y       z     vdW  Elec       q    Type
REMARK                         _______ _______ _______ _____ _____    ______ ____
ROOT
ATOM      1  C   UNL     1     -11.336  56.149  48.731  0.00  0.00    +0.000 A 
ATOM      2  C   UNL     1     -10.142  55.718  49.523  0.00  0.00    +0.000 A 
ATOM      3  C   UNL     1     -11.519  55.679  47.485  0.00  0.00    +0.000 A 
ATOM      4  O   UNL     1     -10.063  56.086  50.700  0.00  0.00    +0.000 OA
ATOM      5  N   UNL     1      -9.189  54.909  48.915  0.00  0.00    +0.000 N 
ATOM      6  C   UNL     1     -10.563  54.731  46.898  0.00  0.00    +0.000 A 
ATOM      7  C   UNL     1      -9.428  54.337  47.627  0.00  0.00    +0.000 A 
ATOM      8  C   UNL     1     -10.786  54.191  45.616  0.00  0.00    +0.000 A 
ATOM      9  C   UNL     1      -8.579  53.368  47.072  0.00  0.00    +0.000 A 
ATOM     10  C   UNL     1      -9.907  53.260  45.054  0.00  0.00    +0.000 A 
ATOM     11  C   UNL     1      -8.806  52.846  45.797  0.00  0.00    +0.000 A 
ATOM     12  C   UNL     1     -10.155  52.679  43.695  0.00  0.00    +0.000 C 
ENDROOT
BRANCH   1  18
ATOM     13  S   UNL     1     -13.558  59.310  49.460  0.00  0.00    +0.000 S 
ATOM     14  O   UNL     1     -14.706  59.404  48.580  0.00  0.00    +0.000 OA
ATOM     15  O   UNL     1     -12.794  60.497  49.797  0.00  0.00    +0.000 OA
ATOM     16  N   UNL     1     -12.538  58.224  48.823  0.00  0.00    +0.000 N 
ATOM     17  C   UNL     1     -14.162  58.679  50.982  0.00  0.00    +0.000 A 
ATOM     18  C   UNL     1     -12.363  57.061  49.380  0.00  0.00    +0.000 C 
ATOM     19  C   UNL     1     -13.809  57.386  51.331  0.00  0.00    +0.000 A 
ATOM     20  C   UNL     1     -14.959  59.479  51.806  0.00  0.00    +0.000 A 
ATOM     21  N   UNL     1     -13.020  56.598  50.498  0.00  0.00    +0.000 N 
ATOM     22  C   UNL     1     -14.333  56.856  52.514  0.00  0.00    +0.000 A 
ATOM     23  C   UNL     1     -15.444  58.949  53.000  0.00  0.00    +0.000 A 
ATOM     24  C   UNL     1     -15.138  57.635  53.349  0.00  0.00    +0.000 A 
ATOM     25  H   UNL     1     -12.042  58.448  48.002  0.00  0.00    +0.000 HD
ATOM     26  H   UNL     1     -12.925  55.644  50.723  0.00  0.00    +0.000 HD
ENDBRANCH   1  18
BRANCH   3  27
ATOM     27  O   UNL     1     -12.608  55.987  46.686  0.00  0.00    +0.000 OA
ATOM     28  H   UNL     1     -12.550  56.687  46.065  0.00  0.00    +0.000 HD
ENDBRANCH   3  27
BRANCH   5  29
ATOM     29  C   UNL     1      -7.993  54.559  49.692  0.00  0.00    +0.000 C 
BRANCH  29  30
ATOM     30  C   UNL     1      -6.825  55.559  49.621  0.00  0.00    +0.000 C 
BRANCH  30  31
ATOM     31  C   UNL     1      -5.405  54.967  49.655  0.00  0.00    +0.000 C 
ATOM     32  C   UNL     1      -5.103  54.249  50.969  0.00  0.00    +0.000 C 
ATOM     33  C   UNL     1      -5.251  53.987  48.485  0.00  0.00    +0.000 C 
ENDBRANCH  30  31
ENDBRANCH  29  30
ENDBRANCH   5  29
TORSDOF 5
ENDMDL
MODEL 3
REMARK VINA RESULT:      -8.1      3.867      5.546
REMARK  Name = 338063
REMARK  8 active torsions:
REMARK  status: ('A' for Active; 'I' for Inactive)
REMARK    1  A    between atoms: C_6  and  C_10
REMARK    2  A    between atoms: C_14  and  O_18
REMARK    3  A    between atoms: N_17  and  C_21
REMARK    4  A    between atoms: C_21  and  C_24
REMARK    5  A    between atoms: C_24  and  C_27
REMARK    6  A    between atoms: C_25  and  C_28
REMARK    7  A    between atoms: C_27  and  C_29
REMARK    8  A    between atoms: C_27  and  C_30
REMARK                            x       y       z     vdW  Elec       q    Type
REMARK                         _______ _______ _______ _____ _____    ______ ____
ROOT
ATOM      1  C   UNL     1     -10.885  55.535  48.723  0.00  0.00    +0.000 A 
ATOM      2  C   UNL     1      -9.609  55.107  49.377  0.00  0.00    +0.000 A 
ATOM      3  C   UNL     1     -11.137  55.182  47.451  0.00  0.00    +0.000 A 
ATOM      4  O   UNL     1      -9.459  55.359  50.577  0.00  0.00    +0.000 OA
ATOM      5  N   UNL     1      -8.660  54.429  48.620  0.00  0.00    +0.000 N 
ATOM      6  C   UNL     1     -10.176  54.364  46.699  0.00  0.00    +0.000 A 
ATOM      7  C   UNL     1      -8.966  53.975  47.299  0.00  0.00    +0.000 A 
ATOM      8  C   UNL     1     -10.466  53.942  45.386  0.00  0.00    +0.000 A 
ATOM      9  C   UNL     1      -8.107  53.126  46.585  0.00  0.00    +0.000 A 
ATOM     10  C   UNL     1      -9.581  53.134  44.668  0.00  0.00    +0.000 A 
ATOM     11  C   UNL     1      -8.402  52.721  45.282  0.00  0.00    +0.000 A 
ATOM     12  C   UNL     1      -9.900  52.678  43.276  0.00  0.00    +0.000 C 
ENDROOT
BRANCH   1  18
ATOM     13  S   UNL     1     -13.583  56.371  51.457  0.00  0.00    +0.000 S 
ATOM     14  O   UNL     1     -12.997  56.687  52.745  0.00  0.00    +0.000 OA
ATOM     15  O   UNL     1     -14.773  55.544  51.377  0.00  0.00    +0.000 OA
ATOM     16  N   UNL     1     -12.432  55.679  50.550  0.00  0.00    +0.000 N 
ATOM     17  C   UNL     1     -14.015  57.907  50.729  0.00  0.00    +0.000 A 
ATOM     18  C   UNL     1     -11.910  56.306  49.537  0.00  0.00    +0.000 C 
ATOM     19  C   UNL     1     -13.276  58.337  49.639  0.00  0.00    +0.000 A 
ATOM     20  C   UNL     1     -15.085  58.650  51.239  0.00  0.00    +0.000 A 
ATOM     21  N   UNL     1     -12.209  57.591  49.145  0.00  0.00    +0.000 N 
ATOM     22  C   UNL     1     -13.576  59.587  49.090  0.00  0.00    +0.000 A 
ATOM     23  C   UNL     1     -15.396  59.877  50.657  0.00  0.00    +0.000 A 
ATOM     24  C   UNL     1     -14.636  60.349  49.589  0.00  0.00    +0.000 A 
ATOM     25  H   UNL     1     -12.124  54.769  50.769  0.00  0.00    +0.000 HD
ATOM     26  H   UNL     1     -11.628  58.012  48.471  0.00  0.00    +0.000 HD
ENDBRANCH   1  18
BRANCH   3  27
ATOM     27  O   UNL     1     -12.301  55.495  46.769  0.00  0.00    +0.000 OA
ATOM     28  H   UNL     1     -13.128  55.189  47.088  0.00  0.00    +0.000 HD
ENDBRANCH   3  27
BRANCH   5  29
ATOM     29  C   UNL     1      -7.389  54.083  49.268  0.00  0.00    +0.000 C 
BRANCH  29  30
ATOM     30  C   UNL     1      -6.251  55.108  49.113  0.00  0.00    +0.000 C 
BRANCH  30  31
ATOM     31  C   UNL     1      -4.815  54.577  49.266  0.00  0.00    +0.000 C 
ATOM     32  C   UNL     1      -4.576  53.922  50.625  0.00  0.00    +0.000 C 
ATOM     33  C   UNL     1      -4.544  53.561  48.149  0.00  0.00    +0.000 C 
ENDBRANCH  30  31
ENDBRANCH  29  30
ENDBRANCH   5  29
TORSDOF 5
ENDMDL
MODEL 4
REMARK VINA RESULT:      -8.1      3.852      4.939
REMARK  Name = 338063
REMARK  8 active torsions:
REMARK  status: ('A' for Active; 'I' for Inactive)
REMARK    1  A    between atoms: C_6  and  C_10
REMARK    2  A    between atoms: C_14  and  O_18
REMARK    3  A    between atoms: N_17  and  C_21
REMARK    4  A    between atoms: C_21  and  C_24
REMARK    5  A    between atoms: C_24  and  C_27
REMARK    6  A    between atoms: C_25  and  C_28
REMARK    7  A    between atoms: C_27  and  C_29
REMARK    8  A    between atoms: C_27  and  C_30
REMARK                            x       y       z     vdW  Elec       q    Type
REMARK                         _______ _______ _______ _____ _____    ______ ____
ROOT
ATOM      1  C   UNL     1     -12.488  54.379  49.743  0.00  0.00    +0.000 A 
ATOM      2  C   UNL     1     -12.082  54.248  48.308  0.00  0.00    +0.000 A 
ATOM      3  C   UNL     1     -12.067  53.475  50.644  0.00  0.00    +0.000 A 
ATOM      4  O   UNL     1     -12.399  55.153  47.530  0.00  0.00    +0.000 OA
ATOM      5  N   UNL     1     -11.349  53.133  47.917  0.00  0.00    +0.000 N 
ATOM      6  C   UNL     1     -11.195  52.365  50.236  0.00  0.00    +0.000 A 
ATOM      7  C   UNL     1     -10.825  52.223  48.887  0.00  0.00    +0.000 A 
ATOM      8  C   UNL     1     -10.703  51.452  51.190  0.00  0.00    +0.000 A 
ATOM      9  C   UNL     1      -9.926  51.203  48.543  0.00  0.00    +0.000 A 
ATOM     10  C   UNL     1      -9.844  50.412  50.827  0.00  0.00    +0.000 A 
ATOM     11  C   UNL     1      -9.452  50.299  49.497  0.00  0.00    +0.000 A 
ATOM     12  C   UNL     1      -9.314  49.450  51.848  0.00  0.00    +0.000 C 
ENDROOT
BRANCH   1  18
ATOM     13  S   UNL     1     -15.423  56.512  51.255  0.00  0.00    +0.000 S 
ATOM     14  O   UNL     1     -15.343  56.633  52.698  0.00  0.00    +0.000 OA
ATOM     15  O   UNL     1     -16.704  56.288  50.609  0.00  0.00    +0.000 OA
ATOM     16  N   UNL     1     -14.421  55.321  50.806  0.00  0.00    +0.000 N 
ATOM     17  C   UNL     1     -14.816  58.024  50.606  0.00  0.00    +0.000 A 
ATOM     18  C   UNL     1     -13.318  55.579  50.168  0.00  0.00    +0.000 C 
ATOM     19  C   UNL     1     -13.590  58.004  49.961  0.00  0.00    +0.000 A 
ATOM     20  C   UNL     1     -15.568  59.196  50.733  0.00  0.00    +0.000 A 
ATOM     21  N   UNL     1     -12.848  56.832  49.847  0.00  0.00    +0.000 N 
ATOM     22  C   UNL     1     -13.072  59.215  49.492  0.00  0.00    +0.000 A 
ATOM     23  C   UNL     1     -15.055  60.389  50.228  0.00  0.00    +0.000 A 
ATOM     24  C   UNL     1     -13.803  60.399  49.615  0.00  0.00    +0.000 A 
ATOM     25  H   UNL     1     -14.653  54.387  51.018  0.00  0.00    +0.000 HD
ATOM     26  H   UNL     1     -11.924  56.904  49.516  0.00  0.00    +0.000 HD
ENDBRANCH   1  18
BRANCH   3  27
ATOM     27  O   UNL     1     -12.356  53.528  51.997  0.00  0.00    +0.000 OA
ATOM     28  H   UNL     1     -12.052  54.250  52.513  0.00  0.00    +0.000 HD
ENDBRANCH   3  27
BRANCH   5  29
ATOM     29  C   UNL     1     -11.025  52.995  46.492  0.00  0.00    +0.000 C 
BRANCH  29  30
ATOM     30  C   UNL     1     -10.158  54.112  45.884  0.00  0.00    +0.000 C 
BRANCH  30  31
ATOM     31  C   UNL     1      -8.745  54.287  46.467  0.00  0.00    +0.000 C 
ATOM     32  C   UNL     1      -7.721  54.685  45.406  0.00  0.00    +0.000 C 
ATOM     33  C   UNL     1      -8.794  55.360  47.563  0.00  0.00    +0.000 C 
ENDBRANCH  30  31
ENDBRANCH  29  30
ENDBRANCH   5  29
TORSDOF 5
ENDMDL
MODEL 5
REMARK VINA RESULT:      -8.0      1.651      2.453
REMARK  Name = 338063
REMARK  8 active torsions:
REMARK  status: ('A' for Active; 'I' for Inactive)
REMARK    1  A    between atoms: C_6  and  C_10
REMARK    2  A    between atoms: C_14  and  O_18
REMARK    3  A    between atoms: N_17  and  C_21
REMARK    4  A    between atoms: C_21  and  C_24
REMARK    5  A    between atoms: C_24  and  C_27
REMARK    6  A    between atoms: C_25  and  C_28
REMARK    7  A    between atoms: C_27  and  C_29
REMARK    8  A    between atoms: C_27  and  C_30
REMARK                            x       y       z     vdW  Elec       q    Type
REMARK                         _______ _______ _______ _____ _____    ______ ____
ROOT
ATOM      1  C   UNL     1     -10.107  54.564  52.120  0.00  0.00    +0.000 A 
ATOM      2  C   UNL     1      -8.704  55.083  52.056  0.00  0.00    +0.000 A 
ATOM      3  C   UNL     1     -10.381  53.461  52.836  0.00  0.00    +0.000 A 
ATOM      4  O   UNL     1      -8.508  56.157  51.477  0.00  0.00    +0.000 OA
ATOM      5  N   UNL     1      -7.690  54.353  52.664  0.00  0.00    +0.000 N 
ATOM      6  C   UNL     1      -9.317  52.765  53.572  0.00  0.00    +0.000 A 
ATOM      7  C   UNL     1      -7.993  53.233  53.500  0.00  0.00    +0.000 A 
ATOM      8  C   UNL     1      -9.613  51.644  54.371  0.00  0.00    +0.000 A 
ATOM      9  C   UNL     1      -7.015  52.597  54.278  0.00  0.00    +0.000 A 
ATOM     10  C   UNL     1      -8.621  50.990  55.107  0.00  0.00    +0.000 A 
ATOM     11  C   UNL     1      -7.320  51.481  55.061  0.00  0.00    +0.000 A 
ATOM     12  C   UNL     1      -8.944  49.804  55.965  0.00  0.00    +0.000 C 
ENDROOT
BRANCH   1  18
ATOM     13  S   UNL     1     -13.474  56.510  51.545  0.00  0.00    +0.000 S 
ATOM     14  O   UNL     1     -13.407  57.890  51.986  0.00  0.00    +0.000 OA
ATOM     15  O   UNL     1     -14.661  55.715  51.802  0.00  0.00    +0.000 OA
ATOM     16  N   UNL     1     -12.203  55.730  52.178  0.00  0.00    +0.000 N 
ATOM     17  C   UNL     1     -13.290  56.548  49.800  0.00  0.00    +0.000 A 
ATOM     18  C   UNL     1     -11.214  55.342  51.428  0.00  0.00    +0.000 C 
ATOM     19  C   UNL     1     -12.111  56.059  49.264  0.00  0.00    +0.000 A 
ATOM     20  C   UNL     1     -14.320  57.048  48.996  0.00  0.00    +0.000 A 
ATOM     21  N   UNL     1     -11.091  55.570  50.076  0.00  0.00    +0.000 N 
ATOM     22  C   UNL     1     -11.933  56.139  47.880  0.00  0.00    +0.000 A 
ATOM     23  C   UNL     1     -14.143  57.087  47.615  0.00  0.00    +0.000 A 
ATOM     24  C   UNL     1     -12.945  56.641  47.058  0.00  0.00    +0.000 A 
ATOM     25  H   UNL     1     -12.180  55.545  53.145  0.00  0.00    +0.000 HD
ATOM     26  H   UNL     1     -10.222  55.376  49.655  0.00  0.00    +0.000 HD
ENDBRANCH   1  18
BRANCH   3  27
ATOM     27  O   UNL     1     -11.649  52.924  52.989  0.00  0.00    +0.000 OA
ATOM     28  H   UNL     1     -12.004  52.798  53.848  0.00  0.00    +0.000 HD
ENDBRANCH   3  27
BRANCH   5  29
ATOM     29  C   UNL     1      -6.314  54.847  52.526  0.00  0.00    +0.000 C 
BRANCH  29  30
ATOM     30  C   UNL     1      -5.533  54.335  51.302  0.00  0.00    +0.000 C 
BRANCH  30  31
ATOM     31  C   UNL     1      -6.059  53.055  50.630  0.00  0.00    +0.000 C 
ATOM     32  C   UNL     1      -6.772  53.340  49.310  0.00  0.00    +0.000 C 
ATOM     33  C   UNL     1      -4.877  52.108  50.384  0.00  0.00    +0.000 C 
ENDBRANCH  30  31
ENDBRANCH  29  30
ENDBRANCH   5  29
TORSDOF 5
ENDMDL
MODEL 6
REMARK VINA RESULT:      -7.8      3.079      7.683
REMARK  Name = 338063
REMARK  8 active torsions:
REMARK  status: ('A' for Active; 'I' for Inactive)
REMARK    1  A    between atoms: C_6  and  C_10
REMARK    2  A    between atoms: C_14  and  O_18
REMARK    3  A    between atoms: N_17  and  C_21
REMARK    4  A    between atoms: C_21  and  C_24
REMARK    5  A    between atoms: C_24  and  C_27
REMARK    6  A    between atoms: C_25  and  C_28
REMARK    7  A    between atoms: C_27  and  C_29
REMARK    8  A    between atoms: C_27  and  C_30
REMARK                            x       y       z     vdW  Elec       q    Type
REMARK                         _______ _______ _______ _____ _____    ______ ____
ROOT
ATOM      1  C   UNL     1     -10.020  55.151  51.040  0.00  0.00    +0.000 A 
ATOM      2  C   UNL     1      -9.721  55.173  49.573  0.00  0.00    +0.000 A 
ATOM      3  C   UNL     1     -11.241  55.501  51.480  0.00  0.00    +0.000 A 
ATOM      4  O   UNL     1      -8.625  54.744  49.198  0.00  0.00    +0.000 OA
ATOM      5  N   UNL     1     -10.690  55.649  48.698  0.00  0.00    +0.000 N 
ATOM      6  C   UNL     1     -12.293  55.891  50.532  0.00  0.00    +0.000 A 
ATOM      7  C   UNL     1     -12.014  55.934  49.154  0.00  0.00    +0.000 A 
ATOM      8  C   UNL     1     -13.590  56.199  50.987  0.00  0.00    +0.000 A 
ATOM      9  C   UNL     1     -13.061  56.230  48.268  0.00  0.00    +0.000 A 
ATOM     10  C   UNL     1     -14.613  56.537  50.098  0.00  0.00    +0.000 A 
ATOM     11  C   UNL     1     -14.341  56.541  48.733  0.00  0.00    +0.000 A 
ATOM     12  C   UNL     1     -15.995  56.853  50.586  0.00  0.00    +0.000 C 
ENDROOT
BRANCH   1  18
ATOM     13  S   UNL     1      -6.568  54.807  52.889  0.00  0.00    +0.000 S 
ATOM     14  O   UNL     1      -6.373  55.822  53.907  0.00  0.00    +0.000 OA
ATOM     15  O   UNL     1      -5.473  54.424  52.017  0.00  0.00    +0.000 OA
ATOM     16  N   UNL     1      -7.807  55.278  51.957  0.00  0.00    +0.000 N 
ATOM     17  C   UNL     1      -7.037  53.347  53.742  0.00  0.00    +0.000 A 
ATOM     18  C   UNL     1      -8.952  54.662  52.004  0.00  0.00    +0.000 C 
ATOM     19  C   UNL     1      -8.345  52.912  53.606  0.00  0.00    +0.000 A 
ATOM     20  C   UNL     1      -6.101  52.653  54.514  0.00  0.00    +0.000 A 
ATOM     21  N   UNL     1      -9.270  53.615  52.839  0.00  0.00    +0.000 N 
ATOM     22  C   UNL     1      -8.743  51.783  54.328  0.00  0.00    +0.000 A 
ATOM     23  C   UNL     1      -6.502  51.508  55.198  0.00  0.00    +0.000 A 
ATOM     24  C   UNL     1      -7.825  51.078  55.112  0.00  0.00    +0.000 A 
ATOM     25  H   UNL     1      -7.691  56.041  51.346  0.00  0.00    +0.000 HD
ATOM     26  H   UNL     1     -10.215  53.347  52.899  0.00  0.00    +0.000 HD
ENDBRANCH   1  18
BRANCH   3  27
ATOM     27  O   UNL     1     -11.628  55.478  52.810  0.00  0.00    +0.000 OA
ATOM     28  H   UNL     1     -10.994  55.627  53.485  0.00  0.00    +0.000 HD
ENDBRANCH   3  27
BRANCH   5  29
ATOM     29  C   UNL     1     -10.344  55.726  47.273  0.00  0.00    +0.000 C 
BRANCH  29  30
ATOM     30  C   UNL     1     -10.225  54.382  46.533  0.00  0.00    +0.000 C 
BRANCH  30  31
ATOM     31  C   UNL     1     -11.524  53.788  45.961  0.00  0.00    +0.000 C 
ATOM     32  C   UNL     1     -11.320  53.149  44.589  0.00  0.00    +0.000 C 
ATOM     33  C   UNL     1     -12.060  52.739  46.944  0.00  0.00    +0.000 C 
ENDBRANCH  30  31
ENDBRANCH  29  30
ENDBRANCH   5  29
TORSDOF 5
ENDMDL
MODEL 7
REMARK VINA RESULT:      -7.8      3.174      8.229
REMARK  Name = 338063
REMARK  8 active torsions:
REMARK  status: ('A' for Active; 'I' for Inactive)
REMARK    1  A    between atoms: C_6  and  C_10
REMARK    2  A    between atoms: C_14  and  O_18
REMARK    3  A    between atoms: N_17  and  C_21
REMARK    4  A    between atoms: C_21  and  C_24
REMARK    5  A    between atoms: C_24  and  C_27
REMARK    6  A    between atoms: C_25  and  C_28
REMARK    7  A    between atoms: C_27  and  C_29
REMARK    8  A    between atoms: C_27  and  C_30
REMARK                            x       y       z     vdW  Elec       q    Type
REMARK                         _______ _______ _______ _____ _____    ______ ____
ROOT
ATOM      1  C   UNL     1      -9.799  53.898  50.970  0.00  0.00    +0.000 A 
ATOM      2  C   UNL     1     -10.827  54.951  51.245  0.00  0.00    +0.000 A 
ATOM      3  C   UNL     1      -9.628  53.437  49.720  0.00  0.00    +0.000 A 
ATOM      4  O   UNL     1     -10.882  55.425  52.383  0.00  0.00    +0.000 OA
ATOM      5  N   UNL     1     -11.657  55.364  50.209  0.00  0.00    +0.000 N 
ATOM      6  C   UNL     1     -10.434  53.969  48.612  0.00  0.00    +0.000 A 
ATOM      7  C   UNL     1     -11.416  54.942  48.864  0.00  0.00    +0.000 A 
ATOM      8  C   UNL     1     -10.216  53.530  47.291  0.00  0.00    +0.000 A 
ATOM      9  C   UNL     1     -12.112  55.490  47.775  0.00  0.00    +0.000 A 
ATOM     10  C   UNL     1     -10.947  54.050  46.220  0.00  0.00    +0.000 A 
ATOM     11  C   UNL     1     -11.891  55.040  46.472  0.00  0.00    +0.000 A 
ATOM     12  C   UNL     1     -10.702  53.588  44.815  0.00  0.00    +0.000 C 
ENDROOT
BRANCH   1  18
ATOM     13  S   UNL     1      -6.601  53.268  53.169  0.00  0.00    +0.000 S 
ATOM     14  O   UNL     1      -6.246  54.414  53.984  0.00  0.00    +0.000 OA
ATOM     15  O   UNL     1      -5.570  52.500  52.495  0.00  0.00    +0.000 OA
ATOM     16  N   UNL     1      -7.660  53.770  52.050  0.00  0.00    +0.000 N 
ATOM     17  C   UNL     1      -7.415  52.142  54.240  0.00  0.00    +0.000 A 
ATOM     18  C   UNL     1      -8.911  53.419  52.107  0.00  0.00    +0.000 C 
ATOM     19  C   UNL     1      -8.778  51.958  54.069  0.00  0.00    +0.000 A 
ATOM     20  C   UNL     1      -6.691  51.454  55.218  0.00  0.00    +0.000 A 
ATOM     21  N   UNL     1      -9.489  52.655  53.096  0.00  0.00    +0.000 N 
ATOM     22  C   UNL     1      -9.444  51.108  54.956  0.00  0.00    +0.000 A 
ATOM     23  C   UNL     1      -7.363  50.581  56.070  0.00  0.00    +0.000 A 
ATOM     24  C   UNL     1      -8.741  50.415  55.945  0.00  0.00    +0.000 A 
ATOM     25  H   UNL     1      -7.351  54.349  51.316  0.00  0.00    +0.000 HD
ATOM     26  H   UNL     1     -10.471  52.599  53.118  0.00  0.00    +0.000 HD
ENDBRANCH   1  18
BRANCH   3  27
ATOM     27  O   UNL     1      -8.681  52.494  49.357  0.00  0.00    +0.000 OA
ATOM     28  H   UNL     1      -8.697  51.640  49.744  0.00  0.00    +0.000 HD
ENDBRANCH   3  27
BRANCH   5  29
ATOM     29  C   UNL     1     -12.703  56.345  50.522  0.00  0.00    +0.000 C 
BRANCH  29  30
ATOM     30  C   UNL     1     -14.076  55.769  50.912  0.00  0.00    +0.000 C 
BRANCH  30  31
ATOM     31  C   UNL     1     -15.221  56.777  51.105  0.00  0.00    +0.000 C 
ATOM     32  C   UNL     1     -16.556  56.255  50.576  0.00  0.00    +0.000 C 
ATOM     33  C   UNL     1     -15.349  57.096  52.601  0.00  0.00    +0.000 C 
ENDBRANCH  30  31
ENDBRANCH  29  30
ENDBRANCH   5  29
TORSDOF 5
ENDMDL
MODEL 8
REMARK VINA RESULT:      -7.8      3.655      5.719
REMARK  Name = 338063
REMARK  8 active torsions:
REMARK  status: ('A' for Active; 'I' for Inactive)
REMARK    1  A    between atoms: C_6  and  C_10
REMARK    2  A    between atoms: C_14  and  O_18
REMARK    3  A    between atoms: N_17  and  C_21
REMARK    4  A    between atoms: C_21  and  C_24
REMARK    5  A    between atoms: C_24  and  C_27
REMARK    6  A    between atoms: C_25  and  C_28
REMARK    7  A    between atoms: C_27  and  C_29
REMARK    8  A    between atoms: C_27  and  C_30
REMARK                            x       y       z     vdW  Elec       q    Type
REMARK                         _______ _______ _______ _____ _____    ______ ____
ROOT
ATOM      1  C   UNL     1     -11.488  55.950  48.800  0.00  0.00    +0.000 A 
ATOM      2  C   UNL     1     -10.427  55.333  49.657  0.00  0.00    +0.000 A 
ATOM      3  C   UNL     1     -11.603  55.588  47.511  0.00  0.00    +0.000 A 
ATOM      4  O   UNL     1     -10.419  55.610  50.860  0.00  0.00    +0.000 OA
ATOM      5  N   UNL     1      -9.514  54.463  49.072  0.00  0.00    +0.000 N 
ATOM      6  C   UNL     1     -10.704  54.579  46.936  0.00  0.00    +0.000 A 
ATOM      7  C   UNL     1      -9.691  54.010  47.728  0.00  0.00    +0.000 A 
ATOM      8  C   UNL     1     -10.861  54.155  45.602  0.00  0.00    +0.000 A 
ATOM      9  C   UNL     1      -8.902  52.990  47.174  0.00  0.00    +0.000 A 
ATOM     10  C   UNL     1     -10.039  53.170  45.048  0.00  0.00    +0.000 A 
ATOM     11  C   UNL     1      -9.063  52.585  45.848  0.00  0.00    +0.000 A 
ATOM     12  C   UNL     1     -10.219  52.714  43.631  0.00  0.00    +0.000 C 
ENDROOT
BRANCH   1  18
ATOM     13  S   UNL     1     -13.540  59.237  49.461  0.00  0.00    +0.000 S 
ATOM     14  O   UNL     1     -14.678  59.377  48.573  0.00  0.00    +0.000 OA
ATOM     15  O   UNL     1     -12.716  60.388  49.781  0.00  0.00    +0.000 OA
ATOM     16  N   UNL     1     -12.578  58.087  48.849  0.00  0.00    +0.000 N 
ATOM     17  C   UNL     1     -14.185  58.667  50.990  0.00  0.00    +0.000 A 
ATOM     18  C   UNL     1     -12.468  56.927  49.428  0.00  0.00    +0.000 C 
ATOM     19  C   UNL     1     -13.904  57.363  51.364  0.00  0.00    +0.000 A 
ATOM     20  C   UNL     1     -14.942  59.523  51.796  0.00  0.00    +0.000 A 
ATOM     21  N   UNL     1     -13.154  56.519  50.550  0.00  0.00    +0.000 N 
ATOM     22  C   UNL     1     -14.461  56.883  52.553  0.00  0.00    +0.000 A 
ATOM     23  C   UNL     1     -15.461  59.041  52.996  0.00  0.00    +0.000 A 
ATOM     24  C   UNL     1     -15.228  57.719  53.370  0.00  0.00    +0.000 A 
ATOM     25  H   UNL     1     -12.066  58.269  48.028  0.00  0.00    +0.000 HD
ATOM     26  H   UNL     1     -13.112  55.566  50.791  0.00  0.00    +0.000 HD
ENDBRANCH   1  18
BRANCH   3  27
ATOM     27  O   UNL     1     -12.573  56.071  46.647  0.00  0.00    +0.000 OA
ATOM     28  H   UNL     1     -12.740  55.629  45.837  0.00  0.00    +0.000 HD
ENDBRANCH   3  27
BRANCH   5  29
ATOM     29  C   UNL     1      -8.440  53.929  49.919  0.00  0.00    +0.000 C 
BRANCH  29  30
ATOM     30  C   UNL     1      -8.648  52.499  50.451  0.00  0.00    +0.000 C 
BRANCH  30  31
ATOM     31  C   UNL     1      -9.785  52.297  51.468  0.00  0.00    +0.000 C 
ATOM     32  C   UNL     1     -11.050  51.732  50.825  0.00  0.00    +0.000 C 
ATOM     33  C   UNL     1      -9.297  51.347  52.569  0.00  0.00    +0.000 C 
ENDBRANCH  30  31
ENDBRANCH  29  30
ENDBRANCH   5  29
TORSDOF 5
ENDMDL
MODEL 9
REMARK VINA RESULT:      -7.7      3.060      7.718
REMARK  Name = 338063
REMARK  8 active torsions:
REMARK  status: ('A' for Active; 'I' for Inactive)
REMARK    1  A    between atoms: C_6  and  C_10
REMARK    2  A    between atoms: C_14  and  O_18
REMARK    3  A    between atoms: N_17  and  C_21
REMARK    4  A    between atoms: C_21  and  C_24
REMARK    5  A    between atoms: C_24  and  C_27
REMARK    6  A    between atoms: C_25  and  C_28
REMARK    7  A    between atoms: C_27  and  C_29
REMARK    8  A    between atoms: C_27  and  C_30
REMARK                            x       y       z     vdW  Elec       q    Type
REMARK                         _______ _______ _______ _____ _____    ______ ____
ROOT
ATOM      1  C   UNL     1     -10.113  54.149  51.171  0.00  0.00    +0.000 A 
ATOM      2  C   UNL     1     -10.600  53.871  49.784  0.00  0.00    +0.000 A 
ATOM      3  C   UNL     1     -10.821  54.954  51.982  0.00  0.00    +0.000 A 
ATOM      4  O   UNL     1      -9.980  53.045  49.106  0.00  0.00    +0.000 OA
ATOM      5  N   UNL     1     -11.734  54.532  49.325  0.00  0.00    +0.000 N 
ATOM      6  C   UNL     1     -12.082  55.553  51.522  0.00  0.00    +0.000 A 
ATOM      7  C   UNL     1     -12.536  55.314  50.213  0.00  0.00    +0.000 A 
ATOM      8  C   UNL     1     -12.856  56.347  52.390  0.00  0.00    +0.000 A 
ATOM      9  C   UNL     1     -13.782  55.832  49.831  0.00  0.00    +0.000 A 
ATOM     10  C   UNL     1     -14.075  56.896  51.983  0.00  0.00    +0.000 A 
ATOM     11  C   UNL     1     -14.537  56.625  50.699  0.00  0.00    +0.000 A 
ATOM     12  C   UNL     1     -14.901  57.731  52.915  0.00  0.00    +0.000 C 
ENDROOT
BRANCH   1  18
ATOM     13  S   UNL     1      -7.761  51.709  53.163  0.00  0.00    +0.000 S 
ATOM     14  O   UNL     1      -7.721  50.377  52.592  0.00  0.00    +0.000 OA
ATOM     15  O   UNL     1      -7.816  51.887  54.603  0.00  0.00    +0.000 OA
ATOM     16  N   UNL     1      -9.027  52.484  52.514  0.00  0.00    +0.000 N 
ATOM     17  C   UNL     1      -6.290  52.508  52.636  0.00  0.00    +0.000 A 
ATOM     18  C   UNL     1      -8.855  53.455  51.665  0.00  0.00    +0.000 C 
ATOM     19  C   UNL     1      -6.407  53.529  51.708  0.00  0.00    +0.000 A 
ATOM     20  C   UNL     1      -5.053  52.121  53.162  0.00  0.00    +0.000 A 
ATOM     21  N   UNL     1      -7.644  53.901  51.188  0.00  0.00    +0.000 N 
ATOM     22  C   UNL     1      -5.236  54.132  51.239  0.00  0.00    +0.000 A 
ATOM     23  C   UNL     1      -3.898  52.756  52.712  0.00  0.00    +0.000 A 
ATOM     24  C   UNL     1      -3.988  53.755  51.745  0.00  0.00    +0.000 A 
ATOM     25  H   UNL     1      -9.940  52.218  52.768  0.00  0.00    +0.000 HD
ATOM     26  H   UNL     1      -7.653  54.524  50.426  0.00  0.00    +0.000 HD
ENDBRANCH   1  18
BRANCH   3  27
ATOM     27  O   UNL     1     -10.477  55.243  53.292  0.00  0.00    +0.000 OA
ATOM     28  H   UNL     1      -9.851  55.917  53.474  0.00  0.00    +0.000 HD
ENDBRANCH   3  27
BRANCH   5  29
ATOM     29  C   UNL     1     -12.148  54.295  47.936  0.00  0.00    +0.000 C 
BRANCH  29  30
ATOM     30  C   UNL     1     -11.666  55.327  46.901  0.00  0.00    +0.000 C 
BRANCH  30  31
ATOM     31  C   UNL     1     -10.511  54.897  45.980  0.00  0.00    +0.000 C 
ATOM     32  C   UNL     1      -9.141  55.211  46.576  0.00  0.00    +0.000 C 
ATOM     33  C   UNL     1     -10.626  53.390  45.717  0.00  0.00    +0.000 C 
ENDBRANCH  30  31
ENDBRANCH  29  30
ENDBRANCH   5  29
TORSDOF 5
ENDMDL
