MODEL 1
REMARK VINA RESULT:      -8.6      0.000      0.000
REMARK  Name = 338168
REMARK  5 active torsions:
REMARK  status: ('A' for Active; 'I' for Inactive)
REMARK    1  A    between atoms: C_6  and  C_10
REMARK    2  A    between atoms: C_14  and  O_18
REMARK    3  A    between atoms: N_17  and  C_21
REMARK    4  A    between atoms: C_21  and  C_24
REMARK    5  A    between atoms: C_24  and  C_27
REMARK                            x       y       z     vdW  Elec       q    Type
REMARK                         _______ _______ _______ _____ _____    ______ ____
ROOT
ATOM      1  C   UNL     1      -9.999  54.561  52.370  0.00  0.00    +0.000 A 
ATOM      2  C   UNL     1      -8.604  55.063  52.254  0.00  0.00    +0.000 A 
ATOM      3  C   UNL     1     -10.254  53.429  53.048  0.00  0.00    +0.000 A 
ATOM      4  O   UNL     1      -8.402  56.004  51.484  0.00  0.00    +0.000 OA
ATOM      5  N   UNL     1      -7.609  54.480  53.041  0.00  0.00    +0.000 N 
ATOM      6  C   UNL     1      -9.173  52.713  53.734  0.00  0.00    +0.000 A 
ATOM      7  C   UNL     1      -7.869  53.251  53.748  0.00  0.00    +0.000 A 
ATOM      8  C   UNL     1      -9.453  51.516  54.418  0.00  0.00    +0.000 A 
ATOM      9  C   UNL     1      -6.876  52.553  54.461  0.00  0.00    +0.000 A 
ATOM     10  C   UNL     1      -8.460  50.870  55.134  0.00  0.00    +0.000 A 
ATOM     11  C   UNL     1      -7.174  51.379  55.163  0.00  0.00    +0.000 A 
ATOM     12  F   UNL     1      -8.747  49.751  55.809  0.00  0.00    +0.000 F 
ENDROOT
BRANCH   1  18
ATOM     13  S   UNL     1     -12.396  55.804  49.437  0.00  0.00    +0.000 S 
ATOM     14  O   UNL     1     -13.074  54.566  49.152  0.00  0.00    +0.000 OA
ATOM     15  O   UNL     1     -11.954  56.699  48.389  0.00  0.00    +0.000 OA
ATOM     16  N   UNL     1     -11.070  55.471  50.362  0.00  0.00    +0.000 N 
ATOM     17  C   UNL     1     -13.375  56.718  50.549  0.00  0.00    +0.000 A 
ATOM     18  C   UNL     1     -11.138  55.295  51.744  0.00  0.00    +0.000 C 
ATOM     19  C   UNL     1     -13.108  56.577  51.908  0.00  0.00    +0.000 A 
ATOM     20  C   UNL     1     -14.368  57.575  50.065  0.00  0.00    +0.000 A 
ATOM     21  N   UNL     1     -12.122  55.744  52.459  0.00  0.00    +0.000 N 
ATOM     22  C   UNL     1     -13.866  57.346  52.797  0.00  0.00    +0.000 A 
ATOM     23  C   UNL     1     -15.119  58.319  50.970  0.00  0.00    +0.000 A 
ATOM     24  C   UNL     1     -14.863  58.211  52.336  0.00  0.00    +0.000 A 
ATOM     25  H   UNL     1     -10.193  55.394  49.921  0.00  0.00    +0.000 HD
ATOM     26  H   UNL     1     -12.179  55.496  53.409  0.00  0.00    +0.000 HD
ENDBRANCH   1  18
BRANCH   3  27
ATOM     27  O   UNL     1     -11.510  52.860  53.187  0.00  0.00    +0.000 OA
ATOM     28  H   UNL     1     -11.599  51.929  53.250  0.00  0.00    +0.000 HD
ENDBRANCH   3  27
BRANCH   5  29
ATOM     29  C   UNL     1      -6.232  55.022  52.970  0.00  0.00    +0.000 C 
BRANCH  29  30
ATOM     30  C   UNL     1      -5.227  54.232  52.111  0.00  0.00    +0.000 C 
BRANCH  30  31
ATOM     31  C   UNL     1      -5.353  54.514  50.640  0.00  0.00    +0.000 C 
ATOM     32  C   UNL     1      -6.135  53.643  49.693  0.00  0.00    +0.000 C 
ATOM     33  C   UNL     1      -4.634  53.606  49.675  0.00  0.00    +0.000 C 
ENDBRANCH  30  31
ENDBRANCH  29  30
ENDBRANCH   5  29
TORSDOF 5
ENDMDL
MODEL 2
REMARK VINA RESULT:      -8.3      3.867      7.423
REMARK  Name = 338168
REMARK  5 active torsions:
REMARK  status: ('A' for Active; 'I' for Inactive)
REMARK    1  A    between atoms: C_6  and  C_10
REMARK    2  A    between atoms: C_14  and  O_18
REMARK    3  A    between atoms: N_17  and  C_21
REMARK    4  A    between atoms: C_21  and  C_24
REMARK    5  A    between atoms: C_24  and  C_27
REMARK                            x       y       z     vdW  Elec       q    Type
REMARK                         _______ _______ _______ _____ _____    ______ ____
ROOT
ATOM      1  C   UNL     1     -10.179  55.104  50.828  0.00  0.00    +0.000 A 
ATOM      2  C   UNL     1      -9.823  55.169  49.386  0.00  0.00    +0.000 A 
ATOM      3  C   UNL     1     -11.370  55.558  51.250  0.00  0.00    +0.000 A 
ATOM      4  O   UNL     1      -8.661  54.901  49.074  0.00  0.00    +0.000 OA
ATOM      5  N   UNL     1     -10.818  55.491  48.459  0.00  0.00    +0.000 N 
ATOM      6  C   UNL     1     -12.357  56.063  50.290  0.00  0.00    +0.000 A 
ATOM      7  C   UNL     1     -12.088  56.003  48.906  0.00  0.00    +0.000 A 
ATOM      8  C   UNL     1     -13.591  56.558  50.751  0.00  0.00    +0.000 A 
ATOM      9  C   UNL     1     -13.086  56.455  48.021  0.00  0.00    +0.000 A 
ATOM     10  C   UNL     1     -14.562  56.966  49.853  0.00  0.00    +0.000 A 
ATOM     11  C   UNL     1     -14.321  56.917  48.492  0.00  0.00    +0.000 A 
ATOM     12  F   UNL     1     -15.744  57.402  50.303  0.00  0.00    +0.000 F 
ENDROOT
BRANCH   1  18
ATOM     13  S   UNL     1      -6.878  54.900  53.054  0.00  0.00    +0.000 S 
ATOM     14  O   UNL     1      -7.145  55.985  53.963  0.00  0.00    +0.000 OA
ATOM     15  O   UNL     1      -5.565  54.672  52.490  0.00  0.00    +0.000 OA
ATOM     16  N   UNL     1      -7.923  55.017  51.781  0.00  0.00    +0.000 N 
ATOM     17  C   UNL     1      -7.407  53.421  53.803  0.00  0.00    +0.000 A 
ATOM     18  C   UNL     1      -9.230  54.535  51.831  0.00  0.00    +0.000 C 
ATOM     19  C   UNL     1      -8.696  52.979  53.518  0.00  0.00    +0.000 A 
ATOM     20  C   UNL     1      -6.538  52.708  54.634  0.00  0.00    +0.000 A 
ATOM     21  N   UNL     1      -9.614  53.640  52.687  0.00  0.00    +0.000 N 
ATOM     22  C   UNL     1      -9.104  51.768  54.085  0.00  0.00    +0.000 A 
ATOM     23  C   UNL     1      -6.971  51.511  55.198  0.00  0.00    +0.000 A 
ATOM     24  C   UNL     1      -8.251  51.037  54.918  0.00  0.00    +0.000 A 
ATOM     25  H   UNL     1      -7.610  55.445  50.952  0.00  0.00    +0.000 HD
ATOM     26  H   UNL     1     -10.570  53.418  52.755  0.00  0.00    +0.000 HD
ENDBRANCH   1  18
BRANCH   3  27
ATOM     27  O   UNL     1     -11.785  55.571  52.572  0.00  0.00    +0.000 OA
ATOM     28  H   UNL     1     -11.736  56.364  53.072  0.00  0.00    +0.000 HD
ENDBRANCH   3  27
BRANCH   5  29
ATOM     29  C   UNL     1     -10.477  55.495  47.017  0.00  0.00    +0.000 C 
BRANCH  29  30
ATOM     30  C   UNL     1     -10.305  54.119  46.349  0.00  0.00    +0.000 C 
BRANCH  30  31
ATOM     31  C   UNL     1     -11.274  53.879  45.225  0.00  0.00    +0.000 C 
ATOM     32  C   UNL     1     -12.060  52.605  45.067  0.00  0.00    +0.000 C 
ATOM     33  C   UNL     1     -10.897  52.881  44.159  0.00  0.00    +0.000 C 
ENDBRANCH  30  31
ENDBRANCH  29  30
ENDBRANCH   5  29
TORSDOF 5
ENDMDL
MODEL 3
REMARK VINA RESULT:      -8.3      3.876      5.455
REMARK  Name = 338168
REMARK  5 active torsions:
REMARK  status: ('A' for Active; 'I' for Inactive)
REMARK    1  A    between atoms: C_6  and  C_10
REMARK    2  A    between atoms: C_14  and  O_18
REMARK    3  A    between atoms: N_17  and  C_21
REMARK    4  A    between atoms: C_21  and  C_24
REMARK    5  A    between atoms: C_24  and  C_27
REMARK                            x       y       z     vdW  Elec       q    Type
REMARK                         _______ _______ _______ _____ _____    ______ ____
ROOT
ATOM      1  C   UNL     1     -11.560  55.731  48.938  0.00  0.00    +0.000 A 
ATOM      2  C   UNL     1     -10.493  55.017  49.688  0.00  0.00    +0.000 A 
ATOM      3  C   UNL     1     -11.737  55.497  47.627  0.00  0.00    +0.000 A 
ATOM      4  O   UNL     1     -10.261  55.391  50.839  0.00  0.00    +0.000 OA
ATOM      5  N   UNL     1      -9.838  53.947  49.074  0.00  0.00    +0.000 N 
ATOM      6  C   UNL     1     -10.924  54.489  46.936  0.00  0.00    +0.000 A 
ATOM      7  C   UNL     1     -10.003  53.707  47.663  0.00  0.00    +0.000 A 
ATOM      8  C   UNL     1     -11.105  54.273  45.557  0.00  0.00    +0.000 A 
ATOM      9  C   UNL     1      -9.282  52.719  46.965  0.00  0.00    +0.000 A 
ATOM     10  C   UNL     1     -10.401  53.274  44.908  0.00  0.00    +0.000 A 
ATOM     11  C   UNL     1      -9.492  52.494  45.600  0.00  0.00    +0.000 A 
ATOM     12  F   UNL     1     -10.607  53.055  43.603  0.00  0.00    +0.000 F 
ENDROOT
BRANCH   1  18
ATOM     13  S   UNL     1     -13.521  59.164  49.452  0.00  0.00    +0.000 S 
ATOM     14  O   UNL     1     -14.512  59.022  48.416  0.00  0.00    +0.000 OA
ATOM     15  O   UNL     1     -12.849  60.420  49.707  0.00  0.00    +0.000 OA
ATOM     16  N   UNL     1     -12.338  58.041  49.199  0.00  0.00    +0.000 N 
ATOM     17  C   UNL     1     -14.214  58.609  50.948  0.00  0.00    +0.000 A 
ATOM     18  C   UNL     1     -12.454  56.716  49.617  0.00  0.00    +0.000 C 
ATOM     19  C   UNL     1     -13.999  57.281  51.305  0.00  0.00    +0.000 A 
ATOM     20  C   UNL     1     -14.934  59.494  51.756  0.00  0.00    +0.000 A 
ATOM     21  N   UNL     1     -13.279  56.344  50.547  0.00  0.00    +0.000 N 
ATOM     22  C   UNL     1     -14.519  56.848  52.529  0.00  0.00    +0.000 A 
ATOM     23  C   UNL     1     -15.454  59.037  52.964  0.00  0.00    +0.000 A 
ATOM     24  C   UNL     1     -15.240  57.717  53.354  0.00  0.00    +0.000 A 
ATOM     25  H   UNL     1     -11.515  58.318  48.735  0.00  0.00    +0.000 HD
ATOM     26  H   UNL     1     -13.403  55.385  50.725  0.00  0.00    +0.000 HD
ENDBRANCH   1  18
BRANCH   3  27
ATOM     27  O   UNL     1     -12.678  56.130  46.833  0.00  0.00    +0.000 OA
ATOM     28  H   UNL     1     -13.151  55.643  46.186  0.00  0.00    +0.000 HD
ENDBRANCH   3  27
BRANCH   5  29
ATOM     29  C   UNL     1      -8.818  53.197  49.844  0.00  0.00    +0.000 C 
BRANCH  29  30
ATOM     30  C   UNL     1      -7.587  53.996  50.310  0.00  0.00    +0.000 C 
BRANCH  30  31
ATOM     31  C   UNL     1      -6.933  54.777  49.205  0.00  0.00    +0.000 C 
ATOM     32  C   UNL     1      -6.044  54.153  48.162  0.00  0.00    +0.000 C 
ATOM     33  C   UNL     1      -5.439  54.979  49.260  0.00  0.00    +0.000 C 
ENDBRANCH  30  31
ENDBRANCH  29  30
ENDBRANCH   5  29
TORSDOF 5
ENDMDL
MODEL 4
REMARK VINA RESULT:      -8.2      3.675      7.274
REMARK  Name = 338168
REMARK  5 active torsions:
REMARK  status: ('A' for Active; 'I' for Inactive)
REMARK    1  A    between atoms: C_6  and  C_10
REMARK    2  A    between atoms: C_14  and  O_18
REMARK    3  A    between atoms: N_17  and  C_21
REMARK    4  A    between atoms: C_21  and  C_24
REMARK    5  A    between atoms: C_24  and  C_27
REMARK                            x       y       z     vdW  Elec       q    Type
REMARK                         _______ _______ _______ _____ _____    ______ ____
ROOT
ATOM      1  C   UNL     1     -10.161  55.446  50.483  0.00  0.00    +0.000 A 
ATOM      2  C   UNL     1     -10.327  55.702  49.028  0.00  0.00    +0.000 A 
ATOM      3  C   UNL     1     -11.197  55.617  51.321  0.00  0.00    +0.000 A 
ATOM      4  O   UNL     1      -9.311  55.697  48.331  0.00  0.00    +0.000 OA
ATOM      5  N   UNL     1     -11.613  55.897  48.519  0.00  0.00    +0.000 N 
ATOM      6  C   UNL     1     -12.516  55.996  50.804  0.00  0.00    +0.000 A 
ATOM      7  C   UNL     1     -12.723  56.109  49.413  0.00  0.00    +0.000 A 
ATOM      8  C   UNL     1     -13.585  56.196  51.698  0.00  0.00    +0.000 A 
ATOM      9  C   UNL     1     -14.019  56.426  48.963  0.00  0.00    +0.000 A 
ATOM     10  C   UNL     1     -14.853  56.478  51.221  0.00  0.00    +0.000 A 
ATOM     11  C   UNL     1     -15.080  56.593  49.861  0.00  0.00    +0.000 A 
ATOM     12  F   UNL     1     -15.868  56.632  52.080  0.00  0.00    +0.000 F 
ENDROOT
BRANCH   1  18
ATOM     13  S   UNL     1      -6.554  53.746  50.471  0.00  0.00    +0.000 S 
ATOM     14  O   UNL     1      -5.847  54.712  49.670  0.00  0.00    +0.000 OA
ATOM     15  O   UNL     1      -6.360  52.321  50.309  0.00  0.00    +0.000 OA
ATOM     16  N   UNL     1      -8.174  54.022  50.308  0.00  0.00    +0.000 N 
ATOM     17  C   UNL     1      -6.303  54.139  52.147  0.00  0.00    +0.000 A 
ATOM     18  C   UNL     1      -8.852  54.994  51.042  0.00  0.00    +0.000 C 
ATOM     19  C   UNL     1      -7.252  54.943  52.771  0.00  0.00    +0.000 A 
ATOM     20  C   UNL     1      -5.192  53.628  52.826  0.00  0.00    +0.000 A 
ATOM     21  N   UNL     1      -8.392  55.480  52.153  0.00  0.00    +0.000 N 
ATOM     22  C   UNL     1      -7.071  55.221  54.129  0.00  0.00    +0.000 A 
ATOM     23  C   UNL     1      -5.026  53.929  54.174  0.00  0.00    +0.000 A 
ATOM     24  C   UNL     1      -5.968  54.719  54.828  0.00  0.00    +0.000 A 
ATOM     25  H   UNL     1      -8.683  53.476  49.665  0.00  0.00    +0.000 HD
ATOM     26  H   UNL     1      -8.852  56.243  52.571  0.00  0.00    +0.000 HD
ENDBRANCH   1  18
BRANCH   3  27
ATOM     27  O   UNL     1     -11.138  55.437  52.693  0.00  0.00    +0.000 OA
ATOM     28  H   UNL     1     -10.500  55.899  53.201  0.00  0.00    +0.000 HD
ENDBRANCH   3  27
BRANCH   5  29
ATOM     29  C   UNL     1     -11.783  56.091  47.060  0.00  0.00    +0.000 C 
BRANCH  29  30
ATOM     30  C   UNL     1     -12.069  54.827  46.229  0.00  0.00    +0.000 C 
BRANCH  30  31
ATOM     31  C   UNL     1     -10.836  54.231  45.610  0.00  0.00    +0.000 C 
ATOM     32  C   UNL     1     -10.873  53.121  44.594  0.00  0.00    +0.000 C 
ATOM     33  C   UNL     1     -10.446  52.828  46.003  0.00  0.00    +0.000 C 
ENDBRANCH  30  31
ENDBRANCH  29  30
ENDBRANCH   5  29
TORSDOF 5
ENDMDL
MODEL 5
REMARK VINA RESULT:      -8.0      3.613      7.902
REMARK  Name = 338168
REMARK  5 active torsions:
REMARK  status: ('A' for Active; 'I' for Inactive)
REMARK    1  A    between atoms: C_6  and  C_10
REMARK    2  A    between atoms: C_14  and  O_18
REMARK    3  A    between atoms: N_17  and  C_21
REMARK    4  A    between atoms: C_21  and  C_24
REMARK    5  A    between atoms: C_24  and  C_27
REMARK                            x       y       z     vdW  Elec       q    Type
REMARK                         _______ _______ _______ _____ _____    ______ ____
ROOT
ATOM      1  C   UNL     1      -9.928  54.325  50.547  0.00  0.00    +0.000 A 
ATOM      2  C   UNL     1     -10.981  55.347  50.779  0.00  0.00    +0.000 A 
ATOM      3  C   UNL     1      -9.751  53.804  49.321  0.00  0.00    +0.000 A 
ATOM      4  O   UNL     1     -11.216  55.666  51.946  0.00  0.00    +0.000 OA
ATOM      5  N   UNL     1     -11.621  55.919  49.678  0.00  0.00    +0.000 N 
ATOM      6  C   UNL     1     -10.549  54.283  48.188  0.00  0.00    +0.000 A 
ATOM      7  C   UNL     1     -11.457  55.348  48.365  0.00  0.00    +0.000 A 
ATOM      8  C   UNL     1     -10.369  53.709  46.915  0.00  0.00    +0.000 A 
ATOM      9  C   UNL     1     -12.165  55.805  47.237  0.00  0.00    +0.000 A 
ATOM     10  C   UNL     1     -11.060  54.202  45.822  0.00  0.00    +0.000 A 
ATOM     11  C   UNL     1     -11.954  55.246  45.971  0.00  0.00    +0.000 A 
ATOM     12  F   UNL     1     -10.854  53.671  44.611  0.00  0.00    +0.000 F 
ENDROOT
BRANCH   1  18
ATOM     13  S   UNL     1      -6.701  54.247  52.888  0.00  0.00    +0.000 S 
ATOM     14  O   UNL     1      -6.907  55.479  53.605  0.00  0.00    +0.000 OA
ATOM     15  O   UNL     1      -5.396  53.842  52.411  0.00  0.00    +0.000 OA
ATOM     16  N   UNL     1      -7.706  54.233  51.578  0.00  0.00    +0.000 N 
ATOM     17  C   UNL     1      -7.355  52.946  53.841  0.00  0.00    +0.000 A 
ATOM     18  C   UNL     1      -9.047  53.858  51.659  0.00  0.00    +0.000 C 
ATOM     19  C   UNL     1      -8.667  52.556  53.586  0.00  0.00    +0.000 A 
ATOM     20  C   UNL     1      -6.560  52.316  54.803  0.00  0.00    +0.000 A 
ATOM     21  N   UNL     1      -9.515  53.138  52.631  0.00  0.00    +0.000 N 
ATOM     22  C   UNL     1      -9.176  51.482  54.322  0.00  0.00    +0.000 A 
ATOM     23  C   UNL     1      -7.093  51.257  55.533  0.00  0.00    +0.000 A 
ATOM     24  C   UNL     1      -8.398  50.835  55.288  0.00  0.00    +0.000 A 
ATOM     25  H   UNL     1      -7.344  54.501  50.702  0.00  0.00    +0.000 HD
ATOM     26  H   UNL     1     -10.486  52.997  52.700  0.00  0.00    +0.000 HD
ENDBRANCH   1  18
BRANCH   3  27
ATOM     27  O   UNL     1      -8.821  52.826  49.007  0.00  0.00    +0.000 OA
ATOM     28  H   UNL     1      -7.905  52.997  49.114  0.00  0.00    +0.000 HD
ENDBRANCH   3  27
BRANCH   5  29
ATOM     29  C   UNL     1     -12.628  56.982  49.908  0.00  0.00    +0.000 C 
BRANCH  29  30
ATOM     30  C   UNL     1     -13.997  56.526  50.444  0.00  0.00    +0.000 C 
BRANCH  30  31
ATOM     31  C   UNL     1     -14.611  57.498  51.411  0.00  0.00    +0.000 C 
ATOM     32  C   UNL     1     -14.187  57.614  52.851  0.00  0.00    +0.000 C 
ATOM     33  C   UNL     1     -15.491  56.955  52.508  0.00  0.00    +0.000 C 
ENDBRANCH  30  31
ENDBRANCH  29  30
ENDBRANCH   5  29
TORSDOF 5
ENDMDL
MODEL 6
REMARK VINA RESULT:      -8.0      3.623      5.267
REMARK  Name = 338168
REMARK  5 active torsions:
REMARK  status: ('A' for Active; 'I' for Inactive)
REMARK    1  A    between atoms: C_6  and  C_10
REMARK    2  A    between atoms: C_14  and  O_18
REMARK    3  A    between atoms: N_17  and  C_21
REMARK    4  A    between atoms: C_21  and  C_24
REMARK    5  A    between atoms: C_24  and  C_27
REMARK                            x       y       z     vdW  Elec       q    Type
REMARK                         _______ _______ _______ _____ _____    ______ ____
ROOT
ATOM      1  C   UNL     1     -10.368  55.811  48.963  0.00  0.00    +0.000 A 
ATOM      2  C   UNL     1     -10.256  55.326  47.562  0.00  0.00    +0.000 A 
ATOM      3  C   UNL     1      -9.329  55.687  49.806  0.00  0.00    +0.000 A 
ATOM      4  O   UNL     1     -11.285  55.307  46.884  0.00  0.00    +0.000 OA
ATOM      5  N   UNL     1      -9.001  54.957  47.074  0.00  0.00    +0.000 N 
ATOM      6  C   UNL     1      -8.054  55.133  49.337  0.00  0.00    +0.000 A 
ATOM      7  C   UNL     1      -7.889  54.796  47.977  0.00  0.00    +0.000 A 
ATOM      8  C   UNL     1      -6.983  54.986  50.238  0.00  0.00    +0.000 A 
ATOM      9  C   UNL     1      -6.632  54.314  47.565  0.00  0.00    +0.000 A 
ATOM     10  C   UNL     1      -5.751  54.537  49.794  0.00  0.00    +0.000 A 
ATOM     11  C   UNL     1      -5.565  54.201  48.465  0.00  0.00    +0.000 A 
ATOM     12  F   UNL     1      -4.731  54.435  50.654  0.00  0.00    +0.000 F 
ENDROOT
BRANCH   1  18
ATOM     13  S   UNL     1     -13.833  57.770  48.737  0.00  0.00    +0.000 S 
ATOM     14  O   UNL     1     -14.630  56.755  48.097  0.00  0.00    +0.000 OA
ATOM     15  O   UNL     1     -13.921  59.166  48.366  0.00  0.00    +0.000 OA
ATOM     16  N   UNL     1     -12.243  57.346  48.599  0.00  0.00    +0.000 N 
ATOM     17  C   UNL     1     -14.076  57.651  50.456  0.00  0.00    +0.000 A 
ATOM     18  C   UNL     1     -11.625  56.443  49.463  0.00  0.00    +0.000 C 
ATOM     19  C   UNL     1     -13.178  56.875  51.182  0.00  0.00    +0.000 A 
ATOM     20  C   UNL     1     -15.129  58.343  51.062  0.00  0.00    +0.000 A 
ATOM     21  N   UNL     1     -12.096  56.165  50.639  0.00  0.00    +0.000 N 
ATOM     22  C   UNL     1     -13.348  56.817  52.569  0.00  0.00    +0.000 A 
ATOM     23  C   UNL     1     -15.287  58.260  52.443  0.00  0.00    +0.000 A 
ATOM     24  C   UNL     1     -14.393  57.503  53.197  0.00  0.00    +0.000 A 
ATOM     25  H   UNL     1     -11.708  57.748  47.877  0.00  0.00    +0.000 HD
ATOM     26  H   UNL     1     -11.687  55.439  51.162  0.00  0.00    +0.000 HD
ENDBRANCH   1  18
BRANCH   3  27
ATOM     27  O   UNL     1      -9.341  56.076  51.135  0.00  0.00    +0.000 OA
ATOM     28  H   UNL     1      -9.495  56.973  51.361  0.00  0.00    +0.000 HD
ENDBRANCH   3  27
BRANCH   5  29
ATOM     29  C   UNL     1      -8.880  54.533  45.659  0.00  0.00    +0.000 C 
BRANCH  29  30
ATOM     30  C   UNL     1      -9.237  53.068  45.350  0.00  0.00    +0.000 C 
BRANCH  30  31
ATOM     31  C   UNL     1     -10.410  52.925  44.422  0.00  0.00    +0.000 C 
ATOM     32  C   UNL     1     -11.787  52.526  44.882  0.00  0.00    +0.000 C 
ATOM     33  C   UNL     1     -10.933  51.539  44.140  0.00  0.00    +0.000 C 
ENDBRANCH  30  31
ENDBRANCH  29  30
ENDBRANCH   5  29
TORSDOF 5
ENDMDL
MODEL 7
REMARK VINA RESULT:      -7.9      3.598      7.537
REMARK  Name = 338168
REMARK  5 active torsions:
REMARK  status: ('A' for Active; 'I' for Inactive)
REMARK    1  A    between atoms: C_6  and  C_10
REMARK    2  A    between atoms: C_14  and  O_18
REMARK    3  A    between atoms: N_17  and  C_21
REMARK    4  A    between atoms: C_21  and  C_24
REMARK    5  A    between atoms: C_24  and  C_27
REMARK                            x       y       z     vdW  Elec       q    Type
REMARK                         _______ _______ _______ _____ _____    ______ ____
ROOT
ATOM      1  C   UNL     1     -10.007  55.461  50.441  0.00  0.00    +0.000 A 
ATOM      2  C   UNL     1     -10.211  55.713  48.991  0.00  0.00    +0.000 A 
ATOM      3  C   UNL     1     -11.026  55.613  51.303  0.00  0.00    +0.000 A 
ATOM      4  O   UNL     1      -9.211  55.726  48.271  0.00  0.00    +0.000 OA
ATOM      5  N   UNL     1     -11.511  55.884  48.511  0.00  0.00    +0.000 N 
ATOM      6  C   UNL     1     -12.365  55.967  50.816  0.00  0.00    +0.000 A 
ATOM      7  C   UNL     1     -12.605  56.075  49.430  0.00  0.00    +0.000 A 
ATOM      8  C   UNL     1     -13.416  56.148  51.734  0.00  0.00    +0.000 A 
ATOM      9  C   UNL     1     -13.916  56.368  49.010  0.00  0.00    +0.000 A 
ATOM     10  C   UNL     1     -14.700  56.406  51.285  0.00  0.00    +0.000 A 
ATOM     11  C   UNL     1     -14.959  56.516  49.931  0.00  0.00    +0.000 A 
ATOM     12  F   UNL     1     -15.697  56.541  52.167  0.00  0.00    +0.000 F 
ENDROOT
BRANCH   1  18
ATOM     13  S   UNL     1      -7.120  54.966  53.147  0.00  0.00    +0.000 S 
ATOM     14  O   UNL     1      -7.740  53.955  53.963  0.00  0.00    +0.000 OA
ATOM     15  O   UNL     1      -6.384  56.073  53.718  0.00  0.00    +0.000 OA
ATOM     16  N   UNL     1      -8.275  55.625  52.168  0.00  0.00    +0.000 N 
ATOM     17  C   UNL     1      -6.092  54.175  51.987  0.00  0.00    +0.000 A 
ATOM     18  C   UNL     1      -8.678  55.033  50.971  0.00  0.00    +0.000 C 
ATOM     19  C   UNL     1      -6.633  53.887  50.737  0.00  0.00    +0.000 A 
ATOM     20  C   UNL     1      -4.767  53.877  52.317  0.00  0.00    +0.000 A 
ATOM     21  N   UNL     1      -7.949  54.167  50.339  0.00  0.00    +0.000 N 
ATOM     22  C   UNL     1      -5.792  53.291  49.792  0.00  0.00    +0.000 A 
ATOM     23  C   UNL     1      -3.952  53.272  51.364  0.00  0.00    +0.000 A 
ATOM     24  C   UNL     1      -4.462  52.985  50.099  0.00  0.00    +0.000 A 
ATOM     25  H   UNL     1      -8.698  56.472  52.440  0.00  0.00    +0.000 HD
ATOM     26  H   UNL     1      -8.326  53.697  49.562  0.00  0.00    +0.000 HD
ENDBRANCH   1  18
BRANCH   3  27
ATOM     27  O   UNL     1     -10.934  55.434  52.674  0.00  0.00    +0.000 OA
ATOM     28  H   UNL     1     -11.373  54.715  53.084  0.00  0.00    +0.000 HD
ENDBRANCH   3  27
BRANCH   5  29
ATOM     29  C   UNL     1     -11.718  56.074  47.056  0.00  0.00    +0.000 C 
BRANCH  29  30
ATOM     30  C   UNL     1     -12.012  54.805  46.234  0.00  0.00    +0.000 C 
BRANCH  30  31
ATOM     31  C   UNL     1     -10.786  54.210  45.601  0.00  0.00    +0.000 C 
ATOM     32  C   UNL     1     -10.833  53.101  44.584  0.00  0.00    +0.000 C 
ATOM     33  C   UNL     1     -10.391  52.807  45.989  0.00  0.00    +0.000 C 
ENDBRANCH  30  31
ENDBRANCH  29  30
ENDBRANCH   5  29
TORSDOF 5
ENDMDL
MODEL 8
REMARK VINA RESULT:      -7.9      3.832      7.396
REMARK  Name = 338168
REMARK  5 active torsions:
REMARK  status: ('A' for Active; 'I' for Inactive)
REMARK    1  A    between atoms: C_6  and  C_10
REMARK    2  A    between atoms: C_14  and  O_18
REMARK    3  A    between atoms: N_17  and  C_21
REMARK    4  A    between atoms: C_21  and  C_24
REMARK    5  A    between atoms: C_24  and  C_27
REMARK                            x       y       z     vdW  Elec       q    Type
REMARK                         _______ _______ _______ _____ _____    ______ ____
ROOT
ATOM      1  C   UNL     1     -10.411  55.078  50.696  0.00  0.00    +0.000 A 
ATOM      2  C   UNL     1     -10.105  55.148  49.243  0.00  0.00    +0.000 A 
ATOM      3  C   UNL     1     -11.547  55.612  51.173  0.00  0.00    +0.000 A 
ATOM      4  O   UNL     1      -8.980  54.798  48.883  0.00  0.00    +0.000 OA
ATOM      5  N   UNL     1     -11.105  55.566  48.362  0.00  0.00    +0.000 N 
ATOM      6  C   UNL     1     -12.527  56.213  50.261  0.00  0.00    +0.000 A 
ATOM      7  C   UNL     1     -12.314  56.165  48.868  0.00  0.00    +0.000 A 
ATOM      8  C   UNL     1     -13.700  56.791  50.780  0.00  0.00    +0.000 A 
ATOM      9  C   UNL     1     -13.306  56.711  48.030  0.00  0.00    +0.000 A 
ATOM     10  C   UNL     1     -14.669  57.293  49.927  0.00  0.00    +0.000 A 
ATOM     11  C   UNL     1     -14.483  57.256  48.557  0.00  0.00    +0.000 A 
ATOM     12  F   UNL     1     -15.796  57.809  50.431  0.00  0.00    +0.000 F 
ENDROOT
BRANCH   1  18
ATOM     13  S   UNL     1      -8.869  52.105  52.859  0.00  0.00    +0.000 S 
ATOM     14  O   UNL     1      -8.297  51.319  51.796  0.00  0.00    +0.000 OA
ATOM     15  O   UNL     1      -9.568  51.502  53.974  0.00  0.00    +0.000 OA
ATOM     16  N   UNL     1      -9.904  53.205  52.194  0.00  0.00    +0.000 N 
ATOM     17  C   UNL     1      -7.625  53.141  53.499  0.00  0.00    +0.000 A 
ATOM     18  C   UNL     1      -9.474  54.415  51.652  0.00  0.00    +0.000 C 
ATOM     19  C   UNL     1      -7.523  54.426  52.974  0.00  0.00    +0.000 A 
ATOM     20  C   UNL     1      -6.791  52.682  54.523  0.00  0.00    +0.000 A 
ATOM     21  N   UNL     1      -8.333  54.952  51.955  0.00  0.00    +0.000 N 
ATOM     22  C   UNL     1      -6.553  55.271  53.520  0.00  0.00    +0.000 A 
ATOM     23  C   UNL     1      -5.823  53.537  55.042  0.00  0.00    +0.000 A 
ATOM     24  C   UNL     1      -5.709  54.834  54.546  0.00  0.00    +0.000 A 
ATOM     25  H   UNL     1     -10.867  52.999  52.180  0.00  0.00    +0.000 HD
ATOM     26  H   UNL     1      -8.028  55.746  51.461  0.00  0.00    +0.000 HD
ENDBRANCH   1  18
BRANCH   3  27
ATOM     27  O   UNL     1     -11.911  55.628  52.510  0.00  0.00    +0.000 OA
ATOM     28  H   UNL     1     -11.255  55.549  53.176  0.00  0.00    +0.000 HD
ENDBRANCH   3  27
BRANCH   5  29
ATOM     29  C   UNL     1     -10.818  55.577  46.909  0.00  0.00    +0.000 C 
BRANCH  29  30
ATOM     30  C   UNL     1     -11.350  54.382  46.096  0.00  0.00    +0.000 C 
BRANCH  30  31
ATOM     31  C   UNL     1     -10.295  53.717  45.257  0.00  0.00    +0.000 C 
ATOM     32  C   UNL     1     -10.608  52.801  44.104  0.00  0.00    +0.000 C 
ATOM     33  C   UNL     1     -10.105  52.227  45.397  0.00  0.00    +0.000 C 
ENDBRANCH  30  31
ENDBRANCH  29  30
ENDBRANCH   5  29
TORSDOF 5
ENDMDL
MODEL 9
REMARK VINA RESULT:      -7.9      3.069      4.247
REMARK  Name = 338168
REMARK  5 active torsions:
REMARK  status: ('A' for Active; 'I' for Inactive)
REMARK    1  A    between atoms: C_6  and  C_10
REMARK    2  A    between atoms: C_14  and  O_18
REMARK    3  A    between atoms: N_17  and  C_21
REMARK    4  A    between atoms: C_21  and  C_24
REMARK    5  A    between atoms: C_24  and  C_27
REMARK                            x       y       z     vdW  Elec       q    Type
REMARK                         _______ _______ _______ _____ _____    ______ ____
ROOT
ATOM      1  C   UNL     1     -12.052  54.565  50.399  0.00  0.00    +0.000 A 
ATOM      2  C   UNL     1     -11.981  53.954  49.045  0.00  0.00    +0.000 A 
ATOM      3  C   UNL     1     -11.381  54.014  51.424  0.00  0.00    +0.000 A 
ATOM      4  O   UNL     1     -12.745  54.393  48.184  0.00  0.00    +0.000 OA
ATOM      5  N   UNL     1     -11.040  52.951  48.806  0.00  0.00    +0.000 N 
ATOM      6  C   UNL     1     -10.522  52.845  51.207  0.00  0.00    +0.000 A 
ATOM      7  C   UNL     1     -10.337  52.337  49.904  0.00  0.00    +0.000 A 
ATOM      8  C   UNL     1      -9.845  52.264  52.296  0.00  0.00    +0.000 A 
ATOM      9  C   UNL     1      -9.465  51.244  49.740  0.00  0.00    +0.000 A 
ATOM     10  C   UNL     1      -8.972  51.209  52.096  0.00  0.00    +0.000 A 
ATOM     11  C   UNL     1      -8.775  50.695  50.827  0.00  0.00    +0.000 A 
ATOM     12  F   UNL     1      -8.309  50.688  53.135  0.00  0.00    +0.000 F 
ENDROOT
BRANCH   1  18
ATOM     13  S   UNL     1     -14.512  57.001  52.375  0.00  0.00    +0.000 S 
ATOM     14  O   UNL     1     -13.636  57.392  53.450  0.00  0.00    +0.000 OA
ATOM     15  O   UNL     1     -15.910  56.696  52.593  0.00  0.00    +0.000 OA
ATOM     16  N   UNL     1     -13.856  55.688  51.619  0.00  0.00    +0.000 N 
ATOM     17  C   UNL     1     -14.412  58.208  51.125  0.00  0.00    +0.000 A 
ATOM     18  C   UNL     1     -12.860  55.795  50.649  0.00  0.00    +0.000 C 
ATOM     19  C   UNL     1     -13.501  57.994  50.094  0.00  0.00    +0.000 A 
ATOM     20  C   UNL     1     -15.247  59.328  51.166  0.00  0.00    +0.000 A 
ATOM     21  N   UNL     1     -12.642  56.889  49.988  0.00  0.00    +0.000 N 
ATOM     22  C   UNL     1     -13.454  58.942  49.068  0.00  0.00    +0.000 A 
ATOM     23  C   UNL     1     -15.172  60.266  50.140  0.00  0.00    +0.000 A 
ATOM     24  C   UNL     1     -14.281  60.070  49.087  0.00  0.00    +0.000 A 
ATOM     25  H   UNL     1     -14.181  54.792  51.864  0.00  0.00    +0.000 HD
ATOM     26  H   UNL     1     -11.857  56.946  49.397  0.00  0.00    +0.000 HD
ENDBRANCH   1  18
BRANCH   3  27
ATOM     27  O   UNL     1     -11.405  54.485  52.726  0.00  0.00    +0.000 OA
ATOM     28  H   UNL     1     -12.187  54.409  53.238  0.00  0.00    +0.000 HD
ENDBRANCH   3  27
BRANCH   5  29
ATOM     29  C   UNL     1     -10.928  52.386  47.440  0.00  0.00    +0.000 C 
BRANCH  29  30
ATOM     30  C   UNL     1     -10.163  53.234  46.408  0.00  0.00    +0.000 C 
BRANCH  30  31
ATOM     31  C   UNL     1      -8.944  53.905  46.976  0.00  0.00    +0.000 C 
ATOM     32  C   UNL     1      -8.887  55.370  47.316  0.00  0.00    +0.000 C 
ATOM     33  C   UNL     1      -8.178  54.859  46.095  0.00  0.00    +0.000 C 
ENDBRANCH  30  31
ENDBRANCH  29  30
ENDBRANCH   5  29
TORSDOF 5
ENDMDL
