MODEL 1
REMARK VINA RESULT:      -8.2      0.000      0.000
REMARK  Name = 298159
REMARK  7 active torsions:
REMARK  status: ('A' for Active; 'I' for Inactive)
REMARK    1  A    between atoms: C_6  and  C_10
REMARK    2  A    between atoms: C_14  and  O_18
REMARK    3  A    between atoms: N_17  and  C_21
REMARK    4  A    between atoms: C_21  and  C_24
REMARK    5  A    between atoms: C_24  and  C_27
REMARK    6  A    between atoms: C_27  and  C_28
REMARK    7  A    between atoms: C_27  and  C_29
REMARK                            x       y       z     vdW  Elec       q    Type
REMARK                         _______ _______ _______ _____ _____    ______ ____
ROOT
ATOM      1  C   UNL     1     -10.203  54.403  52.313  0.00  0.00    +0.000 A 
ATOM      2  C   UNL     1      -8.812  54.947  52.266  0.00  0.00    +0.000 A 
ATOM      3  C   UNL     1     -10.466  53.281  53.006  0.00  0.00    +0.000 A 
ATOM      4  O   UNL     1      -8.633  56.043  51.726  0.00  0.00    +0.000 OA
ATOM      5  N   UNL     1      -7.786  54.217  52.854  0.00  0.00    +0.000 N 
ATOM      6  C   UNL     1      -9.391  52.588  53.730  0.00  0.00    +0.000 A 
ATOM      7  C   UNL     1      -8.072  53.072  53.663  0.00  0.00    +0.000 A 
ATOM      8  C   UNL     1      -9.675  51.460  54.521  0.00  0.00    +0.000 A 
ATOM      9  C   UNL     1      -7.083  52.434  54.428  0.00  0.00    +0.000 A 
ATOM     10  C   UNL     1      -8.677  50.832  55.261  0.00  0.00    +0.000 A 
ATOM     11  C   UNL     1      -7.381  51.323  55.218  0.00  0.00    +0.000 A 
ENDROOT
BRANCH   1  17
ATOM     12  S   UNL     1     -12.410  56.061  49.516  0.00  0.00    +0.000 S 
ATOM     13  O   UNL     1     -13.299  55.115  48.867  0.00  0.00    +0.000 OA
ATOM     14  O   UNL     1     -11.715  57.062  48.735  0.00  0.00    +0.000 OA
ATOM     15  N   UNL     1     -11.307  55.213  50.344  0.00  0.00    +0.000 N 
ATOM     16  C   UNL     1     -13.402  56.948  50.663  0.00  0.00    +0.000 A 
ATOM     17  C   UNL     1     -11.320  55.182  51.643  0.00  0.00    +0.000 C 
ATOM     18  C   UNL     1     -13.191  56.718  52.013  0.00  0.00    +0.000 A 
ATOM     19  C   UNL     1     -14.357  57.860  50.206  0.00  0.00    +0.000 A 
ATOM     20  N   UNL     1     -12.249  55.794  52.453  0.00  0.00    +0.000 N 
ATOM     21  C   UNL     1     -14.010  57.381  52.933  0.00  0.00    +0.000 A 
ATOM     22  C   UNL     1     -15.143  58.538  51.134  0.00  0.00    +0.000 A 
ATOM     23  C   UNL     1     -14.975  58.293  52.498  0.00  0.00    +0.000 A 
ATOM     24  H   UNL     1     -10.615  54.713  49.854  0.00  0.00    +0.000 HD
ATOM     25  H   UNL     1     -12.247  55.563  53.410  0.00  0.00    +0.000 HD
ENDBRANCH   1  17
BRANCH   3  26
ATOM     26  O   UNL     1     -11.726  52.729  53.152  0.00  0.00    +0.000 OA
ATOM     27  H   UNL     1     -12.473  53.285  53.259  0.00  0.00    +0.000 HD
ENDBRANCH   3  26
BRANCH   5  28
ATOM     28  C   UNL     1      -6.422  54.747  52.745  0.00  0.00    +0.000 C 
BRANCH  28  29
ATOM     29  C   UNL     1      -5.595  54.219  51.561  0.00  0.00    +0.000 C 
BRANCH  29  30
ATOM     30  C   UNL     1      -4.174  53.725  51.881  0.00  0.00    +0.000 C 
ATOM     31  C   UNL     1      -3.847  53.808  53.370  0.00  0.00    +0.000 C 
ATOM     32  C   UNL     1      -4.042  52.274  51.402  0.00  0.00    +0.000 C 
ENDBRANCH  29  30
ENDBRANCH  28  29
ENDBRANCH   5  28
TORSDOF 5
ENDMDL
MODEL 2
REMARK VINA RESULT:      -8.1      4.068      4.909
REMARK  Name = 298159
REMARK  7 active torsions:
REMARK  status: ('A' for Active; 'I' for Inactive)
REMARK    1  A    between atoms: C_6  and  C_10
REMARK    2  A    between atoms: C_14  and  O_18
REMARK    3  A    between atoms: N_17  and  C_21
REMARK    4  A    between atoms: C_21  and  C_24
REMARK    5  A    between atoms: C_24  and  C_27
REMARK    6  A    between atoms: C_27  and  C_28
REMARK    7  A    between atoms: C_27  and  C_29
REMARK                            x       y       z     vdW  Elec       q    Type
REMARK                         _______ _______ _______ _____ _____    ______ ____
ROOT
ATOM      1  C   UNL     1     -12.539  54.197  49.712  0.00  0.00    +0.000 A 
ATOM      2  C   UNL     1     -11.997  54.117  48.321  0.00  0.00    +0.000 A 
ATOM      3  C   UNL     1     -12.269  53.223  50.598  0.00  0.00    +0.000 A 
ATOM      4  O   UNL     1     -12.162  55.088  47.575  0.00  0.00    +0.000 OA
ATOM      5  N   UNL     1     -11.309  52.974  47.934  0.00  0.00    +0.000 N 
ATOM      6  C   UNL     1     -11.430  52.080  50.210  0.00  0.00    +0.000 A 
ATOM      7  C   UNL     1     -10.946  51.977  48.895  0.00  0.00    +0.000 A 
ATOM      8  C   UNL     1     -11.079  51.100  51.157  0.00  0.00    +0.000 A 
ATOM      9  C   UNL     1     -10.083  50.916  48.577  0.00  0.00    +0.000 A 
ATOM     10  C   UNL     1     -10.235  50.046  50.818  0.00  0.00    +0.000 A 
ATOM     11  C   UNL     1      -9.733  49.957  49.528  0.00  0.00    +0.000 A 
ENDROOT
BRANCH   1  17
ATOM     12  S   UNL     1     -15.391  56.457  51.197  0.00  0.00    +0.000 S 
ATOM     13  O   UNL     1     -15.316  56.578  52.642  0.00  0.00    +0.000 OA
ATOM     14  O   UNL     1     -16.673  56.290  50.545  0.00  0.00    +0.000 OA
ATOM     15  N   UNL     1     -14.438  55.223  50.757  0.00  0.00    +0.000 N 
ATOM     16  C   UNL     1     -14.709  57.941  50.551  0.00  0.00    +0.000 A 
ATOM     17  C   UNL     1     -13.320  55.430  50.126  0.00  0.00    +0.000 C 
ATOM     18  C   UNL     1     -13.485  57.864  49.909  0.00  0.00    +0.000 A 
ATOM     19  C   UNL     1     -15.404  59.146  50.681  0.00  0.00    +0.000 A 
ATOM     20  N   UNL     1     -12.795  56.660  49.802  0.00  0.00    +0.000 N 
ATOM     21  C   UNL     1     -12.910  59.048  49.435  0.00  0.00    +0.000 A 
ATOM     22  C   UNL     1     -14.835  60.313  50.176  0.00  0.00    +0.000 A 
ATOM     23  C   UNL     1     -13.585  60.265  49.559  0.00  0.00    +0.000 A 
ATOM     24  H   UNL     1     -14.711  54.302  50.970  0.00  0.00    +0.000 HD
ATOM     25  H   UNL     1     -11.868  56.691  49.472  0.00  0.00    +0.000 HD
ENDBRANCH   1  17
BRANCH   3  26
ATOM     26  O   UNL     1     -12.680  53.232  51.919  0.00  0.00    +0.000 OA
ATOM     27  H   UNL     1     -12.047  53.283  52.608  0.00  0.00    +0.000 HD
ENDBRANCH   3  26
BRANCH   5  28
ATOM     28  C   UNL     1     -10.836  52.898  46.547  0.00  0.00    +0.000 C 
BRANCH  28  29
ATOM     29  C   UNL     1      -9.346  53.217  46.333  0.00  0.00    +0.000 C 
BRANCH  29  30
ATOM     30  C   UNL     1      -8.973  54.703  46.207  0.00  0.00    +0.000 C 
ATOM     31  C   UNL     1      -8.569  55.321  47.544  0.00  0.00    +0.000 C 
ATOM     32  C   UNL     1      -7.818  54.833  45.206  0.00  0.00    +0.000 C 
ENDBRANCH  29  30
ENDBRANCH  28  29
ENDBRANCH   5  28
TORSDOF 5
ENDMDL
MODEL 3
REMARK VINA RESULT:      -7.9      2.070      2.842
REMARK  Name = 298159
REMARK  7 active torsions:
REMARK  status: ('A' for Active; 'I' for Inactive)
REMARK    1  A    between atoms: C_6  and  C_10
REMARK    2  A    between atoms: C_14  and  O_18
REMARK    3  A    between atoms: N_17  and  C_21
REMARK    4  A    between atoms: C_21  and  C_24
REMARK    5  A    between atoms: C_24  and  C_27
REMARK    6  A    between atoms: C_27  and  C_28
REMARK    7  A    between atoms: C_27  and  C_29
REMARK                            x       y       z     vdW  Elec       q    Type
REMARK                         _______ _______ _______ _____ _____    ______ ____
ROOT
ATOM      1  C   UNL     1     -11.557  54.051  51.162  0.00  0.00    +0.000 A 
ATOM      2  C   UNL     1     -10.630  54.077  52.334  0.00  0.00    +0.000 A 
ATOM      3  C   UNL     1     -11.663  52.941  50.411  0.00  0.00    +0.000 A 
ATOM      4  O   UNL     1     -10.652  55.068  53.072  0.00  0.00    +0.000 OA
ATOM      5  N   UNL     1      -9.807  52.981  52.563  0.00  0.00    +0.000 N 
ATOM      6  C   UNL     1     -10.879  51.743  50.743  0.00  0.00    +0.000 A 
ATOM      7  C   UNL     1      -9.978  51.769  51.822  0.00  0.00    +0.000 A 
ATOM      8  C   UNL     1     -11.047  50.555  50.008  0.00  0.00    +0.000 A 
ATOM      9  C   UNL     1      -9.303  50.586  52.162  0.00  0.00    +0.000 A 
ATOM     10  C   UNL     1     -10.355  49.396  50.352  0.00  0.00    +0.000 A 
ATOM     11  C   UNL     1      -9.486  49.411  51.432  0.00  0.00    +0.000 A 
ENDROOT
BRANCH   1  17
ATOM     12  S   UNL     1     -13.245  57.062  49.284  0.00  0.00    +0.000 S 
ATOM     13  O   UNL     1     -14.342  56.646  48.428  0.00  0.00    +0.000 OA
ATOM     14  O   UNL     1     -12.311  58.072  48.832  0.00  0.00    +0.000 OA
ATOM     15  N   UNL     1     -12.402  55.738  49.681  0.00  0.00    +0.000 N 
ATOM     16  C   UNL     1     -13.985  57.706  50.741  0.00  0.00    +0.000 A 
ATOM     17  C   UNL     1     -12.432  55.260  50.890  0.00  0.00    +0.000 C 
ATOM     18  C   UNL     1     -13.850  56.977  51.910  0.00  0.00    +0.000 A 
ATOM     19  C   UNL     1     -14.671  58.922  50.700  0.00  0.00    +0.000 A 
ATOM     20  N   UNL     1     -13.179  55.758  51.933  0.00  0.00    +0.000 N 
ATOM     21  C   UNL     1     -14.478  57.455  53.065  0.00  0.00    +0.000 A 
ATOM     22  C   UNL     1     -15.264  59.404  51.864  0.00  0.00    +0.000 A 
ATOM     23  C   UNL     1     -15.174  58.666  53.045  0.00  0.00    +0.000 A 
ATOM     24  H   UNL     1     -11.857  55.288  48.996  0.00  0.00    +0.000 HD
ATOM     25  H   UNL     1     -13.243  55.215  52.752  0.00  0.00    +0.000 HD
ENDBRANCH   1  17
BRANCH   3  26
ATOM     26  O   UNL     1     -12.528  52.802  49.339  0.00  0.00    +0.000 OA
ATOM     27  H   UNL     1     -13.431  53.035  49.432  0.00  0.00    +0.000 HD
ENDBRANCH   3  26
BRANCH   5  28
ATOM     28  C   UNL     1      -8.868  53.056  53.688  0.00  0.00    +0.000 C 
BRANCH  28  29
ATOM     29  C   UNL     1      -7.484  53.641  53.363  0.00  0.00    +0.000 C 
BRANCH  29  30
ATOM     30  C   UNL     1      -6.997  54.793  54.259  0.00  0.00    +0.000 C 
ATOM     31  C   UNL     1      -5.536  54.636  54.672  0.00  0.00    +0.000 C 
ATOM     32  C   UNL     1      -7.182  56.113  53.500  0.00  0.00    +0.000 C 
ENDBRANCH  29  30
ENDBRANCH  28  29
ENDBRANCH   5  28
TORSDOF 5
ENDMDL
MODEL 4
REMARK VINA RESULT:      -7.9      2.447      8.104
REMARK  Name = 298159
REMARK  7 active torsions:
REMARK  status: ('A' for Active; 'I' for Inactive)
REMARK    1  A    between atoms: C_6  and  C_10
REMARK    2  A    between atoms: C_14  and  O_18
REMARK    3  A    between atoms: N_17  and  C_21
REMARK    4  A    between atoms: C_21  and  C_24
REMARK    5  A    between atoms: C_24  and  C_27
REMARK    6  A    between atoms: C_27  and  C_28
REMARK    7  A    between atoms: C_27  and  C_29
REMARK                            x       y       z     vdW  Elec       q    Type
REMARK                         _______ _______ _______ _____ _____    ______ ____
ROOT
ATOM      1  C   UNL     1     -10.265  54.979  51.037  0.00  0.00    +0.000 A 
ATOM      2  C   UNL     1     -11.561  55.454  51.612  0.00  0.00    +0.000 A 
ATOM      3  C   UNL     1     -10.077  54.981  49.706  0.00  0.00    +0.000 A 
ATOM      4  O   UNL     1     -11.651  55.554  52.839  0.00  0.00    +0.000 OA
ATOM      5  N   UNL     1     -12.596  55.789  50.747  0.00  0.00    +0.000 N 
ATOM      6  C   UNL     1     -11.137  55.460  48.808  0.00  0.00    +0.000 A 
ATOM      7  C   UNL     1     -12.372  55.875  49.336  0.00  0.00    +0.000 A 
ATOM      8  C   UNL     1     -10.915  55.539  47.421  0.00  0.00    +0.000 A 
ATOM      9  C   UNL     1     -13.335  56.400  48.459  0.00  0.00    +0.000 A 
ATOM     10  C   UNL     1     -11.889  56.048  46.566  0.00  0.00    +0.000 A 
ATOM     11  C   UNL     1     -13.098  56.484  47.087  0.00  0.00    +0.000 A 
ENDROOT
BRANCH   1  17
ATOM     12  S   UNL     1      -6.764  54.914  52.822  0.00  0.00    +0.000 S 
ATOM     13  O   UNL     1      -6.629  55.949  53.831  0.00  0.00    +0.000 OA
ATOM     14  O   UNL     1      -5.659  54.609  51.938  0.00  0.00    +0.000 OA
ATOM     15  N   UNL     1      -8.052  55.280  51.910  0.00  0.00    +0.000 N 
ATOM     16  C   UNL     1      -7.109  53.429  53.695  0.00  0.00    +0.000 A 
ATOM     17  C   UNL     1      -9.145  54.581  51.980  0.00  0.00    +0.000 C 
ATOM     18  C   UNL     1      -8.379  52.891  53.579  0.00  0.00    +0.000 A 
ATOM     19  C   UNL     1      -6.113  52.821  54.464  0.00  0.00    +0.000 A 
ATOM     20  N   UNL     1      -9.367  53.516  52.824  0.00  0.00    +0.000 N 
ATOM     21  C   UNL     1      -8.679  51.737  54.310  0.00  0.00    +0.000 A 
ATOM     22  C   UNL     1      -6.415  51.654  55.161  0.00  0.00    +0.000 A 
ATOM     23  C   UNL     1      -7.700  51.116  55.090  0.00  0.00    +0.000 A 
ATOM     24  H   UNL     1      -8.005  56.046  51.293  0.00  0.00    +0.000 HD
ATOM     25  H   UNL     1     -10.287  53.174  52.899  0.00  0.00    +0.000 HD
ENDBRANCH   1  17
BRANCH   3  26
ATOM     26  O   UNL     1      -8.898  54.610  49.083  0.00  0.00    +0.000 OA
ATOM     27  H   UNL     1      -8.668  54.983  48.255  0.00  0.00    +0.000 HD
ENDBRANCH   3  26
BRANCH   5  28
ATOM     28  C   UNL     1     -13.874  56.199  51.338  0.00  0.00    +0.000 C 
BRANCH  28  29
ATOM     29  C   UNL     1     -13.867  57.554  52.065  0.00  0.00    +0.000 C 
BRANCH  29  30
ATOM     30  C   UNL     1     -15.027  58.512  51.745  0.00  0.00    +0.000 C 
ATOM     31  C   UNL     1     -15.436  59.359  52.947  0.00  0.00    +0.000 C 
ATOM     32  C   UNL     1     -14.601  59.424  50.588  0.00  0.00    +0.000 C 
ENDBRANCH  29  30
ENDBRANCH  28  29
ENDBRANCH   5  28
TORSDOF 5
ENDMDL
MODEL 5
REMARK VINA RESULT:      -7.9      3.458      4.979
REMARK  Name = 298159
REMARK  7 active torsions:
REMARK  status: ('A' for Active; 'I' for Inactive)
REMARK    1  A    between atoms: C_6  and  C_10
REMARK    2  A    between atoms: C_14  and  O_18
REMARK    3  A    between atoms: N_17  and  C_21
REMARK    4  A    between atoms: C_21  and  C_24
REMARK    5  A    between atoms: C_24  and  C_27
REMARK    6  A    between atoms: C_27  and  C_28
REMARK    7  A    between atoms: C_27  and  C_29
REMARK                            x       y       z     vdW  Elec       q    Type
REMARK                         _______ _______ _______ _____ _____    ______ ____
ROOT
ATOM      1  C   UNL     1     -11.334  56.163  48.722  0.00  0.00    +0.000 A 
ATOM      2  C   UNL     1     -10.144  55.726  49.514  0.00  0.00    +0.000 A 
ATOM      3  C   UNL     1     -11.525  55.692  47.477  0.00  0.00    +0.000 A 
ATOM      4  O   UNL     1     -10.068  56.081  50.694  0.00  0.00    +0.000 OA
ATOM      5  N   UNL     1      -9.192  54.919  48.904  0.00  0.00    +0.000 N 
ATOM      6  C   UNL     1     -10.574  54.737  46.891  0.00  0.00    +0.000 A 
ATOM      7  C   UNL     1      -9.433  54.347  47.614  0.00  0.00    +0.000 A 
ATOM      8  C   UNL     1     -10.813  54.180  45.621  0.00  0.00    +0.000 A 
ATOM      9  C   UNL     1      -8.587  53.374  47.060  0.00  0.00    +0.000 A 
ATOM     10  C   UNL     1      -9.952  53.228  45.082  0.00  0.00    +0.000 A 
ATOM     11  C   UNL     1      -8.841  52.822  45.804  0.00  0.00    +0.000 A 
ENDROOT
BRANCH   1  17
ATOM     12  S   UNL     1     -13.558  59.317  49.463  0.00  0.00    +0.000 S 
ATOM     13  O   UNL     1     -14.707  59.414  48.582  0.00  0.00    +0.000 OA
ATOM     14  O   UNL     1     -12.801  60.503  49.806  0.00  0.00    +0.000 OA
ATOM     15  N   UNL     1     -12.536  58.235  48.824  0.00  0.00    +0.000 N 
ATOM     16  C   UNL     1     -14.164  58.676  50.983  0.00  0.00    +0.000 A 
ATOM     17  C   UNL     1     -12.358  57.072  49.375  0.00  0.00    +0.000 C 
ATOM     18  C   UNL     1     -13.801  57.385  51.329  0.00  0.00    +0.000 A 
ATOM     19  C   UNL     1     -14.972  59.466  51.804  0.00  0.00    +0.000 A 
ATOM     20  N   UNL     1     -13.010  56.603  50.492  0.00  0.00    +0.000 N 
ATOM     21  C   UNL     1     -14.319  56.847  52.511  0.00  0.00    +0.000 A 
ATOM     22  C   UNL     1     -15.455  58.928  52.995  0.00  0.00    +0.000 A 
ATOM     23  C   UNL     1     -15.134  57.617  53.345  0.00  0.00    +0.000 A 
ATOM     24  H   UNL     1     -12.042  58.464  48.003  0.00  0.00    +0.000 HD
ATOM     25  H   UNL     1     -12.910  55.650  50.716  0.00  0.00    +0.000 HD
ENDBRANCH   1  17
BRANCH   3  26
ATOM     26  O   UNL     1     -12.619  55.996  46.686  0.00  0.00    +0.000 OA
ATOM     27  H   UNL     1     -13.445  56.193  47.082  0.00  0.00    +0.000 HD
ENDBRANCH   3  26
BRANCH   5  28
ATOM     28  C   UNL     1      -8.007  54.550  49.687  0.00  0.00    +0.000 C 
BRANCH  28  29
ATOM     29  C   UNL     1      -6.850  55.563  49.661  0.00  0.00    +0.000 C 
BRANCH  29  30
ATOM     30  C   UNL     1      -5.427  54.980  49.676  0.00  0.00    +0.000 C 
ATOM     31  C   UNL     1      -5.091  54.286  50.993  0.00  0.00    +0.000 C 
ATOM     32  C   UNL     1      -5.295  53.983  48.517  0.00  0.00    +0.000 C 
ENDBRANCH  29  30
ENDBRANCH  28  29
ENDBRANCH   5  28
TORSDOF 5
ENDMDL
MODEL 6
REMARK VINA RESULT:      -7.8      3.373      7.319
REMARK  Name = 298159
REMARK  7 active torsions:
REMARK  status: ('A' for Active; 'I' for Inactive)
REMARK    1  A    between atoms: C_6  and  C_10
REMARK    2  A    between atoms: C_14  and  O_18
REMARK    3  A    between atoms: N_17  and  C_21
REMARK    4  A    between atoms: C_21  and  C_24
REMARK    5  A    between atoms: C_24  and  C_27
REMARK    6  A    between atoms: C_27  and  C_28
REMARK    7  A    between atoms: C_27  and  C_29
REMARK                            x       y       z     vdW  Elec       q    Type
REMARK                         _______ _______ _______ _____ _____    ______ ____
ROOT
ATOM      1  C   UNL     1     -10.222  55.178  50.812  0.00  0.00    +0.000 A 
ATOM      2  C   UNL     1      -9.810  55.106  49.378  0.00  0.00    +0.000 A 
ATOM      3  C   UNL     1     -11.433  55.660  51.142  0.00  0.00    +0.000 A 
ATOM      4  O   UNL     1      -8.744  54.545  49.106  0.00  0.00    +0.000 OA
ATOM      5  N   UNL     1     -10.649  55.645  48.410  0.00  0.00    +0.000 N 
ATOM      6  C   UNL     1     -12.363  56.108  50.096  0.00  0.00    +0.000 A 
ATOM      7  C   UNL     1     -11.971  56.079  48.746  0.00  0.00    +0.000 A 
ATOM      8  C   UNL     1     -13.660  56.538  50.431  0.00  0.00    +0.000 A 
ATOM      9  C   UNL     1     -12.909  56.439  47.766  0.00  0.00    +0.000 A 
ATOM     10  C   UNL     1     -14.571  56.907  49.444  0.00  0.00    +0.000 A 
ATOM     11  C   UNL     1     -14.196  56.853  48.111  0.00  0.00    +0.000 A 
ENDROOT
BRANCH   1  17
ATOM     12  S   UNL     1      -7.028  54.649  53.040  0.00  0.00    +0.000 S 
ATOM     13  O   UNL     1      -6.921  55.626  54.109  0.00  0.00    +0.000 OA
ATOM     14  O   UNL     1      -5.852  54.252  52.296  0.00  0.00    +0.000 OA
ATOM     15  N   UNL     1      -8.131  55.193  51.985  0.00  0.00    +0.000 N 
ATOM     16  C   UNL     1      -7.648  53.183  53.783  0.00  0.00    +0.000 A 
ATOM     17  C   UNL     1      -9.293  54.621  51.874  0.00  0.00    +0.000 C 
ATOM     18  C   UNL     1      -8.942  52.798  53.472  0.00  0.00    +0.000 A 
ATOM     19  C   UNL     1      -6.839  52.439  54.645  0.00  0.00    +0.000 A 
ATOM     20  N   UNL     1      -9.742  53.559  52.626  0.00  0.00    +0.000 N 
ATOM     21  C   UNL     1      -9.462  51.661  54.098  0.00  0.00    +0.000 A 
ATOM     22  C   UNL     1      -7.359  51.290  55.236  0.00  0.00    +0.000 A 
ATOM     23  C   UNL     1      -8.673  50.905  54.968  0.00  0.00    +0.000 A 
ATOM     24  H   UNL     1      -7.917  55.969  51.420  0.00  0.00    +0.000 HD
ATOM     25  H   UNL     1     -10.695  53.321  52.560  0.00  0.00    +0.000 HD
ENDBRANCH   1  17
BRANCH   3  26
ATOM     26  O   UNL     1     -11.926  55.719  52.434  0.00  0.00    +0.000 OA
ATOM     27  H   UNL     1     -12.515  55.058  52.742  0.00  0.00    +0.000 HD
ENDBRANCH   3  26
BRANCH   5  28
ATOM     28  C   UNL     1     -10.194  55.611  47.016  0.00  0.00    +0.000 C 
BRANCH  28  29
ATOM     29  C   UNL     1     -10.432  54.287  46.270  0.00  0.00    +0.000 C 
BRANCH  29  30
ATOM     30  C   UNL     1      -9.197  53.622  45.639  0.00  0.00    +0.000 C 
ATOM     31  C   UNL     1      -9.485  53.044  44.256  0.00  0.00    +0.000 C 
ATOM     32  C   UNL     1      -8.077  54.667  45.541  0.00  0.00    +0.000 C 
ENDBRANCH  29  30
ENDBRANCH  28  29
ENDBRANCH   5  28
TORSDOF 5
ENDMDL
MODEL 7
REMARK VINA RESULT:      -7.7      4.421      6.235
REMARK  Name = 298159
REMARK  7 active torsions:
REMARK  status: ('A' for Active; 'I' for Inactive)
REMARK    1  A    between atoms: C_6  and  C_10
REMARK    2  A    between atoms: C_14  and  O_18
REMARK    3  A    between atoms: N_17  and  C_21
REMARK    4  A    between atoms: C_21  and  C_24
REMARK    5  A    between atoms: C_24  and  C_27
REMARK    6  A    between atoms: C_27  and  C_28
REMARK    7  A    between atoms: C_27  and  C_29
REMARK                            x       y       z     vdW  Elec       q    Type
REMARK                         _______ _______ _______ _____ _____    ______ ____
ROOT
ATOM      1  C   UNL     1     -10.888  55.655  48.658  0.00  0.00    +0.000 A 
ATOM      2  C   UNL     1     -11.268  55.203  47.285  0.00  0.00    +0.000 A 
ATOM      3  C   UNL     1      -9.631  55.482  49.102  0.00  0.00    +0.000 A 
ATOM      4  O   UNL     1     -12.394  55.490  46.868  0.00  0.00    +0.000 OA
ATOM      5  N   UNL     1     -10.335  54.506  46.526  0.00  0.00    +0.000 N 
ATOM      6  C   UNL     1      -8.619  54.858  48.237  0.00  0.00    +0.000 A 
ATOM      7  C   UNL     1      -8.975  54.396  46.958  0.00  0.00    +0.000 A 
ATOM      8  C   UNL     1      -7.284  54.747  48.667  0.00  0.00    +0.000 A 
ATOM      9  C   UNL     1      -7.969  53.876  46.128  0.00  0.00    +0.000 A 
ATOM     10  C   UNL     1      -6.304  54.214  47.834  0.00  0.00    +0.000 A 
ATOM     11  C   UNL     1      -6.646  53.783  46.562  0.00  0.00    +0.000 A 
ENDROOT
BRANCH   1  17
ATOM     12  S   UNL     1     -13.555  56.384  51.451  0.00  0.00    +0.000 S 
ATOM     13  O   UNL     1     -12.953  56.692  52.736  0.00  0.00    +0.000 OA
ATOM     14  O   UNL     1     -14.727  55.537  51.380  0.00  0.00    +0.000 OA
ATOM     15  N   UNL     1     -12.406  55.733  50.512  0.00  0.00    +0.000 N 
ATOM     16  C   UNL     1     -14.030  57.926  50.756  0.00  0.00    +0.000 A 
ATOM     17  C   UNL     1     -11.916  56.386  49.501  0.00  0.00    +0.000 C 
ATOM     18  C   UNL     1     -13.324  58.384  49.657  0.00  0.00    +0.000 A 
ATOM     19  C   UNL     1     -15.097  58.642  51.304  0.00  0.00    +0.000 A 
ATOM     20  N   UNL     1     -12.251  57.669  49.133  0.00  0.00    +0.000 N 
ATOM     21  C   UNL     1     -13.661  59.634  49.128  0.00  0.00    +0.000 A 
ATOM     22  C   UNL     1     -15.444  59.870  50.747  0.00  0.00    +0.000 A 
ATOM     23  C   UNL     1     -14.721  60.370  49.663  0.00  0.00    +0.000 A 
ATOM     24  H   UNL     1     -12.075  54.828  50.712  0.00  0.00    +0.000 HD
ATOM     25  H   UNL     1     -11.695  58.111  48.452  0.00  0.00    +0.000 HD
ENDBRANCH   1  17
BRANCH   3  26
ATOM     26  O   UNL     1      -9.170  55.912  50.334  0.00  0.00    +0.000 OA
ATOM     27  H   UNL     1      -9.038  56.826  50.492  0.00  0.00    +0.000 HD
ENDBRANCH   3  26
BRANCH   5  28
ATOM     28  C   UNL     1     -10.752  54.026  45.204  0.00  0.00    +0.000 C 
BRANCH  28  29
ATOM     29  C   UNL     1     -11.282  52.582  45.157  0.00  0.00    +0.000 C 
BRANCH  29  30
ATOM     30  C   UNL     1     -10.637  51.647  44.121  0.00  0.00    +0.000 C 
ATOM     31  C   UNL     1      -9.927  52.409  43.006  0.00  0.00    +0.000 C 
ATOM     32  C   UNL     1      -9.637  50.735  44.844  0.00  0.00    +0.000 C 
ENDBRANCH  29  30
ENDBRANCH  28  29
ENDBRANCH   5  28
TORSDOF 5
ENDMDL
MODEL 8
REMARK VINA RESULT:      -7.7      4.130      5.842
REMARK  Name = 298159
REMARK  7 active torsions:
REMARK  status: ('A' for Active; 'I' for Inactive)
REMARK    1  A    between atoms: C_6  and  C_10
REMARK    2  A    between atoms: C_14  and  O_18
REMARK    3  A    between atoms: N_17  and  C_21
REMARK    4  A    between atoms: C_21  and  C_24
REMARK    5  A    between atoms: C_24  and  C_27
REMARK    6  A    between atoms: C_27  and  C_28
REMARK    7  A    between atoms: C_27  and  C_29
REMARK                            x       y       z     vdW  Elec       q    Type
REMARK                         _______ _______ _______ _____ _____    ______ ____
ROOT
ATOM      1  C   UNL     1     -11.422  55.890  48.865  0.00  0.00    +0.000 A 
ATOM      2  C   UNL     1     -11.568  55.496  47.431  0.00  0.00    +0.000 A 
ATOM      3  C   UNL     1     -10.383  55.435  49.587  0.00  0.00    +0.000 A 
ATOM      4  O   UNL     1     -12.463  56.031  46.768  0.00  0.00    +0.000 OA
ATOM      5  N   UNL     1     -10.680  54.571  46.895  0.00  0.00    +0.000 N 
ATOM      6  C   UNL     1      -9.378  54.558  48.969  0.00  0.00    +0.000 A 
ATOM      7  C   UNL     1      -9.526  54.152  47.631  0.00  0.00    +0.000 A 
ATOM      8  C   UNL     1      -8.247  54.145  49.698  0.00  0.00    +0.000 A 
ATOM      9  C   UNL     1      -8.510  53.379  47.047  0.00  0.00    +0.000 A 
ATOM     10  C   UNL     1      -7.258  53.364  49.105  0.00  0.00    +0.000 A 
ATOM     11  C   UNL     1      -7.388  52.986  47.777  0.00  0.00    +0.000 A 
ENDROOT
BRANCH   1  17
ATOM     12  S   UNL     1     -13.505  59.173  49.434  0.00  0.00    +0.000 S 
ATOM     13  O   UNL     1     -14.637  59.283  48.532  0.00  0.00    +0.000 OA
ATOM     14  O   UNL     1     -12.697  60.337  49.735  0.00  0.00    +0.000 OA
ATOM     15  N   UNL     1     -12.527  58.018  48.857  0.00  0.00    +0.000 N 
ATOM     16  C   UNL     1     -14.160  58.629  50.970  0.00  0.00    +0.000 A 
ATOM     17  C   UNL     1     -12.411  56.873  49.462  0.00  0.00    +0.000 C 
ATOM     18  C   UNL     1     -13.862  57.340  51.379  0.00  0.00    +0.000 A 
ATOM     19  C   UNL     1     -14.940  59.492  51.744  0.00  0.00    +0.000 A 
ATOM     20  N   UNL     1     -13.098  56.486  50.590  0.00  0.00    +0.000 N 
ATOM     21  C   UNL     1     -14.420  56.880  52.576  0.00  0.00    +0.000 A 
ATOM     22  C   UNL     1     -15.463  59.031  52.950  0.00  0.00    +0.000 A 
ATOM     23  C   UNL     1     -15.209  57.723  53.363  0.00  0.00    +0.000 A 
ATOM     24  H   UNL     1     -12.012  58.186  48.035  0.00  0.00    +0.000 HD
ATOM     25  H   UNL     1     -13.046  55.540  50.857  0.00  0.00    +0.000 HD
ENDBRANCH   1  17
BRANCH   3  26
ATOM     26  O   UNL     1     -10.133  55.783  50.903  0.00  0.00    +0.000 OA
ATOM     27  H   UNL     1     -10.336  56.645  51.207  0.00  0.00    +0.000 HD
ENDBRANCH   3  26
BRANCH   5  28
ATOM     28  C   UNL     1     -10.880  54.161  45.501  0.00  0.00    +0.000 C 
BRANCH  28  29
ATOM     29  C   UNL     1     -11.775  52.927  45.291  0.00  0.00    +0.000 C 
BRANCH  29  30
ATOM     30  C   UNL     1     -11.191  51.793  44.434  0.00  0.00    +0.000 C 
ATOM     31  C   UNL     1     -10.175  52.294  43.411  0.00  0.00    +0.000 C 
ATOM     32  C   UNL     1     -10.527  50.770  45.364  0.00  0.00    +0.000 C 
ENDBRANCH  29  30
ENDBRANCH  28  29
ENDBRANCH   5  28
TORSDOF 5
ENDMDL
MODEL 9
REMARK VINA RESULT:      -7.7      3.572      5.075
REMARK  Name = 298159
REMARK  7 active torsions:
REMARK  status: ('A' for Active; 'I' for Inactive)
REMARK    1  A    between atoms: C_6  and  C_10
REMARK    2  A    between atoms: C_14  and  O_18
REMARK    3  A    between atoms: N_17  and  C_21
REMARK    4  A    between atoms: C_21  and  C_24
REMARK    5  A    between atoms: C_24  and  C_27
REMARK    6  A    between atoms: C_27  and  C_28
REMARK    7  A    between atoms: C_27  and  C_29
REMARK                            x       y       z     vdW  Elec       q    Type
REMARK                         _______ _______ _______ _____ _____    ______ ____
ROOT
ATOM      1  C   UNL     1     -10.915  55.634  48.790  0.00  0.00    +0.000 A 
ATOM      2  C   UNL     1      -9.651  55.195  49.457  0.00  0.00    +0.000 A 
ATOM      3  C   UNL     1     -11.157  55.289  47.513  0.00  0.00    +0.000 A 
ATOM      4  O   UNL     1      -9.521  55.424  50.664  0.00  0.00    +0.000 OA
ATOM      5  N   UNL     1      -8.692  54.527  48.706  0.00  0.00    +0.000 N 
ATOM      6  C   UNL     1     -10.189  54.471  46.769  0.00  0.00    +0.000 A 
ATOM      7  C   UNL     1      -8.981  54.084  47.376  0.00  0.00    +0.000 A 
ATOM      8  C   UNL     1     -10.475  54.041  45.460  0.00  0.00    +0.000 A 
ATOM      9  C   UNL     1      -8.114  53.238  46.668  0.00  0.00    +0.000 A 
ATOM     10  C   UNL     1      -9.593  53.215  44.768  0.00  0.00    +0.000 A 
ATOM     11  C   UNL     1      -8.414  52.809  45.374  0.00  0.00    +0.000 A 
ENDROOT
BRANCH   1  17
ATOM     12  S   UNL     1     -13.614  56.455  51.525  0.00  0.00    +0.000 S 
ATOM     13  O   UNL     1     -13.028  56.794  52.809  0.00  0.00    +0.000 OA
ATOM     14  O   UNL     1     -14.791  55.614  51.460  0.00  0.00    +0.000 OA
ATOM     15  N   UNL     1     -12.458  55.771  50.620  0.00  0.00    +0.000 N 
ATOM     16  C   UNL     1     -14.069  57.980  50.782  0.00  0.00    +0.000 A 
ATOM     17  C   UNL     1     -11.948  56.394  49.599  0.00  0.00    +0.000 C 
ATOM     18  C   UNL     1     -13.345  58.404  49.681  0.00  0.00    +0.000 A 
ATOM     19  C   UNL     1     -15.139  58.718  51.296  0.00  0.00    +0.000 A 
ATOM     20  N   UNL     1     -12.271  57.668  49.191  0.00  0.00    +0.000 N 
ATOM     21  C   UNL     1     -13.667  59.641  49.113  0.00  0.00    +0.000 A 
ATOM     22  C   UNL     1     -15.470  59.933  50.701  0.00  0.00    +0.000 A 
ATOM     23  C   UNL     1     -14.729  60.398  49.614  0.00  0.00    +0.000 A 
ATOM     24  H   UNL     1     -12.135  54.870  50.848  0.00  0.00    +0.000 HD
ATOM     25  H   UNL     1     -11.702  58.088  48.506  0.00  0.00    +0.000 HD
ENDBRANCH   1  17
BRANCH   3  26
ATOM     26  O   UNL     1     -12.316  55.602  46.825  0.00  0.00    +0.000 OA
ATOM     27  H   UNL     1     -13.111  55.763  47.294  0.00  0.00    +0.000 HD
ENDBRANCH   3  26
BRANCH   5  28
ATOM     28  C   UNL     1      -7.439  54.157  49.373  0.00  0.00    +0.000 C 
BRANCH  28  29
ATOM     29  C   UNL     1      -6.311  55.200  49.297  0.00  0.00    +0.000 C 
BRANCH  29  30
ATOM     30  C   UNL     1      -4.875  54.672  49.455  0.00  0.00    +0.000 C 
ATOM     31  C   UNL     1      -4.647  53.988  50.800  0.00  0.00    +0.000 C 
ATOM     32  C   UNL     1      -4.591  53.684  48.316  0.00  0.00    +0.000 C 
ENDBRANCH  29  30
ENDBRANCH  28  29
ENDBRANCH   5  28
TORSDOF 5
ENDMDL
