MODEL 1
REMARK VINA RESULT:      -8.4      0.000      0.000
REMARK  Name = 338117
REMARK  8 active torsions:
REMARK  status: ('A' for Active; 'I' for Inactive)
REMARK    1  A    between atoms: C_6  and  C_10
REMARK    2  A    between atoms: C_14  and  O_18
REMARK    3  A    between atoms: N_17  and  C_21
REMARK    4  A    between atoms: C_21  and  C_24
REMARK    5  A    between atoms: C_24  and  C_27
REMARK    6  A    between atoms: C_25  and  C_28
REMARK    7  A    between atoms: C_27  and  C_29
REMARK    8  A    between atoms: C_27  and  C_30
REMARK                            x       y       z     vdW  Elec       q    Type
REMARK                         _______ _______ _______ _____ _____    ______ ____
ROOT
ATOM      1  C   UNL     1     -10.153  54.599  52.109  0.00  0.00    +0.000 A 
ATOM      2  C   UNL     1      -8.780  55.150  51.891  0.00  0.00    +0.000 A 
ATOM      3  C   UNL     1     -10.329  53.521  52.892  0.00  0.00    +0.000 A 
ATOM      4  O   UNL     1      -8.672  56.208  51.266  0.00  0.00    +0.000 OA
ATOM      5  N   UNL     1      -7.691  54.458  52.412  0.00  0.00    +0.000 N 
ATOM      6  C   UNL     1      -9.181  52.884  53.547  0.00  0.00    +0.000 A 
ATOM      7  C   UNL     1      -7.880  53.366  53.316  0.00  0.00    +0.000 A 
ATOM      8  C   UNL     1      -9.386  51.805  54.429  0.00  0.00    +0.000 A 
ATOM      9  C   UNL     1      -6.816  52.778  54.017  0.00  0.00    +0.000 A 
ATOM     10  C   UNL     1      -8.308  51.190  55.070  0.00  0.00    +0.000 A 
ATOM     11  C   UNL     1      -7.025  51.694  54.874  0.00  0.00    +0.000 A 
ENDROOT
BRANCH   1  17
ATOM     12  S   UNL     1     -12.591  56.100  49.418  0.00  0.00    +0.000 S 
ATOM     13  O   UNL     1     -13.476  55.101  48.851  0.00  0.00    +0.000 OA
ATOM     14  O   UNL     1     -11.979  57.104  48.571  0.00  0.00    +0.000 OA
ATOM     15  N   UNL     1     -11.405  55.318  50.197  0.00  0.00    +0.000 N 
ATOM     16  C   UNL     1     -13.542  56.980  50.603  0.00  0.00    +0.000 A 
ATOM     17  C   UNL     1     -11.343  55.312  51.495  0.00  0.00    +0.000 C 
ATOM     18  C   UNL     1     -13.250  56.777  51.941  0.00  0.00    +0.000 A 
ATOM     19  C   UNL     1     -14.542  57.861  50.186  0.00  0.00    +0.000 A 
ATOM     20  N   UNL     1     -12.253  55.895  52.347  0.00  0.00    +0.000 N 
ATOM     21  C   UNL     1     -14.040  57.430  52.896  0.00  0.00    +0.000 A 
ATOM     22  C   UNL     1     -15.296  58.532  51.146  0.00  0.00    +0.000 A 
ATOM     23  C   UNL     1     -15.052  58.308  52.501  0.00  0.00    +0.000 A 
ATOM     24  H   UNL     1     -10.718  54.840  49.677  0.00  0.00    +0.000 HD
ATOM     25  H   UNL     1     -12.195  55.676  53.305  0.00  0.00    +0.000 HD
ENDBRANCH   1  17
BRANCH  10  26
ATOM     26  C   UNL     1      -8.491  50.053  56.005  0.00  0.00    +0.000 C 
ATOM     27  O   UNL     1      -9.468  49.325  55.961  0.00  0.00    +0.000 OA
ATOM     28  O   UNL     1      -7.513  49.926  56.923  0.00  0.00    +0.000 OA
ENDBRANCH  10  26
BRANCH   3  29
ATOM     29  O   UNL     1     -11.557  52.951  53.180  0.00  0.00    +0.000 OA
ATOM     30  H   UNL     1     -11.998  53.167  53.977  0.00  0.00    +0.000 HD
ENDBRANCH   3  29
BRANCH   5  31
ATOM     31  C   UNL     1      -6.349  54.981  52.116  0.00  0.00    +0.000 C 
BRANCH  31  32
ATOM     32  C   UNL     1      -5.748  54.568  50.761  0.00  0.00    +0.000 C 
BRANCH  32  33
ATOM     33  C   UNL     1      -4.750  53.398  50.773  0.00  0.00    +0.000 C 
ATOM     34  C   UNL     1      -3.856  53.401  52.010  0.00  0.00    +0.000 C 
ATOM     35  C   UNL     1      -5.537  52.082  50.709  0.00  0.00    +0.000 C 
ENDBRANCH  32  33
ENDBRANCH  31  32
ENDBRANCH   5  31
TORSDOF 6
ENDMDL
MODEL 2
REMARK VINA RESULT:      -8.2      3.817      6.020
REMARK  Name = 338117
REMARK  8 active torsions:
REMARK  status: ('A' for Active; 'I' for Inactive)
REMARK    1  A    between atoms: C_6  and  C_10
REMARK    2  A    between atoms: C_14  and  O_18
REMARK    3  A    between atoms: N_17  and  C_21
REMARK    4  A    between atoms: C_21  and  C_24
REMARK    5  A    between atoms: C_24  and  C_27
REMARK    6  A    between atoms: C_25  and  C_28
REMARK    7  A    between atoms: C_27  and  C_29
REMARK    8  A    between atoms: C_27  and  C_30
REMARK                            x       y       z     vdW  Elec       q    Type
REMARK                         _______ _______ _______ _____ _____    ______ ____
ROOT
ATOM      1  C   UNL     1     -11.228  56.098  48.776  0.00  0.00    +0.000 A 
ATOM      2  C   UNL     1     -10.051  55.687  49.601  0.00  0.00    +0.000 A 
ATOM      3  C   UNL     1     -11.375  55.621  47.528  0.00  0.00    +0.000 A 
ATOM      4  O   UNL     1     -10.014  56.049  50.780  0.00  0.00    +0.000 OA
ATOM      5  N   UNL     1      -9.061  54.905  49.013  0.00  0.00    +0.000 N 
ATOM      6  C   UNL     1     -10.391  54.685  46.971  0.00  0.00    +0.000 A 
ATOM      7  C   UNL     1      -9.257  54.324  47.721  0.00  0.00    +0.000 A 
ATOM      8  C   UNL     1     -10.597  54.130  45.693  0.00  0.00    +0.000 A 
ATOM      9  C   UNL     1      -8.378  53.371  47.183  0.00  0.00    +0.000 A 
ATOM     10  C   UNL     1      -9.678  53.230  45.147  0.00  0.00    +0.000 A 
ATOM     11  C   UNL     1      -8.578  52.840  45.906  0.00  0.00    +0.000 A 
ENDROOT
BRANCH   1  17
ATOM     12  S   UNL     1     -13.512  59.232  49.409  0.00  0.00    +0.000 S 
ATOM     13  O   UNL     1     -14.643  59.288  48.504  0.00  0.00    +0.000 OA
ATOM     14  O   UNL     1     -12.773  60.436  49.736  0.00  0.00    +0.000 OA
ATOM     15  N   UNL     1     -12.461  58.152  48.814  0.00  0.00    +0.000 N 
ATOM     16  C   UNL     1     -14.132  58.615  50.932  0.00  0.00    +0.000 A 
ATOM     17  C   UNL     1     -12.283  57.000  49.388  0.00  0.00    +0.000 C 
ATOM     18  C   UNL     1     -13.771  57.331  51.301  0.00  0.00    +0.000 A 
ATOM     19  C   UNL     1     -14.947  59.418  51.733  0.00  0.00    +0.000 A 
ATOM     20  N   UNL     1     -12.959  56.539  50.494  0.00  0.00    +0.000 N 
ATOM     21  C   UNL     1     -14.306  56.809  52.485  0.00  0.00    +0.000 A 
ATOM     22  C   UNL     1     -15.443  58.898  52.927  0.00  0.00    +0.000 A 
ATOM     23  C   UNL     1     -15.131  57.590  53.298  0.00  0.00    +0.000 A 
ATOM     24  H   UNL     1     -11.947  58.373  48.003  0.00  0.00    +0.000 HD
ATOM     25  H   UNL     1     -12.863  55.588  50.731  0.00  0.00    +0.000 HD
ENDBRANCH   1  17
BRANCH  10  26
ATOM     26  C   UNL     1      -9.867  52.627  43.806  0.00  0.00    +0.000 C 
ATOM     27  O   UNL     1     -10.741  51.807  43.577  0.00  0.00    +0.000 OA
ATOM     28  O   UNL     1      -8.970  53.028  42.884  0.00  0.00    +0.000 OA
ENDBRANCH  10  26
BRANCH   3  29
ATOM     29  O   UNL     1     -12.439  55.916  46.694  0.00  0.00    +0.000 OA
ATOM     30  H   UNL     1     -13.257  55.476  46.806  0.00  0.00    +0.000 HD
ENDBRANCH   3  29
BRANCH   5  31
ATOM     31  C   UNL     1      -7.879  54.580  49.824  0.00  0.00    +0.000 C 
BRANCH  31  32
ATOM     32  C   UNL     1      -6.682  55.537  49.685  0.00  0.00    +0.000 C 
BRANCH  32  33
ATOM     33  C   UNL     1      -5.281  54.918  49.823  0.00  0.00    +0.000 C 
ATOM     34  C   UNL     1      -5.112  54.131  51.121  0.00  0.00    +0.000 C 
ATOM     35  C   UNL     1      -5.032  53.994  48.624  0.00  0.00    +0.000 C 
ENDBRANCH  32  33
ENDBRANCH  31  32
ENDBRANCH   5  31
TORSDOF 6
ENDMDL
MODEL 3
REMARK VINA RESULT:      -7.9      4.450      6.324
REMARK  Name = 338117
REMARK  8 active torsions:
REMARK  status: ('A' for Active; 'I' for Inactive)
REMARK    1  A    between atoms: C_6  and  C_10
REMARK    2  A    between atoms: C_14  and  O_18
REMARK    3  A    between atoms: N_17  and  C_21
REMARK    4  A    between atoms: C_21  and  C_24
REMARK    5  A    between atoms: C_24  and  C_27
REMARK    6  A    between atoms: C_25  and  C_28
REMARK    7  A    between atoms: C_27  and  C_29
REMARK    8  A    between atoms: C_27  and  C_30
REMARK                            x       y       z     vdW  Elec       q    Type
REMARK                         _______ _______ _______ _____ _____    ______ ____
ROOT
ATOM      1  C   UNL     1     -10.928  55.631  48.606  0.00  0.00    +0.000 A 
ATOM      2  C   UNL     1     -11.323  55.200  47.229  0.00  0.00    +0.000 A 
ATOM      3  C   UNL     1      -9.678  55.415  49.045  0.00  0.00    +0.000 A 
ATOM      4  O   UNL     1     -12.441  55.522  46.818  0.00  0.00    +0.000 OA
ATOM      5  N   UNL     1     -10.412  54.473  46.468  0.00  0.00    +0.000 N 
ATOM      6  C   UNL     1      -8.686  54.768  48.177  0.00  0.00    +0.000 A 
ATOM      7  C   UNL     1      -9.056  54.321  46.896  0.00  0.00    +0.000 A 
ATOM      8  C   UNL     1      -7.358  54.620  48.619  0.00  0.00    +0.000 A 
ATOM      9  C   UNL     1      -8.064  53.774  46.068  0.00  0.00    +0.000 A 
ATOM     10  C   UNL     1      -6.396  54.016  47.805  0.00  0.00    +0.000 A 
ATOM     11  C   UNL     1      -6.752  53.611  46.521  0.00  0.00    +0.000 A 
ENDROOT
BRANCH   1  17
ATOM     12  S   UNL     1     -13.553  56.371  51.434  0.00  0.00    +0.000 S 
ATOM     13  O   UNL     1     -12.929  56.669  52.708  0.00  0.00    +0.000 OA
ATOM     14  O   UNL     1     -14.731  55.528  51.374  0.00  0.00    +0.000 OA
ATOM     15  N   UNL     1     -12.424  55.715  50.476  0.00  0.00    +0.000 N 
ATOM     16  C   UNL     1     -14.028  57.916  50.748  0.00  0.00    +0.000 A 
ATOM     17  C   UNL     1     -11.934  56.371  49.466  0.00  0.00    +0.000 C 
ATOM     18  C   UNL     1     -13.319  58.379  49.653  0.00  0.00    +0.000 A 
ATOM     19  C   UNL     1     -15.098  58.628  51.295  0.00  0.00    +0.000 A 
ATOM     20  N   UNL     1     -12.253  57.663  49.116  0.00  0.00    +0.000 N 
ATOM     21  C   UNL     1     -13.651  59.636  49.133  0.00  0.00    +0.000 A 
ATOM     22  C   UNL     1     -15.442  59.861  50.745  0.00  0.00    +0.000 A 
ATOM     23  C   UNL     1     -14.712  60.370  49.671  0.00  0.00    +0.000 A 
ATOM     24  H   UNL     1     -12.103  54.802  50.662  0.00  0.00    +0.000 HD
ATOM     25  H   UNL     1     -11.692  58.110  48.441  0.00  0.00    +0.000 HD
ENDBRANCH   1  17
BRANCH  10  26
ATOM     26  C   UNL     1      -4.988  53.847  48.240  0.00  0.00    +0.000 C 
ATOM     27  O   UNL     1      -4.572  54.304  49.291  0.00  0.00    +0.000 OA
ATOM     28  O   UNL     1      -4.210  53.187  47.360  0.00  0.00    +0.000 OA
ENDBRANCH  10  26
BRANCH   3  29
ATOM     29  O   UNL     1      -9.205  55.797  50.289  0.00  0.00    +0.000 OA
ATOM     30  H   UNL     1      -9.784  56.193  50.908  0.00  0.00    +0.000 HD
ENDBRANCH   3  29
BRANCH   5  31
ATOM     31  C   UNL     1     -10.855  53.998  45.150  0.00  0.00    +0.000 C 
BRANCH  31  32
ATOM     32  C   UNL     1     -11.425  52.570  45.103  0.00  0.00    +0.000 C 
BRANCH  32  33
ATOM     33  C   UNL     1     -10.765  51.591  44.118  0.00  0.00    +0.000 C 
ATOM     34  C   UNL     1      -9.972  52.304  43.025  0.00  0.00    +0.000 C 
ATOM     35  C   UNL     1      -9.836  50.655  44.902  0.00  0.00    +0.000 C 
ENDBRANCH  32  33
ENDBRANCH  31  32
ENDBRANCH   5  31
TORSDOF 6
ENDMDL
MODEL 4
REMARK VINA RESULT:      -7.8      4.103      6.375
REMARK  Name = 338117
REMARK  8 active torsions:
REMARK  status: ('A' for Active; 'I' for Inactive)
REMARK    1  A    between atoms: C_6  and  C_10
REMARK    2  A    between atoms: C_14  and  O_18
REMARK    3  A    between atoms: N_17  and  C_21
REMARK    4  A    between atoms: C_21  and  C_24
REMARK    5  A    between atoms: C_24  and  C_27
REMARK    6  A    between atoms: C_25  and  C_28
REMARK    7  A    between atoms: C_27  and  C_29
REMARK    8  A    between atoms: C_27  and  C_30
REMARK                            x       y       z     vdW  Elec       q    Type
REMARK                         _______ _______ _______ _____ _____    ______ ____
ROOT
ATOM      1  C   UNL     1     -10.729  55.681  48.492  0.00  0.00    +0.000 A 
ATOM      2  C   UNL     1      -9.331  55.525  49.001  0.00  0.00    +0.000 A 
ATOM      3  C   UNL     1     -11.073  55.165  47.301  0.00  0.00    +0.000 A 
ATOM      4  O   UNL     1      -9.086  55.907  50.149  0.00  0.00    +0.000 OA
ATOM      5  N   UNL     1      -8.378  54.946  48.170  0.00  0.00    +0.000 N 
ATOM      6  C   UNL     1     -10.087  54.434  46.496  0.00  0.00    +0.000 A 
ATOM      7  C   UNL     1      -8.759  54.317  46.943  0.00  0.00    +0.000 A 
ATOM      8  C   UNL     1     -10.479  53.828  45.286  0.00  0.00    +0.000 A 
ATOM      9  C   UNL     1      -7.863  53.550  46.182  0.00  0.00    +0.000 A 
ATOM     10  C   UNL     1      -9.559  53.120  44.509  0.00  0.00    +0.000 A 
ATOM     11  C   UNL     1      -8.254  52.969  44.973  0.00  0.00    +0.000 A 
ENDROOT
BRANCH   1  17
ATOM     12  S   UNL     1     -13.396  56.258  51.320  0.00  0.00    +0.000 S 
ATOM     13  O   UNL     1     -12.791  56.536  52.607  0.00  0.00    +0.000 OA
ATOM     14  O   UNL     1     -14.548  55.383  51.224  0.00  0.00    +0.000 OA
ATOM     15  N   UNL     1     -12.240  55.665  50.352  0.00  0.00    +0.000 N 
ATOM     16  C   UNL     1     -13.911  57.808  50.676  0.00  0.00    +0.000 A 
ATOM     17  C   UNL     1     -11.763  56.365  49.366  0.00  0.00    +0.000 C 
ATOM     18  C   UNL     1     -13.208  58.325  49.601  0.00  0.00    +0.000 A 
ATOM     19  C   UNL     1     -15.006  58.471  51.235  0.00  0.00    +0.000 A 
ATOM     20  N   UNL     1     -12.118  57.657  49.052  0.00  0.00    +0.000 N 
ATOM     21  C   UNL     1     -13.574  59.587  49.117  0.00  0.00    +0.000 A 
ATOM     22  C   UNL     1     -15.382  59.710  50.720  0.00  0.00    +0.000 A 
ATOM     23  C   UNL     1     -14.660  60.272  49.668  0.00  0.00    +0.000 A 
ATOM     24  H   UNL     1     -11.894  54.757  50.512  0.00  0.00    +0.000 HD
ATOM     25  H   UNL     1     -11.565  58.141  48.396  0.00  0.00    +0.000 HD
ENDBRANCH   1  17
BRANCH  10  26
ATOM     26  C   UNL     1      -9.941  52.470  43.232  0.00  0.00    +0.000 C 
ATOM     27  O   UNL     1     -10.718  51.532  43.186  0.00  0.00    +0.000 OA
ATOM     28  O   UNL     1      -9.325  52.975  42.145  0.00  0.00    +0.000 OA
ENDBRANCH  10  26
BRANCH   3  29
ATOM     29  O   UNL     1     -12.342  55.229  46.753  0.00  0.00    +0.000 OA
ATOM     30  H   UNL     1     -13.046  54.750  47.143  0.00  0.00    +0.000 HD
ENDBRANCH   3  29
BRANCH   5  31
ATOM     31  C   UNL     1      -6.996  54.876  48.666  0.00  0.00    +0.000 C 
BRANCH  31  32
ATOM     32  C   UNL     1      -6.619  53.598  49.435  0.00  0.00    +0.000 C 
BRANCH  32  33
ATOM     33  C   UNL     1      -5.124  53.243  49.500  0.00  0.00    +0.000 C 
ATOM     34  C   UNL     1      -4.388  53.560  48.200  0.00  0.00    +0.000 C 
ATOM     35  C   UNL     1      -4.484  54.022  50.658  0.00  0.00    +0.000 C 
ENDBRANCH  32  33
ENDBRANCH  31  32
ENDBRANCH   5  31
TORSDOF 6
ENDMDL
MODEL 5
REMARK VINA RESULT:      -7.7      3.489      4.564
REMARK  Name = 338117
REMARK  8 active torsions:
REMARK  status: ('A' for Active; 'I' for Inactive)
REMARK    1  A    between atoms: C_6  and  C_10
REMARK    2  A    between atoms: C_14  and  O_18
REMARK    3  A    between atoms: N_17  and  C_21
REMARK    4  A    between atoms: C_21  and  C_24
REMARK    5  A    between atoms: C_24  and  C_27
REMARK    6  A    between atoms: C_25  and  C_28
REMARK    7  A    between atoms: C_27  and  C_29
REMARK    8  A    between atoms: C_27  and  C_30
REMARK                            x       y       z     vdW  Elec       q    Type
REMARK                         _______ _______ _______ _____ _____    ______ ____
ROOT
ATOM      1  C   UNL     1     -12.382  54.335  49.845  0.00  0.00    +0.000 A 
ATOM      2  C   UNL     1     -12.156  54.043  48.395  0.00  0.00    +0.000 A 
ATOM      3  C   UNL     1     -11.804  53.568  50.783  0.00  0.00    +0.000 A 
ATOM      4  O   UNL     1     -12.605  54.839  47.566  0.00  0.00    +0.000 OA
ATOM      5  N   UNL     1     -11.440  52.903  48.046  0.00  0.00    +0.000 N 
ATOM      6  C   UNL     1     -10.936  52.448  50.397  0.00  0.00    +0.000 A 
ATOM      7  C   UNL     1     -10.750  52.138  49.038  0.00  0.00    +0.000 A 
ATOM      8  C   UNL     1     -10.271  51.702  51.389  0.00  0.00    +0.000 A 
ATOM      9  C   UNL     1      -9.856  51.107  48.706  0.00  0.00    +0.000 A 
ATOM     10  C   UNL     1      -9.434  50.638  51.042  0.00  0.00    +0.000 A 
ATOM     11  C   UNL     1      -9.215  50.357  49.696  0.00  0.00    +0.000 A 
ENDROOT
BRANCH   1  17
ATOM     12  S   UNL     1     -15.336  56.498  51.272  0.00  0.00    +0.000 S 
ATOM     13  O   UNL     1     -15.271  56.647  52.712  0.00  0.00    +0.000 OA
ATOM     14  O   UNL     1     -16.606  56.257  50.616  0.00  0.00    +0.000 OA
ATOM     15  N   UNL     1     -14.329  55.298  50.857  0.00  0.00    +0.000 N 
ATOM     16  C   UNL     1     -14.717  57.995  50.596  0.00  0.00    +0.000 A 
ATOM     17  C   UNL     1     -13.213  55.542  50.236  0.00  0.00    +0.000 C 
ATOM     18  C   UNL     1     -13.480  57.960  49.978  0.00  0.00    +0.000 A 
ATOM     19  C   UNL     1     -15.474  59.167  50.677  0.00  0.00    +0.000 A 
ATOM     20  N   UNL     1     -12.732  56.788  49.904  0.00  0.00    +0.000 N 
ATOM     21  C   UNL     1     -12.951  59.160  49.486  0.00  0.00    +0.000 A 
ATOM     22  C   UNL     1     -14.953  60.347  50.151  0.00  0.00    +0.000 A 
ATOM     23  C   UNL     1     -13.687  60.345  49.565  0.00  0.00    +0.000 A 
ATOM     24  H   UNL     1     -14.566  54.369  51.078  0.00  0.00    +0.000 HD
ATOM     25  H   UNL     1     -11.800  56.855  49.594  0.00  0.00    +0.000 HD
ENDBRANCH   1  17
BRANCH  10  26
ATOM     26  C   UNL     1      -8.718  49.834  52.062  0.00  0.00    +0.000 C 
ATOM     27  O   UNL     1      -9.148  49.685  53.193  0.00  0.00    +0.000 OA
ATOM     28  O   UNL     1      -7.542  49.325  51.644  0.00  0.00    +0.000 OA
ENDBRANCH  10  26
BRANCH   3  29
ATOM     29  O   UNL     1     -11.926  53.768  52.147  0.00  0.00    +0.000 OA
ATOM     30  H   UNL     1     -11.162  53.788  52.688  0.00  0.00    +0.000 HD
ENDBRANCH   3  29
BRANCH   5  31
ATOM     31  C   UNL     1     -11.299  52.600  46.614  0.00  0.00    +0.000 C 
BRANCH  31  32
ATOM     32  C   UNL     1     -10.340  53.508  45.824  0.00  0.00    +0.000 C 
BRANCH  32  33
ATOM     33  C   UNL     1      -9.007  53.865  46.502  0.00  0.00    +0.000 C 
ATOM     34  C   UNL     1      -7.795  53.433  45.679  0.00  0.00    +0.000 C 
ATOM     35  C   UNL     1      -8.962  55.383  46.727  0.00  0.00    +0.000 C 
ENDBRANCH  32  33
ENDBRANCH  31  32
ENDBRANCH   5  31
TORSDOF 6
ENDMDL
MODEL 6
REMARK VINA RESULT:      -7.7      3.347      8.377
REMARK  Name = 338117
REMARK  8 active torsions:
REMARK  status: ('A' for Active; 'I' for Inactive)
REMARK    1  A    between atoms: C_6  and  C_10
REMARK    2  A    between atoms: C_14  and  O_18
REMARK    3  A    between atoms: N_17  and  C_21
REMARK    4  A    between atoms: C_21  and  C_24
REMARK    5  A    between atoms: C_24  and  C_27
REMARK    6  A    between atoms: C_25  and  C_28
REMARK    7  A    between atoms: C_27  and  C_29
REMARK    8  A    between atoms: C_27  and  C_30
REMARK                            x       y       z     vdW  Elec       q    Type
REMARK                         _______ _______ _______ _____ _____    ______ ____
ROOT
ATOM      1  C   UNL     1      -9.733  53.936  51.239  0.00  0.00    +0.000 A 
ATOM      2  C   UNL     1     -10.760  54.994  51.492  0.00  0.00    +0.000 A 
ATOM      3  C   UNL     1      -9.530  53.480  49.992  0.00  0.00    +0.000 A 
ATOM      4  O   UNL     1     -10.833  55.472  52.627  0.00  0.00    +0.000 OA
ATOM      5  N   UNL     1     -11.573  55.403  50.439  0.00  0.00    +0.000 N 
ATOM      6  C   UNL     1     -10.303  54.023  48.868  0.00  0.00    +0.000 A 
ATOM      7  C   UNL     1     -11.301  54.986  49.098  0.00  0.00    +0.000 A 
ATOM      8  C   UNL     1     -10.026  53.595  47.555  0.00  0.00    +0.000 A 
ATOM      9  C   UNL     1     -11.967  55.534  47.991  0.00  0.00    +0.000 A 
ATOM     10  C   UNL     1     -10.743  54.105  46.470  0.00  0.00    +0.000 A 
ATOM     11  C   UNL     1     -11.701  55.091  46.693  0.00  0.00    +0.000 A 
ENDROOT
BRANCH   1  17
ATOM     12  S   UNL     1      -6.621  53.346  53.564  0.00  0.00    +0.000 S 
ATOM     13  O   UNL     1      -6.378  54.458  54.461  0.00  0.00    +0.000 OA
ATOM     14  O   UNL     1      -5.515  52.681  52.902  0.00  0.00    +0.000 OA
ATOM     15  N   UNL     1      -7.650  53.854  52.420  0.00  0.00    +0.000 N 
ATOM     16  C   UNL     1      -7.426  52.112  54.520  0.00  0.00    +0.000 A 
ATOM     17  C   UNL     1      -8.882  53.440  52.392  0.00  0.00    +0.000 C 
ATOM     18  C   UNL     1      -8.766  51.875  54.269  0.00  0.00    +0.000 A 
ATOM     19  C   UNL     1      -6.712  51.396  55.484  0.00  0.00    +0.000 A 
ATOM     20  N   UNL     1      -9.468  52.596  53.307  0.00  0.00    +0.000 N 
ATOM     21  C   UNL     1      -9.431  50.934  55.065  0.00  0.00    +0.000 A 
ATOM     22  C   UNL     1      -7.378  50.436  56.244  0.00  0.00    +0.000 A 
ATOM     23  C   UNL     1      -8.740  50.213  56.041  0.00  0.00    +0.000 A 
ATOM     24  H   UNL     1      -7.336  54.487  51.734  0.00  0.00    +0.000 HD
ATOM     25  H   UNL     1     -10.447  52.494  53.280  0.00  0.00    +0.000 HD
ENDBRANCH   1  17
BRANCH  10  26
ATOM     26  C   UNL     1     -10.474  53.677  45.076  0.00  0.00    +0.000 C 
ATOM     27  O   UNL     1     -11.353  53.260  44.341  0.00  0.00    +0.000 OA
ATOM     28  O   UNL     1      -9.178  53.747  44.713  0.00  0.00    +0.000 OA
ENDBRANCH  10  26
BRANCH   3  29
ATOM     29  O   UNL     1      -8.589  52.526  49.647  0.00  0.00    +0.000 OA
ATOM     30  H   UNL     1      -7.884  52.331  50.232  0.00  0.00    +0.000 HD
ENDBRANCH   3  29
BRANCH   5  31
ATOM     31  C   UNL     1     -12.624  56.387  50.734  0.00  0.00    +0.000 C 
BRANCH  31  32
ATOM     32  C   UNL     1     -13.968  55.815  51.218  0.00  0.00    +0.000 C 
BRANCH  32  33
ATOM     33  C   UNL     1     -14.936  56.799  51.896  0.00  0.00    +0.000 C 
ATOM     34  C   UNL     1     -14.274  57.596  53.018  0.00  0.00    +0.000 C 
ATOM     35  C   UNL     1     -15.482  57.762  50.833  0.00  0.00    +0.000 C 
ENDBRANCH  32  33
ENDBRANCH  31  32
ENDBRANCH   5  31
TORSDOF 6
ENDMDL
MODEL 7
REMARK VINA RESULT:      -7.7      3.931      8.090
REMARK  Name = 338117
REMARK  8 active torsions:
REMARK  status: ('A' for Active; 'I' for Inactive)
REMARK    1  A    between atoms: C_6  and  C_10
REMARK    2  A    between atoms: C_14  and  O_18
REMARK    3  A    between atoms: N_17  and  C_21
REMARK    4  A    between atoms: C_21  and  C_24
REMARK    5  A    between atoms: C_24  and  C_27
REMARK    6  A    between atoms: C_25  and  C_28
REMARK    7  A    between atoms: C_27  and  C_29
REMARK    8  A    between atoms: C_27  and  C_30
REMARK                            x       y       z     vdW  Elec       q    Type
REMARK                         _______ _______ _______ _____ _____    ______ ____
ROOT
ATOM      1  C   UNL     1      -8.858  54.422  50.195  0.00  0.00    +0.000 A 
ATOM      2  C   UNL     1      -8.281  54.009  48.879  0.00  0.00    +0.000 A 
ATOM      3  C   UNL     1     -10.009  55.112  50.239  0.00  0.00    +0.000 A 
ATOM      4  O   UNL     1      -7.289  53.275  48.884  0.00  0.00    +0.000 OA
ATOM      5  N   UNL     1      -8.894  54.453  47.711  0.00  0.00    +0.000 N 
ATOM      6  C   UNL     1     -10.718  55.454  48.999  0.00  0.00    +0.000 A 
ATOM      7  C   UNL     1     -10.165  55.108  47.753  0.00  0.00    +0.000 A 
ATOM      8  C   UNL     1     -11.964  56.107  49.061  0.00  0.00    +0.000 A 
ATOM      9  C   UNL     1     -10.906  55.387  46.594  0.00  0.00    +0.000 A 
ATOM     10  C   UNL     1     -12.659  56.433  47.894  0.00  0.00    +0.000 A 
ATOM     11  C   UNL     1     -12.132  56.053  46.662  0.00  0.00    +0.000 A 
ENDROOT
BRANCH   1  17
ATOM     12  S   UNL     1      -6.088  54.016  52.952  0.00  0.00    +0.000 S 
ATOM     13  O   UNL     1      -6.005  55.166  53.831  0.00  0.00    +0.000 OA
ATOM     14  O   UNL     1      -4.881  53.367  52.477  0.00  0.00    +0.000 OA
ATOM     15  N   UNL     1      -6.960  54.450  51.658  0.00  0.00    +0.000 N 
ATOM     16  C   UNL     1      -6.983  52.789  53.833  0.00  0.00    +0.000 A 
ATOM     17  C   UNL     1      -8.163  53.994  51.474  0.00  0.00    +0.000 C 
ATOM     18  C   UNL     1      -8.267  52.499  53.407  0.00  0.00    +0.000 A 
ATOM     19  C   UNL     1      -6.392  52.130  54.914  0.00  0.00    +0.000 A 
ATOM     20  N   UNL     1      -8.848  53.162  52.330  0.00  0.00    +0.000 N 
ATOM     21  C   UNL     1      -9.011  51.564  54.138  0.00  0.00    +0.000 A 
ATOM     22  C   UNL     1      -7.130  51.175  55.610  0.00  0.00    +0.000 A 
ATOM     23  C   UNL     1      -8.443  50.900  55.228  0.00  0.00    +0.000 A 
ATOM     24  H   UNL     1      -6.571  55.070  50.998  0.00  0.00    +0.000 HD
ATOM     25  H   UNL     1      -9.810  53.027  52.170  0.00  0.00    +0.000 HD
ENDBRANCH   1  17
BRANCH  10  26
ATOM     26  C   UNL     1     -13.974  57.119  47.925  0.00  0.00    +0.000 C 
ATOM     27  O   UNL     1     -14.297  57.946  47.090  0.00  0.00    +0.000 OA
ATOM     28  O   UNL     1     -14.752  56.781  48.972  0.00  0.00    +0.000 OA
ENDBRANCH  10  26
BRANCH   3  29
ATOM     29  O   UNL     1     -10.639  55.518  51.403  0.00  0.00    +0.000 OA
ATOM     30  H   UNL     1     -11.569  55.446  51.481  0.00  0.00    +0.000 HD
ENDBRANCH   3  29
BRANCH   5  31
ATOM     31  C   UNL     1      -8.262  54.095  46.433  0.00  0.00    +0.000 C 
BRANCH  31  32
ATOM     32  C   UNL     1      -8.791  52.821  45.752  0.00  0.00    +0.000 C 
BRANCH  32  33
ATOM     33  C   UNL     1      -9.105  52.917  44.249  0.00  0.00    +0.000 C 
ATOM     34  C   UNL     1      -8.409  51.830  43.433  0.00  0.00    +0.000 C 
ATOM     35  C   UNL     1     -10.624  52.811  44.058  0.00  0.00    +0.000 C 
ENDBRANCH  32  33
ENDBRANCH  31  32
ENDBRANCH   5  31
TORSDOF 6
ENDMDL
MODEL 8
REMARK VINA RESULT:      -7.7      4.439      7.727
REMARK  Name = 338117
REMARK  8 active torsions:
REMARK  status: ('A' for Active; 'I' for Inactive)
REMARK    1  A    between atoms: C_6  and  C_10
REMARK    2  A    between atoms: C_14  and  O_18
REMARK    3  A    between atoms: N_17  and  C_21
REMARK    4  A    between atoms: C_21  and  C_24
REMARK    5  A    between atoms: C_24  and  C_27
REMARK    6  A    between atoms: C_25  and  C_28
REMARK    7  A    between atoms: C_27  and  C_29
REMARK    8  A    between atoms: C_27  and  C_30
REMARK                            x       y       z     vdW  Elec       q    Type
REMARK                         _______ _______ _______ _____ _____    ______ ____
ROOT
ATOM      1  C   UNL     1     -10.814  54.513  48.672  0.00  0.00    +0.000 A 
ATOM      2  C   UNL     1     -10.495  53.942  50.018  0.00  0.00    +0.000 A 
ATOM      3  C   UNL     1     -11.680  55.534  48.563  0.00  0.00    +0.000 A 
ATOM      4  O   UNL     1      -9.607  53.088  50.090  0.00  0.00    +0.000 OA
ATOM      5  N   UNL     1     -11.197  54.408  51.126  0.00  0.00    +0.000 N 
ATOM      6  C   UNL     1     -12.309  56.106  49.759  0.00  0.00    +0.000 A 
ATOM      7  C   UNL     1     -12.050  55.552  51.025  0.00  0.00    +0.000 A 
ATOM      8  C   UNL     1     -13.152  57.228  49.640  0.00  0.00    +0.000 A 
ATOM      9  C   UNL     1     -12.611  56.171  52.153  0.00  0.00    +0.000 A 
ATOM     10  C   UNL     1     -13.753  57.794  50.767  0.00  0.00    +0.000 A 
ATOM     11  C   UNL     1     -13.464  57.272  52.025  0.00  0.00    +0.000 A 
ENDROOT
BRANCH   1  17
ATOM     12  S   UNL     1      -8.019  53.905  45.979  0.00  0.00    +0.000 S 
ATOM     13  O   UNL     1      -7.015  52.958  46.423  0.00  0.00    +0.000 OA
ATOM     14  O   UNL     1      -7.630  55.102  45.260  0.00  0.00    +0.000 OA
ATOM     15  N   UNL     1      -8.871  54.362  47.279  0.00  0.00    +0.000 N 
ATOM     16  C   UNL     1      -9.087  53.019  44.904  0.00  0.00    +0.000 A 
ATOM     17  C   UNL     1     -10.099  53.970  47.450  0.00  0.00    +0.000 C 
ATOM     18  C   UNL     1     -10.365  52.737  45.354  0.00  0.00    +0.000 A 
ATOM     19  C   UNL     1      -8.645  52.637  43.635  0.00  0.00    +0.000 A 
ATOM     20  N   UNL     1     -10.795  53.120  46.622  0.00  0.00    +0.000 N 
ATOM     21  C   UNL     1     -11.205  51.981  44.528  0.00  0.00    +0.000 A 
ATOM     22  C   UNL     1      -9.505  51.917  42.808  0.00  0.00    +0.000 A 
ATOM     23  C   UNL     1     -10.781  51.580  43.259  0.00  0.00    +0.000 A 
ATOM     24  H   UNL     1      -8.452  54.947  47.951  0.00  0.00    +0.000 HD
ATOM     25  H   UNL     1     -11.652  52.760  46.945  0.00  0.00    +0.000 HD
ENDBRANCH   1  17
BRANCH  10  26
ATOM     26  C   UNL     1     -14.645  58.976  50.675  0.00  0.00    +0.000 C 
ATOM     27  O   UNL     1     -14.717  59.661  49.669  0.00  0.00    +0.000 OA
ATOM     28  O   UNL     1     -15.327  59.246  51.805  0.00  0.00    +0.000 OA
ENDBRANCH  10  26
BRANCH   3  29
ATOM     29  O   UNL     1     -12.022  56.149  47.371  0.00  0.00    +0.000 OA
ATOM     30  H   UNL     1     -12.906  56.117  47.064  0.00  0.00    +0.000 HD
ENDBRANCH   3  29
BRANCH   5  31
ATOM     31  C   UNL     1     -10.917  53.776  52.423  0.00  0.00    +0.000 C 
BRANCH  31  32
ATOM     32  C   UNL     1     -10.023  54.577  53.385  0.00  0.00    +0.000 C 
BRANCH  32  33
ATOM     33  C   UNL     1      -8.505  54.504  53.145  0.00  0.00    +0.000 C 
ATOM     34  C   UNL     1      -7.719  55.422  54.077  0.00  0.00    +0.000 C 
ATOM     35  C   UNL     1      -8.046  53.053  53.342  0.00  0.00    +0.000 C 
ENDBRANCH  32  33
ENDBRANCH  31  32
ENDBRANCH   5  31
TORSDOF 6
ENDMDL
MODEL 9
REMARK VINA RESULT:      -7.6      3.254      7.994
REMARK  Name = 338117
REMARK  8 active torsions:
REMARK  status: ('A' for Active; 'I' for Inactive)
REMARK    1  A    between atoms: C_6  and  C_10
REMARK    2  A    between atoms: C_14  and  O_18
REMARK    3  A    between atoms: N_17  and  C_21
REMARK    4  A    between atoms: C_21  and  C_24
REMARK    5  A    between atoms: C_24  and  C_27
REMARK    6  A    between atoms: C_25  and  C_28
REMARK    7  A    between atoms: C_27  and  C_29
REMARK    8  A    between atoms: C_27  and  C_30
REMARK                            x       y       z     vdW  Elec       q    Type
REMARK                         _______ _______ _______ _____ _____    ______ ____
ROOT
ATOM      1  C   UNL     1      -9.743  54.563  50.878  0.00  0.00    +0.000 A 
ATOM      2  C   UNL     1      -9.805  54.707  49.391  0.00  0.00    +0.000 A 
ATOM      3  C   UNL     1     -10.700  55.109  51.647  0.00  0.00    +0.000 A 
ATOM      4  O   UNL     1      -8.977  54.092  48.713  0.00  0.00    +0.000 OA
ATOM      5  N   UNL     1     -10.797  55.511  48.837  0.00  0.00    +0.000 N 
ATOM      6  C   UNL     1     -11.817  55.839  51.036  0.00  0.00    +0.000 A 
ATOM      7  C   UNL     1     -11.864  56.018  49.642  0.00  0.00    +0.000 A 
ATOM      8  C   UNL     1     -12.855  56.337  51.847  0.00  0.00    +0.000 A 
ATOM      9  C   UNL     1     -12.985  56.657  49.089  0.00  0.00    +0.000 A 
ATOM     10  C   UNL     1     -13.933  57.027  51.285  0.00  0.00    +0.000 A 
ATOM     11  C   UNL     1     -14.002  57.168  49.901  0.00  0.00    +0.000 A 
ENDROOT
BRANCH   1  17
ATOM     12  S   UNL     1      -7.909  51.788  52.969  0.00  0.00    +0.000 S 
ATOM     13  O   UNL     1      -7.844  50.518  52.273  0.00  0.00    +0.000 OA
ATOM     14  O   UNL     1      -8.207  51.833  54.388  0.00  0.00    +0.000 OA
ATOM     15  N   UNL     1      -8.998  52.712  52.204  0.00  0.00    +0.000 N 
ATOM     16  C   UNL     1      -6.329  52.531  52.783  0.00  0.00    +0.000 A 
ATOM     17  C   UNL     1      -8.631  53.738  51.496  0.00  0.00    +0.000 C 
ATOM     18  C   UNL     1      -6.230  53.633  51.953  0.00  0.00    +0.000 A 
ATOM     19  C   UNL     1      -5.228  52.018  53.473  0.00  0.00    +0.000 A 
ATOM     20  N   UNL     1      -7.333  54.135  51.268  0.00  0.00    +0.000 N 
ATOM     21  C   UNL     1      -4.964  54.198  51.751  0.00  0.00    +0.000 A 
ATOM     22  C   UNL     1      -3.980  52.613  53.292  0.00  0.00    +0.000 A 
ATOM     23  C   UNL     1      -3.847  53.696  52.424  0.00  0.00    +0.000 A 
ATOM     24  H   UNL     1      -9.956  52.493  52.278  0.00  0.00    +0.000 HD
ATOM     25  H   UNL     1      -7.174  54.818  50.577  0.00  0.00    +0.000 HD
ENDBRANCH   1  17
BRANCH  10  26
ATOM     26  C   UNL     1     -15.043  57.563  52.110  0.00  0.00    +0.000 C 
ATOM     27  O   UNL     1     -15.827  56.837  52.697  0.00  0.00    +0.000 OA
ATOM     28  O   UNL     1     -15.130  58.907  52.118  0.00  0.00    +0.000 OA
ENDBRANCH  10  26
BRANCH   3  29
ATOM     29  O   UNL     1     -10.750  55.011  53.027  0.00  0.00    +0.000 OA
ATOM     30  H   UNL     1     -10.320  54.302  53.461  0.00  0.00    +0.000 HD
ENDBRANCH   3  29
BRANCH   5  31
ATOM     31  C   UNL     1     -10.786  55.696  47.379  0.00  0.00    +0.000 C 
BRANCH  31  32
ATOM     32  C   UNL     1     -11.765  54.819  46.580  0.00  0.00    +0.000 C 
BRANCH  32  33
ATOM     33  C   UNL     1     -11.325  53.373  46.292  0.00  0.00    +0.000 C 
ATOM     34  C   UNL     1     -12.146  52.345  47.067  0.00  0.00    +0.000 C 
ATOM     35  C   UNL     1     -11.458  53.110  44.786  0.00  0.00    +0.000 C 
ENDBRANCH  32  33
ENDBRANCH  31  32
ENDBRANCH   5  31
TORSDOF 6
ENDMDL
