MODEL 1
REMARK VINA RESULT:      -8.6      0.000      0.000
REMARK  Name = 338168
REMARK  5 active torsions:
REMARK  status: ('A' for Active; 'I' for Inactive)
REMARK    1  A    between atoms: C_6  and  C_10
REMARK    2  A    between atoms: C_14  and  O_18
REMARK    3  A    between atoms: N_17  and  C_21
REMARK    4  A    between atoms: C_21  and  C_24
REMARK    5  A    between atoms: C_24  and  C_27
REMARK                            x       y       z     vdW  Elec       q    Type
REMARK                         _______ _______ _______ _____ _____    ______ ____
ROOT
ATOM      1  C   UNL     1      -9.982  54.541  52.369  0.00  0.00    +0.000 A 
ATOM      2  C   UNL     1      -8.587  55.042  52.257  0.00  0.00    +0.000 A 
ATOM      3  C   UNL     1     -10.236  53.407  53.042  0.00  0.00    +0.000 A 
ATOM      4  O   UNL     1      -8.383  55.987  51.492  0.00  0.00    +0.000 OA
ATOM      5  N   UNL     1      -7.591  54.454  53.038  0.00  0.00    +0.000 N 
ATOM      6  C   UNL     1      -9.158  52.692  53.733  0.00  0.00    +0.000 A 
ATOM      7  C   UNL     1      -7.853  53.229  53.749  0.00  0.00    +0.000 A 
ATOM      8  C   UNL     1      -9.442  51.501  54.427  0.00  0.00    +0.000 A 
ATOM      9  C   UNL     1      -6.863  52.536  54.472  0.00  0.00    +0.000 A 
ATOM     10  C   UNL     1      -8.455  50.865  55.158  0.00  0.00    +0.000 A 
ATOM     11  C   UNL     1      -7.168  51.372  55.188  0.00  0.00    +0.000 A 
ATOM     12  F   UNL     1      -8.749  49.758  55.851  0.00  0.00    +0.000 F 
ENDROOT
BRANCH   1  18
ATOM     13  S   UNL     1     -12.370  55.786  49.440  0.00  0.00    +0.000 S 
ATOM     14  O   UNL     1     -13.026  54.530  49.160  0.00  0.00    +0.000 OA
ATOM     15  O   UNL     1     -11.941  56.679  48.392  0.00  0.00    +0.000 OA
ATOM     16  N   UNL     1     -11.040  55.472  50.369  0.00  0.00    +0.000 N 
ATOM     17  C   UNL     1     -13.368  56.679  50.551  0.00  0.00    +0.000 A 
ATOM     18  C   UNL     1     -11.116  55.281  51.744  0.00  0.00    +0.000 C 
ATOM     19  C   UNL     1     -13.097  56.547  51.909  0.00  0.00    +0.000 A 
ATOM     20  C   UNL     1     -14.372  57.516  50.065  0.00  0.00    +0.000 A 
ATOM     21  N   UNL     1     -12.103  55.724  52.460  0.00  0.00    +0.000 N 
ATOM     22  C   UNL     1     -13.863  57.308  52.797  0.00  0.00    +0.000 A 
ATOM     23  C   UNL     1     -15.136  58.250  50.966  0.00  0.00    +0.000 A 
ATOM     24  C   UNL     1     -14.875  58.154  52.332  0.00  0.00    +0.000 A 
ATOM     25  H   UNL     1     -10.159  55.420  49.933  0.00  0.00    +0.000 HD
ATOM     26  H   UNL     1     -12.157  55.478  53.412  0.00  0.00    +0.000 HD
ENDBRANCH   1  18
BRANCH   3  27
ATOM     27  O   UNL     1     -11.492  52.835  53.175  0.00  0.00    +0.000 OA
ATOM     28  H   UNL     1     -12.003  52.999  53.943  0.00  0.00    +0.000 HD
ENDBRANCH   3  27
BRANCH   5  29
ATOM     29  C   UNL     1      -6.218  55.003  52.964  0.00  0.00    +0.000 C 
BRANCH  29  30
ATOM     30  C   UNL     1      -5.222  54.208  52.099  0.00  0.00    +0.000 C 
BRANCH  30  31
ATOM     31  C   UNL     1      -5.327  54.517  50.634  0.00  0.00    +0.000 C 
ATOM     32  C   UNL     1      -6.137  53.694  49.669  0.00  0.00    +0.000 C 
ATOM     33  C   UNL     1      -4.639  53.591  49.663  0.00  0.00    +0.000 C 
ENDBRANCH  30  31
ENDBRANCH  29  30
ENDBRANCH   5  29
TORSDOF 5
ENDMDL
MODEL 2
REMARK VINA RESULT:      -8.3      3.857      7.414
REMARK  Name = 338168
REMARK  5 active torsions:
REMARK  status: ('A' for Active; 'I' for Inactive)
REMARK    1  A    between atoms: C_6  and  C_10
REMARK    2  A    between atoms: C_14  and  O_18
REMARK    3  A    between atoms: N_17  and  C_21
REMARK    4  A    between atoms: C_21  and  C_24
REMARK    5  A    between atoms: C_24  and  C_27
REMARK                            x       y       z     vdW  Elec       q    Type
REMARK                         _______ _______ _______ _____ _____    ______ ____
ROOT
ATOM      1  C   UNL     1     -10.163  55.085  50.836  0.00  0.00    +0.000 A 
ATOM      2  C   UNL     1      -9.810  55.152  49.394  0.00  0.00    +0.000 A 
ATOM      3  C   UNL     1     -11.351  55.548  51.259  0.00  0.00    +0.000 A 
ATOM      4  O   UNL     1      -8.650  54.874  49.080  0.00  0.00    +0.000 OA
ATOM      5  N   UNL     1     -10.800  55.486  48.469  0.00  0.00    +0.000 N 
ATOM      6  C   UNL     1     -12.338  56.055  50.300  0.00  0.00    +0.000 A 
ATOM      7  C   UNL     1     -12.070  55.998  48.915  0.00  0.00    +0.000 A 
ATOM      8  C   UNL     1     -13.575  56.542  50.763  0.00  0.00    +0.000 A 
ATOM      9  C   UNL     1     -13.070  56.445  48.031  0.00  0.00    +0.000 A 
ATOM     10  C   UNL     1     -14.549  56.939  49.865  0.00  0.00    +0.000 A 
ATOM     11  C   UNL     1     -14.309  56.894  48.504  0.00  0.00    +0.000 A 
ATOM     12  F   UNL     1     -15.738  57.358  50.317  0.00  0.00    +0.000 F 
ENDROOT
BRANCH   1  18
ATOM     13  S   UNL     1      -6.875  54.871  53.067  0.00  0.00    +0.000 S 
ATOM     14  O   UNL     1      -7.164  55.965  53.965  0.00  0.00    +0.000 OA
ATOM     15  O   UNL     1      -5.559  54.652  52.520  0.00  0.00    +0.000 OA
ATOM     16  N   UNL     1      -7.909  54.978  51.782  0.00  0.00    +0.000 N 
ATOM     17  C   UNL     1      -7.410  53.398  53.822  0.00  0.00    +0.000 A 
ATOM     18  C   UNL     1      -9.216  54.506  51.833  0.00  0.00    +0.000 C 
ATOM     19  C   UNL     1      -8.692  52.948  53.522  0.00  0.00    +0.000 A 
ATOM     20  C   UNL     1      -6.549  52.697  54.666  0.00  0.00    +0.000 A 
ATOM     21  N   UNL     1      -9.604  53.605  52.682  0.00  0.00    +0.000 N 
ATOM     22  C   UNL     1      -9.099  51.736  54.085  0.00  0.00    +0.000 A 
ATOM     23  C   UNL     1      -6.981  51.502  55.232  0.00  0.00    +0.000 A 
ATOM     24  C   UNL     1      -8.253  51.015  54.934  0.00  0.00    +0.000 A 
ATOM     25  H   UNL     1      -7.588  55.392  50.949  0.00  0.00    +0.000 HD
ATOM     26  H   UNL     1     -10.560  53.377  52.739  0.00  0.00    +0.000 HD
ENDBRANCH   1  18
BRANCH   3  27
ATOM     27  O   UNL     1     -11.763  55.566  52.583  0.00  0.00    +0.000 OA
ATOM     28  H   UNL     1     -11.437  54.924  53.183  0.00  0.00    +0.000 HD
ENDBRANCH   3  27
BRANCH   5  29
ATOM     29  C   UNL     1     -10.451  55.488  47.030  0.00  0.00    +0.000 C 
BRANCH  29  30
ATOM     30  C   UNL     1     -10.314  54.103  46.370  0.00  0.00    +0.000 C 
BRANCH  30  31
ATOM     31  C   UNL     1     -11.291  53.876  45.253  0.00  0.00    +0.000 C 
ATOM     32  C   UNL     1     -12.044  52.587  45.059  0.00  0.00    +0.000 C 
ATOM     33  C   UNL     1     -10.898  52.926  44.149  0.00  0.00    +0.000 C 
ENDBRANCH  30  31
ENDBRANCH  29  30
ENDBRANCH   5  29
TORSDOF 5
ENDMDL
MODEL 3
REMARK VINA RESULT:      -8.3      3.853      5.441
REMARK  Name = 338168
REMARK  5 active torsions:
REMARK  status: ('A' for Active; 'I' for Inactive)
REMARK    1  A    between atoms: C_6  and  C_10
REMARK    2  A    between atoms: C_14  and  O_18
REMARK    3  A    between atoms: N_17  and  C_21
REMARK    4  A    between atoms: C_21  and  C_24
REMARK    5  A    between atoms: C_24  and  C_27
REMARK                            x       y       z     vdW  Elec       q    Type
REMARK                         _______ _______ _______ _____ _____    ______ ____
ROOT
ATOM      1  C   UNL     1     -11.493  55.797  48.949  0.00  0.00    +0.000 A 
ATOM      2  C   UNL     1     -10.400  55.115  49.689  0.00  0.00    +0.000 A 
ATOM      3  C   UNL     1     -11.682  55.543  47.644  0.00  0.00    +0.000 A 
ATOM      4  O   UNL     1     -10.160  55.506  50.834  0.00  0.00    +0.000 OA
ATOM      5  N   UNL     1      -9.729  54.054  49.080  0.00  0.00    +0.000 N 
ATOM      6  C   UNL     1     -10.864  54.539  46.954  0.00  0.00    +0.000 A 
ATOM      7  C   UNL     1      -9.914  53.786  47.677  0.00  0.00    +0.000 A 
ATOM      8  C   UNL     1     -11.072  54.291  45.585  0.00  0.00    +0.000 A 
ATOM      9  C   UNL     1      -9.193  52.795  46.984  0.00  0.00    +0.000 A 
ATOM     10  C   UNL     1     -10.371  53.285  44.943  0.00  0.00    +0.000 A 
ATOM     11  C   UNL     1      -9.435  52.534  45.630  0.00  0.00    +0.000 A 
ATOM     12  F   UNL     1     -10.611  53.029  43.651  0.00  0.00    +0.000 F 
ENDROOT
BRANCH   1  18
ATOM     13  S   UNL     1     -13.518  59.186  49.452  0.00  0.00    +0.000 S 
ATOM     14  O   UNL     1     -14.501  58.996  48.412  0.00  0.00    +0.000 OA
ATOM     15  O   UNL     1     -12.885  60.460  49.689  0.00  0.00    +0.000 OA
ATOM     16  N   UNL     1     -12.303  58.091  49.214  0.00  0.00    +0.000 N 
ATOM     17  C   UNL     1     -14.203  58.625  50.950  0.00  0.00    +0.000 A 
ATOM     18  C   UNL     1     -12.395  56.768  49.633  0.00  0.00    +0.000 C 
ATOM     19  C   UNL     1     -13.946  57.310  51.324  0.00  0.00    +0.000 A 
ATOM     20  C   UNL     1     -14.950  59.496  51.743  0.00  0.00    +0.000 A 
ATOM     21  N   UNL     1     -13.204  56.385  50.573  0.00  0.00    +0.000 N 
ATOM     22  C   UNL     1     -14.450  56.878  52.554  0.00  0.00    +0.000 A 
ATOM     23  C   UNL     1     -15.459  59.041  52.954  0.00  0.00    +0.000 A 
ATOM     24  C   UNL     1     -15.201  57.734  53.365  0.00  0.00    +0.000 A 
ATOM     25  H   UNL     1     -11.482  58.387  48.758  0.00  0.00    +0.000 HD
ATOM     26  H   UNL     1     -13.299  55.424  50.765  0.00  0.00    +0.000 HD
ENDBRANCH   1  18
BRANCH   3  27
ATOM     27  O   UNL     1     -12.646  56.151  46.854  0.00  0.00    +0.000 OA
ATOM     28  H   UNL     1     -13.259  55.627  46.377  0.00  0.00    +0.000 HD
ENDBRANCH   3  27
BRANCH   5  29
ATOM     29  C   UNL     1      -8.685  53.342  49.851  0.00  0.00    +0.000 C 
BRANCH  29  30
ATOM     30  C   UNL     1      -7.473  54.190  50.284  0.00  0.00    +0.000 C 
BRANCH  30  31
ATOM     31  C   UNL     1      -6.755  54.832  49.135  0.00  0.00    +0.000 C 
ATOM     32  C   UNL     1      -5.862  54.076  48.187  0.00  0.00    +0.000 C 
ATOM     33  C   UNL     1      -5.256  54.976  49.225  0.00  0.00    +0.000 C 
ENDBRANCH  30  31
ENDBRANCH  29  30
ENDBRANCH   5  29
TORSDOF 5
ENDMDL
MODEL 4
REMARK VINA RESULT:      -8.2      3.669      7.275
REMARK  Name = 338168
REMARK  5 active torsions:
REMARK  status: ('A' for Active; 'I' for Inactive)
REMARK    1  A    between atoms: C_6  and  C_10
REMARK    2  A    between atoms: C_14  and  O_18
REMARK    3  A    between atoms: N_17  and  C_21
REMARK    4  A    between atoms: C_21  and  C_24
REMARK    5  A    between atoms: C_24  and  C_27
REMARK                            x       y       z     vdW  Elec       q    Type
REMARK                         _______ _______ _______ _____ _____    ______ ____
ROOT
ATOM      1  C   UNL     1     -10.183  55.439  50.491  0.00  0.00    +0.000 A 
ATOM      2  C   UNL     1     -10.344  55.690  49.035  0.00  0.00    +0.000 A 
ATOM      3  C   UNL     1     -11.218  55.629  51.325  0.00  0.00    +0.000 A 
ATOM      4  O   UNL     1      -9.327  55.668  48.339  0.00  0.00    +0.000 OA
ATOM      5  N   UNL     1     -11.625  55.901  48.523  0.00  0.00    +0.000 N 
ATOM      6  C   UNL     1     -12.534  56.012  50.804  0.00  0.00    +0.000 A 
ATOM      7  C   UNL     1     -12.738  56.121  49.411  0.00  0.00    +0.000 A 
ATOM      8  C   UNL     1     -13.606  56.212  51.694  0.00  0.00    +0.000 A 
ATOM      9  C   UNL     1     -14.031  56.436  48.956  0.00  0.00    +0.000 A 
ATOM     10  C   UNL     1     -14.873  56.485  51.211  0.00  0.00    +0.000 A 
ATOM     11  C   UNL     1     -15.096  56.598  49.850  0.00  0.00    +0.000 A 
ATOM     12  F   UNL     1     -15.894  56.629  52.065  0.00  0.00    +0.000 F 
ENDROOT
BRANCH   1  18
ATOM     13  S   UNL     1      -6.595  53.718  50.471  0.00  0.00    +0.000 S 
ATOM     14  O   UNL     1      -5.906  54.686  49.650  0.00  0.00    +0.000 OA
ATOM     15  O   UNL     1      -6.398  52.297  50.314  0.00  0.00    +0.000 OA
ATOM     16  N   UNL     1      -8.219  53.988  50.327  0.00  0.00    +0.000 N 
ATOM     17  C   UNL     1      -6.320  54.131  52.138  0.00  0.00    +0.000 A 
ATOM     18  C   UNL     1      -8.880  54.975  51.050  0.00  0.00    +0.000 C 
ATOM     19  C   UNL     1      -7.266  54.933  52.768  0.00  0.00    +0.000 A 
ATOM     20  C   UNL     1      -5.200  53.632  52.803  0.00  0.00    +0.000 A 
ATOM     21  N   UNL     1      -8.411  55.466  52.157  0.00  0.00    +0.000 N 
ATOM     22  C   UNL     1      -7.073  55.218  54.122  0.00  0.00    +0.000 A 
ATOM     23  C   UNL     1      -5.015  53.943  54.145  0.00  0.00    +0.000 A 
ATOM     24  C   UNL     1      -5.957  54.729  54.809  0.00  0.00    +0.000 A 
ATOM     25  H   UNL     1      -8.739  53.430  49.705  0.00  0.00    +0.000 HD
ATOM     26  H   UNL     1      -8.870  56.229  52.578  0.00  0.00    +0.000 HD
ENDBRANCH   1  18
BRANCH   3  27
ATOM     27  O   UNL     1     -11.163  55.459  52.700  0.00  0.00    +0.000 OA
ATOM     28  H   UNL     1     -11.806  54.933  53.133  0.00  0.00    +0.000 HD
ENDBRANCH   3  27
BRANCH   5  29
ATOM     29  C   UNL     1     -11.780  56.087  47.062  0.00  0.00    +0.000 C 
BRANCH  29  30
ATOM     30  C   UNL     1     -12.077  54.812  46.250  0.00  0.00    +0.000 C 
BRANCH  30  31
ATOM     31  C   UNL     1     -10.861  54.226  45.596  0.00  0.00    +0.000 C 
ATOM     32  C   UNL     1     -10.918  53.115  44.582  0.00  0.00    +0.000 C 
ATOM     33  C   UNL     1     -10.453  52.826  45.981  0.00  0.00    +0.000 C 
ENDBRANCH  30  31
ENDBRANCH  29  30
ENDBRANCH   5  29
TORSDOF 5
ENDMDL
MODEL 5
REMARK VINA RESULT:      -8.1      3.956      5.802
REMARK  Name = 338168
REMARK  5 active torsions:
REMARK  status: ('A' for Active; 'I' for Inactive)
REMARK    1  A    between atoms: C_6  and  C_10
REMARK    2  A    between atoms: C_14  and  O_18
REMARK    3  A    between atoms: N_17  and  C_21
REMARK    4  A    between atoms: C_21  and  C_24
REMARK    5  A    between atoms: C_24  and  C_27
REMARK                            x       y       z     vdW  Elec       q    Type
REMARK                         _______ _______ _______ _____ _____    ______ ____
ROOT
ATOM      1  C   UNL     1     -11.632  55.627  48.923  0.00  0.00    +0.000 A 
ATOM      2  C   UNL     1     -10.637  54.822  49.680  0.00  0.00    +0.000 A 
ATOM      3  C   UNL     1     -11.775  55.446  47.600  0.00  0.00    +0.000 A 
ATOM      4  O   UNL     1     -10.423  55.141  50.852  0.00  0.00    +0.000 OA
ATOM      5  N   UNL     1     -10.026  53.737  49.052  0.00  0.00    +0.000 N 
ATOM      6  C   UNL     1     -11.009  54.408  46.902  0.00  0.00    +0.000 A 
ATOM      7  C   UNL     1     -10.162  53.546  47.631  0.00  0.00    +0.000 A 
ATOM      8  C   UNL     1     -11.168  54.238  45.514  0.00  0.00    +0.000 A 
ATOM      9  C   UNL     1      -9.491  52.529  46.926  0.00  0.00    +0.000 A 
ATOM     10  C   UNL     1     -10.521  53.206  44.858  0.00  0.00    +0.000 A 
ATOM     11  C   UNL     1      -9.685  52.349  45.551  0.00  0.00    +0.000 A 
ATOM     12  F   UNL     1     -10.716  53.027  43.546  0.00  0.00    +0.000 F 
ENDROOT
BRANCH   1  18
ATOM     13  S   UNL     1     -13.492  59.107  49.433  0.00  0.00    +0.000 S 
ATOM     14  O   UNL     1     -14.488  58.963  48.397  0.00  0.00    +0.000 OA
ATOM     15  O   UNL     1     -12.799  60.350  49.666  0.00  0.00    +0.000 OA
ATOM     16  N   UNL     1     -12.331  57.956  49.190  0.00  0.00    +0.000 N 
ATOM     17  C   UNL     1     -14.196  58.580  50.934  0.00  0.00    +0.000 A 
ATOM     18  C   UNL     1     -12.484  56.640  49.611  0.00  0.00    +0.000 C 
ATOM     19  C   UNL     1     -14.000  57.255  51.308  0.00  0.00    +0.000 A 
ATOM     20  C   UNL     1     -14.898  59.486  51.729  0.00  0.00    +0.000 A 
ATOM     21  N   UNL     1     -13.306  56.296  50.555  0.00  0.00    +0.000 N 
ATOM     22  C   UNL     1     -14.518  56.848  52.540  0.00  0.00    +0.000 A 
ATOM     23  C   UNL     1     -15.423  59.056  52.943  0.00  0.00    +0.000 A 
ATOM     24  C   UNL     1     -15.225  57.739  53.354  0.00  0.00    +0.000 A 
ATOM     25  H   UNL     1     -11.499  58.212  48.731  0.00  0.00    +0.000 HD
ATOM     26  H   UNL     1     -13.445  55.340  50.747  0.00  0.00    +0.000 HD
ENDBRANCH   1  18
BRANCH   3  27
ATOM     27  O   UNL     1     -12.645  56.167  46.797  0.00  0.00    +0.000 OA
ATOM     28  H   UNL     1     -13.558  56.198  47.005  0.00  0.00    +0.000 HD
ENDBRANCH   3  27
BRANCH   5  29
ATOM     29  C   UNL     1      -9.084  52.905  49.836  0.00  0.00    +0.000 C 
BRANCH  29  30
ATOM     30  C   UNL     1      -9.685  51.651  50.499  0.00  0.00    +0.000 C 
BRANCH  30  31
ATOM     31  C   UNL     1      -9.986  51.834  51.957  0.00  0.00    +0.000 C 
ATOM     32  C   UNL     1      -9.009  52.429  52.937  0.00  0.00    +0.000 C 
ATOM     33  C   UNL     1      -9.267  50.950  52.946  0.00  0.00    +0.000 C 
ENDBRANCH  30  31
ENDBRANCH  29  30
ENDBRANCH   5  29
TORSDOF 5
ENDMDL
MODEL 6
REMARK VINA RESULT:      -8.0      4.036      5.598
REMARK  Name = 338168
REMARK  5 active torsions:
REMARK  status: ('A' for Active; 'I' for Inactive)
REMARK    1  A    between atoms: C_6  and  C_10
REMARK    2  A    between atoms: C_14  and  O_18
REMARK    3  A    between atoms: N_17  and  C_21
REMARK    4  A    between atoms: C_21  and  C_24
REMARK    5  A    between atoms: C_24  and  C_27
REMARK                            x       y       z     vdW  Elec       q    Type
REMARK                         _______ _______ _______ _____ _____    ______ ____
ROOT
ATOM      1  C   UNL     1     -10.624  55.364  48.861  0.00  0.00    +0.000 A 
ATOM      2  C   UNL     1     -10.820  54.319  47.823  0.00  0.00    +0.000 A 
ATOM      3  C   UNL     1      -9.393  55.620  49.332  0.00  0.00    +0.000 A 
ATOM      4  O   UNL     1     -11.980  54.003  47.547  0.00  0.00    +0.000 OA
ATOM      5  N   UNL     1      -9.702  53.776  47.189  0.00  0.00    +0.000 N 
ATOM      6  C   UNL     1      -8.224  54.929  48.778  0.00  0.00    +0.000 A 
ATOM      7  C   UNL     1      -8.380  54.034  47.698  0.00  0.00    +0.000 A 
ATOM      8  C   UNL     1      -6.943  55.207  49.290  0.00  0.00    +0.000 A 
ATOM      9  C   UNL     1      -7.222  53.437  47.164  0.00  0.00    +0.000 A 
ATOM     10  C   UNL     1      -5.823  54.631  48.717  0.00  0.00    +0.000 A 
ATOM     11  C   UNL     1      -5.950  53.750  47.659  0.00  0.00    +0.000 A 
ATOM     12  F   UNL     1      -4.606  54.937  49.183  0.00  0.00    +0.000 F 
ENDROOT
BRANCH   1  18
ATOM     13  S   UNL     1     -13.909  57.605  48.716  0.00  0.00    +0.000 S 
ATOM     14  O   UNL     1     -14.814  56.611  48.187  0.00  0.00    +0.000 OA
ATOM     15  O   UNL     1     -13.916  58.973  48.258  0.00  0.00    +0.000 OA
ATOM     16  N   UNL     1     -12.366  57.048  48.518  0.00  0.00    +0.000 N 
ATOM     17  C   UNL     1     -14.060  57.604  50.449  0.00  0.00    +0.000 A 
ATOM     18  C   UNL     1     -11.780  56.142  49.395  0.00  0.00    +0.000 C 
ATOM     19  C   UNL     1     -13.176  56.809  51.172  0.00  0.00    +0.000 A 
ATOM     20  C   UNL     1     -15.019  58.408  51.064  0.00  0.00    +0.000 A 
ATOM     21  N   UNL     1     -12.192  55.980  50.615  0.00  0.00    +0.000 N 
ATOM     22  C   UNL     1     -13.262  56.852  52.566  0.00  0.00    +0.000 A 
ATOM     23  C   UNL     1     -15.101  58.422  52.452  0.00  0.00    +0.000 A 
ATOM     24  C   UNL     1     -14.216  57.651  53.205  0.00  0.00    +0.000 A 
ATOM     25  H   UNL     1     -11.841  57.370  47.750  0.00  0.00    +0.000 HD
ATOM     26  H   UNL     1     -11.805  55.258  51.162  0.00  0.00    +0.000 HD
ENDBRANCH   1  18
BRANCH   3  27
ATOM     27  O   UNL     1      -9.107  56.546  50.324  0.00  0.00    +0.000 OA
ATOM     28  H   UNL     1      -8.578  57.294  50.127  0.00  0.00    +0.000 HD
ENDBRANCH   3  27
BRANCH   5  29
ATOM     29  C   UNL     1      -9.913  52.782  46.112  0.00  0.00    +0.000 C 
BRANCH  29  30
ATOM     30  C   UNL     1      -9.897  53.335  44.674  0.00  0.00    +0.000 C 
BRANCH  30  31
ATOM     31  C   UNL     1      -9.046  52.532  43.736  0.00  0.00    +0.000 C 
ATOM     32  C   UNL     1      -8.760  52.943  42.316  0.00  0.00    +0.000 C 
ATOM     33  C   UNL     1      -9.725  51.825  42.589  0.00  0.00    +0.000 C 
ENDBRANCH  30  31
ENDBRANCH  29  30
ENDBRANCH   5  29
TORSDOF 5
ENDMDL
MODEL 7
REMARK VINA RESULT:      -8.0      3.126      4.313
REMARK  Name = 338168
REMARK  5 active torsions:
REMARK  status: ('A' for Active; 'I' for Inactive)
REMARK    1  A    between atoms: C_6  and  C_10
REMARK    2  A    between atoms: C_14  and  O_18
REMARK    3  A    between atoms: N_17  and  C_21
REMARK    4  A    between atoms: C_21  and  C_24
REMARK    5  A    between atoms: C_24  and  C_27
REMARK                            x       y       z     vdW  Elec       q    Type
REMARK                         _______ _______ _______ _____ _____    ______ ____
ROOT
ATOM      1  C   UNL     1     -12.110  54.451  50.297  0.00  0.00    +0.000 A 
ATOM      2  C   UNL     1     -11.993  53.898  48.923  0.00  0.00    +0.000 A 
ATOM      3  C   UNL     1     -11.508  53.830  51.324  0.00  0.00    +0.000 A 
ATOM      4  O   UNL     1     -12.699  54.402  48.046  0.00  0.00    +0.000 OA
ATOM      5  N   UNL     1     -11.078  52.873  48.681  0.00  0.00    +0.000 N 
ATOM      6  C   UNL     1     -10.671  52.648  51.094  0.00  0.00    +0.000 A 
ATOM      7  C   UNL     1     -10.440  52.192  49.778  0.00  0.00    +0.000 A 
ATOM      8  C   UNL     1     -10.053  52.007  52.184  0.00  0.00    +0.000 A 
ATOM      9  C   UNL     1      -9.585  51.088  49.602  0.00  0.00    +0.000 A 
ATOM     10  C   UNL     1      -9.189  50.947  51.973  0.00  0.00    +0.000 A 
ATOM     11  C   UNL     1      -8.949  50.482  50.693  0.00  0.00    +0.000 A 
ATOM     12  F   UNL     1      -8.573  50.375  53.014  0.00  0.00    +0.000 F 
ENDROOT
BRANCH   1  18
ATOM     13  S   UNL     1     -14.439  56.948  52.342  0.00  0.00    +0.000 S 
ATOM     14  O   UNL     1     -13.496  57.311  53.373  0.00  0.00    +0.000 OA
ATOM     15  O   UNL     1     -15.827  56.682  52.627  0.00  0.00    +0.000 OA
ATOM     16  N   UNL     1     -13.853  55.613  51.561  0.00  0.00    +0.000 N 
ATOM     17  C   UNL     1     -14.355  58.149  51.086  0.00  0.00    +0.000 A 
ATOM     18  C   UNL     1     -12.890  55.695  50.561  0.00  0.00    +0.000 C 
ATOM     19  C   UNL     1     -13.503  57.904  50.014  0.00  0.00    +0.000 A 
ATOM     20  C   UNL     1     -15.151  59.292  51.163  0.00  0.00    +0.000 A 
ATOM     21  N   UNL     1     -12.678  56.777  49.878  0.00  0.00    +0.000 N 
ATOM     22  C   UNL     1     -13.479  58.844  48.980  0.00  0.00    +0.000 A 
ATOM     23  C   UNL     1     -15.098  60.225  50.133  0.00  0.00    +0.000 A 
ATOM     24  C   UNL     1     -14.269  59.996  49.036  0.00  0.00    +0.000 A 
ATOM     25  H   UNL     1     -14.200  54.727  51.813  0.00  0.00    +0.000 HD
ATOM     26  H   UNL     1     -11.920  56.810  49.250  0.00  0.00    +0.000 HD
ENDBRANCH   1  18
BRANCH   3  27
ATOM     27  O   UNL     1     -11.584  54.241  52.646  0.00  0.00    +0.000 OA
ATOM     28  H   UNL     1     -12.172  54.928  52.891  0.00  0.00    +0.000 HD
ENDBRANCH   3  27
BRANCH   5  29
ATOM     29  C   UNL     1     -10.925  52.374  47.295  0.00  0.00    +0.000 C 
BRANCH  29  30
ATOM     30  C   UNL     1     -10.216  53.325  46.312  0.00  0.00    +0.000 C 
BRANCH  30  31
ATOM     31  C   UNL     1      -8.948  53.910  46.860  0.00  0.00    +0.000 C 
ATOM     32  C   UNL     1      -8.833  55.330  47.349  0.00  0.00    +0.000 C 
ATOM     33  C   UNL     1      -8.227  54.944  46.030  0.00  0.00    +0.000 C 
ENDBRANCH  30  31
ENDBRANCH  29  30
ENDBRANCH   5  29
TORSDOF 5
ENDMDL
MODEL 8
REMARK VINA RESULT:      -7.9      3.514      7.960
REMARK  Name = 338168
REMARK  5 active torsions:
REMARK  status: ('A' for Active; 'I' for Inactive)
REMARK    1  A    between atoms: C_6  and  C_10
REMARK    2  A    between atoms: C_14  and  O_18
REMARK    3  A    between atoms: N_17  and  C_21
REMARK    4  A    between atoms: C_21  and  C_24
REMARK    5  A    between atoms: C_24  and  C_27
REMARK                            x       y       z     vdW  Elec       q    Type
REMARK                         _______ _______ _______ _____ _____    ______ ____
ROOT
ATOM      1  C   UNL     1      -9.989  54.335  50.758  0.00  0.00    +0.000 A 
ATOM      2  C   UNL     1     -11.117  55.255  51.057  0.00  0.00    +0.000 A 
ATOM      3  C   UNL     1      -9.786  53.908  49.501  0.00  0.00    +0.000 A 
ATOM      4  O   UNL     1     -11.365  55.482  52.243  0.00  0.00    +0.000 OA
ATOM      5  N   UNL     1     -11.812  55.841  49.998  0.00  0.00    +0.000 N 
ATOM      6  C   UNL     1     -10.623  54.399  48.402  0.00  0.00    +0.000 A 
ATOM      7  C   UNL     1     -11.610  55.377  48.650  0.00  0.00    +0.000 A 
ATOM      8  C   UNL     1     -10.399  53.935  47.092  0.00  0.00    +0.000 A 
ATOM      9  C   UNL     1     -12.352  55.859  47.554  0.00  0.00    +0.000 A 
ATOM     10  C   UNL     1     -11.121  54.457  46.033  0.00  0.00    +0.000 A 
ATOM     11  C   UNL     1     -12.094  55.415  46.252  0.00  0.00    +0.000 A 
ATOM     12  F   UNL     1     -10.867  54.040  44.787  0.00  0.00    +0.000 F 
ENDROOT
BRANCH   1  18
ATOM     13  S   UNL     1      -6.742  54.358  53.058  0.00  0.00    +0.000 S 
ATOM     14  O   UNL     1      -7.028  55.559  53.808  0.00  0.00    +0.000 OA
ATOM     15  O   UNL     1      -5.420  54.054  52.567  0.00  0.00    +0.000 OA
ATOM     16  N   UNL     1      -7.753  54.317  51.751  0.00  0.00    +0.000 N 
ATOM     17  C   UNL     1      -7.313  52.997  53.981  0.00  0.00    +0.000 A 
ATOM     18  C   UNL     1      -9.068  53.873  51.836  0.00  0.00    +0.000 C 
ATOM     19  C   UNL     1      -8.596  52.531  53.716  0.00  0.00    +0.000 A 
ATOM     20  C   UNL     1      -6.477  52.396  54.922  0.00  0.00    +0.000 A 
ATOM     21  N   UNL     1      -9.484  53.090  52.784  0.00  0.00    +0.000 N 
ATOM     22  C   UNL     1      -9.031  51.404  54.418  0.00  0.00    +0.000 A 
ATOM     23  C   UNL     1      -6.936  51.287  55.625  0.00  0.00    +0.000 A 
ATOM     24  C   UNL     1      -8.211  50.784  55.366  0.00  0.00    +0.000 A 
ATOM     25  H   UNL     1      -7.411  54.619  50.879  0.00  0.00    +0.000 HD
ATOM     26  H   UNL     1     -10.444  52.884  52.852  0.00  0.00    +0.000 HD
ENDBRANCH   1  18
BRANCH   3  27
ATOM     27  O   UNL     1      -8.788  53.023  49.122  0.00  0.00    +0.000 OA
ATOM     28  H   UNL     1      -8.328  53.153  48.316  0.00  0.00    +0.000 HD
ENDBRANCH   3  27
BRANCH   5  29
ATOM     29  C   UNL     1     -12.893  56.805  50.309  0.00  0.00    +0.000 C 
BRANCH  29  30
ATOM     30  C   UNL     1     -14.257  56.189  50.676  0.00  0.00    +0.000 C 
BRANCH  30  31
ATOM     31  C   UNL     1     -15.225  57.183  51.245  0.00  0.00    +0.000 C 
ATOM     32  C   UNL     1     -14.825  58.280  52.195  0.00  0.00    +0.000 C 
ATOM     33  C   UNL     1     -15.568  57.081  52.711  0.00  0.00    +0.000 C 
ENDBRANCH  30  31
ENDBRANCH  29  30
ENDBRANCH   5  29
TORSDOF 5
ENDMDL
MODEL 9
REMARK VINA RESULT:      -7.9      3.602      7.543
REMARK  Name = 338168
REMARK  5 active torsions:
REMARK  status: ('A' for Active; 'I' for Inactive)
REMARK    1  A    between atoms: C_6  and  C_10
REMARK    2  A    between atoms: C_14  and  O_18
REMARK    3  A    between atoms: N_17  and  C_21
REMARK    4  A    between atoms: C_21  and  C_24
REMARK    5  A    between atoms: C_24  and  C_27
REMARK                            x       y       z     vdW  Elec       q    Type
REMARK                         _______ _______ _______ _____ _____    ______ ____
ROOT
ATOM      1  C   UNL     1     -10.002  55.444  50.429  0.00  0.00    +0.000 A 
ATOM      2  C   UNL     1     -10.202  55.702  48.979  0.00  0.00    +0.000 A 
ATOM      3  C   UNL     1     -11.020  55.609  51.288  0.00  0.00    +0.000 A 
ATOM      4  O   UNL     1      -9.201  55.703  48.259  0.00  0.00    +0.000 OA
ATOM      5  N   UNL     1     -11.498  55.893  48.498  0.00  0.00    +0.000 N 
ATOM      6  C   UNL     1     -12.356  55.972  50.800  0.00  0.00    +0.000 A 
ATOM      7  C   UNL     1     -12.593  56.086  49.414  0.00  0.00    +0.000 A 
ATOM      8  C   UNL     1     -13.409  56.146  51.716  0.00  0.00    +0.000 A 
ATOM      9  C   UNL     1     -13.903  56.381  48.991  0.00  0.00    +0.000 A 
ATOM     10  C   UNL     1     -14.692  56.399  51.265  0.00  0.00    +0.000 A 
ATOM     11  C   UNL     1     -14.949  56.517  49.911  0.00  0.00    +0.000 A 
ATOM     12  F   UNL     1     -15.695  56.518  52.144  0.00  0.00    +0.000 F 
ENDROOT
BRANCH   1  18
ATOM     13  S   UNL     1      -7.123  54.915  53.125  0.00  0.00    +0.000 S 
ATOM     14  O   UNL     1      -7.787  53.929  53.945  0.00  0.00    +0.000 OA
ATOM     15  O   UNL     1      -6.359  55.999  53.693  0.00  0.00    +0.000 OA
ATOM     16  N   UNL     1      -8.254  55.602  52.134  0.00  0.00    +0.000 N 
ATOM     17  C   UNL     1      -6.120  54.075  51.978  0.00  0.00    +0.000 A 
ATOM     18  C   UNL     1      -8.678  55.000  50.954  0.00  0.00    +0.000 C 
ATOM     19  C   UNL     1      -6.663  53.798  50.728  0.00  0.00    +0.000 A 
ATOM     20  C   UNL     1      -4.810  53.736  52.318  0.00  0.00    +0.000 A 
ATOM     21  N   UNL     1      -7.970  54.113  50.326  0.00  0.00    +0.000 N 
ATOM     22  C   UNL     1      -5.837  53.174  49.789  0.00  0.00    +0.000 A 
ATOM     23  C   UNL     1      -4.011  53.097  51.376  0.00  0.00    +0.000 A 
ATOM     24  C   UNL     1      -4.521  52.824  50.107  0.00  0.00    +0.000 A 
ATOM     25  H   UNL     1      -8.642  56.469  52.389  0.00  0.00    +0.000 HD
ATOM     26  H   UNL     1      -8.358  53.650  49.548  0.00  0.00    +0.000 HD
ENDBRANCH   1  18
BRANCH   3  27
ATOM     27  O   UNL     1     -10.930  55.431  52.660  0.00  0.00    +0.000 OA
ATOM     28  H   UNL     1     -11.601  55.767  53.221  0.00  0.00    +0.000 HD
ENDBRANCH   3  27
BRANCH   5  29
ATOM     29  C   UNL     1     -11.691  56.086  47.043  0.00  0.00    +0.000 C 
BRANCH  29  30
ATOM     30  C   UNL     1     -12.020  54.817  46.234  0.00  0.00    +0.000 C 
BRANCH  30  31
ATOM     31  C   UNL     1     -10.816  54.189  45.596  0.00  0.00    +0.000 C 
ATOM     32  C   UNL     1     -10.899  53.093  44.566  0.00  0.00    +0.000 C 
ATOM     33  C   UNL     1     -10.475  52.767  45.970  0.00  0.00    +0.000 C 
ENDBRANCH  30  31
ENDBRANCH  29  30
ENDBRANCH   5  29
TORSDOF 5
ENDMDL
