MODEL 1
REMARK VINA RESULT:      -8.2      0.000      0.000
REMARK  Name = 298159
REMARK  7 active torsions:
REMARK  status: ('A' for Active; 'I' for Inactive)
REMARK    1  A    between atoms: C_6  and  C_10
REMARK    2  A    between atoms: C_14  and  O_18
REMARK    3  A    between atoms: N_17  and  C_21
REMARK    4  A    between atoms: C_21  and  C_24
REMARK    5  A    between atoms: C_24  and  C_27
REMARK    6  A    between atoms: C_27  and  C_28
REMARK    7  A    between atoms: C_27  and  C_29
REMARK                            x       y       z     vdW  Elec       q    Type
REMARK                         _______ _______ _______ _____ _____    ______ ____
ROOT
ATOM      1  C   UNL     1     -10.182  54.422  52.371  0.00  0.00    +0.000 A 
ATOM      2  C   UNL     1      -8.788  54.960  52.328  0.00  0.00    +0.000 A 
ATOM      3  C   UNL     1     -10.446  53.299  53.059  0.00  0.00    +0.000 A 
ATOM      4  O   UNL     1      -8.606  56.058  51.790  0.00  0.00    +0.000 OA
ATOM      5  N   UNL     1      -7.762  54.220  52.905  0.00  0.00    +0.000 N 
ATOM      6  C   UNL     1      -9.375  52.603  53.789  0.00  0.00    +0.000 A 
ATOM      7  C   UNL     1      -8.053  53.078  53.717  0.00  0.00    +0.000 A 
ATOM      8  C   UNL     1      -9.664  51.476  54.581  0.00  0.00    +0.000 A 
ATOM      9  C   UNL     1      -7.064  52.430  54.476  0.00  0.00    +0.000 A 
ATOM     10  C   UNL     1      -8.664  50.829  55.303  0.00  0.00    +0.000 A 
ATOM     11  C   UNL     1      -7.364  51.309  55.253  0.00  0.00    +0.000 A 
ENDROOT
BRANCH   1  17
ATOM     12  S   UNL     1     -12.352  56.116  49.561  0.00  0.00    +0.000 S 
ATOM     13  O   UNL     1     -13.221  55.182  48.872  0.00  0.00    +0.000 OA
ATOM     14  O   UNL     1     -11.640  57.136  48.815  0.00  0.00    +0.000 OA
ATOM     15  N   UNL     1     -11.261  55.253  50.393  0.00  0.00    +0.000 N 
ATOM     16  C   UNL     1     -13.371  56.976  50.703  0.00  0.00    +0.000 A 
ATOM     17  C   UNL     1     -11.295  55.203  51.692  0.00  0.00    +0.000 C 
ATOM     18  C   UNL     1     -13.186  56.721  52.051  0.00  0.00    +0.000 A 
ATOM     19  C   UNL     1     -14.319  57.895  50.244  0.00  0.00    +0.000 A 
ATOM     20  N   UNL     1     -12.243  55.798  52.495  0.00  0.00    +0.000 N 
ATOM     21  C   UNL     1     -14.032  57.358  52.965  0.00  0.00    +0.000 A 
ATOM     22  C   UNL     1     -15.130  58.550  51.168  0.00  0.00    +0.000 A 
ATOM     23  C   UNL     1     -14.994  58.274  52.527  0.00  0.00    +0.000 A 
ATOM     24  H   UNL     1     -10.560  54.759  49.908  0.00  0.00    +0.000 HD
ATOM     25  H   UNL     1     -12.256  55.553  53.448  0.00  0.00    +0.000 HD
ENDBRANCH   1  17
BRANCH   3  26
ATOM     26  O   UNL     1     -11.705  52.737  53.188  0.00  0.00    +0.000 OA
ATOM     27  H   UNL     1     -12.323  53.107  53.789  0.00  0.00    +0.000 HD
ENDBRANCH   3  26
BRANCH   5  28
ATOM     28  C   UNL     1      -6.394  54.739  52.784  0.00  0.00    +0.000 C 
BRANCH  28  29
ATOM     29  C   UNL     1      -5.568  54.202  51.601  0.00  0.00    +0.000 C 
BRANCH  29  30
ATOM     30  C   UNL     1      -4.164  53.663  51.922  0.00  0.00    +0.000 C 
ATOM     31  C   UNL     1      -3.847  53.699  53.415  0.00  0.00    +0.000 C 
ATOM     32  C   UNL     1      -4.064  52.219  51.411  0.00  0.00    +0.000 C 
ENDBRANCH  29  30
ENDBRANCH  28  29
ENDBRANCH   5  28
TORSDOF 5
ENDMDL
MODEL 2
REMARK VINA RESULT:      -8.1      4.105      4.959
REMARK  Name = 298159
REMARK  7 active torsions:
REMARK  status: ('A' for Active; 'I' for Inactive)
REMARK    1  A    between atoms: C_6  and  C_10
REMARK    2  A    between atoms: C_14  and  O_18
REMARK    3  A    between atoms: N_17  and  C_21
REMARK    4  A    between atoms: C_21  and  C_24
REMARK    5  A    between atoms: C_24  and  C_27
REMARK    6  A    between atoms: C_27  and  C_28
REMARK    7  A    between atoms: C_27  and  C_29
REMARK                            x       y       z     vdW  Elec       q    Type
REMARK                         _______ _______ _______ _____ _____    ______ ____
ROOT
ATOM      1  C   UNL     1     -12.533  54.213  49.716  0.00  0.00    +0.000 A 
ATOM      2  C   UNL     1     -11.994  54.134  48.324  0.00  0.00    +0.000 A 
ATOM      3  C   UNL     1     -12.260  53.235  50.597  0.00  0.00    +0.000 A 
ATOM      4  O   UNL     1     -12.161  55.107  47.581  0.00  0.00    +0.000 OA
ATOM      5  N   UNL     1     -11.318  52.986  47.927  0.00  0.00    +0.000 N 
ATOM      6  C   UNL     1     -11.419  52.094  50.206  0.00  0.00    +0.000 A 
ATOM      7  C   UNL     1     -10.946  51.990  48.886  0.00  0.00    +0.000 A 
ATOM      8  C   UNL     1     -11.060  51.113  51.150  0.00  0.00    +0.000 A 
ATOM      9  C   UNL     1     -10.091  50.923  48.561  0.00  0.00    +0.000 A 
ATOM     10  C   UNL     1     -10.236  50.047  50.801  0.00  0.00    +0.000 A 
ATOM     11  C   UNL     1      -9.748  49.954  49.506  0.00  0.00    +0.000 A 
ENDROOT
BRANCH   1  17
ATOM     12  S   UNL     1     -15.399  56.463  51.198  0.00  0.00    +0.000 S 
ATOM     13  O   UNL     1     -15.337  56.587  52.641  0.00  0.00    +0.000 OA
ATOM     14  O   UNL     1     -16.677  56.284  50.535  0.00  0.00    +0.000 OA
ATOM     15  N   UNL     1     -14.436  55.232  50.766  0.00  0.00    +0.000 N 
ATOM     16  C   UNL     1     -14.725  57.950  50.553  0.00  0.00    +0.000 A 
ATOM     17  C   UNL     1     -13.320  55.443  50.133  0.00  0.00    +0.000 C 
ATOM     18  C   UNL     1     -13.498  57.879  49.916  0.00  0.00    +0.000 A 
ATOM     19  C   UNL     1     -15.430  59.151  50.676  0.00  0.00    +0.000 A 
ATOM     20  N   UNL     1     -12.802  56.678  49.808  0.00  0.00    +0.000 N 
ATOM     21  C   UNL     1     -12.926  59.068  49.451  0.00  0.00    +0.000 A 
ATOM     22  C   UNL     1     -14.865  60.322  50.175  0.00  0.00    +0.000 A 
ATOM     23  C   UNL     1     -13.609  60.282  49.571  0.00  0.00    +0.000 A 
ATOM     24  H   UNL     1     -14.700  54.309  50.986  0.00  0.00    +0.000 HD
ATOM     25  H   UNL     1     -11.876  56.714  49.476  0.00  0.00    +0.000 HD
ENDBRANCH   1  17
BRANCH   3  26
ATOM     26  O   UNL     1     -12.682  53.230  51.916  0.00  0.00    +0.000 OA
ATOM     27  H   UNL     1     -13.546  53.524  52.132  0.00  0.00    +0.000 HD
ENDBRANCH   3  26
BRANCH   5  28
ATOM     28  C   UNL     1     -10.864  52.907  46.534  0.00  0.00    +0.000 C 
BRANCH  28  29
ATOM     29  C   UNL     1      -9.377  53.219  46.288  0.00  0.00    +0.000 C 
BRANCH  29  30
ATOM     30  C   UNL     1      -8.986  54.703  46.181  0.00  0.00    +0.000 C 
ATOM     31  C   UNL     1      -8.571  55.300  47.523  0.00  0.00    +0.000 C 
ATOM     32  C   UNL     1      -7.830  54.835  45.180  0.00  0.00    +0.000 C 
ENDBRANCH  29  30
ENDBRANCH  28  29
ENDBRANCH   5  28
TORSDOF 5
ENDMDL
MODEL 3
REMARK VINA RESULT:      -7.9      2.073      2.828
REMARK  Name = 298159
REMARK  7 active torsions:
REMARK  status: ('A' for Active; 'I' for Inactive)
REMARK    1  A    between atoms: C_6  and  C_10
REMARK    2  A    between atoms: C_14  and  O_18
REMARK    3  A    between atoms: N_17  and  C_21
REMARK    4  A    between atoms: C_21  and  C_24
REMARK    5  A    between atoms: C_24  and  C_27
REMARK    6  A    between atoms: C_27  and  C_28
REMARK    7  A    between atoms: C_27  and  C_29
REMARK                            x       y       z     vdW  Elec       q    Type
REMARK                         _______ _______ _______ _____ _____    ______ ____
ROOT
ATOM      1  C   UNL     1     -11.537  54.027  51.205  0.00  0.00    +0.000 A 
ATOM      2  C   UNL     1     -10.608  54.062  52.376  0.00  0.00    +0.000 A 
ATOM      3  C   UNL     1     -11.641  52.909  50.466  0.00  0.00    +0.000 A 
ATOM      4  O   UNL     1     -10.630  55.060  53.104  0.00  0.00    +0.000 OA
ATOM      5  N   UNL     1      -9.775  52.973  52.608  0.00  0.00    +0.000 N 
ATOM      6  C   UNL     1     -10.860  51.712  50.811  0.00  0.00    +0.000 A 
ATOM      7  C   UNL     1      -9.951  51.752  51.883  0.00  0.00    +0.000 A 
ATOM      8  C   UNL     1     -11.030  50.515  50.091  0.00  0.00    +0.000 A 
ATOM      9  C   UNL     1      -9.268  50.573  52.229  0.00  0.00    +0.000 A 
ATOM     10  C   UNL     1     -10.322  49.365  50.430  0.00  0.00    +0.000 A 
ATOM     11  C   UNL     1      -9.443  49.394  51.502  0.00  0.00    +0.000 A 
ENDROOT
BRANCH   1  17
ATOM     12  S   UNL     1     -13.191  57.044  49.300  0.00  0.00    +0.000 S 
ATOM     13  O   UNL     1     -14.276  56.640  48.426  0.00  0.00    +0.000 OA
ATOM     14  O   UNL     1     -12.238  58.048  48.866  0.00  0.00    +0.000 OA
ATOM     15  N   UNL     1     -12.363  55.712  49.708  0.00  0.00    +0.000 N 
ATOM     16  C   UNL     1     -13.948  57.694  50.745  0.00  0.00    +0.000 A 
ATOM     17  C   UNL     1     -12.407  55.238  50.918  0.00  0.00    +0.000 C 
ATOM     18  C   UNL     1     -13.835  56.963  51.916  0.00  0.00    +0.000 A 
ATOM     19  C   UNL     1     -14.624  58.917  50.695  0.00  0.00    +0.000 A 
ATOM     20  N   UNL     1     -13.167  55.743  51.952  0.00  0.00    +0.000 N 
ATOM     21  C   UNL     1     -14.484  57.444  53.058  0.00  0.00    +0.000 A 
ATOM     22  C   UNL     1     -15.234  59.401  51.850  0.00  0.00    +0.000 A 
ATOM     23  C   UNL     1     -15.173  58.660  53.029  0.00  0.00    +0.000 A 
ATOM     24  H   UNL     1     -11.817  55.253  49.029  0.00  0.00    +0.000 HD
ATOM     25  H   UNL     1     -13.242  55.203  52.771  0.00  0.00    +0.000 HD
ENDBRANCH   1  17
BRANCH   3  26
ATOM     26  O   UNL     1     -12.494  52.764  49.384  0.00  0.00    +0.000 OA
ATOM     27  H   UNL     1     -13.327  53.193  49.384  0.00  0.00    +0.000 HD
ENDBRANCH   3  26
BRANCH   5  28
ATOM     28  C   UNL     1      -8.823  53.066  53.722  0.00  0.00    +0.000 C 
BRANCH  28  29
ATOM     29  C   UNL     1      -7.439  53.647  53.382  0.00  0.00    +0.000 C 
BRANCH  29  30
ATOM     30  C   UNL     1      -6.933  54.799  54.266  0.00  0.00    +0.000 C 
ATOM     31  C   UNL     1      -5.456  54.659  54.628  0.00  0.00    +0.000 C 
ATOM     32  C   UNL     1      -7.154  56.123  53.521  0.00  0.00    +0.000 C 
ENDBRANCH  29  30
ENDBRANCH  28  29
ENDBRANCH   5  28
TORSDOF 5
ENDMDL
MODEL 4
REMARK VINA RESULT:      -7.9      2.623      8.046
REMARK  Name = 298159
REMARK  7 active torsions:
REMARK  status: ('A' for Active; 'I' for Inactive)
REMARK    1  A    between atoms: C_6  and  C_10
REMARK    2  A    between atoms: C_14  and  O_18
REMARK    3  A    between atoms: N_17  and  C_21
REMARK    4  A    between atoms: C_21  and  C_24
REMARK    5  A    between atoms: C_24  and  C_27
REMARK    6  A    between atoms: C_27  and  C_28
REMARK    7  A    between atoms: C_27  and  C_29
REMARK                            x       y       z     vdW  Elec       q    Type
REMARK                         _______ _______ _______ _____ _____    ______ ____
ROOT
ATOM      1  C   UNL     1     -10.066  54.692  50.936  0.00  0.00    +0.000 A 
ATOM      2  C   UNL     1     -11.396  55.222  51.367  0.00  0.00    +0.000 A 
ATOM      3  C   UNL     1      -9.759  54.633  49.629  0.00  0.00    +0.000 A 
ATOM      4  O   UNL     1     -11.595  55.377  52.577  0.00  0.00    +0.000 OA
ATOM      5  N   UNL     1     -12.342  55.535  50.397  0.00  0.00    +0.000 N 
ATOM      6  C   UNL     1     -10.716  55.105  48.617  0.00  0.00    +0.000 A 
ATOM      7  C   UNL     1     -11.986  55.564  49.011  0.00  0.00    +0.000 A 
ATOM      8  C   UNL     1     -10.365  55.125  47.254  0.00  0.00    +0.000 A 
ATOM      9  C   UNL     1     -12.853  56.068  48.027  0.00  0.00    +0.000 A 
ATOM     10  C   UNL     1     -11.249  55.602  46.291  0.00  0.00    +0.000 A 
ATOM     11  C   UNL     1     -12.493  56.077  46.678  0.00  0.00    +0.000 A 
ENDROOT
BRANCH   1  17
ATOM     12  S   UNL     1      -6.758  54.607  53.063  0.00  0.00    +0.000 S 
ATOM     13  O   UNL     1      -6.694  55.659  54.059  0.00  0.00    +0.000 OA
ATOM     14  O   UNL     1      -5.581  54.261  52.289  0.00  0.00    +0.000 OA
ATOM     15  N   UNL     1      -7.946  54.981  52.025  0.00  0.00    +0.000 N 
ATOM     16  C   UNL     1      -7.212  53.148  53.927  0.00  0.00    +0.000 A 
ATOM     17  C   UNL     1      -9.052  54.298  51.996  0.00  0.00    +0.000 C 
ATOM     18  C   UNL     1      -8.477  52.631  53.699  0.00  0.00    +0.000 A 
ATOM     19  C   UNL     1      -6.306  52.537  54.798  0.00  0.00    +0.000 A 
ATOM     20  N   UNL     1      -9.373  53.253  52.836  0.00  0.00    +0.000 N 
ATOM     21  C   UNL     1      -8.868  51.502  54.427  0.00  0.00    +0.000 A 
ATOM     22  C   UNL     1      -6.696  51.391  55.488  0.00  0.00    +0.000 A 
ATOM     23  C   UNL     1      -7.981  50.880  55.310  0.00  0.00    +0.000 A 
ATOM     24  H   UNL     1      -7.829  55.737  51.405  0.00  0.00    +0.000 HD
ATOM     25  H   UNL     1     -10.301  52.925  52.824  0.00  0.00    +0.000 HD
ENDBRANCH   1  17
BRANCH   3  26
ATOM     26  O   UNL     1      -8.546  54.190  49.130  0.00  0.00    +0.000 OA
ATOM     27  H   UNL     1      -8.258  54.469  48.282  0.00  0.00    +0.000 HD
ENDBRANCH   3  26
BRANCH   5  28
ATOM     28  C   UNL     1     -13.663  55.985  50.852  0.00  0.00    +0.000 C 
BRANCH  28  29
ATOM     29  C   UNL     1     -13.781  57.475  51.220  0.00  0.00    +0.000 C 
BRANCH  29  30
ATOM     30  C   UNL     1     -14.532  57.813  52.519  0.00  0.00    +0.000 C 
ATOM     31  C   UNL     1     -15.011  59.262  52.563  0.00  0.00    +0.000 C 
ATOM     32  C   UNL     1     -15.736  56.870  52.649  0.00  0.00    +0.000 C 
ENDBRANCH  29  30
ENDBRANCH  28  29
ENDBRANCH   5  28
TORSDOF 5
ENDMDL
MODEL 5
REMARK VINA RESULT:      -7.8      4.428      6.258
REMARK  Name = 298159
REMARK  7 active torsions:
REMARK  status: ('A' for Active; 'I' for Inactive)
REMARK    1  A    between atoms: C_6  and  C_10
REMARK    2  A    between atoms: C_14  and  O_18
REMARK    3  A    between atoms: N_17  and  C_21
REMARK    4  A    between atoms: C_21  and  C_24
REMARK    5  A    between atoms: C_24  and  C_27
REMARK    6  A    between atoms: C_27  and  C_28
REMARK    7  A    between atoms: C_27  and  C_29
REMARK                            x       y       z     vdW  Elec       q    Type
REMARK                         _______ _______ _______ _____ _____    ______ ____
ROOT
ATOM      1  C   UNL     1     -11.391  56.197  48.498  0.00  0.00    +0.000 A 
ATOM      2  C   UNL     1     -11.767  55.586  47.187  0.00  0.00    +0.000 A 
ATOM      3  C   UNL     1     -10.153  56.018  48.990  0.00  0.00    +0.000 A 
ATOM      4  O   UNL     1     -12.870  55.873  46.708  0.00  0.00    +0.000 OA
ATOM      5  N   UNL     1     -10.864  54.741  46.553  0.00  0.00    +0.000 N 
ATOM      6  C   UNL     1      -9.157  55.240  48.237  0.00  0.00    +0.000 A 
ATOM      7  C   UNL     1      -9.517  54.625  47.025  0.00  0.00    +0.000 A 
ATOM      8  C   UNL     1      -7.836  55.124  48.708  0.00  0.00    +0.000 A 
ATOM      9  C   UNL     1      -8.526  53.944  46.297  0.00  0.00    +0.000 A 
ATOM     10  C   UNL     1      -6.876  54.419  47.987  0.00  0.00    +0.000 A 
ATOM     11  C   UNL     1      -7.221  53.832  46.779  0.00  0.00    +0.000 A 
ENDROOT
BRANCH   1  17
ATOM     12  S   UNL     1     -13.588  59.319  49.446  0.00  0.00    +0.000 S 
ATOM     13  O   UNL     1     -14.759  59.468  48.604  0.00  0.00    +0.000 OA
ATOM     14  O   UNL     1     -12.808  60.482  49.825  0.00  0.00    +0.000 OA
ATOM     15  N   UNL     1     -12.591  58.264  48.723  0.00  0.00    +0.000 N 
ATOM     16  C   UNL     1     -14.157  58.610  50.948  0.00  0.00    +0.000 A 
ATOM     17  C   UNL     1     -12.399  57.076  49.218  0.00  0.00    +0.000 C 
ATOM     18  C   UNL     1     -13.793  57.302  51.222  0.00  0.00    +0.000 A 
ATOM     19  C   UNL     1     -14.936  59.364  51.830  0.00  0.00    +0.000 A 
ATOM     20  N   UNL     1     -13.023  56.558  50.332  0.00  0.00    +0.000 N 
ATOM     21  C   UNL     1     -14.290  56.710  52.388  0.00  0.00    +0.000 A 
ATOM     22  C   UNL     1     -15.393  58.773  53.006  0.00  0.00    +0.000 A 
ATOM     23  C   UNL     1     -15.078  57.443  53.280  0.00  0.00    +0.000 A 
ATOM     24  H   UNL     1     -12.123  58.526  47.898  0.00  0.00    +0.000 HD
ATOM     25  H   UNL     1     -12.918  55.596  50.510  0.00  0.00    +0.000 HD
ENDBRANCH   1  17
BRANCH   3  26
ATOM     26  O   UNL     1      -9.696  56.567  50.176  0.00  0.00    +0.000 OA
ATOM     27  H   UNL     1      -9.185  57.352  50.163  0.00  0.00    +0.000 HD
ENDBRANCH   3  26
BRANCH   5  28
ATOM     28  C   UNL     1     -11.289  54.099  45.303  0.00  0.00    +0.000 C 
BRANCH  28  29
ATOM     29  C   UNL     1     -11.863  52.677  45.433  0.00  0.00    +0.000 C 
BRANCH  29  30
ATOM     30  C   UNL     1     -11.167  51.570  44.625  0.00  0.00    +0.000 C 
ATOM     31  C   UNL     1     -10.318  52.121  43.481  0.00  0.00    +0.000 C 
ATOM     32  C   UNL     1     -10.279  50.753  45.574  0.00  0.00    +0.000 C 
ENDBRANCH  29  30
ENDBRANCH  28  29
ENDBRANCH   5  28
TORSDOF 5
ENDMDL
MODEL 6
REMARK VINA RESULT:      -7.8      3.258      7.491
REMARK  Name = 298159
REMARK  7 active torsions:
REMARK  status: ('A' for Active; 'I' for Inactive)
REMARK    1  A    between atoms: C_6  and  C_10
REMARK    2  A    between atoms: C_14  and  O_18
REMARK    3  A    between atoms: N_17  and  C_21
REMARK    4  A    between atoms: C_21  and  C_24
REMARK    5  A    between atoms: C_24  and  C_27
REMARK    6  A    between atoms: C_27  and  C_28
REMARK    7  A    between atoms: C_27  and  C_29
REMARK                            x       y       z     vdW  Elec       q    Type
REMARK                         _______ _______ _______ _____ _____    ______ ____
ROOT
ATOM      1  C   UNL     1     -10.214  55.158  50.812  0.00  0.00    +0.000 A 
ATOM      2  C   UNL     1      -9.789  55.088  49.380  0.00  0.00    +0.000 A 
ATOM      3  C   UNL     1     -11.427  55.642  51.128  0.00  0.00    +0.000 A 
ATOM      4  O   UNL     1      -8.720  54.525  49.119  0.00  0.00    +0.000 OA
ATOM      5  N   UNL     1     -10.614  55.637  48.405  0.00  0.00    +0.000 N 
ATOM      6  C   UNL     1     -12.351  56.086  50.072  0.00  0.00    +0.000 A 
ATOM      7  C   UNL     1     -11.942  56.064  48.727  0.00  0.00    +0.000 A 
ATOM      8  C   UNL     1     -13.653  56.511  50.394  0.00  0.00    +0.000 A 
ATOM      9  C   UNL     1     -12.868  56.432  47.737  0.00  0.00    +0.000 A 
ATOM     10  C   UNL     1     -14.547  56.901  49.401  0.00  0.00    +0.000 A 
ATOM     11  C   UNL     1     -14.156  56.858  48.071  0.00  0.00    +0.000 A 
ENDROOT
BRANCH   1  17
ATOM     12  S   UNL     1      -7.034  54.655  53.072  0.00  0.00    +0.000 S 
ATOM     13  O   UNL     1      -6.940  55.624  54.147  0.00  0.00    +0.000 OA
ATOM     14  O   UNL     1      -5.849  54.272  52.328  0.00  0.00    +0.000 OA
ATOM     15  N   UNL     1      -8.135  55.197  52.013  0.00  0.00    +0.000 N 
ATOM     16  C   UNL     1      -7.642  53.178  53.802  0.00  0.00    +0.000 A 
ATOM     17  C   UNL     1      -9.288  54.608  51.883  0.00  0.00    +0.000 C 
ATOM     18  C   UNL     1      -8.929  52.782  53.479  0.00  0.00    +0.000 A 
ATOM     19  C   UNL     1      -6.830  52.435  54.664  0.00  0.00    +0.000 A 
ATOM     20  N   UNL     1      -9.731  53.535  52.626  0.00  0.00    +0.000 N 
ATOM     21  C   UNL     1      -9.442  51.639  54.101  0.00  0.00    +0.000 A 
ATOM     22  C   UNL     1      -7.342  51.278  55.247  0.00  0.00    +0.000 A 
ATOM     23  C   UNL     1      -8.652  50.886  54.973  0.00  0.00    +0.000 A 
ATOM     24  H   UNL     1      -7.929  55.984  51.458  0.00  0.00    +0.000 HD
ATOM     25  H   UNL     1     -10.679  53.284  52.547  0.00  0.00    +0.000 HD
ENDBRANCH   1  17
BRANCH   3  26
ATOM     26  O   UNL     1     -11.927  55.719  52.417  0.00  0.00    +0.000 OA
ATOM     27  H   UNL     1     -11.600  56.370  53.008  0.00  0.00    +0.000 HD
ENDBRANCH   3  26
BRANCH   5  28
ATOM     28  C   UNL     1     -10.137  55.616  47.017  0.00  0.00    +0.000 C 
BRANCH  28  29
ATOM     29  C   UNL     1     -10.106  54.238  46.332  0.00  0.00    +0.000 C 
BRANCH  29  30
ATOM     30  C   UNL     1     -11.450  53.677  45.837  0.00  0.00    +0.000 C 
ATOM     31  C   UNL     1     -11.329  52.954  44.499  0.00  0.00    +0.000 C 
ATOM     32  C   UNL     1     -11.997  52.710  46.896  0.00  0.00    +0.000 C 
ENDBRANCH  29  30
ENDBRANCH  28  29
ENDBRANCH   5  28
TORSDOF 5
ENDMDL
MODEL 7
REMARK VINA RESULT:      -7.7      4.454      6.262
REMARK  Name = 298159
REMARK  7 active torsions:
REMARK  status: ('A' for Active; 'I' for Inactive)
REMARK    1  A    between atoms: C_6  and  C_10
REMARK    2  A    between atoms: C_14  and  O_18
REMARK    3  A    between atoms: N_17  and  C_21
REMARK    4  A    between atoms: C_21  and  C_24
REMARK    5  A    between atoms: C_24  and  C_27
REMARK    6  A    between atoms: C_27  and  C_28
REMARK    7  A    between atoms: C_27  and  C_29
REMARK                            x       y       z     vdW  Elec       q    Type
REMARK                         _______ _______ _______ _____ _____    ______ ____
ROOT
ATOM      1  C   UNL     1     -10.854  55.667  48.666  0.00  0.00    +0.000 A 
ATOM      2  C   UNL     1     -11.226  55.208  47.293  0.00  0.00    +0.000 A 
ATOM      3  C   UNL     1      -9.600  55.493  49.114  0.00  0.00    +0.000 A 
ATOM      4  O   UNL     1     -12.351  55.495  46.869  0.00  0.00    +0.000 OA
ATOM      5  N   UNL     1     -10.293  54.498  46.545  0.00  0.00    +0.000 N 
ATOM      6  C   UNL     1      -8.581  54.870  48.256  0.00  0.00    +0.000 A 
ATOM      7  C   UNL     1      -8.933  54.395  46.980  0.00  0.00    +0.000 A 
ATOM      8  C   UNL     1      -7.246  54.764  48.690  0.00  0.00    +0.000 A 
ATOM      9  C   UNL     1      -7.925  53.864  46.159  0.00  0.00    +0.000 A 
ATOM     10  C   UNL     1      -6.266  54.208  47.872  0.00  0.00    +0.000 A 
ATOM     11  C   UNL     1      -6.605  53.761  46.604  0.00  0.00    +0.000 A 
ENDROOT
BRANCH   1  17
ATOM     12  S   UNL     1     -13.549  56.383  51.440  0.00  0.00    +0.000 S 
ATOM     13  O   UNL     1     -12.968  56.690  52.733  0.00  0.00    +0.000 OA
ATOM     14  O   UNL     1     -14.716  55.527  51.349  0.00  0.00    +0.000 OA
ATOM     15  N   UNL     1     -12.384  55.740  50.515  0.00  0.00    +0.000 N 
ATOM     16  C   UNL     1     -14.026  57.924  50.745  0.00  0.00    +0.000 A 
ATOM     17  C   UNL     1     -11.891  56.394  49.505  0.00  0.00    +0.000 C 
ATOM     18  C   UNL     1     -13.310  58.388  49.655  0.00  0.00    +0.000 A 
ATOM     19  C   UNL     1     -15.106  58.631  51.281  0.00  0.00    +0.000 A 
ATOM     20  N   UNL     1     -12.232  57.677  49.135  0.00  0.00    +0.000 N 
ATOM     21  C   UNL     1     -13.646  59.641  49.131  0.00  0.00    +0.000 A 
ATOM     22  C   UNL     1     -15.452  59.861  50.725  0.00  0.00    +0.000 A 
ATOM     23  C   UNL     1     -14.716  60.371  49.657  0.00  0.00    +0.000 A 
ATOM     24  H   UNL     1     -12.044  54.838  50.720  0.00  0.00    +0.000 HD
ATOM     25  H   UNL     1     -11.674  58.121  48.457  0.00  0.00    +0.000 HD
ENDBRANCH   1  17
BRANCH   3  26
ATOM     26  O   UNL     1      -9.147  55.911  50.355  0.00  0.00    +0.000 OA
ATOM     27  H   UNL     1      -9.762  56.147  51.022  0.00  0.00    +0.000 HD
ENDBRANCH   3  26
BRANCH   5  28
ATOM     28  C   UNL     1     -10.710  53.998  45.229  0.00  0.00    +0.000 C 
BRANCH  28  29
ATOM     29  C   UNL     1     -11.229  52.549  45.188  0.00  0.00    +0.000 C 
BRANCH  29  30
ATOM     30  C   UNL     1     -10.676  51.645  44.074  0.00  0.00    +0.000 C 
ATOM     31  C   UNL     1      -9.932  52.428  42.995  0.00  0.00    +0.000 C 
ATOM     32  C   UNL     1      -9.729  50.613  44.704  0.00  0.00    +0.000 C 
ENDBRANCH  29  30
ENDBRANCH  28  29
ENDBRANCH   5  28
TORSDOF 5
ENDMDL
MODEL 8
REMARK VINA RESULT:      -7.7      3.666      5.174
REMARK  Name = 298159
REMARK  7 active torsions:
REMARK  status: ('A' for Active; 'I' for Inactive)
REMARK    1  A    between atoms: C_6  and  C_10
REMARK    2  A    between atoms: C_14  and  O_18
REMARK    3  A    between atoms: N_17  and  C_21
REMARK    4  A    between atoms: C_21  and  C_24
REMARK    5  A    between atoms: C_24  and  C_27
REMARK    6  A    between atoms: C_27  and  C_28
REMARK    7  A    between atoms: C_27  and  C_29
REMARK                            x       y       z     vdW  Elec       q    Type
REMARK                         _______ _______ _______ _____ _____    ______ ____
ROOT
ATOM      1  C   UNL     1     -10.869  55.531  48.671  0.00  0.00    +0.000 A 
ATOM      2  C   UNL     1      -9.592  55.090  49.309  0.00  0.00    +0.000 A 
ATOM      3  C   UNL     1     -11.130  55.200  47.395  0.00  0.00    +0.000 A 
ATOM      4  O   UNL     1      -9.441  55.305  50.516  0.00  0.00    +0.000 OA
ATOM      5  N   UNL     1      -8.638  54.443  48.531  0.00  0.00    +0.000 N 
ATOM      6  C   UNL     1     -10.175  54.389  46.624  0.00  0.00    +0.000 A 
ATOM      7  C   UNL     1      -8.951  54.008  47.203  0.00  0.00    +0.000 A 
ATOM      8  C   UNL     1     -10.484  53.969  45.317  0.00  0.00    +0.000 A 
ATOM      9  C   UNL     1      -8.089  53.180  46.466  0.00  0.00    +0.000 A 
ATOM     10  C   UNL     1      -9.602  53.172  44.591  0.00  0.00    +0.000 A 
ATOM     11  C   UNL     1      -8.406  52.774  45.168  0.00  0.00    +0.000 A 
ENDROOT
BRANCH   1  17
ATOM     12  S   UNL     1     -13.532  56.328  51.454  0.00  0.00    +0.000 S 
ATOM     13  O   UNL     1     -12.937  56.645  52.738  0.00  0.00    +0.000 OA
ATOM     14  O   UNL     1     -14.713  55.488  51.384  0.00  0.00    +0.000 OA
ATOM     15  N   UNL     1     -12.384  55.654  50.530  0.00  0.00    +0.000 N 
ATOM     16  C   UNL     1     -13.991  57.865  50.739  0.00  0.00    +0.000 A 
ATOM     17  C   UNL     1     -11.889  56.286  49.507  0.00  0.00    +0.000 C 
ATOM     18  C   UNL     1     -13.277  58.302  49.637  0.00  0.00    +0.000 A 
ATOM     19  C   UNL     1     -15.056  58.597  51.273  0.00  0.00    +0.000 A 
ATOM     20  N   UNL     1     -12.213  57.568  49.120  0.00  0.00    +0.000 N 
ATOM     21  C   UNL     1     -13.598  59.553  49.097  0.00  0.00    +0.000 A 
ATOM     22  C   UNL     1     -15.388  59.823  50.701  0.00  0.00    +0.000 A 
ATOM     23  C   UNL     1     -14.653  60.306  49.620  0.00  0.00    +0.000 A 
ATOM     24  H   UNL     1     -12.056  54.751  50.745  0.00  0.00    +0.000 HD
ATOM     25  H   UNL     1     -11.655  57.994  48.431  0.00  0.00    +0.000 HD
ENDBRANCH   1  17
BRANCH   3  26
ATOM     26  O   UNL     1     -12.296  55.531  46.723  0.00  0.00    +0.000 OA
ATOM     27  H   UNL     1     -13.124  55.244  47.054  0.00  0.00    +0.000 HD
ENDBRANCH   3  26
BRANCH   5  28
ATOM     28  C   UNL     1      -7.365  54.086  49.167  0.00  0.00    +0.000 C 
BRANCH  28  29
ATOM     29  C   UNL     1      -6.278  55.177  49.168  0.00  0.00    +0.000 C 
BRANCH  29  30
ATOM     30  C   UNL     1      -4.832  54.717  49.416  0.00  0.00    +0.000 C 
ATOM     31  C   UNL     1      -4.640  54.099  50.799  0.00  0.00    +0.000 C 
ATOM     32  C   UNL     1      -4.452  53.691  48.338  0.00  0.00    +0.000 C 
ENDBRANCH  29  30
ENDBRANCH  28  29
ENDBRANCH   5  28
TORSDOF 5
ENDMDL
MODEL 9
REMARK VINA RESULT:      -7.6      2.649      8.126
REMARK  Name = 298159
REMARK  7 active torsions:
REMARK  status: ('A' for Active; 'I' for Inactive)
REMARK    1  A    between atoms: C_6  and  C_10
REMARK    2  A    between atoms: C_14  and  O_18
REMARK    3  A    between atoms: N_17  and  C_21
REMARK    4  A    between atoms: C_21  and  C_24
REMARK    5  A    between atoms: C_24  and  C_27
REMARK    6  A    between atoms: C_27  and  C_28
REMARK    7  A    between atoms: C_27  and  C_29
REMARK                            x       y       z     vdW  Elec       q    Type
REMARK                         _______ _______ _______ _____ _____    ______ ____
ROOT
ATOM      1  C   UNL     1     -10.030  55.019  50.421  0.00  0.00    +0.000 A 
ATOM      2  C   UNL     1     -11.090  55.304  51.435  0.00  0.00    +0.000 A 
ATOM      3  C   UNL     1     -10.269  55.250  49.118  0.00  0.00    +0.000 A 
ATOM      4  O   UNL     1     -10.794  55.198  52.630  0.00  0.00    +0.000 OA
ATOM      5  N   UNL     1     -12.352  55.692  50.999  0.00  0.00    +0.000 N 
ATOM      6  C   UNL     1     -11.562  55.800  48.683  0.00  0.00    +0.000 A 
ATOM      7  C   UNL     1     -12.580  56.029  49.626  0.00  0.00    +0.000 A 
ATOM      8  C   UNL     1     -11.784  56.123  47.332  0.00  0.00    +0.000 A 
ATOM      9  C   UNL     1     -13.780  56.615  49.190  0.00  0.00    +0.000 A 
ATOM     10  C   UNL     1     -12.991  56.676  46.914  0.00  0.00    +0.000 A 
ATOM     11  C   UNL     1     -13.988  56.926  47.845  0.00  0.00    +0.000 A 
ENDROOT
BRANCH   1  17
ATOM     12  S   UNL     1      -6.772  52.842  50.769  0.00  0.00    +0.000 S 
ATOM     13  O   UNL     1      -5.802  53.098  49.722  0.00  0.00    +0.000 OA
ATOM     14  O   UNL     1      -7.027  51.485  51.213  0.00  0.00    +0.000 OA
ATOM     15  N   UNL     1      -8.184  53.488  50.302  0.00  0.00    +0.000 N 
ATOM     16  C   UNL     1      -6.201  53.712  52.183  0.00  0.00    +0.000 A 
ATOM     17  C   UNL     1      -8.667  54.542  50.893  0.00  0.00    +0.000 C 
ATOM     18  C   UNL     1      -6.925  54.818  52.596  0.00  0.00    +0.000 A 
ATOM     19  C   UNL     1      -5.061  53.275  52.863  0.00  0.00    +0.000 A 
ATOM     20  N   UNL     1      -8.054  55.248  51.905  0.00  0.00    +0.000 N 
ATOM     21  C   UNL     1      -6.445  55.551  53.686  0.00  0.00    +0.000 A 
ATOM     22  C   UNL     1      -4.615  53.994  53.971  0.00  0.00    +0.000 A 
ATOM     23  C   UNL     1      -5.302  55.137  54.376  0.00  0.00    +0.000 A 
ATOM     24  H   UNL     1      -8.684  53.077  49.561  0.00  0.00    +0.000 HD
ATOM     25  H   UNL     1      -8.442  56.117  52.156  0.00  0.00    +0.000 HD
ENDBRANCH   1  17
BRANCH   3  26
ATOM     26  O   UNL     1      -9.344  55.050  48.106  0.00  0.00    +0.000 OA
ATOM     27  H   UNL     1      -9.136  54.179  47.828  0.00  0.00    +0.000 HD
ENDBRANCH   3  26
BRANCH   5  28
ATOM     28  C   UNL     1     -13.393  55.896  52.014  0.00  0.00    +0.000 C 
BRANCH  28  29
ATOM     29  C   UNL     1     -13.456  57.297  52.647  0.00  0.00    +0.000 C 
BRANCH  29  30
ATOM     30  C   UNL     1     -14.830  57.988  52.669  0.00  0.00    +0.000 C 
ATOM     31  C   UNL     1     -14.893  59.202  51.744  0.00  0.00    +0.000 C 
ATOM     32  C   UNL     1     -15.899  56.969  52.251  0.00  0.00    +0.000 C 
ENDBRANCH  29  30
ENDBRANCH  28  29
ENDBRANCH   5  28
TORSDOF 5
ENDMDL
