MODEL 1
REMARK VINA RESULT:      -8.7      0.000      0.000
REMARK  Name = 338063
REMARK  8 active torsions:
REMARK  status: ('A' for Active; 'I' for Inactive)
REMARK    1  A    between atoms: C_6  and  C_10
REMARK    2  A    between atoms: C_14  and  O_18
REMARK    3  A    between atoms: N_17  and  C_21
REMARK    4  A    between atoms: C_21  and  C_24
REMARK    5  A    between atoms: C_24  and  C_27
REMARK    6  A    between atoms: C_25  and  C_28
REMARK    7  A    between atoms: C_27  and  C_29
REMARK    8  A    between atoms: C_27  and  C_30
REMARK                            x       y       z     vdW  Elec       q    Type
REMARK                         _______ _______ _______ _____ _____    ______ ____
ROOT
ATOM      1  C   UNL     1     -10.185  54.449  52.203  0.00  0.00    +0.000 A 
ATOM      2  C   UNL     1      -8.801  55.006  52.105  0.00  0.00    +0.000 A 
ATOM      3  C   UNL     1     -10.419  53.351  52.940  0.00  0.00    +0.000 A 
ATOM      4  O   UNL     1      -8.644  56.078  51.513  0.00  0.00    +0.000 OA
ATOM      5  N   UNL     1      -7.755  54.311  52.702  0.00  0.00    +0.000 N 
ATOM      6  C   UNL     1      -9.322  52.695  53.665  0.00  0.00    +0.000 A 
ATOM      7  C   UNL     1      -8.013  53.195  53.561  0.00  0.00    +0.000 A 
ATOM      8  C   UNL     1      -9.574  51.580  54.489  0.00  0.00    +0.000 A 
ATOM      9  C   UNL     1      -7.002  52.597  54.326  0.00  0.00    +0.000 A 
ATOM     10  C   UNL     1      -8.549  50.963  55.210  0.00  0.00    +0.000 A 
ATOM     11  C   UNL     1      -7.262  51.488  55.130  0.00  0.00    +0.000 A 
ATOM     12  C   UNL     1      -8.822  49.786  56.097  0.00  0.00    +0.000 C 
ENDROOT
BRANCH   1  18
ATOM     13  S   UNL     1     -12.426  56.022  49.379  0.00  0.00    +0.000 S 
ATOM     14  O   UNL     1     -13.294  55.049  48.741  0.00  0.00    +0.000 OA
ATOM     15  O   UNL     1     -11.745  57.029  48.590  0.00  0.00    +0.000 OA
ATOM     16  N   UNL     1     -11.306  55.204  50.220  0.00  0.00    +0.000 N 
ATOM     17  C   UNL     1     -13.436  56.900  50.515  0.00  0.00    +0.000 A 
ATOM     18  C   UNL     1     -11.322  55.187  51.521  0.00  0.00    +0.000 C 
ATOM     19  C   UNL     1     -13.227  56.687  51.869  0.00  0.00    +0.000 A 
ATOM     20  C   UNL     1     -14.401  57.796  50.048  0.00  0.00    +0.000 A 
ATOM     21  N   UNL     1     -12.270  55.784  52.321  0.00  0.00    +0.000 N 
ATOM     22  C   UNL     1     -14.060  57.343  52.779  0.00  0.00    +0.000 A 
ATOM     23  C   UNL     1     -15.201  58.471  50.967  0.00  0.00    +0.000 A 
ATOM     24  C   UNL     1     -15.036  58.237  52.332  0.00  0.00    +0.000 A 
ATOM     25  H   UNL     1     -10.604  54.710  49.738  0.00  0.00    +0.000 HD
ATOM     26  H   UNL     1     -12.271  55.556  53.279  0.00  0.00    +0.000 HD
ENDBRANCH   1  18
BRANCH   3  27
ATOM     27  O   UNL     1     -11.669  52.785  53.127  0.00  0.00    +0.000 OA
ATOM     28  H   UNL     1     -11.763  52.021  53.660  0.00  0.00    +0.000 HD
ENDBRANCH   3  27
BRANCH   5  29
ATOM     29  C   UNL     1      -6.397  54.841  52.532  0.00  0.00    +0.000 C 
BRANCH  29  30
ATOM     30  C   UNL     1      -5.538  54.161  51.451  0.00  0.00    +0.000 C 
BRANCH  30  31
ATOM     31  C   UNL     1      -4.148  53.664  51.882  0.00  0.00    +0.000 C 
ATOM     32  C   UNL     1      -3.847  53.970  53.347  0.00  0.00    +0.000 C 
ATOM     33  C   UNL     1      -4.074  52.150  51.642  0.00  0.00    +0.000 C 
ENDBRANCH  30  31
ENDBRANCH  29  30
ENDBRANCH   5  29
TORSDOF 5
ENDMDL
MODEL 2
REMARK VINA RESULT:      -8.2      3.669      5.398
REMARK  Name = 338063
REMARK  8 active torsions:
REMARK  status: ('A' for Active; 'I' for Inactive)
REMARK    1  A    between atoms: C_6  and  C_10
REMARK    2  A    between atoms: C_14  and  O_18
REMARK    3  A    between atoms: N_17  and  C_21
REMARK    4  A    between atoms: C_21  and  C_24
REMARK    5  A    between atoms: C_24  and  C_27
REMARK    6  A    between atoms: C_25  and  C_28
REMARK    7  A    between atoms: C_27  and  C_29
REMARK    8  A    between atoms: C_27  and  C_30
REMARK                            x       y       z     vdW  Elec       q    Type
REMARK                         _______ _______ _______ _____ _____    ______ ____
ROOT
ATOM      1  C   UNL     1     -11.366  56.151  48.721  0.00  0.00    +0.000 A 
ATOM      2  C   UNL     1     -10.176  55.718  49.515  0.00  0.00    +0.000 A 
ATOM      3  C   UNL     1     -11.552  55.681  47.476  0.00  0.00    +0.000 A 
ATOM      4  O   UNL     1     -10.097  56.081  50.692  0.00  0.00    +0.000 OA
ATOM      5  N   UNL     1      -9.222  54.910  48.908  0.00  0.00    +0.000 N 
ATOM      6  C   UNL     1     -10.597  54.730  46.890  0.00  0.00    +0.000 A 
ATOM      7  C   UNL     1      -9.462  54.336  47.619  0.00  0.00    +0.000 A 
ATOM      8  C   UNL     1     -10.822  54.188  45.609  0.00  0.00    +0.000 A 
ATOM      9  C   UNL     1      -8.612  53.369  47.065  0.00  0.00    +0.000 A 
ATOM     10  C   UNL     1      -9.940  53.259  45.049  0.00  0.00    +0.000 A 
ATOM     11  C   UNL     1      -8.839  52.845  45.792  0.00  0.00    +0.000 A 
ATOM     12  C   UNL     1     -10.189  52.672  43.693  0.00  0.00    +0.000 C 
ENDROOT
BRANCH   1  18
ATOM     13  S   UNL     1     -13.570  59.322  49.468  0.00  0.00    +0.000 S 
ATOM     14  O   UNL     1     -14.721  59.428  48.590  0.00  0.00    +0.000 OA
ATOM     15  O   UNL     1     -12.797  60.498  49.813  0.00  0.00    +0.000 OA
ATOM     16  N   UNL     1     -12.559  58.230  48.822  0.00  0.00    +0.000 N 
ATOM     17  C   UNL     1     -14.176  58.680  50.986  0.00  0.00    +0.000 A 
ATOM     18  C   UNL     1     -12.389  57.063  49.370  0.00  0.00    +0.000 C 
ATOM     19  C   UNL     1     -13.828  57.382  51.328  0.00  0.00    +0.000 A 
ATOM     20  C   UNL     1     -14.966  59.477  51.818  0.00  0.00    +0.000 A 
ATOM     21  N   UNL     1     -13.049  56.595  50.485  0.00  0.00    +0.000 N 
ATOM     22  C   UNL     1     -14.348  56.846  52.508  0.00  0.00    +0.000 A 
ATOM     23  C   UNL     1     -15.449  58.943  53.011  0.00  0.00    +0.000 A 
ATOM     24  C   UNL     1     -15.146  57.623  53.350  0.00  0.00    +0.000 A 
ATOM     25  H   UNL     1     -12.065  58.455  48.000  0.00  0.00    +0.000 HD
ATOM     26  H   UNL     1     -12.964  55.638  50.700  0.00  0.00    +0.000 HD
ENDBRANCH   1  18
BRANCH   3  27
ATOM     27  O   UNL     1     -12.642  55.988  46.678  0.00  0.00    +0.000 OA
ATOM     28  H   UNL     1     -13.383  56.427  47.046  0.00  0.00    +0.000 HD
ENDBRANCH   3  27
BRANCH   5  29
ATOM     29  C   UNL     1      -8.028  54.557  49.686  0.00  0.00    +0.000 C 
BRANCH  29  30
ATOM     30  C   UNL     1      -6.858  55.554  49.615  0.00  0.00    +0.000 C 
BRANCH  30  31
ATOM     31  C   UNL     1      -5.440  54.964  49.694  0.00  0.00    +0.000 C 
ATOM     32  C   UNL     1      -5.179  54.245  51.015  0.00  0.00    +0.000 C 
ATOM     33  C   UNL     1      -5.252  53.987  48.525  0.00  0.00    +0.000 C 
ENDBRANCH  30  31
ENDBRANCH  29  30
ENDBRANCH   5  29
TORSDOF 5
ENDMDL
MODEL 3
REMARK VINA RESULT:      -8.1      4.405      6.308
REMARK  Name = 338063
REMARK  8 active torsions:
REMARK  status: ('A' for Active; 'I' for Inactive)
REMARK    1  A    between atoms: C_6  and  C_10
REMARK    2  A    between atoms: C_14  and  O_18
REMARK    3  A    between atoms: N_17  and  C_21
REMARK    4  A    between atoms: C_21  and  C_24
REMARK    5  A    between atoms: C_24  and  C_27
REMARK    6  A    between atoms: C_25  and  C_28
REMARK    7  A    between atoms: C_27  and  C_29
REMARK    8  A    between atoms: C_27  and  C_30
REMARK                            x       y       z     vdW  Elec       q    Type
REMARK                         _______ _______ _______ _____ _____    ______ ____
ROOT
ATOM      1  C   UNL     1     -11.446  56.277  48.549  0.00  0.00    +0.000 A 
ATOM      2  C   UNL     1     -11.817  55.685  47.227  0.00  0.00    +0.000 A 
ATOM      3  C   UNL     1     -10.216  56.083  49.052  0.00  0.00    +0.000 A 
ATOM      4  O   UNL     1     -12.916  55.978  46.745  0.00  0.00    +0.000 OA
ATOM      5  N   UNL     1     -10.908  54.852  46.587  0.00  0.00    +0.000 N 
ATOM      6  C   UNL     1      -9.223  55.299  48.306  0.00  0.00    +0.000 A 
ATOM      7  C   UNL     1      -9.569  54.717  47.074  0.00  0.00    +0.000 A 
ATOM      8  C   UNL     1      -7.912  55.145  48.801  0.00  0.00    +0.000 A 
ATOM      9  C   UNL     1      -8.578  54.042  46.348  0.00  0.00    +0.000 A 
ATOM     10  C   UNL     1      -6.947  54.429  48.089  0.00  0.00    +0.000 A 
ATOM     11  C   UNL     1      -7.287  53.887  46.853  0.00  0.00    +0.000 A 
ATOM     12  C   UNL     1      -5.550  54.279  48.611  0.00  0.00    +0.000 C 
ENDROOT
BRANCH   1  18
ATOM     13  S   UNL     1     -13.635  59.406  49.496  0.00  0.00    +0.000 S 
ATOM     14  O   UNL     1     -14.811  59.545  48.657  0.00  0.00    +0.000 OA
ATOM     15  O   UNL     1     -12.854  60.569  49.868  0.00  0.00    +0.000 OA
ATOM     16  N   UNL     1     -12.640  58.347  48.774  0.00  0.00    +0.000 N 
ATOM     17  C   UNL     1     -14.194  58.698  51.002  0.00  0.00    +0.000 A 
ATOM     18  C   UNL     1     -12.452  57.158  49.267  0.00  0.00    +0.000 C 
ATOM     19  C   UNL     1     -13.833  57.388  51.277  0.00  0.00    +0.000 A 
ATOM     20  C   UNL     1     -14.962  59.456  51.890  0.00  0.00    +0.000 A 
ATOM     21  N   UNL     1     -13.078  56.640  50.379  0.00  0.00    +0.000 N 
ATOM     22  C   UNL     1     -14.318  56.800  52.448  0.00  0.00    +0.000 A 
ATOM     23  C   UNL     1     -15.408  58.869  53.072  0.00  0.00    +0.000 A 
ATOM     24  C   UNL     1     -15.093  57.538  53.346  0.00  0.00    +0.000 A 
ATOM     25  H   UNL     1     -12.172  58.608  47.948  0.00  0.00    +0.000 HD
ATOM     26  H   UNL     1     -12.984  55.675  50.550  0.00  0.00    +0.000 HD
ENDBRANCH   1  18
BRANCH   3  27
ATOM     27  O   UNL     1      -9.764  56.624  50.244  0.00  0.00    +0.000 OA
ATOM     28  H   UNL     1      -9.516  57.527  50.285  0.00  0.00    +0.000 HD
ENDBRANCH   3  27
BRANCH   5  29
ATOM     29  C   UNL     1     -11.324  54.226  45.325  0.00  0.00    +0.000 C 
BRANCH  29  30
ATOM     30  C   UNL     1     -11.831  52.777  45.426  0.00  0.00    +0.000 C 
BRANCH  30  31
ATOM     31  C   UNL     1     -11.134  51.736  44.535  0.00  0.00    +0.000 C 
ATOM     32  C   UNL     1     -10.259  52.378  43.462  0.00  0.00    +0.000 C 
ATOM     33  C   UNL     1     -10.278  50.825  45.426  0.00  0.00    +0.000 C 
ENDBRANCH  30  31
ENDBRANCH  29  30
ENDBRANCH   5  29
TORSDOF 5
ENDMDL
MODEL 4
REMARK VINA RESULT:      -8.0      3.797      5.485
REMARK  Name = 338063
REMARK  8 active torsions:
REMARK  status: ('A' for Active; 'I' for Inactive)
REMARK    1  A    between atoms: C_6  and  C_10
REMARK    2  A    between atoms: C_14  and  O_18
REMARK    3  A    between atoms: N_17  and  C_21
REMARK    4  A    between atoms: C_21  and  C_24
REMARK    5  A    between atoms: C_24  and  C_27
REMARK    6  A    between atoms: C_25  and  C_28
REMARK    7  A    between atoms: C_27  and  C_29
REMARK    8  A    between atoms: C_27  and  C_30
REMARK                            x       y       z     vdW  Elec       q    Type
REMARK                         _______ _______ _______ _____ _____    ______ ____
ROOT
ATOM      1  C   UNL     1     -10.918  55.578  48.806  0.00  0.00    +0.000 A 
ATOM      2  C   UNL     1      -9.657  55.136  49.474  0.00  0.00    +0.000 A 
ATOM      3  C   UNL     1     -11.162  55.231  47.531  0.00  0.00    +0.000 A 
ATOM      4  O   UNL     1      -9.519  55.378  50.677  0.00  0.00    +0.000 OA
ATOM      5  N   UNL     1      -8.704  54.455  48.726  0.00  0.00    +0.000 N 
ATOM      6  C   UNL     1     -10.200  54.405  46.789  0.00  0.00    +0.000 A 
ATOM      7  C   UNL     1      -8.999  54.006  47.400  0.00  0.00    +0.000 A 
ATOM      8  C   UNL     1     -10.481  53.987  45.472  0.00  0.00    +0.000 A 
ATOM      9  C   UNL     1      -8.138  53.154  46.694  0.00  0.00    +0.000 A 
ATOM     10  C   UNL     1      -9.591  53.177  44.763  0.00  0.00    +0.000 A 
ATOM     11  C   UNL     1      -8.422  52.754  45.388  0.00  0.00    +0.000 A 
ATOM     12  C   UNL     1      -9.898  52.722  43.368  0.00  0.00    +0.000 C 
ENDROOT
BRANCH   1  18
ATOM     13  S   UNL     1     -13.627  56.439  51.525  0.00  0.00    +0.000 S 
ATOM     14  O   UNL     1     -13.046  56.776  52.812  0.00  0.00    +0.000 OA
ATOM     15  O   UNL     1     -14.812  55.607  51.448  0.00  0.00    +0.000 OA
ATOM     16  N   UNL     1     -12.467  55.741  50.631  0.00  0.00    +0.000 N 
ATOM     17  C   UNL     1     -14.058  57.966  50.773  0.00  0.00    +0.000 A 
ATOM     18  C   UNL     1     -11.943  56.355  49.611  0.00  0.00    +0.000 C 
ATOM     19  C   UNL     1     -13.317  58.382  49.678  0.00  0.00    +0.000 A 
ATOM     20  C   UNL     1     -15.131  58.711  51.267  0.00  0.00    +0.000 A 
ATOM     21  N   UNL     1     -12.243  57.635  49.203  0.00  0.00    +0.000 N 
ATOM     22  C   UNL     1     -13.620  59.620  49.106  0.00  0.00    +0.000 A 
ATOM     23  C   UNL     1     -15.447  59.927  50.664  0.00  0.00    +0.000 A 
ATOM     24  C   UNL     1     -14.684  60.385  49.589  0.00  0.00    +0.000 A 
ATOM     25  H   UNL     1     -12.154  54.837  50.865  0.00  0.00    +0.000 HD
ATOM     26  H   UNL     1     -11.658  58.050  48.528  0.00  0.00    +0.000 HD
ENDBRANCH   1  18
BRANCH   3  27
ATOM     27  O   UNL     1     -12.318  55.554  46.839  0.00  0.00    +0.000 OA
ATOM     28  H   UNL     1     -13.124  55.125  47.048  0.00  0.00    +0.000 HD
ENDBRANCH   3  27
BRANCH   5  29
ATOM     29  C   UNL     1      -7.444  54.094  49.387  0.00  0.00    +0.000 C 
BRANCH  29  30
ATOM     30  C   UNL     1      -6.320  55.143  49.315  0.00  0.00    +0.000 C 
BRANCH  30  31
ATOM     31  C   UNL     1      -4.876  54.616  49.356  0.00  0.00    +0.000 C 
ATOM     32  C   UNL     1      -4.536  53.951  50.688  0.00  0.00    +0.000 C 
ATOM     33  C   UNL     1      -4.691  53.610  48.212  0.00  0.00    +0.000 C 
ENDBRANCH  30  31
ENDBRANCH  29  30
ENDBRANCH   5  29
TORSDOF 5
ENDMDL
MODEL 5
REMARK VINA RESULT:      -8.0      3.669      4.839
REMARK  Name = 338063
REMARK  8 active torsions:
REMARK  status: ('A' for Active; 'I' for Inactive)
REMARK    1  A    between atoms: C_6  and  C_10
REMARK    2  A    between atoms: C_14  and  O_18
REMARK    3  A    between atoms: N_17  and  C_21
REMARK    4  A    between atoms: C_21  and  C_24
REMARK    5  A    between atoms: C_24  and  C_27
REMARK    6  A    between atoms: C_25  and  C_28
REMARK    7  A    between atoms: C_27  and  C_29
REMARK    8  A    between atoms: C_27  and  C_30
REMARK                            x       y       z     vdW  Elec       q    Type
REMARK                         _______ _______ _______ _____ _____    ______ ____
ROOT
ATOM      1  C   UNL     1     -12.450  54.327  49.884  0.00  0.00    +0.000 A 
ATOM      2  C   UNL     1     -12.127  54.104  48.442  0.00  0.00    +0.000 A 
ATOM      3  C   UNL     1     -11.958  53.501  50.821  0.00  0.00    +0.000 A 
ATOM      4  O   UNL     1     -12.504  54.947  47.623  0.00  0.00    +0.000 OA
ATOM      5  N   UNL     1     -11.400  52.974  48.085  0.00  0.00    +0.000 N 
ATOM      6  C   UNL     1     -11.089  52.378  50.439  0.00  0.00    +0.000 A 
ATOM      7  C   UNL     1     -10.800  52.144  49.084  0.00  0.00    +0.000 A 
ATOM      8  C   UNL     1     -10.521  51.545  51.424  0.00  0.00    +0.000 A 
ATOM      9  C   UNL     1      -9.906  51.115  48.757  0.00  0.00    +0.000 A 
ATOM     10  C   UNL     1      -9.668  50.493  51.081  0.00  0.00    +0.000 A 
ATOM     11  C   UNL     1      -9.356  50.291  49.739  0.00  0.00    +0.000 A 
ATOM     12  C   UNL     1      -9.053  49.618  52.130  0.00  0.00    +0.000 C 
ENDROOT
BRANCH   1  18
ATOM     13  S   UNL     1     -15.397  56.519  51.294  0.00  0.00    +0.000 S 
ATOM     14  O   UNL     1     -15.342  56.676  52.736  0.00  0.00    +0.000 OA
ATOM     15  O   UNL     1     -16.663  56.289  50.626  0.00  0.00    +0.000 OA
ATOM     16  N   UNL     1     -14.393  55.309  50.894  0.00  0.00    +0.000 N 
ATOM     17  C   UNL     1     -14.759  58.009  50.620  0.00  0.00    +0.000 A 
ATOM     18  C   UNL     1     -13.275  55.540  50.271  0.00  0.00    +0.000 C 
ATOM     19  C   UNL     1     -13.521  57.963  49.997  0.00  0.00    +0.000 A 
ATOM     20  C   UNL     1     -15.501  59.190  50.702  0.00  0.00    +0.000 A 
ATOM     21  N   UNL     1     -12.787  56.782  49.931  0.00  0.00    +0.000 N 
ATOM     22  C   UNL     1     -12.983  59.154  49.504  0.00  0.00    +0.000 A 
ATOM     23  C   UNL     1     -14.970  60.364  50.174  0.00  0.00    +0.000 A 
ATOM     24  C   UNL     1     -13.706  60.347  49.583  0.00  0.00    +0.000 A 
ATOM     25  H   UNL     1     -14.634  54.383  51.127  0.00  0.00    +0.000 HD
ATOM     26  H   UNL     1     -11.854  56.839  49.621  0.00  0.00    +0.000 HD
ENDBRANCH   1  18
BRANCH   3  27
ATOM     27  O   UNL     1     -12.164  53.649  52.183  0.00  0.00    +0.000 OA
ATOM     28  H   UNL     1     -11.440  53.832  52.749  0.00  0.00    +0.000 HD
ENDBRANCH   3  27
BRANCH   5  29
ATOM     29  C   UNL     1     -11.157  52.740  46.656  0.00  0.00    +0.000 C 
BRANCH  29  30
ATOM     30  C   UNL     1     -10.263  53.771  45.946  0.00  0.00    +0.000 C 
BRANCH  30  31
ATOM     31  C   UNL     1      -8.879  54.030  46.563  0.00  0.00    +0.000 C 
ATOM     32  C   UNL     1      -7.767  54.045  45.518  0.00  0.00    +0.000 C 
ATOM     33  C   UNL     1      -8.917  55.375  47.300  0.00  0.00    +0.000 C 
ENDBRANCH  30  31
ENDBRANCH  29  30
ENDBRANCH   5  29
TORSDOF 5
ENDMDL
MODEL 6
REMARK VINA RESULT:      -7.8      3.184      7.510
REMARK  Name = 338063
REMARK  8 active torsions:
REMARK  status: ('A' for Active; 'I' for Inactive)
REMARK    1  A    between atoms: C_6  and  C_10
REMARK    2  A    between atoms: C_14  and  O_18
REMARK    3  A    between atoms: N_17  and  C_21
REMARK    4  A    between atoms: C_21  and  C_24
REMARK    5  A    between atoms: C_24  and  C_27
REMARK    6  A    between atoms: C_25  and  C_28
REMARK    7  A    between atoms: C_27  and  C_29
REMARK    8  A    between atoms: C_27  and  C_30
REMARK                            x       y       z     vdW  Elec       q    Type
REMARK                         _______ _______ _______ _____ _____    ______ ____
ROOT
ATOM      1  C   UNL     1     -10.106  55.186  51.042  0.00  0.00    +0.000 A 
ATOM      2  C   UNL     1      -9.826  55.193  49.574  0.00  0.00    +0.000 A 
ATOM      3  C   UNL     1     -11.321  55.533  51.498  0.00  0.00    +0.000 A 
ATOM      4  O   UNL     1      -8.736  54.761  49.186  0.00  0.00    +0.000 OA
ATOM      5  N   UNL     1     -10.807  55.660  48.706  0.00  0.00    +0.000 N 
ATOM      6  C   UNL     1     -12.387  55.909  50.560  0.00  0.00    +0.000 A 
ATOM      7  C   UNL     1     -12.127  55.943  49.179  0.00  0.00    +0.000 A 
ATOM      8  C   UNL     1     -13.680  56.214  51.030  0.00  0.00    +0.000 A 
ATOM      9  C   UNL     1     -13.185  56.228  48.304  0.00  0.00    +0.000 A 
ATOM     10  C   UNL     1     -14.714  56.543  50.149  0.00  0.00    +0.000 A 
ATOM     11  C   UNL     1     -14.458  56.537  48.781  0.00  0.00    +0.000 A 
ATOM     12  C   UNL     1     -16.092  56.852  50.650  0.00  0.00    +0.000 C 
ENDROOT
BRANCH   1  18
ATOM     13  S   UNL     1      -6.627  54.876  52.853  0.00  0.00    +0.000 S 
ATOM     14  O   UNL     1      -6.433  55.886  53.876  0.00  0.00    +0.000 OA
ATOM     15  O   UNL     1      -5.542  54.509  51.965  0.00  0.00    +0.000 OA
ATOM     16  N   UNL     1      -7.885  55.339  51.939  0.00  0.00    +0.000 N 
ATOM     17  C   UNL     1      -7.076  53.406  53.702  0.00  0.00    +0.000 A 
ATOM     18  C   UNL     1      -9.023  54.711  51.993  0.00  0.00    +0.000 C 
ATOM     19  C   UNL     1      -8.380  52.955  53.576  0.00  0.00    +0.000 A 
ATOM     20  C   UNL     1      -6.125  52.717  54.459  0.00  0.00    +0.000 A 
ATOM     21  N   UNL     1      -9.321  53.657  52.828  0.00  0.00    +0.000 N 
ATOM     22  C   UNL     1      -8.759  51.816  54.290  0.00  0.00    +0.000 A 
ATOM     23  C   UNL     1      -6.505  51.561  55.137  0.00  0.00    +0.000 A 
ATOM     24  C   UNL     1      -7.826  51.116  55.059  0.00  0.00    +0.000 A 
ATOM     25  H   UNL     1      -7.786  56.109  51.333  0.00  0.00    +0.000 HD
ATOM     26  H   UNL     1     -10.263  53.381  52.900  0.00  0.00    +0.000 HD
ENDBRANCH   1  18
BRANCH   3  27
ATOM     27  O   UNL     1     -11.690  55.518  52.833  0.00  0.00    +0.000 OA
ATOM     28  H   UNL     1     -12.516  55.156  53.086  0.00  0.00    +0.000 HD
ENDBRANCH   3  27
BRANCH   5  29
ATOM     29  C   UNL     1     -10.482  55.723  47.276  0.00  0.00    +0.000 C 
BRANCH  29  30
ATOM     30  C   UNL     1     -10.746  54.441  46.467  0.00  0.00    +0.000 C 
BRANCH  30  31
ATOM     31  C   UNL     1      -9.520  53.737  45.864  0.00  0.00    +0.000 C 
ATOM     32  C   UNL     1      -9.817  53.110  44.504  0.00  0.00    +0.000 C 
ATOM     33  C   UNL     1      -8.387  54.762  45.725  0.00  0.00    +0.000 C 
ENDBRANCH  30  31
ENDBRANCH  29  30
ENDBRANCH   5  29
TORSDOF 5
ENDMDL
MODEL 7
REMARK VINA RESULT:      -7.7      4.536      7.126
REMARK  Name = 338063
REMARK  8 active torsions:
REMARK  status: ('A' for Active; 'I' for Inactive)
REMARK    1  A    between atoms: C_6  and  C_10
REMARK    2  A    between atoms: C_14  and  O_18
REMARK    3  A    between atoms: N_17  and  C_21
REMARK    4  A    between atoms: C_21  and  C_24
REMARK    5  A    between atoms: C_24  and  C_27
REMARK    6  A    between atoms: C_25  and  C_28
REMARK    7  A    between atoms: C_27  and  C_29
REMARK    8  A    between atoms: C_27  and  C_30
REMARK                            x       y       z     vdW  Elec       q    Type
REMARK                         _______ _______ _______ _____ _____    ______ ____
ROOT
ATOM      1  C   UNL     1     -10.775  54.451  48.676  0.00  0.00    +0.000 A 
ATOM      2  C   UNL     1     -10.286  54.010  50.018  0.00  0.00    +0.000 A 
ATOM      3  C   UNL     1     -11.786  55.331  48.583  0.00  0.00    +0.000 A 
ATOM      4  O   UNL     1      -9.284  53.291  50.066  0.00  0.00    +0.000 OA
ATOM      5  N   UNL     1     -10.960  54.445  51.153  0.00  0.00    +0.000 N 
ATOM      6  C   UNL     1     -12.411  55.876  49.796  0.00  0.00    +0.000 A 
ATOM      7  C   UNL     1     -11.976  55.449  51.063  0.00  0.00    +0.000 A 
ATOM      8  C   UNL     1     -13.431  56.845  49.704  0.00  0.00    +0.000 A 
ATOM      9  C   UNL     1     -12.537  56.045  52.201  0.00  0.00    +0.000 A 
ATOM     10  C   UNL     1     -14.014  57.396  50.847  0.00  0.00    +0.000 A 
ATOM     11  C   UNL     1     -13.551  56.996  52.097  0.00  0.00    +0.000 A 
ATOM     12  C   UNL     1     -15.087  58.437  50.746  0.00  0.00    +0.000 C 
ENDROOT
BRANCH   1  18
ATOM     13  S   UNL     1      -8.013  53.971  45.918  0.00  0.00    +0.000 S 
ATOM     14  O   UNL     1      -6.965  53.053  46.324  0.00  0.00    +0.000 OA
ATOM     15  O   UNL     1      -7.687  55.190  45.203  0.00  0.00    +0.000 OA
ATOM     16  N   UNL     1      -8.850  54.379  47.246  0.00  0.00    +0.000 N 
ATOM     17  C   UNL     1      -9.073  53.058  44.857  0.00  0.00    +0.000 A 
ATOM     18  C   UNL     1     -10.063  53.949  47.435  0.00  0.00    +0.000 C 
ATOM     19  C   UNL     1     -10.337  52.734  45.324  0.00  0.00    +0.000 A 
ATOM     20  C   UNL     1      -8.642  52.697  43.578  0.00  0.00    +0.000 A 
ATOM     21  N   UNL     1     -10.750  53.091  46.605  0.00  0.00    +0.000 N 
ATOM     22  C   UNL     1     -11.168  51.964  44.507  0.00  0.00    +0.000 A 
ATOM     23  C   UNL     1      -9.494  51.960  42.758  0.00  0.00    +0.000 A 
ATOM     24  C   UNL     1     -10.753  51.586  43.228  0.00  0.00    +0.000 A 
ATOM     25  H   UNL     1      -8.432  54.960  47.922  0.00  0.00    +0.000 HD
ATOM     26  H   UNL     1     -11.590  52.703  46.941  0.00  0.00    +0.000 HD
ENDBRANCH   1  18
BRANCH   3  27
ATOM     27  O   UNL     1     -12.281  55.832  47.390  0.00  0.00    +0.000 OA
ATOM     28  H   UNL     1     -11.916  56.612  47.023  0.00  0.00    +0.000 HD
ENDBRANCH   3  27
BRANCH   5  29
ATOM     29  C   UNL     1     -10.505  53.941  52.455  0.00  0.00    +0.000 C 
BRANCH  29  30
ATOM     30  C   UNL     1      -9.625  54.899  53.279  0.00  0.00    +0.000 C 
BRANCH  30  31
ATOM     31  C   UNL     1      -8.122  54.911  52.954  0.00  0.00    +0.000 C 
ATOM     32  C   UNL     1      -7.763  55.949  51.893  0.00  0.00    +0.000 C 
ATOM     33  C   UNL     1      -7.346  55.200  54.246  0.00  0.00    +0.000 C 
ENDBRANCH  30  31
ENDBRANCH  29  30
ENDBRANCH   5  29
TORSDOF 5
ENDMDL
MODEL 8
REMARK VINA RESULT:      -7.7      3.587      5.549
REMARK  Name = 338063
REMARK  8 active torsions:
REMARK  status: ('A' for Active; 'I' for Inactive)
REMARK    1  A    between atoms: C_6  and  C_10
REMARK    2  A    between atoms: C_14  and  O_18
REMARK    3  A    between atoms: N_17  and  C_21
REMARK    4  A    between atoms: C_21  and  C_24
REMARK    5  A    between atoms: C_24  and  C_27
REMARK    6  A    between atoms: C_25  and  C_28
REMARK    7  A    between atoms: C_27  and  C_29
REMARK    8  A    between atoms: C_27  and  C_30
REMARK                            x       y       z     vdW  Elec       q    Type
REMARK                         _______ _______ _______ _____ _____    ______ ____
ROOT
ATOM      1  C   UNL     1     -11.413  56.000  48.864  0.00  0.00    +0.000 A 
ATOM      2  C   UNL     1     -10.339  55.435  49.737  0.00  0.00    +0.000 A 
ATOM      3  C   UNL     1     -11.516  55.607  47.584  0.00  0.00    +0.000 A 
ATOM      4  O   UNL     1     -10.344  55.733  50.935  0.00  0.00    +0.000 OA
ATOM      5  N   UNL     1      -9.396  54.583  49.173  0.00  0.00    +0.000 N 
ATOM      6  C   UNL     1     -10.585  54.613  47.034  0.00  0.00    +0.000 A 
ATOM      7  C   UNL     1      -9.556  54.094  47.838  0.00  0.00    +0.000 A 
ATOM      8  C   UNL     1     -10.728  54.153  45.709  0.00  0.00    +0.000 A 
ATOM      9  C   UNL     1      -8.732  53.090  47.310  0.00  0.00    +0.000 A 
ATOM     10  C   UNL     1      -9.870  53.185  45.180  0.00  0.00    +0.000 A 
ATOM     11  C   UNL     1      -8.877  52.649  45.995  0.00  0.00    +0.000 A 
ATOM     12  C   UNL     1     -10.034  52.687  43.776  0.00  0.00    +0.000 C 
ENDROOT
BRANCH   1  18
ATOM     13  S   UNL     1     -13.551  59.245  49.471  0.00  0.00    +0.000 S 
ATOM     14  O   UNL     1     -14.691  59.343  48.578  0.00  0.00    +0.000 OA
ATOM     15  O   UNL     1     -12.755  60.416  49.780  0.00  0.00    +0.000 OA
ATOM     16  N   UNL     1     -12.559  58.108  48.876  0.00  0.00    +0.000 N 
ATOM     17  C   UNL     1     -14.186  58.674  51.006  0.00  0.00    +0.000 A 
ATOM     18  C   UNL     1     -12.421  56.958  49.469  0.00  0.00    +0.000 C 
ATOM     19  C   UNL     1     -13.870  57.382  51.398  0.00  0.00    +0.000 A 
ATOM     20  C   UNL     1     -14.966  59.519  51.799  0.00  0.00    +0.000 A 
ATOM     21  N   UNL     1     -13.102  56.547  50.593  0.00  0.00    +0.000 N 
ATOM     22  C   UNL     1     -14.414  56.903  52.593  0.00  0.00    +0.000 A 
ATOM     23  C   UNL     1     -15.471  59.040  53.006  0.00  0.00    +0.000 A 
ATOM     24  C   UNL     1     -15.202  57.728  53.397  0.00  0.00    +0.000 A 
ATOM     25  H   UNL     1     -12.053  58.291  48.051  0.00  0.00    +0.000 HD
ATOM     26  H   UNL     1     -13.040  55.597  50.845  0.00  0.00    +0.000 HD
ENDBRANCH   1  18
BRANCH   3  27
ATOM     27  O   UNL     1     -12.500  56.039  46.709  0.00  0.00    +0.000 OA
ATOM     28  H   UNL     1     -12.263  56.404  45.880  0.00  0.00    +0.000 HD
ENDBRANCH   3  27
BRANCH   5  29
ATOM     29  C   UNL     1      -8.310  54.099  50.035  0.00  0.00    +0.000 C 
BRANCH  29  30
ATOM     30  C   UNL     1      -8.462  52.664  50.569  0.00  0.00    +0.000 C 
BRANCH  30  31
ATOM     31  C   UNL     1      -9.536  52.436  51.646  0.00  0.00    +0.000 C 
ATOM     32  C   UNL     1      -9.849  50.956  51.853  0.00  0.00    +0.000 C 
ATOM     33  C   UNL     1      -9.045  53.051  52.963  0.00  0.00    +0.000 C 
ENDBRANCH  30  31
ENDBRANCH  29  30
ENDBRANCH   5  29
TORSDOF 5
ENDMDL
MODEL 9
REMARK VINA RESULT:      -7.7      3.165      8.093
REMARK  Name = 338063
REMARK  8 active torsions:
REMARK  status: ('A' for Active; 'I' for Inactive)
REMARK    1  A    between atoms: C_6  and  C_10
REMARK    2  A    between atoms: C_14  and  O_18
REMARK    3  A    between atoms: N_17  and  C_21
REMARK    4  A    between atoms: C_21  and  C_24
REMARK    5  A    between atoms: C_24  and  C_27
REMARK    6  A    between atoms: C_25  and  C_28
REMARK    7  A    between atoms: C_27  and  C_29
REMARK    8  A    between atoms: C_27  and  C_30
REMARK                            x       y       z     vdW  Elec       q    Type
REMARK                         _______ _______ _______ _____ _____    ______ ____
ROOT
ATOM      1  C   UNL     1      -9.793  53.923  50.883  0.00  0.00    +0.000 A 
ATOM      2  C   UNL     1     -10.822  54.977  51.141  0.00  0.00    +0.000 A 
ATOM      3  C   UNL     1      -9.615  53.446  49.640  0.00  0.00    +0.000 A 
ATOM      4  O   UNL     1     -10.879  55.470  52.272  0.00  0.00    +0.000 OA
ATOM      5  N   UNL     1     -11.652  55.373  50.100  0.00  0.00    +0.000 N 
ATOM      6  C   UNL     1     -10.419  53.963  48.523  0.00  0.00    +0.000 A 
ATOM      7  C   UNL     1     -11.406  54.935  48.760  0.00  0.00    +0.000 A 
ATOM      8  C   UNL     1     -10.193  53.510  47.208  0.00  0.00    +0.000 A 
ATOM      9  C   UNL     1     -12.101  55.466  47.664  0.00  0.00    +0.000 A 
ATOM     10  C   UNL     1     -10.927  54.013  46.131  0.00  0.00    +0.000 A 
ATOM     11  C   UNL     1     -11.876  55.003  46.368  0.00  0.00    +0.000 A 
ATOM     12  C   UNL     1     -10.675  53.540  44.731  0.00  0.00    +0.000 C 
ENDROOT
BRANCH   1  18
ATOM     13  S   UNL     1      -6.601  53.316  53.099  0.00  0.00    +0.000 S 
ATOM     14  O   UNL     1      -6.247  54.470  53.905  0.00  0.00    +0.000 OA
ATOM     15  O   UNL     1      -5.573  52.538  52.436  0.00  0.00    +0.000 OA
ATOM     16  N   UNL     1      -7.659  53.810  51.973  0.00  0.00    +0.000 N 
ATOM     17  C   UNL     1      -7.426  52.205  54.180  0.00  0.00    +0.000 A 
ATOM     18  C   UNL     1      -8.911  53.463  52.028  0.00  0.00    +0.000 C 
ATOM     19  C   UNL     1      -8.788  52.020  54.004  0.00  0.00    +0.000 A 
ATOM     20  C   UNL     1      -6.708  51.525  55.166  0.00  0.00    +0.000 A 
ATOM     21  N   UNL     1      -9.494  52.712  53.025  0.00  0.00    +0.000 N 
ATOM     22  C   UNL     1      -9.461  51.178  54.892  0.00  0.00    +0.000 A 
ATOM     23  C   UNL     1      -7.384  50.659  56.023  0.00  0.00    +0.000 A 
ATOM     24  C   UNL     1      -8.764  50.494  55.890  0.00  0.00    +0.000 A 
ATOM     25  H   UNL     1      -7.348  54.384  51.235  0.00  0.00    +0.000 HD
ATOM     26  H   UNL     1     -10.477  52.663  53.046  0.00  0.00    +0.000 HD
ENDBRANCH   1  18
BRANCH   3  27
ATOM     27  O   UNL     1      -8.662  52.503  49.292  0.00  0.00    +0.000 OA
ATOM     28  H   UNL     1      -8.928  51.677  48.939  0.00  0.00    +0.000 HD
ENDBRANCH   3  27
BRANCH   5  29
ATOM     29  C   UNL     1     -12.700  56.358  50.397  0.00  0.00    +0.000 C 
BRANCH  29  30
ATOM     30  C   UNL     1     -13.938  55.823  51.139  0.00  0.00    +0.000 C 
BRANCH  30  31
ATOM     31  C   UNL     1     -14.803  56.857  51.877  0.00  0.00    +0.000 C 
ATOM     32  C   UNL     1     -14.036  57.575  52.985  0.00  0.00    +0.000 C 
ATOM     33  C   UNL     1     -15.320  57.879  50.857  0.00  0.00    +0.000 C 
ENDBRANCH  30  31
ENDBRANCH  29  30
ENDBRANCH   5  29
TORSDOF 5
ENDMDL
