MODEL 1
REMARK VINA RESULT:      -8.7      0.000      0.000
REMARK  Name = 338063
REMARK  8 active torsions:
REMARK  status: ('A' for Active; 'I' for Inactive)
REMARK    1  A    between atoms: C_6  and  C_10
REMARK    2  A    between atoms: C_14  and  O_18
REMARK    3  A    between atoms: N_17  and  C_21
REMARK    4  A    between atoms: C_21  and  C_24
REMARK    5  A    between atoms: C_24  and  C_27
REMARK    6  A    between atoms: C_25  and  C_28
REMARK    7  A    between atoms: C_27  and  C_29
REMARK    8  A    between atoms: C_27  and  C_30
REMARK                            x       y       z     vdW  Elec       q    Type
REMARK                         _______ _______ _______ _____ _____    ______ ____
ROOT
ATOM      1  C   UNL     1     -10.177  54.442  52.218  0.00  0.00    +0.000 A 
ATOM      2  C   UNL     1      -8.790  54.989  52.104  0.00  0.00    +0.000 A 
ATOM      3  C   UNL     1     -10.408  53.342  52.954  0.00  0.00    +0.000 A 
ATOM      4  O   UNL     1      -8.635  56.061  51.513  0.00  0.00    +0.000 OA
ATOM      5  N   UNL     1      -7.740  54.282  52.682  0.00  0.00    +0.000 N 
ATOM      6  C   UNL     1      -9.305  52.674  53.660  0.00  0.00    +0.000 A 
ATOM      7  C   UNL     1      -7.994  53.166  53.537  0.00  0.00    +0.000 A 
ATOM      8  C   UNL     1      -9.555  51.557  54.480  0.00  0.00    +0.000 A 
ATOM      9  C   UNL     1      -6.978  52.554  54.287  0.00  0.00    +0.000 A 
ATOM     10  C   UNL     1      -8.524  50.928  55.185  0.00  0.00    +0.000 A 
ATOM     11  C   UNL     1      -7.235  51.441  55.088  0.00  0.00    +0.000 A 
ATOM     12  C   UNL     1      -8.796  49.748  56.068  0.00  0.00    +0.000 C 
ENDROOT
BRANCH   1  18
ATOM     13  S   UNL     1     -12.468  56.007  49.433  0.00  0.00    +0.000 S 
ATOM     14  O   UNL     1     -13.362  55.034  48.834  0.00  0.00    +0.000 OA
ATOM     15  O   UNL     1     -11.797  56.990  48.603  0.00  0.00    +0.000 OA
ATOM     16  N   UNL     1     -11.334  55.194  50.256  0.00  0.00    +0.000 N 
ATOM     17  C   UNL     1     -13.436  56.920  50.578  0.00  0.00    +0.000 A 
ATOM     18  C   UNL     1     -11.322  55.188  51.556  0.00  0.00    +0.000 C 
ATOM     19  C   UNL     1     -13.200  56.716  51.928  0.00  0.00    +0.000 A 
ATOM     20  C   UNL     1     -14.395  57.826  50.119  0.00  0.00    +0.000 A 
ATOM     21  N   UNL     1     -12.247  55.804  52.371  0.00  0.00    +0.000 N 
ATOM     22  C   UNL     1     -14.005  57.394  52.848  0.00  0.00    +0.000 A 
ATOM     23  C   UNL     1     -15.165  58.522  51.047  0.00  0.00    +0.000 A 
ATOM     24  C   UNL     1     -14.979  58.300  52.410  0.00  0.00    +0.000 A 
ATOM     25  H   UNL     1     -10.641  54.696  49.764  0.00  0.00    +0.000 HD
ATOM     26  H   UNL     1     -12.232  55.584  53.330  0.00  0.00    +0.000 HD
ENDBRANCH   1  18
BRANCH   3  27
ATOM     27  O   UNL     1     -11.658  52.782  53.153  0.00  0.00    +0.000 OA
ATOM     28  H   UNL     1     -12.330  52.892  52.508  0.00  0.00    +0.000 HD
ENDBRANCH   3  27
BRANCH   5  29
ATOM     29  C   UNL     1      -6.380  54.801  52.493  0.00  0.00    +0.000 C 
BRANCH  29  30
ATOM     30  C   UNL     1      -5.546  54.126  51.391  0.00  0.00    +0.000 C 
BRANCH  30  31
ATOM     31  C   UNL     1      -4.178  53.557  51.806  0.00  0.00    +0.000 C 
ATOM     32  C   UNL     1      -3.852  53.837  53.271  0.00  0.00    +0.000 C 
ATOM     33  C   UNL     1      -4.180  52.044  51.557  0.00  0.00    +0.000 C 
ENDBRANCH  30  31
ENDBRANCH  29  30
ENDBRANCH   5  29
TORSDOF 5
ENDMDL
MODEL 2
REMARK VINA RESULT:      -8.3      3.674      5.386
REMARK  Name = 338063
REMARK  8 active torsions:
REMARK  status: ('A' for Active; 'I' for Inactive)
REMARK    1  A    between atoms: C_6  and  C_10
REMARK    2  A    between atoms: C_14  and  O_18
REMARK    3  A    between atoms: N_17  and  C_21
REMARK    4  A    between atoms: C_21  and  C_24
REMARK    5  A    between atoms: C_24  and  C_27
REMARK    6  A    between atoms: C_25  and  C_28
REMARK    7  A    between atoms: C_27  and  C_29
REMARK    8  A    between atoms: C_27  and  C_30
REMARK                            x       y       z     vdW  Elec       q    Type
REMARK                         _______ _______ _______ _____ _____    ______ ____
ROOT
ATOM      1  C   UNL     1     -11.352  56.142  48.730  0.00  0.00    +0.000 A 
ATOM      2  C   UNL     1     -10.160  55.706  49.523  0.00  0.00    +0.000 A 
ATOM      3  C   UNL     1     -11.538  55.673  47.483  0.00  0.00    +0.000 A 
ATOM      4  O   UNL     1     -10.083  56.068  50.699  0.00  0.00    +0.000 OA
ATOM      5  N   UNL     1      -9.206  54.899  48.912  0.00  0.00    +0.000 N 
ATOM      6  C   UNL     1     -10.582  54.724  46.895  0.00  0.00    +0.000 A 
ATOM      7  C   UNL     1      -9.446  54.330  47.623  0.00  0.00    +0.000 A 
ATOM      8  C   UNL     1     -10.807  54.187  45.613  0.00  0.00    +0.000 A 
ATOM      9  C   UNL     1      -8.597  53.363  47.065  0.00  0.00    +0.000 A 
ATOM     10  C   UNL     1      -9.927  53.258  45.049  0.00  0.00    +0.000 A 
ATOM     11  C   UNL     1      -8.825  52.845  45.789  0.00  0.00    +0.000 A 
ATOM     12  C   UNL     1     -10.178  52.678  43.690  0.00  0.00    +0.000 C 
ENDROOT
BRANCH   1  18
ATOM     13  S   UNL     1     -13.557  59.310  49.467  0.00  0.00    +0.000 S 
ATOM     14  O   UNL     1     -14.704  59.410  48.584  0.00  0.00    +0.000 OA
ATOM     15  O   UNL     1     -12.791  60.495  49.805  0.00  0.00    +0.000 OA
ATOM     16  N   UNL     1     -12.538  58.223  48.831  0.00  0.00    +0.000 N 
ATOM     17  C   UNL     1     -14.166  58.677  50.987  0.00  0.00    +0.000 A 
ATOM     18  C   UNL     1     -12.377  57.054  49.377  0.00  0.00    +0.000 C 
ATOM     19  C   UNL     1     -13.824  57.378  51.326  0.00  0.00    +0.000 A 
ATOM     20  C   UNL     1     -14.954  59.480  51.815  0.00  0.00    +0.000 A 
ATOM     21  N   UNL     1     -13.046  56.587  50.488  0.00  0.00    +0.000 N 
ATOM     22  C   UNL     1     -14.352  56.845  52.507  0.00  0.00    +0.000 A 
ATOM     23  C   UNL     1     -15.442  58.948  53.005  0.00  0.00    +0.000 A 
ATOM     24  C   UNL     1     -15.151  57.629  53.347  0.00  0.00    +0.000 A 
ATOM     25  H   UNL     1     -12.032  58.452  48.019  0.00  0.00    +0.000 HD
ATOM     26  H   UNL     1     -12.968  55.629  50.701  0.00  0.00    +0.000 HD
ENDBRANCH   1  18
BRANCH   3  27
ATOM     27  O   UNL     1     -12.625  55.984  46.685  0.00  0.00    +0.000 OA
ATOM     28  H   UNL     1     -12.537  55.982  45.752  0.00  0.00    +0.000 HD
ENDBRANCH   3  27
BRANCH   5  29
ATOM     29  C   UNL     1      -8.011  54.546  49.688  0.00  0.00    +0.000 C 
BRANCH  29  30
ATOM     30  C   UNL     1      -6.849  55.553  49.636  0.00  0.00    +0.000 C 
BRANCH  30  31
ATOM     31  C   UNL     1      -5.425  54.972  49.666  0.00  0.00    +0.000 C 
ATOM     32  C   UNL     1      -5.113  54.264  50.982  0.00  0.00    +0.000 C 
ATOM     33  C   UNL     1      -5.274  53.986  48.500  0.00  0.00    +0.000 C 
ENDBRANCH  30  31
ENDBRANCH  29  30
ENDBRANCH   5  29
TORSDOF 5
ENDMDL
MODEL 3
REMARK VINA RESULT:      -8.1      3.725      4.710
REMARK  Name = 338063
REMARK  8 active torsions:
REMARK  status: ('A' for Active; 'I' for Inactive)
REMARK    1  A    between atoms: C_6  and  C_10
REMARK    2  A    between atoms: C_14  and  O_18
REMARK    3  A    between atoms: N_17  and  C_21
REMARK    4  A    between atoms: C_21  and  C_24
REMARK    5  A    between atoms: C_24  and  C_27
REMARK    6  A    between atoms: C_25  and  C_28
REMARK    7  A    between atoms: C_27  and  C_29
REMARK    8  A    between atoms: C_27  and  C_30
REMARK                            x       y       z     vdW  Elec       q    Type
REMARK                         _______ _______ _______ _____ _____    ______ ____
ROOT
ATOM      1  C   UNL     1     -12.374  54.259  49.862  0.00  0.00    +0.000 A 
ATOM      2  C   UNL     1     -11.911  54.108  48.447  0.00  0.00    +0.000 A 
ATOM      3  C   UNL     1     -11.990  53.370  50.794  0.00  0.00    +0.000 A 
ATOM      4  O   UNL     1     -12.192  55.003  47.646  0.00  0.00    +0.000 OA
ATOM      5  N   UNL     1     -11.170  52.983  48.100  0.00  0.00    +0.000 N 
ATOM      6  C   UNL     1     -11.106  52.251  50.435  0.00  0.00    +0.000 A 
ATOM      7  C   UNL     1     -10.687  52.087  49.104  0.00  0.00    +0.000 A 
ATOM      8  C   UNL     1     -10.654  51.354  51.422  0.00  0.00    +0.000 A 
ATOM      9  C   UNL     1      -9.780  51.058  48.811  0.00  0.00    +0.000 A 
ATOM     10  C   UNL     1      -9.787  50.303  51.107  0.00  0.00    +0.000 A 
ATOM     11  C   UNL     1      -9.347  50.168  49.795  0.00  0.00    +0.000 A 
ATOM     12  C   UNL     1      -9.297  49.359  52.163  0.00  0.00    +0.000 C 
ENDROOT
BRANCH   1  18
ATOM     13  S   UNL     1     -15.372  56.415  51.208  0.00  0.00    +0.000 S 
ATOM     14  O   UNL     1     -15.359  56.548  52.653  0.00  0.00    +0.000 OA
ATOM     15  O   UNL     1     -16.622  56.188  50.507  0.00  0.00    +0.000 OA
ATOM     16  N   UNL     1     -14.355  55.217  50.815  0.00  0.00    +0.000 N 
ATOM     17  C   UNL     1     -14.728  57.919  50.573  0.00  0.00    +0.000 A 
ATOM     18  C   UNL     1     -13.216  55.464  50.239  0.00  0.00    +0.000 C 
ATOM     19  C   UNL     1     -13.468  57.888  49.997  0.00  0.00    +0.000 A 
ATOM     20  C   UNL     1     -15.484  59.092  50.646  0.00  0.00    +0.000 A 
ATOM     21  N   UNL     1     -12.723  56.715  49.939  0.00  0.00    +0.000 N 
ATOM     22  C   UNL     1     -12.922  59.092  49.541  0.00  0.00    +0.000 A 
ATOM     23  C   UNL     1     -14.942  60.276  50.155  0.00  0.00    +0.000 A 
ATOM     24  C   UNL     1     -13.659  60.280  49.612  0.00  0.00    +0.000 A 
ATOM     25  H   UNL     1     -14.605  54.285  51.013  0.00  0.00    +0.000 HD
ATOM     26  H   UNL     1     -11.779  56.783  49.666  0.00  0.00    +0.000 HD
ENDBRANCH   1  18
BRANCH   3  27
ATOM     27  O   UNL     1     -12.332  53.443  52.133  0.00  0.00    +0.000 OA
ATOM     28  H   UNL     1     -12.944  52.832  52.496  0.00  0.00    +0.000 HD
ENDBRANCH   3  27
BRANCH   5  29
ATOM     29  C   UNL     1     -10.790  52.822  46.692  0.00  0.00    +0.000 C 
BRANCH  29  30
ATOM     30  C   UNL     1      -9.330  53.160  46.342  0.00  0.00    +0.000 C 
BRANCH  30  31
ATOM     31  C   UNL     1      -8.983  54.650  46.181  0.00  0.00    +0.000 C 
ATOM     32  C   UNL     1      -8.619  55.310  47.508  0.00  0.00    +0.000 C 
ATOM     33  C   UNL     1      -7.809  54.776  45.201  0.00  0.00    +0.000 C 
ENDBRANCH  30  31
ENDBRANCH  29  30
ENDBRANCH   5  29
TORSDOF 5
ENDMDL
MODEL 4
REMARK VINA RESULT:      -7.9      4.294      6.236
REMARK  Name = 338063
REMARK  8 active torsions:
REMARK  status: ('A' for Active; 'I' for Inactive)
REMARK    1  A    between atoms: C_6  and  C_10
REMARK    2  A    between atoms: C_14  and  O_18
REMARK    3  A    between atoms: N_17  and  C_21
REMARK    4  A    between atoms: C_21  and  C_24
REMARK    5  A    between atoms: C_24  and  C_27
REMARK    6  A    between atoms: C_25  and  C_28
REMARK    7  A    between atoms: C_27  and  C_29
REMARK    8  A    between atoms: C_27  and  C_30
REMARK                            x       y       z     vdW  Elec       q    Type
REMARK                         _______ _______ _______ _____ _____    ______ ____
ROOT
ATOM      1  C   UNL     1     -10.806  55.657  48.703  0.00  0.00    +0.000 A 
ATOM      2  C   UNL     1     -11.157  55.209  47.319  0.00  0.00    +0.000 A 
ATOM      3  C   UNL     1      -9.560  55.472  49.174  0.00  0.00    +0.000 A 
ATOM      4  O   UNL     1     -12.274  55.495  46.883  0.00  0.00    +0.000 OA
ATOM      5  N   UNL     1     -10.209  54.510  46.579  0.00  0.00    +0.000 N 
ATOM      6  C   UNL     1      -8.533  54.840  48.333  0.00  0.00    +0.000 A 
ATOM      7  C   UNL     1      -8.861  54.392  47.042  0.00  0.00    +0.000 A 
ATOM      8  C   UNL     1      -7.214  54.701  48.804  0.00  0.00    +0.000 A 
ATOM      9  C   UNL     1      -7.839  53.867  46.237  0.00  0.00    +0.000 A 
ATOM     10  C   UNL     1      -6.214  54.132  48.008  0.00  0.00    +0.000 A 
ATOM     11  C   UNL     1      -6.537  53.724  46.718  0.00  0.00    +0.000 A 
ATOM     12  C   UNL     1      -4.808  53.998  48.506  0.00  0.00    +0.000 C 
ENDROOT
BRANCH   1  18
ATOM     13  S   UNL     1     -13.531  56.369  51.444  0.00  0.00    +0.000 S 
ATOM     14  O   UNL     1     -12.953  56.680  52.738  0.00  0.00    +0.000 OA
ATOM     15  O   UNL     1     -14.696  55.510  51.353  0.00  0.00    +0.000 OA
ATOM     16  N   UNL     1     -12.363  55.724  50.525  0.00  0.00    +0.000 N 
ATOM     17  C   UNL     1     -14.006  57.905  50.739  0.00  0.00    +0.000 A 
ATOM     18  C   UNL     1     -11.849  56.385  49.531  0.00  0.00    +0.000 C 
ATOM     19  C   UNL     1     -13.270  58.375  49.663  0.00  0.00    +0.000 A 
ATOM     20  C   UNL     1     -15.100  58.604  51.255  0.00  0.00    +0.000 A 
ATOM     21  N   UNL     1     -12.177  57.673  49.166  0.00  0.00    +0.000 N 
ATOM     22  C   UNL     1     -13.604  59.625  49.133  0.00  0.00    +0.000 A 
ATOM     23  C   UNL     1     -15.443  59.831  50.692  0.00  0.00    +0.000 A 
ATOM     24  C   UNL     1     -14.691  60.347  49.639  0.00  0.00    +0.000 A 
ATOM     25  H   UNL     1     -12.039  54.816  50.722  0.00  0.00    +0.000 HD
ATOM     26  H   UNL     1     -11.599  58.126  48.511  0.00  0.00    +0.000 HD
ENDBRANCH   1  18
BRANCH   3  27
ATOM     27  O   UNL     1      -9.127  55.885  50.421  0.00  0.00    +0.000 OA
ATOM     28  H   UNL     1      -9.069  55.269  51.126  0.00  0.00    +0.000 HD
ENDBRANCH   3  27
BRANCH   5  29
ATOM     29  C   UNL     1     -10.602  54.017  45.254  0.00  0.00    +0.000 C 
BRANCH  29  30
ATOM     30  C   UNL     1     -11.115  52.568  45.196  0.00  0.00    +0.000 C 
BRANCH  30  31
ATOM     31  C   UNL     1     -10.546  51.675  44.081  0.00  0.00    +0.000 C 
ATOM     32  C   UNL     1      -9.892  52.484  42.963  0.00  0.00    +0.000 C 
ATOM     33  C   UNL     1      -9.516  50.718  44.697  0.00  0.00    +0.000 C 
ENDBRANCH  30  31
ENDBRANCH  29  30
ENDBRANCH   5  29
TORSDOF 5
ENDMDL
MODEL 5
REMARK VINA RESULT:      -7.8      3.949      5.663
REMARK  Name = 338063
REMARK  8 active torsions:
REMARK  status: ('A' for Active; 'I' for Inactive)
REMARK    1  A    between atoms: C_6  and  C_10
REMARK    2  A    between atoms: C_14  and  O_18
REMARK    3  A    between atoms: N_17  and  C_21
REMARK    4  A    between atoms: C_21  and  C_24
REMARK    5  A    between atoms: C_24  and  C_27
REMARK    6  A    between atoms: C_25  and  C_28
REMARK    7  A    between atoms: C_27  and  C_29
REMARK    8  A    between atoms: C_27  and  C_30
REMARK                            x       y       z     vdW  Elec       q    Type
REMARK                         _______ _______ _______ _____ _____    ______ ____
ROOT
ATOM      1  C   UNL     1     -10.730  55.695  48.465  0.00  0.00    +0.000 A 
ATOM      2  C   UNL     1      -9.329  55.534  48.962  0.00  0.00    +0.000 A 
ATOM      3  C   UNL     1     -11.083  55.192  47.269  0.00  0.00    +0.000 A 
ATOM      4  O   UNL     1      -9.072  55.910  50.108  0.00  0.00    +0.000 OA
ATOM      5  N   UNL     1      -8.382  54.953  48.123  0.00  0.00    +0.000 N 
ATOM      6  C   UNL     1     -10.100  54.472  46.446  0.00  0.00    +0.000 A 
ATOM      7  C   UNL     1      -8.774  54.339  46.893  0.00  0.00    +0.000 A 
ATOM      8  C   UNL     1     -10.482  53.893  45.221  0.00  0.00    +0.000 A 
ATOM      9  C   UNL     1      -7.882  53.578  46.122  0.00  0.00    +0.000 A 
ATOM     10  C   UNL     1      -9.570  53.177  44.440  0.00  0.00    +0.000 A 
ATOM     11  C   UNL     1      -8.270  53.018  44.905  0.00  0.00    +0.000 A 
ATOM     12  C   UNL     1      -9.985  52.550  43.143  0.00  0.00    +0.000 C 
ENDROOT
BRANCH   1  18
ATOM     13  S   UNL     1     -13.373  56.229  51.325  0.00  0.00    +0.000 S 
ATOM     14  O   UNL     1     -12.757  56.497  52.611  0.00  0.00    +0.000 OA
ATOM     15  O   UNL     1     -14.523  55.350  51.236  0.00  0.00    +0.000 OA
ATOM     16  N   UNL     1     -12.225  55.650  50.339  0.00  0.00    +0.000 N 
ATOM     17  C   UNL     1     -13.904  57.783  50.704  0.00  0.00    +0.000 A 
ATOM     18  C   UNL     1     -11.759  56.364  49.358  0.00  0.00    +0.000 C 
ATOM     19  C   UNL     1     -13.216  58.315  49.626  0.00  0.00    +0.000 A 
ATOM     20  C   UNL     1     -14.994  58.435  51.286  0.00  0.00    +0.000 A 
ATOM     21  N   UNL     1     -12.126  57.658  49.062  0.00  0.00    +0.000 N 
ATOM     22  C   UNL     1     -13.593  59.579  49.162  0.00  0.00    +0.000 A 
ATOM     23  C   UNL     1     -15.381  59.677  50.790  0.00  0.00    +0.000 A 
ATOM     24  C   UNL     1     -14.677  60.254  49.735  0.00  0.00    +0.000 A 
ATOM     25  H   UNL     1     -11.875  54.741  50.486  0.00  0.00    +0.000 HD
ATOM     26  H   UNL     1     -11.581  58.152  48.407  0.00  0.00    +0.000 HD
ENDBRANCH   1  18
BRANCH   3  27
ATOM     27  O   UNL     1     -12.359  55.255  46.740  0.00  0.00    +0.000 OA
ATOM     28  H   UNL     1     -12.909  55.992  46.924  0.00  0.00    +0.000 HD
ENDBRANCH   3  27
BRANCH   5  29
ATOM     29  C   UNL     1      -6.998  54.873  48.606  0.00  0.00    +0.000 C 
BRANCH  29  30
ATOM     30  C   UNL     1      -6.646  53.633  49.446  0.00  0.00    +0.000 C 
BRANCH  30  31
ATOM     31  C   UNL     1      -5.167  53.213  49.477  0.00  0.00    +0.000 C 
ATOM     32  C   UNL     1      -4.439  53.549  48.178  0.00  0.00    +0.000 C 
ATOM     33  C   UNL     1      -4.481  53.921  50.653  0.00  0.00    +0.000 C 
ENDBRANCH  30  31
ENDBRANCH  29  30
ENDBRANCH   5  29
TORSDOF 5
ENDMDL
MODEL 6
REMARK VINA RESULT:      -7.7      4.539      7.153
REMARK  Name = 338063
REMARK  8 active torsions:
REMARK  status: ('A' for Active; 'I' for Inactive)
REMARK    1  A    between atoms: C_6  and  C_10
REMARK    2  A    between atoms: C_14  and  O_18
REMARK    3  A    between atoms: N_17  and  C_21
REMARK    4  A    between atoms: C_21  and  C_24
REMARK    5  A    between atoms: C_24  and  C_27
REMARK    6  A    between atoms: C_25  and  C_28
REMARK    7  A    between atoms: C_27  and  C_29
REMARK    8  A    between atoms: C_27  and  C_30
REMARK                            x       y       z     vdW  Elec       q    Type
REMARK                         _______ _______ _______ _____ _____    ______ ____
ROOT
ATOM      1  C   UNL     1     -10.786  54.454  48.698  0.00  0.00    +0.000 A 
ATOM      2  C   UNL     1     -10.296  54.019  50.043  0.00  0.00    +0.000 A 
ATOM      3  C   UNL     1     -11.797  55.335  48.603  0.00  0.00    +0.000 A 
ATOM      4  O   UNL     1      -9.298  53.297  50.091  0.00  0.00    +0.000 OA
ATOM      5  N   UNL     1     -10.971  54.459  51.177  0.00  0.00    +0.000 N 
ATOM      6  C   UNL     1     -12.420  55.886  49.815  0.00  0.00    +0.000 A 
ATOM      7  C   UNL     1     -11.984  55.463  51.082  0.00  0.00    +0.000 A 
ATOM      8  C   UNL     1     -13.437  56.854  49.717  0.00  0.00    +0.000 A 
ATOM      9  C   UNL     1     -12.544  56.067  52.218  0.00  0.00    +0.000 A 
ATOM     10  C   UNL     1     -14.021  57.414  50.858  0.00  0.00    +0.000 A 
ATOM     11  C   UNL     1     -13.559  57.018  52.109  0.00  0.00    +0.000 A 
ATOM     12  C   UNL     1     -15.093  58.454  50.751  0.00  0.00    +0.000 C 
ENDROOT
BRANCH   1  18
ATOM     13  S   UNL     1      -8.034  53.959  45.936  0.00  0.00    +0.000 S 
ATOM     14  O   UNL     1      -6.992  53.037  46.345  0.00  0.00    +0.000 OA
ATOM     15  O   UNL     1      -7.695  55.173  45.219  0.00  0.00    +0.000 OA
ATOM     16  N   UNL     1      -8.870  54.378  47.259  0.00  0.00    +0.000 N 
ATOM     17  C   UNL     1      -9.098  53.052  44.873  0.00  0.00    +0.000 A 
ATOM     18  C   UNL     1     -10.080  53.946  47.454  0.00  0.00    +0.000 C 
ATOM     19  C   UNL     1     -10.359  52.728  45.348  0.00  0.00    +0.000 A 
ATOM     20  C   UNL     1      -8.670  52.694  43.592  0.00  0.00    +0.000 A 
ATOM     21  N   UNL     1     -10.768  53.084  46.629  0.00  0.00    +0.000 N 
ATOM     22  C   UNL     1     -11.192  51.956  44.531  0.00  0.00    +0.000 A 
ATOM     23  C   UNL     1      -9.524  51.956  42.777  0.00  0.00    +0.000 A 
ATOM     24  C   UNL     1     -10.780  51.578  43.248  0.00  0.00    +0.000 A 
ATOM     25  H   UNL     1      -8.454  54.971  47.926  0.00  0.00    +0.000 HD
ATOM     26  H   UNL     1     -11.605  52.693  46.969  0.00  0.00    +0.000 HD
ENDBRANCH   1  18
BRANCH   3  27
ATOM     27  O   UNL     1     -12.295  55.828  47.410  0.00  0.00    +0.000 OA
ATOM     28  H   UNL     1     -12.731  56.658  47.390  0.00  0.00    +0.000 HD
ENDBRANCH   3  27
BRANCH   5  29
ATOM     29  C   UNL     1     -10.515  53.960  52.480  0.00  0.00    +0.000 C 
BRANCH  29  30
ATOM     30  C   UNL     1      -9.622  54.912  53.294  0.00  0.00    +0.000 C 
BRANCH  30  31
ATOM     31  C   UNL     1      -8.118  54.896  52.972  0.00  0.00    +0.000 C 
ATOM     32  C   UNL     1      -7.738  55.932  51.917  0.00  0.00    +0.000 C 
ATOM     33  C   UNL     1      -7.337  55.164  54.265  0.00  0.00    +0.000 C 
ENDBRANCH  30  31
ENDBRANCH  29  30
ENDBRANCH   5  29
TORSDOF 5
ENDMDL
MODEL 7
REMARK VINA RESULT:      -7.7      3.981      5.976
REMARK  Name = 338063
REMARK  8 active torsions:
REMARK  status: ('A' for Active; 'I' for Inactive)
REMARK    1  A    between atoms: C_6  and  C_10
REMARK    2  A    between atoms: C_14  and  O_18
REMARK    3  A    between atoms: N_17  and  C_21
REMARK    4  A    between atoms: C_21  and  C_24
REMARK    5  A    between atoms: C_24  and  C_27
REMARK    6  A    between atoms: C_25  and  C_28
REMARK    7  A    between atoms: C_27  and  C_29
REMARK    8  A    between atoms: C_27  and  C_30
REMARK                            x       y       z     vdW  Elec       q    Type
REMARK                         _______ _______ _______ _____ _____    ______ ____
ROOT
ATOM      1  C   UNL     1     -11.366  56.067  48.690  0.00  0.00    +0.000 A 
ATOM      2  C   UNL     1     -11.615  55.571  47.301  0.00  0.00    +0.000 A 
ATOM      3  C   UNL     1     -10.225  55.746  49.325  0.00  0.00    +0.000 A 
ATOM      4  O   UNL     1     -12.619  55.978  46.711  0.00  0.00    +0.000 OA
ATOM      5  N   UNL     1     -10.701  54.693  46.728  0.00  0.00    +0.000 N 
ATOM      6  C   UNL     1      -9.212  54.915  48.658  0.00  0.00    +0.000 A 
ATOM      7  C   UNL     1      -9.449  54.423  47.363  0.00  0.00    +0.000 A 
ATOM      8  C   UNL     1      -7.992  54.627  49.298  0.00  0.00    +0.000 A 
ATOM      9  C   UNL     1      -8.429  53.701  46.725  0.00  0.00    +0.000 A 
ATOM     10  C   UNL     1      -7.002  53.866  48.669  0.00  0.00    +0.000 A 
ATOM     11  C   UNL     1      -7.228  53.413  47.374  0.00  0.00    +0.000 A 
ATOM     12  C   UNL     1      -5.698  53.573  49.348  0.00  0.00    +0.000 C 
ENDROOT
BRANCH   1  18
ATOM     13  S   UNL     1     -13.527  59.267  49.425  0.00  0.00    +0.000 S 
ATOM     14  O   UNL     1     -14.672  59.382  48.542  0.00  0.00    +0.000 OA
ATOM     15  O   UNL     1     -12.745  60.441  49.763  0.00  0.00    +0.000 OA
ATOM     16  N   UNL     1     -12.523  58.165  48.791  0.00  0.00    +0.000 N 
ATOM     17  C   UNL     1     -14.144  58.643  50.946  0.00  0.00    +0.000 A 
ATOM     18  C   UNL     1     -12.379  56.994  49.337  0.00  0.00    +0.000 C 
ATOM     19  C   UNL     1     -13.821  57.340  51.286  0.00  0.00    +0.000 A 
ATOM     20  C   UNL     1     -14.921  59.458  51.774  0.00  0.00    +0.000 A 
ATOM     21  N   UNL     1     -13.053  56.538  50.448  0.00  0.00    +0.000 N 
ATOM     22  C   UNL     1     -14.356  56.815  52.467  0.00  0.00    +0.000 A 
ATOM     23  C   UNL     1     -15.416  58.933  52.964  0.00  0.00    +0.000 A 
ATOM     24  C   UNL     1     -15.144  57.610  53.307  0.00  0.00    +0.000 A 
ATOM     25  H   UNL     1     -12.014  58.386  47.978  0.00  0.00    +0.000 HD
ATOM     26  H   UNL     1     -12.989  55.579  50.662  0.00  0.00    +0.000 HD
ENDBRANCH   1  18
BRANCH   3  27
ATOM     27  O   UNL     1      -9.884  56.185  50.592  0.00  0.00    +0.000 OA
ATOM     28  H   UNL     1     -10.001  55.621  51.332  0.00  0.00    +0.000 HD
ENDBRANCH   3  27
BRANCH   5  29
ATOM     29  C   UNL     1     -11.005  54.164  45.393  0.00  0.00    +0.000 C 
BRANCH  29  30
ATOM     30  C   UNL     1     -11.970  52.966  45.345  0.00  0.00    +0.000 C 
BRANCH  30  31
ATOM     31  C   UNL     1     -11.347  51.585  45.080  0.00  0.00    +0.000 C 
ATOM     32  C   UNL     1     -10.182  51.650  44.095  0.00  0.00    +0.000 C 
ATOM     33  C   UNL     1     -10.865  51.001  46.414  0.00  0.00    +0.000 C 
ENDBRANCH  30  31
ENDBRANCH  29  30
ENDBRANCH   5  29
TORSDOF 5
ENDMDL
MODEL 8
REMARK VINA RESULT:      -7.7      3.223      8.206
REMARK  Name = 338063
REMARK  8 active torsions:
REMARK  status: ('A' for Active; 'I' for Inactive)
REMARK    1  A    between atoms: C_6  and  C_10
REMARK    2  A    between atoms: C_14  and  O_18
REMARK    3  A    between atoms: N_17  and  C_21
REMARK    4  A    between atoms: C_21  and  C_24
REMARK    5  A    between atoms: C_24  and  C_27
REMARK    6  A    between atoms: C_25  and  C_28
REMARK    7  A    between atoms: C_27  and  C_29
REMARK    8  A    between atoms: C_27  and  C_30
REMARK                            x       y       z     vdW  Elec       q    Type
REMARK                         _______ _______ _______ _____ _____    ______ ____
ROOT
ATOM      1  C   UNL     1      -9.763  53.939  50.892  0.00  0.00    +0.000 A 
ATOM      2  C   UNL     1     -10.798  54.992  51.138  0.00  0.00    +0.000 A 
ATOM      3  C   UNL     1      -9.577  53.455  49.652  0.00  0.00    +0.000 A 
ATOM      4  O   UNL     1     -10.863  55.490  52.264  0.00  0.00    +0.000 OA
ATOM      5  N   UNL     1     -11.626  55.376  50.088  0.00  0.00    +0.000 N 
ATOM      6  C   UNL     1     -10.379  53.960  48.528  0.00  0.00    +0.000 A 
ATOM      7  C   UNL     1     -11.371  54.929  48.754  0.00  0.00    +0.000 A 
ATOM      8  C   UNL     1     -10.144  53.497  47.220  0.00  0.00    +0.000 A 
ATOM      9  C   UNL     1     -12.063  55.448  47.649  0.00  0.00    +0.000 A 
ATOM     10  C   UNL     1     -10.873  53.988  46.133  0.00  0.00    +0.000 A 
ATOM     11  C   UNL     1     -11.829  54.974  46.358  0.00  0.00    +0.000 A 
ATOM     12  C   UNL     1     -10.611  53.503  44.739  0.00  0.00    +0.000 C 
ENDROOT
BRANCH   1  18
ATOM     13  S   UNL     1      -6.585  53.395  53.140  0.00  0.00    +0.000 S 
ATOM     14  O   UNL     1      -6.281  54.548  53.965  0.00  0.00    +0.000 OA
ATOM     15  O   UNL     1      -5.517  52.666  52.482  0.00  0.00    +0.000 OA
ATOM     16  N   UNL     1      -7.640  53.866  52.004  0.00  0.00    +0.000 N 
ATOM     17  C   UNL     1      -7.383  52.238  54.192  0.00  0.00    +0.000 A 
ATOM     18  C   UNL     1      -8.882  53.486  52.043  0.00  0.00    +0.000 C 
ATOM     19  C   UNL     1      -8.738  52.021  53.999  0.00  0.00    +0.000 A 
ATOM     20  C   UNL     1      -6.653  51.562  55.172  0.00  0.00    +0.000 A 
ATOM     21  N   UNL     1      -9.454  52.708  53.025  0.00  0.00    +0.000 N 
ATOM     22  C   UNL     1      -9.395  51.145  54.870  0.00  0.00    +0.000 A 
ATOM     23  C   UNL     1      -7.313  50.666  56.008  0.00  0.00    +0.000 A 
ATOM     24  C   UNL     1      -8.684  50.464  55.865  0.00  0.00    +0.000 A 
ATOM     25  H   UNL     1      -7.334  54.448  51.271  0.00  0.00    +0.000 HD
ATOM     26  H   UNL     1     -10.436  52.633  53.038  0.00  0.00    +0.000 HD
ENDBRANCH   1  18
BRANCH   3  27
ATOM     27  O   UNL     1      -8.622  52.511  49.316  0.00  0.00    +0.000 OA
ATOM     28  H   UNL     1      -8.626  51.671  49.732  0.00  0.00    +0.000 HD
ENDBRANCH   3  27
BRANCH   5  29
ATOM     29  C   UNL     1     -12.681  56.356  50.372  0.00  0.00    +0.000 C 
BRANCH  29  30
ATOM     30  C   UNL     1     -14.070  55.780  50.694  0.00  0.00    +0.000 C 
BRANCH  30  31
ATOM     31  C   UNL     1     -15.181  56.792  51.023  0.00  0.00    +0.000 C 
ATOM     32  C   UNL     1     -16.564  56.293  50.612  0.00  0.00    +0.000 C 
ATOM     33  C   UNL     1     -15.159  57.070  52.532  0.00  0.00    +0.000 C 
ENDBRANCH  30  31
ENDBRANCH  29  30
ENDBRANCH   5  29
TORSDOF 5
ENDMDL
MODEL 9
REMARK VINA RESULT:      -7.6      1.625      3.925
REMARK  Name = 338063
REMARK  8 active torsions:
REMARK  status: ('A' for Active; 'I' for Inactive)
REMARK    1  A    between atoms: C_6  and  C_10
REMARK    2  A    between atoms: C_14  and  O_18
REMARK    3  A    between atoms: N_17  and  C_21
REMARK    4  A    between atoms: C_21  and  C_24
REMARK    5  A    between atoms: C_24  and  C_27
REMARK    6  A    between atoms: C_25  and  C_28
REMARK    7  A    between atoms: C_27  and  C_29
REMARK    8  A    between atoms: C_27  and  C_30
REMARK                            x       y       z     vdW  Elec       q    Type
REMARK                         _______ _______ _______ _____ _____    ______ ____
ROOT
ATOM      1  C   UNL     1     -10.701  55.024  50.948  0.00  0.00    +0.000 A 
ATOM      2  C   UNL     1     -10.823  53.701  51.634  0.00  0.00    +0.000 A 
ATOM      3  C   UNL     1      -9.530  55.394  50.401  0.00  0.00    +0.000 A 
ATOM      4  O   UNL     1     -11.939  53.349  52.024  0.00  0.00    +0.000 OA
ATOM      5  N   UNL     1      -9.683  52.917  51.786  0.00  0.00    +0.000 N 
ATOM      6  C   UNL     1      -8.365  54.500  50.464  0.00  0.00    +0.000 A 
ATOM      7  C   UNL     1      -8.462  53.266  51.130  0.00  0.00    +0.000 A 
ATOM      8  C   UNL     1      -7.155  54.860  49.841  0.00  0.00    +0.000 A 
ATOM      9  C   UNL     1      -7.357  52.402  51.102  0.00  0.00    +0.000 A 
ATOM     10  C   UNL     1      -6.045  54.009  49.861  0.00  0.00    +0.000 A 
ATOM     11  C   UNL     1      -6.159  52.774  50.491  0.00  0.00    +0.000 A 
ATOM     12  C   UNL     1      -4.763  54.389  49.185  0.00  0.00    +0.000 C 
ENDROOT
BRANCH   1  18
ATOM     13  S   UNL     1     -13.497  57.271  49.341  0.00  0.00    +0.000 S 
ATOM     14  O   UNL     1     -14.551  56.492  48.719  0.00  0.00    +0.000 OA
ATOM     15  O   UNL     1     -12.992  58.465  48.691  0.00  0.00    +0.000 OA
ATOM     16  N   UNL     1     -12.243  56.281  49.609  0.00  0.00    +0.000 N 
ATOM     17  C   UNL     1     -14.130  57.797  50.892  0.00  0.00    +0.000 A 
ATOM     18  C   UNL     1     -11.931  55.903  50.813  0.00  0.00    +0.000 C 
ATOM     19  C   UNL     1     -13.598  57.219  52.034  0.00  0.00    +0.000 A 
ATOM     20  C   UNL     1     -15.126  58.774  50.948  0.00  0.00    +0.000 A 
ATOM     21  N   UNL     1     -12.612  56.240  51.962  0.00  0.00    +0.000 N 
ATOM     22  C   UNL     1     -14.136  57.588  53.271  0.00  0.00    +0.000 A 
ATOM     23  C   UNL     1     -15.626  59.158  52.189  0.00  0.00    +0.000 A 
ATOM     24  C   UNL     1     -15.140  58.559  53.349  0.00  0.00    +0.000 A 
ATOM     25  H   UNL     1     -11.708  55.961  48.847  0.00  0.00    +0.000 HD
ATOM     26  H   UNL     1     -12.387  55.754  52.788  0.00  0.00    +0.000 HD
ENDBRANCH   1  18
BRANCH   3  27
ATOM     27  O   UNL     1      -9.326  56.577  49.713  0.00  0.00    +0.000 OA
ATOM     28  H   UNL     1      -9.895  56.813  49.006  0.00  0.00    +0.000 HD
ENDBRANCH   3  27
BRANCH   5  29
ATOM     29  C   UNL     1      -9.814  51.656  52.527  0.00  0.00    +0.000 C 
BRANCH  29  30
ATOM     30  C   UNL     1      -9.564  51.734  54.043  0.00  0.00    +0.000 C 
BRANCH  30  31
ATOM     31  C   UNL     1      -8.354  50.956  54.587  0.00  0.00    +0.000 C 
ATOM     32  C   UNL     1      -7.128  51.845  54.777  0.00  0.00    +0.000 C 
ATOM     33  C   UNL     1      -8.744  50.318  55.927  0.00  0.00    +0.000 C 
ENDBRANCH  30  31
ENDBRANCH  29  30
ENDBRANCH   5  29
TORSDOF 5
ENDMDL
