MODEL 1
REMARK VINA RESULT:      -8.2      0.000      0.000
REMARK  Name = 298159
REMARK  7 active torsions:
REMARK  status: ('A' for Active; 'I' for Inactive)
REMARK    1  A    between atoms: C_6  and  C_10
REMARK    2  A    between atoms: C_14  and  O_18
REMARK    3  A    between atoms: N_17  and  C_21
REMARK    4  A    between atoms: C_21  and  C_24
REMARK    5  A    between atoms: C_24  and  C_27
REMARK    6  A    between atoms: C_27  and  C_28
REMARK    7  A    between atoms: C_27  and  C_29
REMARK                            x       y       z     vdW  Elec       q    Type
REMARK                         _______ _______ _______ _____ _____    ______ ____
ROOT
ATOM      1  C   UNL     1     -10.162  54.361  52.320  0.00  0.00    +0.000 A 
ATOM      2  C   UNL     1      -8.786  54.948  52.287  0.00  0.00    +0.000 A 
ATOM      3  C   UNL     1     -10.398  53.238  53.018  0.00  0.00    +0.000 A 
ATOM      4  O   UNL     1      -8.637  56.056  51.761  0.00  0.00    +0.000 OA
ATOM      5  N   UNL     1      -7.742  54.233  52.862  0.00  0.00    +0.000 N 
ATOM      6  C   UNL     1      -9.311  52.579  53.752  0.00  0.00    +0.000 A 
ATOM      7  C   UNL     1      -8.001  53.091  53.678  0.00  0.00    +0.000 A 
ATOM      8  C   UNL     1      -9.569  51.456  54.556  0.00  0.00    +0.000 A 
ATOM      9  C   UNL     1      -6.997  52.478  54.443  0.00  0.00    +0.000 A 
ATOM     10  C   UNL     1      -8.553  50.851  55.293  0.00  0.00    +0.000 A 
ATOM     11  C   UNL     1      -7.265  51.362  55.238  0.00  0.00    +0.000 A 
ENDROOT
BRANCH   1  17
ATOM     12  S   UNL     1     -12.400  55.908  49.486  0.00  0.00    +0.000 S 
ATOM     13  O   UNL     1     -13.300  54.944  48.893  0.00  0.00    +0.000 OA
ATOM     14  O   UNL     1     -11.703  56.878  48.658  0.00  0.00    +0.000 OA
ATOM     15  N   UNL     1     -11.285  55.087  50.334  0.00  0.00    +0.000 N 
ATOM     16  C   UNL     1     -13.365  56.848  50.617  0.00  0.00    +0.000 A 
ATOM     17  C   UNL     1     -11.287  55.102  51.632  0.00  0.00    +0.000 C 
ATOM     18  C   UNL     1     -13.143  56.664  51.970  0.00  0.00    +0.000 A 
ATOM     19  C   UNL     1     -14.314  57.756  50.142  0.00  0.00    +0.000 A 
ATOM     20  N   UNL     1     -12.211  55.741  52.432  0.00  0.00    +0.000 N 
ATOM     21  C   UNL     1     -13.937  57.370  52.878  0.00  0.00    +0.000 A 
ATOM     22  C   UNL     1     -15.079  58.474  51.055  0.00  0.00    +0.000 A 
ATOM     23  C   UNL     1     -14.895  58.276  52.424  0.00  0.00    +0.000 A 
ATOM     24  H   UNL     1     -10.598  54.569  49.856  0.00  0.00    +0.000 HD
ATOM     25  H   UNL     1     -12.211  55.531  53.394  0.00  0.00    +0.000 HD
ENDBRANCH   1  17
BRANCH   3  26
ATOM     26  O   UNL     1     -11.646  52.649  53.152  0.00  0.00    +0.000 OA
ATOM     27  H   UNL     1     -11.803  52.036  53.844  0.00  0.00    +0.000 HD
ENDBRANCH   3  26
BRANCH   5  28
ATOM     28  C   UNL     1      -6.391  54.797  52.751  0.00  0.00    +0.000 C 
BRANCH  28  29
ATOM     29  C   UNL     1      -5.489  54.168  51.677  0.00  0.00    +0.000 C 
BRANCH  29  30
ATOM     30  C   UNL     1      -4.120  53.643  52.141  0.00  0.00    +0.000 C 
ATOM     31  C   UNL     1      -3.848  53.942  53.612  0.00  0.00    +0.000 C 
ATOM     32  C   UNL     1      -4.075  52.129  51.898  0.00  0.00    +0.000 C 
ENDBRANCH  29  30
ENDBRANCH  28  29
ENDBRANCH   5  28
TORSDOF 5
ENDMDL
MODEL 2
REMARK VINA RESULT:      -7.9      2.574      8.034
REMARK  Name = 298159
REMARK  7 active torsions:
REMARK  status: ('A' for Active; 'I' for Inactive)
REMARK    1  A    between atoms: C_6  and  C_10
REMARK    2  A    between atoms: C_14  and  O_18
REMARK    3  A    between atoms: N_17  and  C_21
REMARK    4  A    between atoms: C_21  and  C_24
REMARK    5  A    between atoms: C_24  and  C_27
REMARK    6  A    between atoms: C_27  and  C_28
REMARK    7  A    between atoms: C_27  and  C_29
REMARK                            x       y       z     vdW  Elec       q    Type
REMARK                         _______ _______ _______ _____ _____    ______ ____
ROOT
ATOM      1  C   UNL     1     -10.081  54.784  50.953  0.00  0.00    +0.000 A 
ATOM      2  C   UNL     1     -11.403  55.321  51.406  0.00  0.00    +0.000 A 
ATOM      3  C   UNL     1      -9.791  54.728  49.643  0.00  0.00    +0.000 A 
ATOM      4  O   UNL     1     -11.577  55.495  52.617  0.00  0.00    +0.000 OA
ATOM      5  N   UNL     1     -12.366  55.617  50.449  0.00  0.00    +0.000 N 
ATOM      6  C   UNL     1     -10.765  55.194  48.647  0.00  0.00    +0.000 A 
ATOM      7  C   UNL     1     -12.032  55.645  49.061  0.00  0.00    +0.000 A 
ATOM      8  C   UNL     1     -10.434  55.222  47.282  0.00  0.00    +0.000 A 
ATOM      9  C   UNL     1     -12.916  56.144  48.093  0.00  0.00    +0.000 A 
ATOM     10  C   UNL     1     -11.334  55.704  46.334  0.00  0.00    +0.000 A 
ATOM     11  C   UNL     1     -12.576  56.167  46.739  0.00  0.00    +0.000 A 
ENDROOT
BRANCH   1  17
ATOM     12  S   UNL     1      -6.738  54.676  53.013  0.00  0.00    +0.000 S 
ATOM     13  O   UNL     1      -6.655  55.727  54.003  0.00  0.00    +0.000 OA
ATOM     14  O   UNL     1      -5.576  54.314  52.219  0.00  0.00    +0.000 OA
ATOM     15  N   UNL     1      -7.940  55.056  51.990  0.00  0.00    +0.000 N 
ATOM     16  C   UNL     1      -7.198  53.219  53.884  0.00  0.00    +0.000 A 
ATOM     17  C   UNL     1      -9.057  54.393  51.995  0.00  0.00    +0.000 C 
ATOM     18  C   UNL     1      -8.474  52.720  53.686  0.00  0.00    +0.000 A 
ATOM     19  C   UNL     1      -6.285  52.592  54.734  0.00  0.00    +0.000 A 
ATOM     20  N   UNL     1      -9.382  53.364  52.853  0.00  0.00    +0.000 N 
ATOM     21  C   UNL     1      -8.867  51.590  54.408  0.00  0.00    +0.000 A 
ATOM     22  C   UNL     1      -6.678  51.452  55.426  0.00  0.00    +0.000 A 
ATOM     23  C   UNL     1      -7.972  50.954  55.268  0.00  0.00    +0.000 A 
ATOM     24  H   UNL     1      -7.820  55.799  51.357  0.00  0.00    +0.000 HD
ATOM     25  H   UNL     1     -10.320  53.064  52.878  0.00  0.00    +0.000 HD
ENDBRANCH   1  17
BRANCH   3  26
ATOM     26  O   UNL     1      -8.578  54.298  49.129  0.00  0.00    +0.000 OA
ATOM     27  H   UNL     1      -8.245  53.452  49.358  0.00  0.00    +0.000 HD
ENDBRANCH   3  26
BRANCH   5  28
ATOM     28  C   UNL     1     -13.679  56.072  50.925  0.00  0.00    +0.000 C 
BRANCH  28  29
ATOM     29  C   UNL     1     -13.760  57.543  51.363  0.00  0.00    +0.000 C 
BRANCH  29  30
ATOM     30  C   UNL     1     -14.551  57.842  52.646  0.00  0.00    +0.000 C 
ATOM     31  C   UNL     1     -15.072  59.276  52.691  0.00  0.00    +0.000 C 
ATOM     32  C   UNL     1     -15.725  56.857  52.732  0.00  0.00    +0.000 C 
ENDBRANCH  29  30
ENDBRANCH  28  29
ENDBRANCH   5  28
TORSDOF 5
ENDMDL
MODEL 3
REMARK VINA RESULT:      -7.9      2.068      2.863
REMARK  Name = 298159
REMARK  7 active torsions:
REMARK  status: ('A' for Active; 'I' for Inactive)
REMARK    1  A    between atoms: C_6  and  C_10
REMARK    2  A    between atoms: C_14  and  O_18
REMARK    3  A    between atoms: N_17  and  C_21
REMARK    4  A    between atoms: C_21  and  C_24
REMARK    5  A    between atoms: C_24  and  C_27
REMARK    6  A    between atoms: C_27  and  C_28
REMARK    7  A    between atoms: C_27  and  C_29
REMARK                            x       y       z     vdW  Elec       q    Type
REMARK                         _______ _______ _______ _____ _____    ______ ____
ROOT
ATOM      1  C   UNL     1     -11.575  54.072  51.155  0.00  0.00    +0.000 A 
ATOM      2  C   UNL     1     -10.661  54.105  52.340  0.00  0.00    +0.000 A 
ATOM      3  C   UNL     1     -11.663  52.963  50.404  0.00  0.00    +0.000 A 
ATOM      4  O   UNL     1     -10.716  55.085  53.091  0.00  0.00    +0.000 OA
ATOM      5  N   UNL     1      -9.808  53.029  52.555  0.00  0.00    +0.000 N 
ATOM      6  C   UNL     1     -10.867  51.775  50.740  0.00  0.00    +0.000 A 
ATOM      7  C   UNL     1      -9.962  51.817  51.817  0.00  0.00    +0.000 A 
ATOM      8  C   UNL     1     -11.022  50.582  50.014  0.00  0.00    +0.000 A 
ATOM      9  C   UNL     1      -9.265  50.647  52.154  0.00  0.00    +0.000 A 
ATOM     10  C   UNL     1     -10.305  49.437  50.352  0.00  0.00    +0.000 A 
ATOM     11  C   UNL     1      -9.426  49.467  51.424  0.00  0.00    +0.000 A 
ENDROOT
BRANCH   1  17
ATOM     12  S   UNL     1     -13.241  57.098  49.285  0.00  0.00    +0.000 S 
ATOM     13  O   UNL     1     -14.326  56.694  48.418  0.00  0.00    +0.000 OA
ATOM     14  O   UNL     1     -12.293  58.114  48.858  0.00  0.00    +0.000 OA
ATOM     15  N   UNL     1     -12.401  55.767  49.678  0.00  0.00    +0.000 N 
ATOM     16  C   UNL     1     -13.991  57.725  50.747  0.00  0.00    +0.000 A 
ATOM     17  C   UNL     1     -12.452  55.272  50.878  0.00  0.00    +0.000 C 
ATOM     18  C   UNL     1     -13.877  56.978  51.906  0.00  0.00    +0.000 A 
ATOM     19  C   UNL     1     -14.665  58.948  50.720  0.00  0.00    +0.000 A 
ATOM     20  N   UNL     1     -13.222  55.752  51.917  0.00  0.00    +0.000 N 
ATOM     21  C   UNL     1     -14.509  57.443  53.063  0.00  0.00    +0.000 A 
ATOM     22  C   UNL     1     -15.266  59.414  51.884  0.00  0.00    +0.000 A 
ATOM     23  C   UNL     1     -15.194  58.658  53.055  0.00  0.00    +0.000 A 
ATOM     24  H   UNL     1     -11.844  55.327  48.996  0.00  0.00    +0.000 HD
ATOM     25  H   UNL     1     -13.314  55.189  52.719  0.00  0.00    +0.000 HD
ENDBRANCH   1  17
BRANCH   3  26
ATOM     26  O   UNL     1     -12.517  52.817  49.322  0.00  0.00    +0.000 OA
ATOM     27  H   UNL     1     -12.779  53.568  48.827  0.00  0.00    +0.000 HD
ENDBRANCH   3  26
BRANCH   5  28
ATOM     28  C   UNL     1      -8.871  53.120  53.681  0.00  0.00    +0.000 C 
BRANCH  28  29
ATOM     29  C   UNL     1      -7.477  53.676  53.351  0.00  0.00    +0.000 C 
BRANCH  29  30
ATOM     30  C   UNL     1      -6.957  54.818  54.239  0.00  0.00    +0.000 C 
ATOM     31  C   UNL     1      -5.508  54.610  54.669  0.00  0.00    +0.000 C 
ATOM     32  C   UNL     1      -7.087  56.134  53.460  0.00  0.00    +0.000 C 
ENDBRANCH  29  30
ENDBRANCH  28  29
ENDBRANCH   5  28
TORSDOF 5
ENDMDL
MODEL 4
REMARK VINA RESULT:      -7.9      3.400      5.117
REMARK  Name = 298159
REMARK  7 active torsions:
REMARK  status: ('A' for Active; 'I' for Inactive)
REMARK    1  A    between atoms: C_6  and  C_10
REMARK    2  A    between atoms: C_14  and  O_18
REMARK    3  A    between atoms: N_17  and  C_21
REMARK    4  A    between atoms: C_21  and  C_24
REMARK    5  A    between atoms: C_24  and  C_27
REMARK    6  A    between atoms: C_27  and  C_28
REMARK    7  A    between atoms: C_27  and  C_29
REMARK                            x       y       z     vdW  Elec       q    Type
REMARK                         _______ _______ _______ _____ _____    ______ ____
ROOT
ATOM      1  C   UNL     1     -11.563  55.920  48.804  0.00  0.00    +0.000 A 
ATOM      2  C   UNL     1     -10.565  55.241  49.690  0.00  0.00    +0.000 A 
ATOM      3  C   UNL     1     -11.640  55.594  47.504  0.00  0.00    +0.000 A 
ATOM      4  O   UNL     1     -10.622  55.457  50.905  0.00  0.00    +0.000 OA
ATOM      5  N   UNL     1      -9.634  54.385  49.113  0.00  0.00    +0.000 N 
ATOM      6  C   UNL     1     -10.749  54.569  46.942  0.00  0.00    +0.000 A 
ATOM      7  C   UNL     1      -9.769  53.969  47.754  0.00  0.00    +0.000 A 
ATOM      8  C   UNL     1     -10.885  54.159  45.606  0.00  0.00    +0.000 A 
ATOM      9  C   UNL     1      -8.978  52.947  47.207  0.00  0.00    +0.000 A 
ATOM     10  C   UNL     1     -10.076  53.156  45.076  0.00  0.00    +0.000 A 
ATOM     11  C   UNL     1      -9.122  52.549  45.876  0.00  0.00    +0.000 A 
ENDROOT
BRANCH   1  17
ATOM     12  S   UNL     1     -13.569  59.233  49.459  0.00  0.00    +0.000 S 
ATOM     13  O   UNL     1     -14.704  59.385  48.576  0.00  0.00    +0.000 OA
ATOM     14  O   UNL     1     -12.725  60.371  49.782  0.00  0.00    +0.000 OA
ATOM     15  N   UNL     1     -12.619  58.068  48.846  0.00  0.00    +0.000 N 
ATOM     16  C   UNL     1     -14.215  58.663  50.993  0.00  0.00    +0.000 A 
ATOM     17  C   UNL     1     -12.530  56.906  49.418  0.00  0.00    +0.000 C 
ATOM     18  C   UNL     1     -13.950  57.356  51.363  0.00  0.00    +0.000 A 
ATOM     19  C   UNL     1     -14.958  59.523  51.803  0.00  0.00    +0.000 A 
ATOM     20  N   UNL     1     -13.227  56.502  50.538  0.00  0.00    +0.000 N 
ATOM     21  C   UNL     1     -14.498  56.878  52.556  0.00  0.00    +0.000 A 
ATOM     22  C   UNL     1     -15.475  59.044  53.002  0.00  0.00    +0.000 A 
ATOM     23  C   UNL     1     -15.250  57.719  53.376  0.00  0.00    +0.000 A 
ATOM     24  H   UNL     1     -12.103  58.245  48.026  0.00  0.00    +0.000 HD
ATOM     25  H   UNL     1     -13.210  55.545  50.769  0.00  0.00    +0.000 HD
ENDBRANCH   1  17
BRANCH   3  26
ATOM     26  O   UNL     1     -12.563  56.127  46.617  0.00  0.00    +0.000 OA
ATOM     27  H   UNL     1     -12.280  56.452  45.786  0.00  0.00    +0.000 HD
ENDBRANCH   3  26
BRANCH   5  28
ATOM     28  C   UNL     1      -8.622  53.790  49.994  0.00  0.00    +0.000 C 
BRANCH  28  29
ATOM     29  C   UNL     1      -7.255  54.493  50.015  0.00  0.00    +0.000 C 
BRANCH  29  30
ATOM     30  C   UNL     1      -6.970  55.420  51.208  0.00  0.00    +0.000 C 
ATOM     31  C   UNL     1      -7.502  56.833  50.990  0.00  0.00    +0.000 C 
ATOM     32  C   UNL     1      -7.611  54.808  52.461  0.00  0.00    +0.000 C 
ENDBRANCH  29  30
ENDBRANCH  28  29
ENDBRANCH   5  28
TORSDOF 5
ENDMDL
MODEL 5
REMARK VINA RESULT:      -7.8      3.367      7.371
REMARK  Name = 298159
REMARK  7 active torsions:
REMARK  status: ('A' for Active; 'I' for Inactive)
REMARK    1  A    between atoms: C_6  and  C_10
REMARK    2  A    between atoms: C_14  and  O_18
REMARK    3  A    between atoms: N_17  and  C_21
REMARK    4  A    between atoms: C_21  and  C_24
REMARK    5  A    between atoms: C_24  and  C_27
REMARK    6  A    between atoms: C_27  and  C_28
REMARK    7  A    between atoms: C_27  and  C_29
REMARK                            x       y       z     vdW  Elec       q    Type
REMARK                         _______ _______ _______ _____ _____    ______ ____
ROOT
ATOM      1  C   UNL     1     -10.259  55.204  50.812  0.00  0.00    +0.000 A 
ATOM      2  C   UNL     1      -9.847  55.113  49.376  0.00  0.00    +0.000 A 
ATOM      3  C   UNL     1     -11.471  55.682  51.136  0.00  0.00    +0.000 A 
ATOM      4  O   UNL     1      -8.789  54.533  49.108  0.00  0.00    +0.000 OA
ATOM      5  N   UNL     1     -10.677  55.666  48.408  0.00  0.00    +0.000 N 
ATOM      6  C   UNL     1     -12.401  56.118  50.085  0.00  0.00    +0.000 A 
ATOM      7  C   UNL     1     -12.000  56.091  48.736  0.00  0.00    +0.000 A 
ATOM      8  C   UNL     1     -13.702  56.534  50.411  0.00  0.00    +0.000 A 
ATOM      9  C   UNL     1     -12.932  56.451  47.752  0.00  0.00    +0.000 A 
ATOM     10  C   UNL     1     -14.607  56.905  49.419  0.00  0.00    +0.000 A 
ATOM     11  C   UNL     1     -14.223  56.864  48.087  0.00  0.00    +0.000 A 
ENDROOT
BRANCH   1  17
ATOM     12  S   UNL     1      -7.051  54.706  53.024  0.00  0.00    +0.000 S 
ATOM     13  O   UNL     1      -6.948  55.677  54.090  0.00  0.00    +0.000 OA
ATOM     14  O   UNL     1      -5.875  54.313  52.265  0.00  0.00    +0.000 OA
ATOM     15  N   UNL     1      -8.164  55.243  51.972  0.00  0.00    +0.000 N 
ATOM     16  C   UNL     1      -7.661  53.231  53.763  0.00  0.00    +0.000 A 
ATOM     17  C   UNL     1      -9.324  54.667  51.873  0.00  0.00    +0.000 C 
ATOM     18  C   UNL     1      -8.956  52.844  53.466  0.00  0.00    +0.000 A 
ATOM     19  C   UNL     1      -6.842  52.481  54.610  0.00  0.00    +0.000 A 
ATOM     20  N   UNL     1      -9.769  53.609  52.638  0.00  0.00    +0.000 N 
ATOM     21  C   UNL     1      -9.467  51.700  54.085  0.00  0.00    +0.000 A 
ATOM     22  C   UNL     1      -7.354  51.329  55.199  0.00  0.00    +0.000 A 
ATOM     23  C   UNL     1      -8.669  50.941  54.941  0.00  0.00    +0.000 A 
ATOM     24  H   UNL     1      -7.957  56.017  51.401  0.00  0.00    +0.000 HD
ATOM     25  H   UNL     1     -10.726  53.379  52.593  0.00  0.00    +0.000 HD
ENDBRANCH   1  17
BRANCH   3  26
ATOM     26  O   UNL     1     -11.963  55.755  52.430  0.00  0.00    +0.000 OA
ATOM     27  H   UNL     1     -12.732  55.275  52.666  0.00  0.00    +0.000 HD
ENDBRANCH   3  26
BRANCH   5  28
ATOM     28  C   UNL     1     -10.214  55.629  47.015  0.00  0.00    +0.000 C 
BRANCH  28  29
ATOM     29  C   UNL     1     -10.524  54.339  46.239  0.00  0.00    +0.000 C 
BRANCH  29  30
ATOM     30  C   UNL     1      -9.328  53.594  45.625  0.00  0.00    +0.000 C 
ATOM     31  C   UNL     1      -9.656  52.982  44.266  0.00  0.00    +0.000 C 
ATOM     32  C   UNL     1      -8.162  54.582  45.485  0.00  0.00    +0.000 C 
ENDBRANCH  29  30
ENDBRANCH  28  29
ENDBRANCH   5  28
TORSDOF 5
ENDMDL
MODEL 6
REMARK VINA RESULT:      -7.6      3.507      7.516
REMARK  Name = 298159
REMARK  7 active torsions:
REMARK  status: ('A' for Active; 'I' for Inactive)
REMARK    1  A    between atoms: C_6  and  C_10
REMARK    2  A    between atoms: C_14  and  O_18
REMARK    3  A    between atoms: N_17  and  C_21
REMARK    4  A    between atoms: C_21  and  C_24
REMARK    5  A    between atoms: C_24  and  C_27
REMARK    6  A    between atoms: C_27  and  C_28
REMARK    7  A    between atoms: C_27  and  C_29
REMARK                            x       y       z     vdW  Elec       q    Type
REMARK                         _______ _______ _______ _____ _____    ______ ____
ROOT
ATOM      1  C   UNL     1     -10.431  54.849  50.485  0.00  0.00    +0.000 A 
ATOM      2  C   UNL     1     -10.114  54.778  49.024  0.00  0.00    +0.000 A 
ATOM      3  C   UNL     1     -11.558  55.449  50.901  0.00  0.00    +0.000 A 
ATOM      4  O   UNL     1      -9.149  54.093  48.669  0.00  0.00    +0.000 OA
ATOM      5  N   UNL     1     -10.926  55.468  48.131  0.00  0.00    +0.000 N 
ATOM      6  C   UNL     1     -12.487  56.038  49.928  0.00  0.00    +0.000 A 
ATOM      7  C   UNL     1     -12.168  56.028  48.557  0.00  0.00    +0.000 A 
ATOM      8  C   UNL     1     -13.710  56.586  50.349  0.00  0.00    +0.000 A 
ATOM      9  C   UNL     1     -13.105  56.540  47.647  0.00  0.00    +0.000 A 
ATOM     10  C   UNL     1     -14.618  57.107  49.430  0.00  0.00    +0.000 A 
ATOM     11  C   UNL     1     -14.317  57.083  48.077  0.00  0.00    +0.000 A 
ENDROOT
BRANCH   1  17
ATOM     12  S   UNL     1      -8.995  52.172  52.976  0.00  0.00    +0.000 S 
ATOM     13  O   UNL     1      -8.332  51.077  52.303  0.00  0.00    +0.000 OA
ATOM     14  O   UNL     1      -9.851  51.925  54.124  0.00  0.00    +0.000 OA
ATOM     15  N   UNL     1      -9.866  52.978  51.869  0.00  0.00    +0.000 N 
ATOM     16  C   UNL     1      -7.718  53.237  53.550  0.00  0.00    +0.000 A 
ATOM     17  C   UNL     1      -9.508  54.159  51.465  0.00  0.00    +0.000 C 
ATOM     18  C   UNL     1      -7.568  54.464  52.929  0.00  0.00    +0.000 A 
ATOM     19  C   UNL     1      -6.900  52.843  54.611  0.00  0.00    +0.000 A 
ATOM     20  N   UNL     1      -8.375  54.838  51.860  0.00  0.00    +0.000 N 
ATOM     21  C   UNL     1      -6.527  55.299  53.344  0.00  0.00    +0.000 A 
ATOM     22  C   UNL     1      -5.885  53.694  55.034  0.00  0.00    +0.000 A 
ATOM     23  C   UNL     1      -5.694  54.920  54.397  0.00  0.00    +0.000 A 
ATOM     24  H   UNL     1     -10.679  52.565  51.498  0.00  0.00    +0.000 HD
ATOM     25  H   UNL     1      -8.120  55.642  51.351  0.00  0.00    +0.000 HD
ENDBRANCH   1  17
BRANCH   3  26
ATOM     26  O   UNL     1     -11.964  55.518  52.225  0.00  0.00    +0.000 OA
ATOM     27  H   UNL     1     -12.229  54.740  52.675  0.00  0.00    +0.000 HD
ENDBRANCH   3  26
BRANCH   5  28
ATOM     28  C   UNL     1     -10.549  55.443  46.713  0.00  0.00    +0.000 C 
BRANCH  28  29
ATOM     29  C   UNL     1     -11.106  54.270  45.892  0.00  0.00    +0.000 C 
BRANCH  29  30
ATOM     30  C   UNL     1     -10.080  53.307  45.272  0.00  0.00    +0.000 C 
ATOM     31  C   UNL     1     -10.515  52.793  43.902  0.00  0.00    +0.000 C 
ATOM     32  C   UNL     1      -8.739  54.042  45.152  0.00  0.00    +0.000 C 
ENDBRANCH  29  30
ENDBRANCH  28  29
ENDBRANCH   5  28
TORSDOF 5
ENDMDL
MODEL 7
REMARK VINA RESULT:      -7.4      3.808      5.365
REMARK  Name = 298159
REMARK  7 active torsions:
REMARK  status: ('A' for Active; 'I' for Inactive)
REMARK    1  A    between atoms: C_6  and  C_10
REMARK    2  A    between atoms: C_14  and  O_18
REMARK    3  A    between atoms: N_17  and  C_21
REMARK    4  A    between atoms: C_21  and  C_24
REMARK    5  A    between atoms: C_24  and  C_27
REMARK    6  A    between atoms: C_27  and  C_28
REMARK    7  A    between atoms: C_27  and  C_29
REMARK                            x       y       z     vdW  Elec       q    Type
REMARK                         _______ _______ _______ _____ _____    ______ ____
ROOT
ATOM      1  C   UNL     1     -10.766  55.698  48.420  0.00  0.00    +0.000 A 
ATOM      2  C   UNL     1      -9.359  55.522  48.900  0.00  0.00    +0.000 A 
ATOM      3  C   UNL     1     -11.139  55.202  47.229  0.00  0.00    +0.000 A 
ATOM      4  O   UNL     1      -9.091  55.859  50.058  0.00  0.00    +0.000 OA
ATOM      5  N   UNL     1      -8.423  54.972  48.032  0.00  0.00    +0.000 N 
ATOM      6  C   UNL     1     -10.171  54.483  46.390  0.00  0.00    +0.000 A 
ATOM      7  C   UNL     1      -8.831  54.365  46.806  0.00  0.00    +0.000 A 
ATOM      8  C   UNL     1     -10.576  53.884  45.186  0.00  0.00    +0.000 A 
ATOM      9  C   UNL     1      -7.947  53.617  46.015  0.00  0.00    +0.000 A 
ATOM     10  C   UNL     1      -9.677  53.161  44.405  0.00  0.00    +0.000 A 
ATOM     11  C   UNL     1      -8.360  53.026  44.819  0.00  0.00    +0.000 A 
ENDROOT
BRANCH   1  17
ATOM     12  S   UNL     1     -13.348  56.228  51.333  0.00  0.00    +0.000 S 
ATOM     13  O   UNL     1     -12.713  56.500  52.603  0.00  0.00    +0.000 OA
ATOM     14  O   UNL     1     -14.502  55.348  51.256  0.00  0.00    +0.000 OA
ATOM     15  N   UNL     1     -12.213  55.649  50.328  0.00  0.00    +0.000 N 
ATOM     16  C   UNL     1     -13.888  57.783  50.713  0.00  0.00    +0.000 A 
ATOM     17  C   UNL     1     -11.770  56.361  49.336  0.00  0.00    +0.000 C 
ATOM     18  C   UNL     1     -13.226  58.310  49.618  0.00  0.00    +0.000 A 
ATOM     19  C   UNL     1     -14.963  58.442  51.313  0.00  0.00    +0.000 A 
ATOM     20  N   UNL     1     -12.143  57.656  49.042  0.00  0.00    +0.000 N 
ATOM     21  C   UNL     1     -13.615  59.567  49.146  0.00  0.00    +0.000 A 
ATOM     22  C   UNL     1     -15.359  59.680  50.817  0.00  0.00    +0.000 A 
ATOM     23  C   UNL     1     -14.681  60.246  49.737  0.00  0.00    +0.000 A 
ATOM     24  H   UNL     1     -11.855  54.743  50.472  0.00  0.00    +0.000 HD
ATOM     25  H   UNL     1     -11.608  58.149  48.378  0.00  0.00    +0.000 HD
ENDBRANCH   1  17
BRANCH   3  26
ATOM     26  O   UNL     1     -12.428  55.267  46.724  0.00  0.00    +0.000 OA
ATOM     27  H   UNL     1     -13.066  55.812  47.139  0.00  0.00    +0.000 HD
ENDBRANCH   3  26
BRANCH   5  28
ATOM     28  C   UNL     1      -7.035  54.879  48.501  0.00  0.00    +0.000 C 
BRANCH  28  29
ATOM     29  C   UNL     1      -6.691  53.637  49.338  0.00  0.00    +0.000 C 
BRANCH  29  30
ATOM     30  C   UNL     1      -5.229  53.165  49.311  0.00  0.00    +0.000 C 
ATOM     31  C   UNL     1      -4.538  53.479  47.987  0.00  0.00    +0.000 C 
ATOM     32  C   UNL     1      -4.480  53.843  50.465  0.00  0.00    +0.000 C 
ENDBRANCH  29  30
ENDBRANCH  28  29
ENDBRANCH   5  28
TORSDOF 5
ENDMDL
MODEL 8
REMARK VINA RESULT:      -7.4      4.702      7.164
REMARK  Name = 298159
REMARK  7 active torsions:
REMARK  status: ('A' for Active; 'I' for Inactive)
REMARK    1  A    between atoms: C_6  and  C_10
REMARK    2  A    between atoms: C_14  and  O_18
REMARK    3  A    between atoms: N_17  and  C_21
REMARK    4  A    between atoms: C_21  and  C_24
REMARK    5  A    between atoms: C_24  and  C_27
REMARK    6  A    between atoms: C_27  and  C_28
REMARK    7  A    between atoms: C_27  and  C_29
REMARK                            x       y       z     vdW  Elec       q    Type
REMARK                         _______ _______ _______ _____ _____    ______ ____
ROOT
ATOM      1  C   UNL     1     -10.991  54.518  48.465  0.00  0.00    +0.000 A 
ATOM      2  C   UNL     1     -10.599  54.126  49.855  0.00  0.00    +0.000 A 
ATOM      3  C   UNL     1     -11.984  55.402  48.270  0.00  0.00    +0.000 A 
ATOM      4  O   UNL     1      -9.590  53.428  50.001  0.00  0.00    +0.000 OA
ATOM      5  N   UNL     1     -11.373  54.576  50.919  0.00  0.00    +0.000 N 
ATOM      6  C   UNL     1     -12.690  55.989  49.416  0.00  0.00    +0.000 A 
ATOM      7  C   UNL     1     -12.367  55.582  50.724  0.00  0.00    +0.000 A 
ATOM      8  C   UNL     1     -13.666  56.980  49.223  0.00  0.00    +0.000 A 
ATOM      9  C   UNL     1     -13.012  56.209  51.801  0.00  0.00    +0.000 A 
ATOM     10  C   UNL     1     -14.309  57.577  50.305  0.00  0.00    +0.000 A 
ATOM     11  C   UNL     1     -13.982  57.192  51.596  0.00  0.00    +0.000 A 
ENDROOT
BRANCH   1  17
ATOM     12  S   UNL     1      -8.054  53.950  45.919  0.00  0.00    +0.000 S 
ATOM     13  O   UNL     1      -7.035  53.060  46.428  0.00  0.00    +0.000 OA
ATOM     14  O   UNL     1      -7.690  55.144  45.174  0.00  0.00    +0.000 OA
ATOM     15  N   UNL     1      -8.979  54.409  47.172  0.00  0.00    +0.000 N 
ATOM     16  C   UNL     1      -9.045  52.988  44.829  0.00  0.00    +0.000 A 
ATOM     17  C   UNL     1     -10.195  53.971  47.302  0.00  0.00    +0.000 C 
ATOM     18  C   UNL     1     -10.331  52.672  45.230  0.00  0.00    +0.000 A 
ATOM     19  C   UNL     1      -8.534  52.577  43.597  0.00  0.00    +0.000 A 
ATOM     20  N   UNL     1     -10.822  53.069  46.468  0.00  0.00    +0.000 N 
ATOM     21  C   UNL     1     -11.111  51.869  44.394  0.00  0.00    +0.000 A 
ATOM     22  C   UNL     1      -9.329  51.801  42.760  0.00  0.00    +0.000 A 
ATOM     23  C   UNL     1     -10.616  51.441  43.161  0.00  0.00    +0.000 A 
ATOM     24  H   UNL     1      -8.613  55.028  47.843  0.00  0.00    +0.000 HD
ATOM     25  H   UNL     1     -11.675  52.679  46.771  0.00  0.00    +0.000 HD
ENDBRANCH   1  17
BRANCH   3  26
ATOM     26  O   UNL     1     -12.383  55.866  47.027  0.00  0.00    +0.000 OA
ATOM     27  H   UNL     1     -11.927  55.592  46.256  0.00  0.00    +0.000 HD
ENDBRANCH   3  26
BRANCH   5  28
ATOM     28  C   UNL     1     -11.009  54.116  52.265  0.00  0.00    +0.000 C 
BRANCH  28  29
ATOM     29  C   UNL     1     -10.054  55.028  53.050  0.00  0.00    +0.000 C 
BRANCH  29  30
ATOM     30  C   UNL     1      -8.582  54.592  53.124  0.00  0.00    +0.000 C 
ATOM     31  C   UNL     1      -7.786  55.395  54.149  0.00  0.00    +0.000 C 
ATOM     32  C   UNL     1      -8.536  53.100  53.479  0.00  0.00    +0.000 C 
ENDBRANCH  29  30
ENDBRANCH  28  29
ENDBRANCH   5  28
TORSDOF 5
ENDMDL
MODEL 9
REMARK VINA RESULT:      -7.3      3.679      5.380
REMARK  Name = 298159
REMARK  7 active torsions:
REMARK  status: ('A' for Active; 'I' for Inactive)
REMARK    1  A    between atoms: C_6  and  C_10
REMARK    2  A    between atoms: C_14  and  O_18
REMARK    3  A    between atoms: N_17  and  C_21
REMARK    4  A    between atoms: C_21  and  C_24
REMARK    5  A    between atoms: C_24  and  C_27
REMARK    6  A    between atoms: C_27  and  C_28
REMARK    7  A    between atoms: C_27  and  C_29
REMARK                            x       y       z     vdW  Elec       q    Type
REMARK                         _______ _______ _______ _____ _____    ______ ____
ROOT
ATOM      1  C   UNL     1     -11.729  54.794  48.700  0.00  0.00    +0.000 A 
ATOM      2  C   UNL     1     -11.009  53.762  49.510  0.00  0.00    +0.000 A 
ATOM      3  C   UNL     1     -11.602  54.811  47.363  0.00  0.00    +0.000 A 
ATOM      4  O   UNL     1     -11.265  53.684  50.716  0.00  0.00    +0.000 OA
ATOM      5  N   UNL     1     -10.101  52.926  48.869  0.00  0.00    +0.000 N 
ATOM      6  C   UNL     1     -10.757  53.818  46.686  0.00  0.00    +0.000 A 
ATOM      7  C   UNL     1     -10.030  52.881  47.444  0.00  0.00    +0.000 A 
ATOM      8  C   UNL     1     -10.691  53.773  45.284  0.00  0.00    +0.000 A 
ATOM      9  C   UNL     1      -9.285  51.904  46.767  0.00  0.00    +0.000 A 
ATOM     10  C   UNL     1      -9.929  52.806  44.631  0.00  0.00    +0.000 A 
ATOM     11  C   UNL     1      -9.225  51.869  45.372  0.00  0.00    +0.000 A 
ENDROOT
BRANCH   1  17
ATOM     12  S   UNL     1     -14.748  56.151  50.816  0.00  0.00    +0.000 S 
ATOM     13  O   UNL     1     -14.519  56.062  52.241  0.00  0.00    +0.000 OA
ATOM     14  O   UNL     1     -16.048  55.824  50.254  0.00  0.00    +0.000 OA
ATOM     15  N   UNL     1     -13.639  55.222  50.079  0.00  0.00    +0.000 N 
ATOM     16  C   UNL     1     -14.442  57.825  50.374  0.00  0.00    +0.000 A 
ATOM     17  C   UNL     1     -12.664  55.751  49.406  0.00  0.00    +0.000 C 
ATOM     18  C   UNL     1     -13.309  58.103  49.630  0.00  0.00    +0.000 A 
ATOM     19  C   UNL     1     -15.334  58.827  50.762  0.00  0.00    +0.000 A 
ATOM     20  N   UNL     1     -12.416  57.101  49.268  0.00  0.00    +0.000 N 
ATOM     21  C   UNL     1     -13.029  59.436  49.314  0.00  0.00    +0.000 A 
ATOM     22  C   UNL     1     -15.060  60.146  50.418  0.00  0.00    +0.000 A 
ATOM     23  C   UNL     1     -13.904  60.452  49.699  0.00  0.00    +0.000 A 
ATOM     24  H   UNL     1     -13.707  54.242  50.144  0.00  0.00    +0.000 HD
ATOM     25  H   UNL     1     -11.549  57.373  48.887  0.00  0.00    +0.000 HD
ENDBRANCH   1  17
BRANCH   3  26
ATOM     26  O   UNL     1     -12.268  55.691  46.525  0.00  0.00    +0.000 OA
ATOM     27  H   UNL     1     -13.153  55.517  46.271  0.00  0.00    +0.000 HD
ENDBRANCH   3  26
BRANCH   5  28
ATOM     28  C   UNL     1      -9.354  51.973  49.699  0.00  0.00    +0.000 C 
BRANCH  28  29
ATOM     29  C   UNL     1      -7.930  52.398  50.092  0.00  0.00    +0.000 C 
BRANCH  29  30
ATOM     30  C   UNL     1      -7.722  52.871  51.540  0.00  0.00    +0.000 C 
ATOM     31  C   UNL     1      -7.972  54.368  51.706  0.00  0.00    +0.000 C 
ATOM     32  C   UNL     1      -8.671  52.079  52.449  0.00  0.00    +0.000 C 
ENDBRANCH  29  30
ENDBRANCH  28  29
ENDBRANCH   5  28
TORSDOF 5
ENDMDL
