MODEL 1
REMARK VINA RESULT:      -8.6      0.000      0.000
REMARK  Name = 338190
REMARK  5 active torsions:
REMARK  status: ('A' for Active; 'I' for Inactive)
REMARK    1  A    between atoms: C_6  and  C_10
REMARK    2  A    between atoms: C_14  and  O_18
REMARK    3  A    between atoms: N_17  and  C_21
REMARK    4  A    between atoms: C_21  and  C_24
REMARK    5  A    between atoms: C_29  and  C_31
REMARK                            x       y       z     vdW  Elec       q    Type
REMARK                         _______ _______ _______ _____ _____    ______ ____
ROOT
ATOM      1  C   UNL     1     -11.477  54.123  51.133  0.00  0.00    +0.000 A 
ATOM      2  C   UNL     1     -10.478  54.159  52.245  0.00  0.00    +0.000 A 
ATOM      3  C   UNL     1     -11.621  53.003  50.402  0.00  0.00    +0.000 A 
ATOM      4  O   UNL     1     -10.376  55.197  52.907  0.00  0.00    +0.000 OA
ATOM      5  N   UNL     1      -9.743  53.018  52.526  0.00  0.00    +0.000 N 
ATOM      6  C   UNL     1     -10.809  51.810  50.688  0.00  0.00    +0.000 A 
ATOM      7  C   UNL     1      -9.884  51.827  51.749  0.00  0.00    +0.000 A 
ATOM      8  C   UNL     1     -10.975  50.635  49.931  0.00  0.00    +0.000 A 
ATOM      9  C   UNL     1      -9.147  50.664  52.019  0.00  0.00    +0.000 A 
ATOM     10  C   UNL     1     -10.247  49.484  50.224  0.00  0.00    +0.000 A 
ATOM     11  C   UNL     1      -9.336  49.499  51.268  0.00  0.00    +0.000 A 
ENDROOT
BRANCH   1  17
ATOM     12  S   UNL     1     -13.331  57.085  49.329  0.00  0.00    +0.000 S 
ATOM     13  O   UNL     1     -14.449  56.626  48.526  0.00  0.00    +0.000 OA
ATOM     14  O   UNL     1     -12.448  58.120  48.827  0.00  0.00    +0.000 OA
ATOM     15  N   UNL     1     -12.428  55.796  49.698  0.00  0.00    +0.000 N 
ATOM     16  C   UNL     1     -14.026  57.718  50.809  0.00  0.00    +0.000 A 
ATOM     17  C   UNL     1     -12.384  55.323  50.909  0.00  0.00    +0.000 C 
ATOM     18  C   UNL     1     -13.819  57.005  51.977  0.00  0.00    +0.000 A 
ATOM     19  C   UNL     1     -14.755  58.912  50.782  0.00  0.00    +0.000 A 
ATOM     20  N   UNL     1     -13.091  55.817  51.985  0.00  0.00    +0.000 N 
ATOM     21  C   UNL     1     -14.431  57.470  53.146  0.00  0.00    +0.000 A 
ATOM     22  C   UNL     1     -15.324  59.384  51.962  0.00  0.00    +0.000 A 
ATOM     23  C   UNL     1     -15.173  58.656  53.142  0.00  0.00    +0.000 A 
ATOM     24  H   UNL     1     -11.900  55.358  48.992  0.00  0.00    +0.000 HD
ATOM     25  H   UNL     1     -13.081  55.292  52.818  0.00  0.00    +0.000 HD
ENDBRANCH   1  17
BRANCH   3  26
ATOM     26  O   UNL     1     -12.541  52.848  49.380  0.00  0.00    +0.000 OA
ATOM     27  H   UNL     1     -12.457  53.351  48.593  0.00  0.00    +0.000 HD
ENDBRANCH   3  26
BRANCH   5  28
ATOM     28  C   UNL     1      -8.910  53.042  53.729  0.00  0.00    +0.000 C 
BRANCH  28  29
ATOM     29  C   UNL     1      -7.612  53.768  53.542  0.00  0.00    +0.000 A 
ATOM     30  N   UNL     1      -6.940  53.616  52.331  0.00  0.00    +0.000 NA
ATOM     31  C   UNL     1      -6.911  54.493  54.491  0.00  0.00    +0.000 A 
ATOM     32  C   UNL     1      -5.750  54.172  52.395  0.00  0.00    +0.000 A 
ATOM     33  S   UNL     1      -5.394  54.985  53.866  0.00  0.00    +0.000 S 
ATOM     34  C   UNL     1      -4.722  54.087  51.322  0.00  0.00    +0.000 C 
ENDBRANCH  28  29
ENDBRANCH   5  28
TORSDOF 4
ENDMDL
MODEL 2
REMARK VINA RESULT:      -8.6      3.246      7.556
REMARK  Name = 338190
REMARK  5 active torsions:
REMARK  status: ('A' for Active; 'I' for Inactive)
REMARK    1  A    between atoms: C_6  and  C_10
REMARK    2  A    between atoms: C_14  and  O_18
REMARK    3  A    between atoms: N_17  and  C_21
REMARK    4  A    between atoms: C_21  and  C_24
REMARK    5  A    between atoms: C_29  and  C_31
REMARK                            x       y       z     vdW  Elec       q    Type
REMARK                         _______ _______ _______ _____ _____    ______ ____
ROOT
ATOM      1  C   UNL     1     -10.224  55.304  50.731  0.00  0.00    +0.000 A 
ATOM      2  C   UNL     1      -9.835  55.308  49.287  0.00  0.00    +0.000 A 
ATOM      3  C   UNL     1     -11.451  55.720  51.092  0.00  0.00    +0.000 A 
ATOM      4  O   UNL     1      -8.706  54.909  48.984  0.00  0.00    +0.000 OA
ATOM      5  N   UNL     1     -10.768  55.706  48.341  0.00  0.00    +0.000 N 
ATOM      6  C   UNL     1     -12.418  56.174  50.082  0.00  0.00    +0.000 A 
ATOM      7  C   UNL     1     -12.070  56.157  48.718  0.00  0.00    +0.000 A 
ATOM      8  C   UNL     1     -13.707  56.592  50.464  0.00  0.00    +0.000 A 
ATOM      9  C   UNL     1     -13.025  56.565  47.774  0.00  0.00    +0.000 A 
ATOM     10  C   UNL     1     -14.648  56.978  49.512  0.00  0.00    +0.000 A 
ATOM     11  C   UNL     1     -14.306  56.961  48.168  0.00  0.00    +0.000 A 
ENDROOT
BRANCH   1  17
ATOM     12  S   UNL     1      -6.970  54.809  52.884  0.00  0.00    +0.000 S 
ATOM     13  O   UNL     1      -6.861  55.792  53.947  0.00  0.00    +0.000 OA
ATOM     14  O   UNL     1      -5.801  54.433  52.115  0.00  0.00    +0.000 OA
ATOM     15  N   UNL     1      -8.102  55.327  51.851  0.00  0.00    +0.000 N 
ATOM     16  C   UNL     1      -7.545  53.337  53.644  0.00  0.00    +0.000 A 
ATOM     17  C   UNL     1      -9.257  54.737  51.759  0.00  0.00    +0.000 C 
ATOM     18  C   UNL     1      -8.837  52.927  53.364  0.00  0.00    +0.000 A 
ATOM     19  C   UNL     1      -6.700  52.616  54.494  0.00  0.00    +0.000 A 
ATOM     20  N   UNL     1      -9.665  53.659  52.515  0.00  0.00    +0.000 N 
ATOM     21  C   UNL     1      -9.321  51.792  54.022  0.00  0.00    +0.000 A 
ATOM     22  C   UNL     1      -7.183  51.465  55.110  0.00  0.00    +0.000 A 
ATOM     23  C   UNL     1      -8.498  51.060  54.885  0.00  0.00    +0.000 A 
ATOM     24  H   UNL     1      -7.912  56.106  51.279  0.00  0.00    +0.000 HD
ATOM     25  H   UNL     1     -10.609  53.387  52.451  0.00  0.00    +0.000 HD
ENDBRANCH   1  17
BRANCH   3  26
ATOM     26  O   UNL     1     -11.926  55.719  52.392  0.00  0.00    +0.000 OA
ATOM     27  H   UNL     1     -12.477  55.021  52.690  0.00  0.00    +0.000 HD
ENDBRANCH   3  26
BRANCH   5  28
ATOM     28  C   UNL     1     -10.407  55.526  46.935  0.00  0.00    +0.000 C 
BRANCH  28  29
ATOM     29  C   UNL     1     -10.742  54.165  46.402  0.00  0.00    +0.000 A 
ATOM     30  N   UNL     1     -10.131  53.751  45.221  0.00  0.00    +0.000 NA
ATOM     31  C   UNL     1     -11.703  53.290  46.880  0.00  0.00    +0.000 A 
ATOM     32  C   UNL     1     -10.659  52.620  44.805  0.00  0.00    +0.000 A 
ATOM     33  S   UNL     1     -11.849  51.937  45.839  0.00  0.00    +0.000 S 
ATOM     34  C   UNL     1     -10.327  51.961  43.512  0.00  0.00    +0.000 C 
ENDBRANCH  28  29
ENDBRANCH   5  28
TORSDOF 4
ENDMDL
MODEL 3
REMARK VINA RESULT:      -8.5      2.867      3.523
REMARK  Name = 338190
REMARK  5 active torsions:
REMARK  status: ('A' for Active; 'I' for Inactive)
REMARK    1  A    between atoms: C_6  and  C_10
REMARK    2  A    between atoms: C_14  and  O_18
REMARK    3  A    between atoms: N_17  and  C_21
REMARK    4  A    between atoms: C_21  and  C_24
REMARK    5  A    between atoms: C_29  and  C_31
REMARK                            x       y       z     vdW  Elec       q    Type
REMARK                         _______ _______ _______ _____ _____    ______ ____
ROOT
ATOM      1  C   UNL     1     -11.656  55.844  48.687  0.00  0.00    +0.000 A 
ATOM      2  C   UNL     1     -10.609  55.135  49.487  0.00  0.00    +0.000 A 
ATOM      3  C   UNL     1     -11.845  55.515  47.397  0.00  0.00    +0.000 A 
ATOM      4  O   UNL     1     -10.466  55.449  50.673  0.00  0.00    +0.000 OA
ATOM      5  N   UNL     1      -9.878  54.121  48.888  0.00  0.00    +0.000 N 
ATOM      6  C   UNL     1     -11.037  54.462  46.764  0.00  0.00    +0.000 A 
ATOM      7  C   UNL     1     -10.067  53.772  47.515  0.00  0.00    +0.000 A 
ATOM      8  C   UNL     1     -11.251  54.110  45.418  0.00  0.00    +0.000 A 
ATOM      9  C   UNL     1      -9.335  52.750  46.893  0.00  0.00    +0.000 A 
ATOM     10  C   UNL     1     -10.526  53.081  44.821  0.00  0.00    +0.000 A 
ATOM     11  C   UNL     1      -9.571  52.401  45.560  0.00  0.00    +0.000 A 
ENDROOT
BRANCH   1  17
ATOM     12  S   UNL     1     -13.534  59.211  49.462  0.00  0.00    +0.000 S 
ATOM     13  O   UNL     1     -14.684  59.410  48.598  0.00  0.00    +0.000 OA
ATOM     14  O   UNL     1     -12.657  60.321  49.776  0.00  0.00    +0.000 OA
ATOM     15  N   UNL     1     -12.634  58.031  48.819  0.00  0.00    +0.000 N 
ATOM     16  C   UNL     1     -14.173  58.649  50.995  0.00  0.00    +0.000 A 
ATOM     17  C   UNL     1     -12.556  56.858  49.375  0.00  0.00    +0.000 C 
ATOM     18  C   UNL     1     -13.935  57.333  51.351  0.00  0.00    +0.000 A 
ATOM     19  C   UNL     1     -14.888  59.526  51.816  0.00  0.00    +0.000 A 
ATOM     20  N   UNL     1     -13.221  56.471  50.520  0.00  0.00    +0.000 N 
ATOM     21  C   UNL     1     -14.502  56.862  52.540  0.00  0.00    +0.000 A 
ATOM     22  C   UNL     1     -15.412  59.055  53.016  0.00  0.00    +0.000 A 
ATOM     23  C   UNL     1     -15.231  57.719  53.372  0.00  0.00    +0.000 A 
ATOM     24  H   UNL     1     -12.135  58.204  47.988  0.00  0.00    +0.000 HD
ATOM     25  H   UNL     1     -13.189  55.519  50.766  0.00  0.00    +0.000 HD
ENDBRANCH   1  17
BRANCH   3  26
ATOM     26  O   UNL     1     -12.810  56.078  46.580  0.00  0.00    +0.000 OA
ATOM     27  H   UNL     1     -13.714  56.040  46.827  0.00  0.00    +0.000 HD
ENDBRANCH   3  26
BRANCH   5  28
ATOM     28  C   UNL     1      -8.994  53.339  49.752  0.00  0.00    +0.000 C 
BRANCH  28  29
ATOM     29  C   UNL     1      -7.582  53.842  49.775  0.00  0.00    +0.000 A 
ATOM     30  N   UNL     1      -6.768  53.474  50.843  0.00  0.00    +0.000 NA
ATOM     31  C   UNL     1      -7.002  54.754  48.908  0.00  0.00    +0.000 A 
ATOM     32  C   UNL     1      -5.629  54.133  50.799  0.00  0.00    +0.000 A 
ATOM     33  S   UNL     1      -5.425  55.160  49.437  0.00  0.00    +0.000 S 
ATOM     34  C   UNL     1      -4.581  54.073  51.854  0.00  0.00    +0.000 C 
ENDBRANCH  28  29
ENDBRANCH   5  28
TORSDOF 4
ENDMDL
MODEL 4
REMARK VINA RESULT:      -8.5      2.977      3.916
REMARK  Name = 338190
REMARK  5 active torsions:
REMARK  status: ('A' for Active; 'I' for Inactive)
REMARK    1  A    between atoms: C_6  and  C_10
REMARK    2  A    between atoms: C_14  and  O_18
REMARK    3  A    between atoms: N_17  and  C_21
REMARK    4  A    between atoms: C_21  and  C_24
REMARK    5  A    between atoms: C_29  and  C_31
REMARK                            x       y       z     vdW  Elec       q    Type
REMARK                         _______ _______ _______ _____ _____    ______ ____
ROOT
ATOM      1  C   UNL     1     -11.513  56.083  48.729  0.00  0.00    +0.000 A 
ATOM      2  C   UNL     1     -10.371  55.515  49.509  0.00  0.00    +0.000 A 
ATOM      3  C   UNL     1     -11.726  55.673  47.466  0.00  0.00    +0.000 A 
ATOM      4  O   UNL     1     -10.207  55.901  50.671  0.00  0.00    +0.000 OA
ATOM      5  N   UNL     1      -9.574  54.544  48.924  0.00  0.00    +0.000 N 
ATOM      6  C   UNL     1     -10.851  54.668  46.844  0.00  0.00    +0.000 A 
ATOM      7  C   UNL     1      -9.789  54.110  47.579  0.00  0.00    +0.000 A 
ATOM      8  C   UNL     1     -11.089  54.230  45.527  0.00  0.00    +0.000 A 
ATOM      9  C   UNL     1      -8.991  53.129  46.971  0.00  0.00    +0.000 A 
ATOM     10  C   UNL     1     -10.296  53.244  44.945  0.00  0.00    +0.000 A 
ATOM     11  C   UNL     1      -9.250  52.692  45.668  0.00  0.00    +0.000 A 
ENDROOT
BRANCH   1  17
ATOM     12  S   UNL     1     -13.580  59.339  49.497  0.00  0.00    +0.000 S 
ATOM     13  O   UNL     1     -14.729  59.480  48.621  0.00  0.00    +0.000 OA
ATOM     14  O   UNL     1     -12.768  60.494  49.826  0.00  0.00    +0.000 OA
ATOM     15  N   UNL     1     -12.611  58.213  48.859  0.00  0.00    +0.000 N 
ATOM     16  C   UNL     1     -14.204  58.736  51.020  0.00  0.00    +0.000 A 
ATOM     17  C   UNL     1     -12.474  57.044  49.411  0.00  0.00    +0.000 C 
ATOM     18  C   UNL     1     -13.898  57.433  51.373  0.00  0.00    +0.000 A 
ATOM     19  C   UNL     1     -14.974  59.569  51.837  0.00  0.00    +0.000 A 
ATOM     20  N   UNL     1     -13.130  56.616  50.546  0.00  0.00    +0.000 N 
ATOM     21  C   UNL     1     -14.452  56.927  52.554  0.00  0.00    +0.000 A 
ATOM     22  C   UNL     1     -15.485  59.064  53.029  0.00  0.00    +0.000 A 
ATOM     23  C   UNL     1     -15.235  57.738  53.382  0.00  0.00    +0.000 A 
ATOM     24  H   UNL     1     -12.112  58.417  48.034  0.00  0.00    +0.000 HD
ATOM     25  H   UNL     1     -13.050  55.666  50.789  0.00  0.00    +0.000 HD
ENDBRANCH   1  17
BRANCH   3  26
ATOM     26  O   UNL     1     -12.775  56.102  46.670  0.00  0.00    +0.000 OA
ATOM     27  H   UNL     1     -13.365  56.758  46.987  0.00  0.00    +0.000 HD
ENDBRANCH   3  26
BRANCH   5  28
ATOM     28  C   UNL     1      -8.583  53.891  49.780  0.00  0.00    +0.000 C 
BRANCH  28  29
ATOM     29  C   UNL     1      -9.163  52.821  50.656  0.00  0.00    +0.000 A 
ATOM     30  N   UNL     1      -9.133  53.009  52.035  0.00  0.00    +0.000 NA
ATOM     31  C   UNL     1      -9.627  51.576  50.264  0.00  0.00    +0.000 A 
ATOM     32  C   UNL     1      -9.519  51.915  52.655  0.00  0.00    +0.000 A 
ATOM     33  S   UNL     1     -10.025  50.629  51.635  0.00  0.00    +0.000 S 
ATOM     34  C   UNL     1      -9.487  51.729  54.132  0.00  0.00    +0.000 C 
ENDBRANCH  28  29
ENDBRANCH   5  28
TORSDOF 4
ENDMDL
MODEL 5
REMARK VINA RESULT:      -8.2      2.769      7.620
REMARK  Name = 338190
REMARK  5 active torsions:
REMARK  status: ('A' for Active; 'I' for Inactive)
REMARK    1  A    between atoms: C_6  and  C_10
REMARK    2  A    between atoms: C_14  and  O_18
REMARK    3  A    between atoms: N_17  and  C_21
REMARK    4  A    between atoms: C_21  and  C_24
REMARK    5  A    between atoms: C_29  and  C_31
REMARK                            x       y       z     vdW  Elec       q    Type
REMARK                         _______ _______ _______ _____ _____    ______ ____
ROOT
ATOM      1  C   UNL     1      -9.242  54.598  50.139  0.00  0.00    +0.000 A 
ATOM      2  C   UNL     1     -10.692  54.756  50.471  0.00  0.00    +0.000 A 
ATOM      3  C   UNL     1      -8.867  54.430  48.858  0.00  0.00    +0.000 A 
ATOM      4  O   UNL     1     -11.006  54.921  51.654  0.00  0.00    +0.000 OA
ATOM      5  N   UNL     1     -11.620  54.765  49.442  0.00  0.00    +0.000 N 
ATOM      6  C   UNL     1      -9.866  54.405  47.780  0.00  0.00    +0.000 A 
ATOM      7  C   UNL     1     -11.230  54.579  48.080  0.00  0.00    +0.000 A 
ATOM      8  C   UNL     1      -9.466  54.246  46.439  0.00  0.00    +0.000 A 
ATOM      9  C   UNL     1     -12.157  54.584  47.027  0.00  0.00    +0.000 A 
ATOM     10  C   UNL     1     -10.398  54.270  45.404  0.00  0.00    +0.000 A 
ATOM     11  C   UNL     1     -11.741  54.442  45.699  0.00  0.00    +0.000 A 
ENDROOT
BRANCH   1  17
ATOM     12  S   UNL     1      -7.338  55.974  53.292  0.00  0.00    +0.000 S 
ATOM     13  O   UNL     1      -8.002  55.617  54.533  0.00  0.00    +0.000 OA
ATOM     14  O   UNL     1      -6.782  57.301  53.118  0.00  0.00    +0.000 OA
ATOM     15  N   UNL     1      -8.379  55.706  52.084  0.00  0.00    +0.000 N 
ATOM     16  C   UNL     1      -5.995  54.860  53.125  0.00  0.00    +0.000 A 
ATOM     17  C   UNL     1      -8.208  54.727  51.246  0.00  0.00    +0.000 C 
ATOM     18  C   UNL     1      -6.071  53.901  52.129  0.00  0.00    +0.000 A 
ATOM     19  C   UNL     1      -4.891  54.965  53.977  0.00  0.00    +0.000 A 
ATOM     20  N   UNL     1      -7.180  53.809  51.290  0.00  0.00    +0.000 N 
ATOM     21  C   UNL     1      -5.034  52.967  52.038  0.00  0.00    +0.000 A 
ATOM     22  C   UNL     1      -3.847  54.054  53.848  0.00  0.00    +0.000 A 
ATOM     23  C   UNL     1      -3.924  53.046  52.887  0.00  0.00    +0.000 A 
ATOM     24  H   UNL     1      -9.160  56.298  51.980  0.00  0.00    +0.000 HD
ATOM     25  H   UNL     1      -7.233  53.034  50.685  0.00  0.00    +0.000 HD
ENDBRANCH   1  17
BRANCH   3  26
ATOM     26  O   UNL     1      -7.553  54.315  48.437  0.00  0.00    +0.000 OA
ATOM     27  H   UNL     1      -7.313  53.643  47.829  0.00  0.00    +0.000 HD
ENDBRANCH   3  26
BRANCH   5  28
ATOM     28  C   UNL     1     -13.001  55.099  49.794  0.00  0.00    +0.000 C 
BRANCH  28  29
ATOM     29  C   UNL     1     -13.235  56.570  49.963  0.00  0.00    +0.000 A 
ATOM     30  N   UNL     1     -13.790  57.017  51.159  0.00  0.00    +0.000 NA
ATOM     31  C   UNL     1     -13.081  57.559  49.006  0.00  0.00    +0.000 A 
ATOM     32  C   UNL     1     -14.086  58.296  51.077  0.00  0.00    +0.000 A 
ATOM     33  S   UNL     1     -13.641  59.063  49.606  0.00  0.00    +0.000 S 
ATOM     34  C   UNL     1     -14.806  59.063  52.131  0.00  0.00    +0.000 C 
ENDBRANCH  28  29
ENDBRANCH   5  28
TORSDOF 4
ENDMDL
MODEL 6
REMARK VINA RESULT:      -8.2      2.986      4.162
REMARK  Name = 338190
REMARK  5 active torsions:
REMARK  status: ('A' for Active; 'I' for Inactive)
REMARK    1  A    between atoms: C_6  and  C_10
REMARK    2  A    between atoms: C_14  and  O_18
REMARK    3  A    between atoms: N_17  and  C_21
REMARK    4  A    between atoms: C_21  and  C_24
REMARK    5  A    between atoms: C_29  and  C_31
REMARK                            x       y       z     vdW  Elec       q    Type
REMARK                         _______ _______ _______ _____ _____    ______ ____
ROOT
ATOM      1  C   UNL     1     -12.243  54.055  50.264  0.00  0.00    +0.000 A 
ATOM      2  C   UNL     1     -11.982  53.589  48.867  0.00  0.00    +0.000 A 
ATOM      3  C   UNL     1     -11.688  53.401  51.299  0.00  0.00    +0.000 A 
ATOM      4  O   UNL     1     -12.496  54.217  47.935  0.00  0.00    +0.000 OA
ATOM      5  N   UNL     1     -11.138  52.508  48.665  0.00  0.00    +0.000 N 
ATOM      6  C   UNL     1     -10.823  52.233  51.073  0.00  0.00    +0.000 A 
ATOM      7  C   UNL     1     -10.552  51.802  49.761  0.00  0.00    +0.000 A 
ATOM      8  C   UNL     1     -10.231  51.562  52.159  0.00  0.00    +0.000 A 
ATOM      9  C   UNL     1      -9.697  50.706  49.574  0.00  0.00    +0.000 A 
ATOM     10  C   UNL     1      -9.371  50.485  51.955  0.00  0.00    +0.000 A 
ATOM     11  C   UNL     1      -9.103  50.060  50.664  0.00  0.00    +0.000 A 
ENDROOT
BRANCH   1  17
ATOM     12  S   UNL     1     -15.175  56.440  51.351  0.00  0.00    +0.000 S 
ATOM     13  O   UNL     1     -15.170  56.700  52.779  0.00  0.00    +0.000 OA
ATOM     14  O   UNL     1     -16.424  56.199  50.658  0.00  0.00    +0.000 OA
ATOM     15  N   UNL     1     -14.201  55.178  51.078  0.00  0.00    +0.000 N 
ATOM     16  C   UNL     1     -14.470  57.858  50.599  0.00  0.00    +0.000 A 
ATOM     17  C   UNL     1     -13.053  55.323  50.485  0.00  0.00    +0.000 C 
ATOM     18  C   UNL     1     -13.215  57.730  50.028  0.00  0.00    +0.000 A 
ATOM     19  C   UNL     1     -15.178  59.064  50.583  0.00  0.00    +0.000 A 
ATOM     20  N   UNL     1     -12.523  56.521  50.054  0.00  0.00    +0.000 N 
ATOM     21  C   UNL     1     -12.620  58.876  49.489  0.00  0.00    +0.000 A 
ATOM     22  C   UNL     1     -14.590  60.186  50.006  0.00  0.00    +0.000 A 
ATOM     23  C   UNL     1     -13.306  60.096  49.471  0.00  0.00    +0.000 A 
ATOM     24  H   UNL     1     -14.483  54.280  51.368  0.00  0.00    +0.000 HD
ATOM     25  H   UNL     1     -11.589  56.522  49.744  0.00  0.00    +0.000 HD
ENDBRANCH   1  17
BRANCH   3  26
ATOM     26  O   UNL     1     -11.829  53.771  52.625  0.00  0.00    +0.000 OA
ATOM     27  H   UNL     1     -12.343  53.245  53.207  0.00  0.00    +0.000 HD
ENDBRANCH   3  26
BRANCH   5  28
ATOM     28  C   UNL     1     -10.772  52.199  47.283  0.00  0.00    +0.000 C 
BRANCH  28  29
ATOM     29  C   UNL     1      -9.621  53.013  46.773  0.00  0.00    +0.000 A 
ATOM     30  N   UNL     1      -8.407  52.933  47.449  0.00  0.00    +0.000 NA
ATOM     31  C   UNL     1      -9.645  53.957  45.760  0.00  0.00    +0.000 A 
ATOM     32  C   UNL     1      -7.563  53.829  46.983  0.00  0.00    +0.000 A 
ATOM     33  S   UNL     1      -8.134  54.757  45.655  0.00  0.00    +0.000 S 
ATOM     34  C   UNL     1      -6.219  54.100  47.561  0.00  0.00    +0.000 C 
ENDBRANCH  28  29
ENDBRANCH   5  28
TORSDOF 4
ENDMDL
MODEL 7
REMARK VINA RESULT:      -8.1      4.153      5.103
REMARK  Name = 338190
REMARK  5 active torsions:
REMARK  status: ('A' for Active; 'I' for Inactive)
REMARK    1  A    between atoms: C_6  and  C_10
REMARK    2  A    between atoms: C_14  and  O_18
REMARK    3  A    between atoms: N_17  and  C_21
REMARK    4  A    between atoms: C_21  and  C_24
REMARK    5  A    between atoms: C_29  and  C_31
REMARK                            x       y       z     vdW  Elec       q    Type
REMARK                         _______ _______ _______ _____ _____    ______ ____
ROOT
ATOM      1  C   UNL     1     -10.355  54.859  47.651  0.00  0.00    +0.000 A 
ATOM      2  C   UNL     1      -8.861  54.930  47.630  0.00  0.00    +0.000 A 
ATOM      3  C   UNL     1     -11.010  54.309  46.614  0.00  0.00    +0.000 A 
ATOM      4  O   UNL     1      -8.285  55.430  48.602  0.00  0.00    +0.000 OA
ATOM      5  N   UNL     1      -8.178  54.388  46.552  0.00  0.00    +0.000 N 
ATOM      6  C   UNL     1     -10.274  53.770  45.460  0.00  0.00    +0.000 A 
ATOM      7  C   UNL     1      -8.868  53.810  45.443  0.00  0.00    +0.000 A 
ATOM      8  C   UNL     1     -10.965  53.180  44.385  0.00  0.00    +0.000 A 
ATOM      9  C   UNL     1      -8.192  53.259  44.344  0.00  0.00    +0.000 A 
ATOM     10  C   UNL     1     -10.277  52.623  43.309  0.00  0.00    +0.000 A 
ATOM     11  C   UNL     1      -8.892  52.661  43.292  0.00  0.00    +0.000 A 
ENDROOT
BRANCH   1  17
ATOM     12  S   UNL     1     -11.735  54.951  51.333  0.00  0.00    +0.000 S 
ATOM     13  O   UNL     1     -10.736  55.407  52.282  0.00  0.00    +0.000 OA
ATOM     14  O   UNL     1     -12.607  53.844  51.667  0.00  0.00    +0.000 OA
ATOM     15  N   UNL     1     -10.972  54.587  49.954  0.00  0.00    +0.000 N 
ATOM     16  C   UNL     1     -12.785  56.324  51.039  0.00  0.00    +0.000 A 
ATOM     17  C   UNL     1     -11.103  55.324  48.891  0.00  0.00    +0.000 C 
ATOM     18  C   UNL     1     -12.724  56.930  49.796  0.00  0.00    +0.000 A 
ATOM     19  C   UNL     1     -13.653  56.765  52.043  0.00  0.00    +0.000 A 
ATOM     20  N   UNL     1     -11.852  56.479  48.808  0.00  0.00    +0.000 N 
ATOM     21  C   UNL     1     -13.510  58.068  49.583  0.00  0.00    +0.000 A 
ATOM     22  C   UNL     1     -14.459  57.874  51.802  0.00  0.00    +0.000 A 
ATOM     23  C   UNL     1     -14.378  58.534  50.576  0.00  0.00    +0.000 A 
ATOM     24  H   UNL     1     -10.395  53.789  49.919  0.00  0.00    +0.000 HD
ATOM     25  H   UNL     1     -11.764  57.022  47.992  0.00  0.00    +0.000 HD
ENDBRANCH   1  17
BRANCH   3  26
ATOM     26  O   UNL     1     -12.385  54.157  46.549  0.00  0.00    +0.000 OA
ATOM     27  H   UNL     1     -12.845  54.377  45.762  0.00  0.00    +0.000 HD
ENDBRANCH   3  26
BRANCH   5  28
ATOM     28  C   UNL     1      -6.720  54.320  46.656  0.00  0.00    +0.000 C 
BRANCH  28  29
ATOM     29  C   UNL     1      -6.233  53.168  47.481  0.00  0.00    +0.000 A 
ATOM     30  N   UNL     1      -5.519  53.445  48.644  0.00  0.00    +0.000 NA
ATOM     31  C   UNL     1      -6.296  51.821  47.163  0.00  0.00    +0.000 A 
ATOM     32  C   UNL     1      -5.023  52.337  49.152  0.00  0.00    +0.000 A 
ATOM     33  S   UNL     1      -5.449  50.892  48.326  0.00  0.00    +0.000 S 
ATOM     34  C   UNL     1      -4.105  52.285  50.323  0.00  0.00    +0.000 C 
ENDBRANCH  28  29
ENDBRANCH   5  28
TORSDOF 4
ENDMDL
MODEL 8
REMARK VINA RESULT:      -8.1      3.429      4.269
REMARK  Name = 338190
REMARK  5 active torsions:
REMARK  status: ('A' for Active; 'I' for Inactive)
REMARK    1  A    between atoms: C_6  and  C_10
REMARK    2  A    between atoms: C_14  and  O_18
REMARK    3  A    between atoms: N_17  and  C_21
REMARK    4  A    between atoms: C_21  and  C_24
REMARK    5  A    between atoms: C_29  and  C_31
REMARK                            x       y       z     vdW  Elec       q    Type
REMARK                         _______ _______ _______ _____ _____    ______ ____
ROOT
ATOM      1  C   UNL     1     -10.721  55.744  48.313  0.00  0.00    +0.000 A 
ATOM      2  C   UNL     1      -9.280  55.734  48.712  0.00  0.00    +0.000 A 
ATOM      3  C   UNL     1     -11.103  55.133  47.178  0.00  0.00    +0.000 A 
ATOM      4  O   UNL     1      -8.961  56.294  49.766  0.00  0.00    +0.000 OA
ATOM      5  N   UNL     1      -8.367  55.058  47.918  0.00  0.00    +0.000 N 
ATOM      6  C   UNL     1     -10.118  54.449  46.326  0.00  0.00    +0.000 A 
ATOM      7  C   UNL     1      -8.764  54.413  46.706  0.00  0.00    +0.000 A 
ATOM      8  C   UNL     1     -10.525  53.796  45.147  0.00  0.00    +0.000 A 
ATOM      9  C   UNL     1      -7.853  53.725  45.890  0.00  0.00    +0.000 A 
ATOM     10  C   UNL     1      -9.610  53.104  44.357  0.00  0.00    +0.000 A 
ATOM     11  C   UNL     1      -8.276  53.067  44.731  0.00  0.00    +0.000 A 
ENDROOT
BRANCH   1  17
ATOM     12  S   UNL     1     -13.236  56.154  51.309  0.00  0.00    +0.000 S 
ATOM     13  O   UNL     1     -12.556  56.418  52.564  0.00  0.00    +0.000 OA
ATOM     14  O   UNL     1     -14.363  55.244  51.267  0.00  0.00    +0.000 OA
ATOM     15  N   UNL     1     -12.130  55.629  50.253  0.00  0.00    +0.000 N 
ATOM     16  C   UNL     1     -13.842  57.703  50.753  0.00  0.00    +0.000 A 
ATOM     17  C   UNL     1     -11.747  56.363  49.250  0.00  0.00    +0.000 C 
ATOM     18  C   UNL     1     -13.246  58.269  49.640  0.00  0.00    +0.000 A 
ATOM     19  C   UNL     1     -14.902  58.319  51.426  0.00  0.00    +0.000 A 
ATOM     20  N   UNL     1     -12.190  57.642  48.982  0.00  0.00    +0.000 N 
ATOM     21  C   UNL     1     -13.680  59.536  49.236  0.00  0.00    +0.000 A 
ATOM     22  C   UNL     1     -15.351  59.561  50.988  0.00  0.00    +0.000 A 
ATOM     23  C   UNL     1     -14.732  60.176  49.901  0.00  0.00    +0.000 A 
ATOM     24  H   UNL     1     -11.738  54.733  50.370  0.00  0.00    +0.000 HD
ATOM     25  H   UNL     1     -11.726  58.146  48.275  0.00  0.00    +0.000 HD
ENDBRANCH   1  17
BRANCH   3  26
ATOM     26  O   UNL     1     -12.412  55.047  46.737  0.00  0.00    +0.000 OA
ATOM     27  H   UNL     1     -12.859  54.222  46.752  0.00  0.00    +0.000 HD
ENDBRANCH   3  26
BRANCH   5  28
ATOM     28  C   UNL     1      -7.005  54.924  48.436  0.00  0.00    +0.000 C 
BRANCH  28  29
ATOM     29  C   UNL     1      -6.884  53.922  49.544  0.00  0.00    +0.000 A 
ATOM     30  N   UNL     1      -7.503  52.685  49.386  0.00  0.00    +0.000 NA
ATOM     31  C   UNL     1      -6.323  54.118  50.795  0.00  0.00    +0.000 A 
ATOM     32  C   UNL     1      -7.447  51.997  50.506  0.00  0.00    +0.000 A 
ATOM     33  S   UNL     1      -6.577  52.744  51.786  0.00  0.00    +0.000 S 
ATOM     34  C   UNL     1      -8.117  50.686  50.724  0.00  0.00    +0.000 C 
ENDBRANCH  28  29
ENDBRANCH   5  28
TORSDOF 4
ENDMDL
MODEL 9
REMARK VINA RESULT:      -8.1      3.336      5.138
REMARK  Name = 338190
REMARK  5 active torsions:
REMARK  status: ('A' for Active; 'I' for Inactive)
REMARK    1  A    between atoms: C_6  and  C_10
REMARK    2  A    between atoms: C_14  and  O_18
REMARK    3  A    between atoms: N_17  and  C_21
REMARK    4  A    between atoms: C_21  and  C_24
REMARK    5  A    between atoms: C_29  and  C_31
REMARK                            x       y       z     vdW  Elec       q    Type
REMARK                         _______ _______ _______ _____ _____    ______ ____
ROOT
ATOM      1  C   UNL     1     -12.032  54.326  49.972  0.00  0.00    +0.000 A 
ATOM      2  C   UNL     1     -11.385  54.218  48.628  0.00  0.00    +0.000 A 
ATOM      3  C   UNL     1     -11.719  53.442  50.936  0.00  0.00    +0.000 A 
ATOM      4  O   UNL     1     -11.683  55.051  47.766  0.00  0.00    +0.000 OA
ATOM      5  N   UNL     1     -10.441  53.225  48.415  0.00  0.00    +0.000 N 
ATOM      6  C   UNL     1     -10.742  52.372  50.685  0.00  0.00    +0.000 A 
ATOM      7  C   UNL     1     -10.110  52.277  49.431  0.00  0.00    +0.000 A 
ATOM      8  C   UNL     1     -10.405  51.459  51.702  0.00  0.00    +0.000 A 
ATOM      9  C   UNL     1      -9.158  51.266  49.231  0.00  0.00    +0.000 A 
ATOM     10  C   UNL     1      -9.446  50.471  51.492  0.00  0.00    +0.000 A 
ATOM     11  C   UNL     1      -8.822  50.378  50.258  0.00  0.00    +0.000 A 
ENDROOT
BRANCH   1  17
ATOM     12  S   UNL     1     -15.202  56.347  51.128  0.00  0.00    +0.000 S 
ATOM     13  O   UNL     1     -15.261  56.498  52.571  0.00  0.00    +0.000 OA
ATOM     14  O   UNL     1     -16.404  56.047  50.376  0.00  0.00    +0.000 OA
ATOM     15  N   UNL     1     -14.108  55.203  50.798  0.00  0.00    +0.000 N 
ATOM     16  C   UNL     1     -14.610  57.876  50.506  0.00  0.00    +0.000 A 
ATOM     17  C   UNL     1     -12.962  55.495  50.257  0.00  0.00    +0.000 C 
ATOM     18  C   UNL     1     -13.334  57.905  49.971  0.00  0.00    +0.000 A 
ATOM     19  C   UNL     1     -15.426  59.010  50.553  0.00  0.00    +0.000 A 
ATOM     20  N   UNL     1     -12.534  56.765  49.933  0.00  0.00    +0.000 N 
ATOM     21  C   UNL     1     -12.833  59.138  49.538  0.00  0.00    +0.000 A 
ATOM     22  C   UNL     1     -14.929  60.222  50.080  0.00  0.00    +0.000 A 
ATOM     23  C   UNL     1     -13.628  60.289  49.584  0.00  0.00    +0.000 A 
ATOM     24  H   UNL     1     -14.314  54.263  51.012  0.00  0.00    +0.000 HD
ATOM     25  H   UNL     1     -11.596  56.874  49.656  0.00  0.00    +0.000 HD
ENDBRANCH   1  17
BRANCH   3  26
ATOM     26  O   UNL     1     -12.227  53.475  52.223  0.00  0.00    +0.000 OA
ATOM     27  H   UNL     1     -12.885  54.102  52.452  0.00  0.00    +0.000 HD
ENDBRANCH   3  26
BRANCH   5  28
ATOM     28  C   UNL     1      -9.707  53.266  47.150  0.00  0.00    +0.000 C 
BRANCH  28  29
ATOM     29  C   UNL     1     -10.241  52.318  46.119  0.00  0.00    +0.000 A 
ATOM     30  N   UNL     1      -9.643  52.306  44.861  0.00  0.00    +0.000 NA
ATOM     31  C   UNL     1     -11.365  51.515  46.219  0.00  0.00    +0.000 A 
ATOM     32  C   UNL     1     -10.333  51.551  44.033  0.00  0.00    +0.000 A 
ATOM     33  S   UNL     1     -11.681  50.741  44.724  0.00  0.00    +0.000 S 
ATOM     34  C   UNL     1     -10.045  51.416  42.579  0.00  0.00    +0.000 C 
ENDBRANCH  28  29
ENDBRANCH   5  28
TORSDOF 4
ENDMDL
