MODEL 1
REMARK VINA RESULT:      -7.9      0.000      0.000
REMARK  Name = 338541
REMARK  7 active torsions:
REMARK  status: ('A' for Active; 'I' for Inactive)
REMARK    1  A    between atoms: C_6  and  C_10
REMARK    2  A    between atoms: C_14  and  O_18
REMARK    3  A    between atoms: N_17  and  C_21
REMARK    4  A    between atoms: C_21  and  C_24
REMARK    5  A    between atoms: C_24  and  C_27
REMARK    6  A    between atoms: C_27  and  C_28
REMARK    7  A    between atoms: C_28  and  O_29
REMARK                            x       y       z     vdW  Elec       q    Type
REMARK                         _______ _______ _______ _____ _____    ______ ____
ROOT
ATOM      1  C   UNL     1     -10.053  54.369  52.308  0.00  0.00    +0.000 A 
ATOM      2  C   UNL     1      -8.672  54.936  52.232  0.00  0.00    +0.000 A 
ATOM      3  C   UNL     1     -10.286  53.255  53.022  0.00  0.00    +0.000 A 
ATOM      4  O   UNL     1      -8.518  56.022  51.663  0.00  0.00    +0.000 OA
ATOM      5  N   UNL     1      -7.626  54.232  52.818  0.00  0.00    +0.000 N 
ATOM      6  C   UNL     1      -9.191  52.596  53.749  0.00  0.00    +0.000 A 
ATOM      7  C   UNL     1      -7.882  53.102  53.656  0.00  0.00    +0.000 A 
ATOM      8  C   UNL     1      -9.444  51.477  54.565  0.00  0.00    +0.000 A 
ATOM      9  C   UNL     1      -6.873  52.495  54.421  0.00  0.00    +0.000 A 
ATOM     10  C   UNL     1      -8.423  50.872  55.294  0.00  0.00    +0.000 A 
ATOM     11  C   UNL     1      -7.136  51.384  55.223  0.00  0.00    +0.000 A 
ENDROOT
BRANCH   1  17
ATOM     12  S   UNL     1     -12.317  55.922  49.499  0.00  0.00    +0.000 S 
ATOM     13  O   UNL     1     -13.206  54.947  48.893  0.00  0.00    +0.000 OA
ATOM     14  O   UNL     1     -11.639  56.905  48.678  0.00  0.00    +0.000 OA
ATOM     15  N   UNL     1     -11.192  55.108  50.334  0.00  0.00    +0.000 N 
ATOM     16  C   UNL     1     -13.297  56.832  50.634  0.00  0.00    +0.000 A 
ATOM     17  C   UNL     1     -11.189  55.111  51.634  0.00  0.00    +0.000 C 
ATOM     18  C   UNL     1     -13.069  56.641  51.988  0.00  0.00    +0.000 A 
ATOM     19  C   UNL     1     -14.260  57.733  50.164  0.00  0.00    +0.000 A 
ATOM     20  N   UNL     1     -12.119  55.732  52.440  0.00  0.00    +0.000 N 
ATOM     21  C   UNL     1     -13.879  57.327  52.899  0.00  0.00    +0.000 A 
ATOM     22  C   UNL     1     -15.037  58.434  51.084  0.00  0.00    +0.000 A 
ATOM     23  C   UNL     1     -14.851  58.224  52.450  0.00  0.00    +0.000 A 
ATOM     24  H   UNL     1     -10.499  54.605  49.849  0.00  0.00    +0.000 HD
ATOM     25  H   UNL     1     -12.110  55.518  53.401  0.00  0.00    +0.000 HD
ENDBRANCH   1  17
BRANCH   3  26
ATOM     26  O   UNL     1     -11.532  52.674  53.182  0.00  0.00    +0.000 OA
ATOM     27  H   UNL     1     -12.037  52.432  52.431  0.00  0.00    +0.000 HD
ENDBRANCH   3  26
BRANCH   5  28
ATOM     28  C   UNL     1      -6.275  54.788  52.683  0.00  0.00    +0.000 C 
BRANCH  28  29
ATOM     29  C   UNL     1      -5.347  54.072  51.693  0.00  0.00    +0.000 C 
BRANCH  29  30
ATOM     30  C   UNL     1      -5.878  53.956  50.265  0.00  0.00    +0.000 C 
BRANCH  30  31
ATOM     31  C   UNL     1      -5.552  55.228  49.480  0.00  0.00    +0.000 C 
BRANCH  31  32
ATOM     32  O   UNL     1      -6.707  56.046  49.348  0.00  0.00    +0.000 OA
ATOM     33  H   UNL     1      -7.460  55.502  49.070  0.00  0.00    +0.000 HD
ENDBRANCH  31  32
ENDBRANCH  30  31
ENDBRANCH  29  30
ENDBRANCH  28  29
ENDBRANCH   5  28
TORSDOF 7
ENDMDL
MODEL 2
REMARK VINA RESULT:      -7.6      2.541      7.657
REMARK  Name = 338541
REMARK  7 active torsions:
REMARK  status: ('A' for Active; 'I' for Inactive)
REMARK    1  A    between atoms: C_6  and  C_10
REMARK    2  A    between atoms: C_14  and  O_18
REMARK    3  A    between atoms: N_17  and  C_21
REMARK    4  A    between atoms: C_21  and  C_24
REMARK    5  A    between atoms: C_24  and  C_27
REMARK    6  A    between atoms: C_27  and  C_28
REMARK    7  A    between atoms: C_28  and  O_29
REMARK                            x       y       z     vdW  Elec       q    Type
REMARK                         _______ _______ _______ _____ _____    ______ ____
ROOT
ATOM      1  C   UNL     1     -10.824  55.190  51.005  0.00  0.00    +0.000 A 
ATOM      2  C   UNL     1     -12.051  55.855  51.543  0.00  0.00    +0.000 A 
ATOM      3  C   UNL     1     -10.639  55.090  49.679  0.00  0.00    +0.000 A 
ATOM      4  O   UNL     1     -12.130  56.031  52.763  0.00  0.00    +0.000 OA
ATOM      5  N   UNL     1     -13.037  56.262  50.652  0.00  0.00    +0.000 N 
ATOM      6  C   UNL     1     -11.629  55.646  48.746  0.00  0.00    +0.000 A 
ATOM      7  C   UNL     1     -12.803  56.242  49.241  0.00  0.00    +0.000 A 
ATOM      8  C   UNL     1     -11.401  55.616  47.357  0.00  0.00    +0.000 A 
ATOM      9  C   UNL     1     -13.693  56.830  48.328  0.00  0.00    +0.000 A 
ATOM     10  C   UNL     1     -12.311  56.181  46.466  0.00  0.00    +0.000 A 
ATOM     11  C   UNL     1     -13.458  56.790  46.953  0.00  0.00    +0.000 A 
ENDROOT
BRANCH   1  17
ATOM     12  S   UNL     1      -7.420  54.919  52.947  0.00  0.00    +0.000 S 
ATOM     13  O   UNL     1      -7.312  55.886  54.025  0.00  0.00    +0.000 OA
ATOM     14  O   UNL     1      -6.281  54.642  52.095  0.00  0.00    +0.000 OA
ATOM     15  N   UNL     1      -8.652  55.377  51.999  0.00  0.00    +0.000 N 
ATOM     16  C   UNL     1      -7.842  53.394  53.703  0.00  0.00    +0.000 A 
ATOM     17  C   UNL     1      -9.766  54.707  51.976  0.00  0.00    +0.000 C 
ATOM     18  C   UNL     1      -9.121  52.899  53.499  0.00  0.00    +0.000 A 
ATOM     19  C   UNL     1      -6.895  52.705  54.469  0.00  0.00    +0.000 A 
ATOM     20  N   UNL     1     -10.057  53.602  52.747  0.00  0.00    +0.000 N 
ATOM     21  C   UNL     1      -9.481  51.708  54.138  0.00  0.00    +0.000 A 
ATOM     22  C   UNL     1      -7.257  51.503  55.073  0.00  0.00    +0.000 A 
ATOM     23  C   UNL     1      -8.552  51.010  54.913  0.00  0.00    +0.000 A 
ATOM     24  H   UNL     1      -8.555  56.175  51.431  0.00  0.00    +0.000 HD
ATOM     25  H   UNL     1     -10.990  53.289  52.767  0.00  0.00    +0.000 HD
ENDBRANCH   1  17
BRANCH   3  26
ATOM     26  O   UNL     1      -9.523  54.526  49.084  0.00  0.00    +0.000 OA
ATOM     27  H   UNL     1      -8.820  55.073  48.793  0.00  0.00    +0.000 HD
ENDBRANCH   3  26
BRANCH   5  28
ATOM     28  C   UNL     1     -14.252  56.863  51.213  0.00  0.00    +0.000 C 
BRANCH  28  29
ATOM     29  C   UNL     1     -14.155  58.345  51.595  0.00  0.00    +0.000 C 
BRANCH  29  30
ATOM     30  C   UNL     1     -14.772  59.321  50.594  0.00  0.00    +0.000 C 
BRANCH  30  31
ATOM     31  C   UNL     1     -13.671  60.129  49.904  0.00  0.00    +0.000 C 
BRANCH  31  32
ATOM     32  O   UNL     1     -14.218  60.950  48.880  0.00  0.00    +0.000 OA
ATOM     33  H   UNL     1     -15.064  61.319  49.178  0.00  0.00    +0.000 HD
ENDBRANCH  31  32
ENDBRANCH  30  31
ENDBRANCH  29  30
ENDBRANCH  28  29
ENDBRANCH   5  28
TORSDOF 7
ENDMDL
MODEL 3
REMARK VINA RESULT:      -7.4      2.197      3.049
REMARK  Name = 338541
REMARK  7 active torsions:
REMARK  status: ('A' for Active; 'I' for Inactive)
REMARK    1  A    between atoms: C_6  and  C_10
REMARK    2  A    between atoms: C_14  and  O_18
REMARK    3  A    between atoms: N_17  and  C_21
REMARK    4  A    between atoms: C_21  and  C_24
REMARK    5  A    between atoms: C_24  and  C_27
REMARK    6  A    between atoms: C_27  and  C_28
REMARK    7  A    between atoms: C_28  and  O_29
REMARK                            x       y       z     vdW  Elec       q    Type
REMARK                         _______ _______ _______ _____ _____    ______ ____
ROOT
ATOM      1  C   UNL     1     -11.560  54.045  51.197  0.00  0.00    +0.000 A 
ATOM      2  C   UNL     1     -10.627  54.079  52.365  0.00  0.00    +0.000 A 
ATOM      3  C   UNL     1     -11.668  52.932  50.453  0.00  0.00    +0.000 A 
ATOM      4  O   UNL     1     -10.641  55.078  53.092  0.00  0.00    +0.000 OA
ATOM      5  N   UNL     1      -9.802  52.984  52.594  0.00  0.00    +0.000 N 
ATOM      6  C   UNL     1     -10.886  51.733  50.790  0.00  0.00    +0.000 A 
ATOM      7  C   UNL     1      -9.980  51.766  51.866  0.00  0.00    +0.000 A 
ATOM      8  C   UNL     1     -11.056  50.539  50.065  0.00  0.00    +0.000 A 
ATOM      9  C   UNL     1      -9.303  50.585  52.209  0.00  0.00    +0.000 A 
ATOM     10  C   UNL     1     -10.353  49.385  50.404  0.00  0.00    +0.000 A 
ATOM     11  C   UNL     1      -9.478  49.408  51.479  0.00  0.00    +0.000 A 
ENDROOT
BRANCH   1  17
ATOM     12  S   UNL     1     -13.201  57.079  49.318  0.00  0.00    +0.000 S 
ATOM     13  O   UNL     1     -14.277  56.674  48.432  0.00  0.00    +0.000 OA
ATOM     14  O   UNL     1     -12.251  58.092  48.902  0.00  0.00    +0.000 OA
ATOM     15  N   UNL     1     -12.367  55.749  49.719  0.00  0.00    +0.000 N 
ATOM     16  C   UNL     1     -13.972  57.704  50.764  0.00  0.00    +0.000 A 
ATOM     17  C   UNL     1     -12.431  55.253  50.918  0.00  0.00    +0.000 C 
ATOM     18  C   UNL     1     -13.872  56.958  51.928  0.00  0.00    +0.000 A 
ATOM     19  C   UNL     1     -14.646  58.930  50.726  0.00  0.00    +0.000 A 
ATOM     20  N   UNL     1     -13.211  55.735  51.948  0.00  0.00    +0.000 N 
ATOM     21  C   UNL     1     -14.525  57.426  53.073  0.00  0.00    +0.000 A 
ATOM     22  C   UNL     1     -15.264  59.400  51.882  0.00  0.00    +0.000 A 
ATOM     23  C   UNL     1     -15.210  58.643  53.053  0.00  0.00    +0.000 A 
ATOM     24  H   UNL     1     -11.802  55.310  49.043  0.00  0.00    +0.000 HD
ATOM     25  H   UNL     1     -13.307  55.174  52.752  0.00  0.00    +0.000 HD
ENDBRANCH   1  17
BRANCH   3  26
ATOM     26  O   UNL     1     -12.527  52.789  49.377  0.00  0.00    +0.000 OA
ATOM     27  H   UNL     1     -13.376  52.413  49.501  0.00  0.00    +0.000 HD
ENDBRANCH   3  26
BRANCH   5  28
ATOM     28  C   UNL     1      -8.861  53.068  53.717  0.00  0.00    +0.000 C 
BRANCH  28  29
ATOM     29  C   UNL     1      -7.396  53.338  53.350  0.00  0.00    +0.000 C 
BRANCH  29  30
ATOM     30  C   UNL     1      -7.044  54.804  53.096  0.00  0.00    +0.000 C 
BRANCH  30  31
ATOM     31  C   UNL     1      -6.114  55.318  54.196  0.00  0.00    +0.000 C 
BRANCH  31  32
ATOM     32  O   UNL     1      -6.314  54.594  55.402  0.00  0.00    +0.000 OA
ATOM     33  H   UNL     1      -7.238  54.684  55.685  0.00  0.00    +0.000 HD
ENDBRANCH  31  32
ENDBRANCH  30  31
ENDBRANCH  29  30
ENDBRANCH  28  29
ENDBRANCH   5  28
TORSDOF 7
ENDMDL
MODEL 4
REMARK VINA RESULT:      -7.3      4.003      5.618
REMARK  Name = 338541
REMARK  7 active torsions:
REMARK  status: ('A' for Active; 'I' for Inactive)
REMARK    1  A    between atoms: C_6  and  C_10
REMARK    2  A    between atoms: C_14  and  O_18
REMARK    3  A    between atoms: N_17  and  C_21
REMARK    4  A    between atoms: C_21  and  C_24
REMARK    5  A    between atoms: C_24  and  C_27
REMARK    6  A    between atoms: C_27  and  C_28
REMARK    7  A    between atoms: C_28  and  O_29
REMARK                            x       y       z     vdW  Elec       q    Type
REMARK                         _______ _______ _______ _____ _____    ______ ____
ROOT
ATOM      1  C   UNL     1     -11.514  55.769  48.781  0.00  0.00    +0.000 A 
ATOM      2  C   UNL     1     -11.708  55.349  47.359  0.00  0.00    +0.000 A 
ATOM      3  C   UNL     1     -10.461  55.314  49.481  0.00  0.00    +0.000 A 
ATOM      4  O   UNL     1     -12.619  55.878  46.714  0.00  0.00    +0.000 OA
ATOM      5  N   UNL     1     -10.848  54.399  46.819  0.00  0.00    +0.000 N 
ATOM      6  C   UNL     1      -9.484  54.414  48.852  0.00  0.00    +0.000 A 
ATOM      7  C   UNL     1      -9.676  53.984  47.526  0.00  0.00    +0.000 A 
ATOM      8  C   UNL     1      -8.336  53.999  49.554  0.00  0.00    +0.000 A 
ATOM      9  C   UNL     1      -8.687  53.186  46.930  0.00  0.00    +0.000 A 
ATOM     10  C   UNL     1      -7.381  53.183  48.953  0.00  0.00    +0.000 A 
ATOM     11  C   UNL     1      -7.556  52.778  47.638  0.00  0.00    +0.000 A 
ENDROOT
BRANCH   1  17
ATOM     12  S   UNL     1     -13.498  59.104  49.387  0.00  0.00    +0.000 S 
ATOM     13  O   UNL     1     -14.631  59.253  48.492  0.00  0.00    +0.000 OA
ATOM     14  O   UNL     1     -12.652  60.241  49.691  0.00  0.00    +0.000 OA
ATOM     15  N   UNL     1     -12.556  57.927  48.795  0.00  0.00    +0.000 N 
ATOM     16  C   UNL     1     -14.158  58.567  50.920  0.00  0.00    +0.000 A 
ATOM     17  C   UNL     1     -12.474  56.772  49.387  0.00  0.00    +0.000 C 
ATOM     18  C   UNL     1     -13.902  57.264  51.316  0.00  0.00    +0.000 A 
ATOM     19  C   UNL     1     -14.900  59.450  51.713  0.00  0.00    +0.000 A 
ATOM     20  N   UNL     1     -13.175  56.393  50.512  0.00  0.00    +0.000 N 
ATOM     21  C   UNL     1     -14.465  56.813  52.515  0.00  0.00    +0.000 A 
ATOM     22  C   UNL     1     -15.427  58.997  52.920  0.00  0.00    +0.000 A 
ATOM     23  C   UNL     1     -15.216  57.677  53.316  0.00  0.00    +0.000 A 
ATOM     24  H   UNL     1     -12.036  58.088  47.975  0.00  0.00    +0.000 HD
ATOM     25  H   UNL     1     -13.161  55.441  50.762  0.00  0.00    +0.000 HD
ENDBRANCH   1  17
BRANCH   3  26
ATOM     26  O   UNL     1     -10.176  55.672  50.787  0.00  0.00    +0.000 OA
ATOM     27  H   UNL     1      -9.560  56.356  50.962  0.00  0.00    +0.000 HD
ENDBRANCH   3  26
BRANCH   5  28
ATOM     28  C   UNL     1     -11.095  53.968  45.438  0.00  0.00    +0.000 C 
BRANCH  28  29
ATOM     29  C   UNL     1     -12.024  52.760  45.266  0.00  0.00    +0.000 C 
BRANCH  29  30
ATOM     30  C   UNL     1     -11.337  51.459  44.853  0.00  0.00    +0.000 C 
BRANCH  30  31
ATOM     31  C   UNL     1     -10.387  51.717  43.682  0.00  0.00    +0.000 C 
BRANCH  31  32
ATOM     32  O   UNL     1     -10.907  51.159  42.482  0.00  0.00    +0.000 OA
ATOM     33  H   UNL     1     -10.536  51.630  41.719  0.00  0.00    +0.000 HD
ENDBRANCH  31  32
ENDBRANCH  30  31
ENDBRANCH  29  30
ENDBRANCH  28  29
ENDBRANCH   5  28
TORSDOF 7
ENDMDL
MODEL 5
REMARK VINA RESULT:      -7.3      3.122      4.831
REMARK  Name = 338541
REMARK  7 active torsions:
REMARK  status: ('A' for Active; 'I' for Inactive)
REMARK    1  A    between atoms: C_6  and  C_10
REMARK    2  A    between atoms: C_14  and  O_18
REMARK    3  A    between atoms: N_17  and  C_21
REMARK    4  A    between atoms: C_21  and  C_24
REMARK    5  A    between atoms: C_24  and  C_27
REMARK    6  A    between atoms: C_27  and  C_28
REMARK    7  A    between atoms: C_28  and  O_29
REMARK                            x       y       z     vdW  Elec       q    Type
REMARK                         _______ _______ _______ _____ _____    ______ ____
ROOT
ATOM      1  C   UNL     1     -11.448  55.891  48.894  0.00  0.00    +0.000 A 
ATOM      2  C   UNL     1     -10.466  55.225  49.804  0.00  0.00    +0.000 A 
ATOM      3  C   UNL     1     -11.490  55.563  47.592  0.00  0.00    +0.000 A 
ATOM      4  O   UNL     1     -10.536  55.467  51.013  0.00  0.00    +0.000 OA
ATOM      5  N   UNL     1      -9.532  54.351  49.257  0.00  0.00    +0.000 N 
ATOM      6  C   UNL     1     -10.585  54.537  47.054  0.00  0.00    +0.000 A 
ATOM      7  C   UNL     1      -9.633  53.930  47.894  0.00  0.00    +0.000 A 
ATOM      8  C   UNL     1     -10.679  54.131  45.710  0.00  0.00    +0.000 A 
ATOM      9  C   UNL     1      -8.835  52.902  47.370  0.00  0.00    +0.000 A 
ATOM     10  C   UNL     1      -9.857  53.128  45.201  0.00  0.00    +0.000 A 
ATOM     11  C   UNL     1      -8.936  52.511  46.033  0.00  0.00    +0.000 A 
ENDROOT
BRANCH   1  17
ATOM     12  S   UNL     1     -13.516  59.184  49.447  0.00  0.00    +0.000 S 
ATOM     13  O   UNL     1     -14.639  59.300  48.535  0.00  0.00    +0.000 OA
ATOM     14  O   UNL     1     -12.700  60.342  49.756  0.00  0.00    +0.000 OA
ATOM     15  N   UNL     1     -12.539  58.024  48.878  0.00  0.00    +0.000 N 
ATOM     16  C   UNL     1     -14.186  58.642  50.975  0.00  0.00    +0.000 A 
ATOM     17  C   UNL     1     -12.440  56.876  49.479  0.00  0.00    +0.000 C 
ATOM     18  C   UNL     1     -13.906  57.347  51.384  0.00  0.00    +0.000 A 
ATOM     19  C   UNL     1     -14.959  59.513  51.751  0.00  0.00    +0.000 A 
ATOM     20  N   UNL     1     -13.148  56.488  50.596  0.00  0.00    +0.000 N 
ATOM     21  C   UNL     1     -14.476  56.892  52.577  0.00  0.00    +0.000 A 
ATOM     22  C   UNL     1     -15.493  59.057  52.953  0.00  0.00    +0.000 A 
ATOM     23  C   UNL     1     -15.258  57.744  53.361  0.00  0.00    +0.000 A 
ATOM     24  H   UNL     1     -12.011  58.191  48.064  0.00  0.00    +0.000 HD
ATOM     25  H   UNL     1     -13.116  55.538  50.853  0.00  0.00    +0.000 HD
ENDBRANCH   1  17
BRANCH   3  26
ATOM     26  O   UNL     1     -12.384  56.095  46.678  0.00  0.00    +0.000 OA
ATOM     27  H   UNL     1     -13.304  55.961  46.791  0.00  0.00    +0.000 HD
ENDBRANCH   3  26
BRANCH   5  28
ATOM     28  C   UNL     1      -8.549  53.754  50.167  0.00  0.00    +0.000 C 
BRANCH  28  29
ATOM     29  C   UNL     1      -7.210  54.491  50.291  0.00  0.00    +0.000 C 
BRANCH  29  30
ATOM     30  C   UNL     1      -5.969  53.649  49.995  0.00  0.00    +0.000 C 
BRANCH  30  31
ATOM     31  C   UNL     1      -4.873  54.526  49.386  0.00  0.00    +0.000 C 
BRANCH  31  32
ATOM     32  O   UNL     1      -5.421  55.739  48.887  0.00  0.00    +0.000 OA
ATOM     33  H   UNL     1      -5.152  56.475  49.458  0.00  0.00    +0.000 HD
ENDBRANCH  31  32
ENDBRANCH  30  31
ENDBRANCH  29  30
ENDBRANCH  28  29
ENDBRANCH   5  28
TORSDOF 7
ENDMDL
MODEL 6
REMARK VINA RESULT:      -7.3      1.589      2.284
REMARK  Name = 338541
REMARK  7 active torsions:
REMARK  status: ('A' for Active; 'I' for Inactive)
REMARK    1  A    between atoms: C_6  and  C_10
REMARK    2  A    between atoms: C_14  and  O_18
REMARK    3  A    between atoms: N_17  and  C_21
REMARK    4  A    between atoms: C_21  and  C_24
REMARK    5  A    between atoms: C_24  and  C_27
REMARK    6  A    between atoms: C_27  and  C_28
REMARK    7  A    between atoms: C_28  and  O_29
REMARK                            x       y       z     vdW  Elec       q    Type
REMARK                         _______ _______ _______ _____ _____    ______ ____
ROOT
ATOM      1  C   UNL     1     -10.146  54.475  52.091  0.00  0.00    +0.000 A 
ATOM      2  C   UNL     1      -8.728  54.938  51.978  0.00  0.00    +0.000 A 
ATOM      3  C   UNL     1     -10.447  53.405  52.844  0.00  0.00    +0.000 A 
ATOM      4  O   UNL     1      -8.506  55.991  51.372  0.00  0.00    +0.000 OA
ATOM      5  N   UNL     1      -7.727  54.178  52.572  0.00  0.00    +0.000 N 
ATOM      6  C   UNL     1      -9.392  52.691  53.577  0.00  0.00    +0.000 A 
ATOM      7  C   UNL     1      -8.051  53.096  53.449  0.00  0.00    +0.000 A 
ATOM      8  C   UNL     1      -9.712  51.619  54.432  0.00  0.00    +0.000 A 
ATOM      9  C   UNL     1      -7.076  52.441  54.219  0.00  0.00    +0.000 A 
ATOM     10  C   UNL     1      -8.726  50.964  55.166  0.00  0.00    +0.000 A 
ATOM     11  C   UNL     1      -7.406  51.377  55.060  0.00  0.00    +0.000 A 
ENDROOT
BRANCH   1  17
ATOM     12  S   UNL     1     -13.481  56.475  51.534  0.00  0.00    +0.000 S 
ATOM     13  O   UNL     1     -13.393  57.849  51.992  0.00  0.00    +0.000 OA
ATOM     14  O   UNL     1     -14.678  55.695  51.780  0.00  0.00    +0.000 OA
ATOM     15  N   UNL     1     -12.223  55.667  52.160  0.00  0.00    +0.000 N 
ATOM     16  C   UNL     1     -13.290  56.531  49.791  0.00  0.00    +0.000 A 
ATOM     17  C   UNL     1     -11.236  55.278  51.410  0.00  0.00    +0.000 C 
ATOM     18  C   UNL     1     -12.117  56.028  49.250  0.00  0.00    +0.000 A 
ATOM     19  C   UNL     1     -14.311  57.054  48.990  0.00  0.00    +0.000 A 
ATOM     20  N   UNL     1     -11.104  55.524  50.060  0.00  0.00    +0.000 N 
ATOM     21  C   UNL     1     -11.936  56.114  47.866  0.00  0.00    +0.000 A 
ATOM     22  C   UNL     1     -14.131  57.103  47.610  0.00  0.00    +0.000 A 
ATOM     23  C   UNL     1     -12.940  56.640  47.049  0.00  0.00    +0.000 A 
ATOM     24  H   UNL     1     -12.207  55.467  53.123  0.00  0.00    +0.000 HD
ATOM     25  H   UNL     1     -10.235  55.331  49.640  0.00  0.00    +0.000 HD
ENDBRANCH   1  17
BRANCH   3  26
ATOM     26  O   UNL     1     -11.729  52.922  53.041  0.00  0.00    +0.000 OA
ATOM     27  H   UNL     1     -12.158  53.051  53.864  0.00  0.00    +0.000 HD
ENDBRANCH   3  26
BRANCH   5  28
ATOM     28  C   UNL     1      -6.341  54.629  52.399  0.00  0.00    +0.000 C 
BRANCH  28  29
ATOM     29  C   UNL     1      -5.515  53.880  51.346  0.00  0.00    +0.000 C 
BRANCH  29  30
ATOM     30  C   UNL     1      -5.075  54.714  50.144  0.00  0.00    +0.000 C 
BRANCH  30  31
ATOM     31  C   UNL     1      -6.139  54.652  49.046  0.00  0.00    +0.000 C 
BRANCH  31  32
ATOM     32  O   UNL     1      -6.916  55.843  49.033  0.00  0.00    +0.000 OA
ATOM     33  H   UNL     1      -7.269  56.009  49.921  0.00  0.00    +0.000 HD
ENDBRANCH  31  32
ENDBRANCH  30  31
ENDBRANCH  29  30
ENDBRANCH  28  29
ENDBRANCH   5  28
TORSDOF 7
ENDMDL
MODEL 7
REMARK VINA RESULT:      -7.2      2.855      6.890
REMARK  Name = 338541
REMARK  7 active torsions:
REMARK  status: ('A' for Active; 'I' for Inactive)
REMARK    1  A    between atoms: C_6  and  C_10
REMARK    2  A    between atoms: C_14  and  O_18
REMARK    3  A    between atoms: N_17  and  C_21
REMARK    4  A    between atoms: C_21  and  C_24
REMARK    5  A    between atoms: C_24  and  C_27
REMARK    6  A    between atoms: C_27  and  C_28
REMARK    7  A    between atoms: C_28  and  O_29
REMARK                            x       y       z     vdW  Elec       q    Type
REMARK                         _______ _______ _______ _____ _____    ______ ____
ROOT
ATOM      1  C   UNL     1     -10.195  55.175  50.786  0.00  0.00    +0.000 A 
ATOM      2  C   UNL     1      -9.758  55.106  49.358  0.00  0.00    +0.000 A 
ATOM      3  C   UNL     1     -11.413  55.649  51.096  0.00  0.00    +0.000 A 
ATOM      4  O   UNL     1      -8.681  54.558  49.103  0.00  0.00    +0.000 OA
ATOM      5  N   UNL     1     -10.587  55.643  48.378  0.00  0.00    +0.000 N 
ATOM      6  C   UNL     1     -12.332  56.088  50.036  0.00  0.00    +0.000 A 
ATOM      7  C   UNL     1     -11.918  56.061  48.692  0.00  0.00    +0.000 A 
ATOM      8  C   UNL     1     -13.638  56.509  50.349  0.00  0.00    +0.000 A 
ATOM      9  C   UNL     1     -12.844  56.416  47.698  0.00  0.00    +0.000 A 
ATOM     10  C   UNL     1     -14.533  56.884  49.349  0.00  0.00    +0.000 A 
ATOM     11  C   UNL     1     -14.135  56.835  48.022  0.00  0.00    +0.000 A 
ENDROOT
BRANCH   1  17
ATOM     12  S   UNL     1      -7.024  54.672  53.048  0.00  0.00    +0.000 S 
ATOM     13  O   UNL     1      -6.936  55.651  54.116  0.00  0.00    +0.000 OA
ATOM     14  O   UNL     1      -5.837  54.282  52.313  0.00  0.00    +0.000 OA
ATOM     15  N   UNL     1      -8.118  55.207  51.980  0.00  0.00    +0.000 N 
ATOM     16  C   UNL     1      -7.640  53.204  53.784  0.00  0.00    +0.000 A 
ATOM     17  C   UNL     1      -9.277  54.630  51.861  0.00  0.00    +0.000 C 
ATOM     18  C   UNL     1      -8.931  52.811  53.466  0.00  0.00    +0.000 A 
ATOM     19  C   UNL     1      -6.830  52.458  54.647  0.00  0.00    +0.000 A 
ATOM     20  N   UNL     1      -9.730  53.570  52.618  0.00  0.00    +0.000 N 
ATOM     21  C   UNL     1      -9.448  51.669  54.086  0.00  0.00    +0.000 A 
ATOM     22  C   UNL     1      -7.347  51.304  55.232  0.00  0.00    +0.000 A 
ATOM     23  C   UNL     1      -8.658  50.915  54.958  0.00  0.00    +0.000 A 
ATOM     24  H   UNL     1      -7.902  55.980  51.411  0.00  0.00    +0.000 HD
ATOM     25  H   UNL     1     -10.684  53.336  52.553  0.00  0.00    +0.000 HD
ENDBRANCH   1  17
BRANCH   3  26
ATOM     26  O   UNL     1     -11.922  55.719  52.382  0.00  0.00    +0.000 OA
ATOM     27  H   UNL     1     -11.435  55.364  53.099  0.00  0.00    +0.000 HD
ENDBRANCH   3  26
BRANCH   5  28
ATOM     28  C   UNL     1     -10.108  55.608  46.992  0.00  0.00    +0.000 C 
BRANCH  28  29
ATOM     29  C   UNL     1     -10.253  54.267  46.262  0.00  0.00    +0.000 C 
BRANCH  29  30
ATOM     30  C   UNL     1      -8.956  53.681  45.703  0.00  0.00    +0.000 C 
BRANCH  30  31
ATOM     31  C   UNL     1      -7.886  54.771  45.611  0.00  0.00    +0.000 C 
BRANCH  31  32
ATOM     32  O   UNL     1      -6.870  54.558  46.582  0.00  0.00    +0.000 OA
ATOM     33  H   UNL     1      -6.890  53.634  46.875  0.00  0.00    +0.000 HD
ENDBRANCH  31  32
ENDBRANCH  30  31
ENDBRANCH  29  30
ENDBRANCH  28  29
ENDBRANCH   5  28
TORSDOF 7
ENDMDL
MODEL 8
REMARK VINA RESULT:      -7.2      3.328      5.256
REMARK  Name = 338541
REMARK  7 active torsions:
REMARK  status: ('A' for Active; 'I' for Inactive)
REMARK    1  A    between atoms: C_6  and  C_10
REMARK    2  A    between atoms: C_14  and  O_18
REMARK    3  A    between atoms: N_17  and  C_21
REMARK    4  A    between atoms: C_21  and  C_24
REMARK    5  A    between atoms: C_24  and  C_27
REMARK    6  A    between atoms: C_27  and  C_28
REMARK    7  A    between atoms: C_28  and  O_29
REMARK                            x       y       z     vdW  Elec       q    Type
REMARK                         _______ _______ _______ _____ _____    ______ ____
ROOT
ATOM      1  C   UNL     1     -10.714  55.707  48.390  0.00  0.00    +0.000 A 
ATOM      2  C   UNL     1      -9.288  55.611  48.830  0.00  0.00    +0.000 A 
ATOM      3  C   UNL     1     -11.098  55.165  47.223  0.00  0.00    +0.000 A 
ATOM      4  O   UNL     1      -8.998  56.018  49.959  0.00  0.00    +0.000 OA
ATOM      5  N   UNL     1      -8.356  55.053  47.962  0.00  0.00    +0.000 N 
ATOM      6  C   UNL     1     -10.125  54.458  46.376  0.00  0.00    +0.000 A 
ATOM      7  C   UNL     1      -8.774  54.393  46.763  0.00  0.00    +0.000 A 
ATOM      8  C   UNL     1     -10.537  53.818  45.192  0.00  0.00    +0.000 A 
ATOM      9  C   UNL     1      -7.885  53.648  45.972  0.00  0.00    +0.000 A 
ATOM     10  C   UNL     1      -9.633  53.108  44.406  0.00  0.00    +0.000 A 
ATOM     11  C   UNL     1      -8.306  53.021  44.798  0.00  0.00    +0.000 A 
ENDROOT
BRANCH   1  17
ATOM     12  S   UNL     1     -13.278  56.182  51.328  0.00  0.00    +0.000 S 
ATOM     13  O   UNL     1     -12.631  56.449  52.599  0.00  0.00    +0.000 OA
ATOM     14  O   UNL     1     -14.418  55.289  51.259  0.00  0.00    +0.000 OA
ATOM     15  N   UNL     1     -12.148  55.627  50.308  0.00  0.00    +0.000 N 
ATOM     16  C   UNL     1     -13.843  57.733  50.736  0.00  0.00    +0.000 A 
ATOM     17  C   UNL     1     -11.725  56.352  49.316  0.00  0.00    +0.000 C 
ATOM     18  C   UNL     1     -13.202  58.281  49.635  0.00  0.00    +0.000 A 
ATOM     19  C   UNL     1     -14.923  58.371  51.357  0.00  0.00    +0.000 A 
ATOM     20  N   UNL     1     -12.121  57.643  49.036  0.00  0.00    +0.000 N 
ATOM     21  C   UNL     1     -13.615  59.540  49.187  0.00  0.00    +0.000 A 
ATOM     22  C   UNL     1     -15.344  59.609  50.880  0.00  0.00    +0.000 A 
ATOM     23  C   UNL     1     -14.685  60.197  49.800  0.00  0.00    +0.000 A 
ATOM     24  H   UNL     1     -11.777  54.725  50.441  0.00  0.00    +0.000 HD
ATOM     25  H   UNL     1     -11.605  58.147  48.366  0.00  0.00    +0.000 HD
ENDBRANCH   1  17
BRANCH   3  26
ATOM     26  O   UNL     1     -12.397  55.169  46.746  0.00  0.00    +0.000 OA
ATOM     27  H   UNL     1     -12.669  54.531  46.117  0.00  0.00    +0.000 HD
ENDBRANCH   3  26
BRANCH   5  28
ATOM     28  C   UNL     1      -6.957  55.020  48.400  0.00  0.00    +0.000 C 
BRANCH  28  29
ATOM     29  C   UNL     1      -6.580  53.893  49.370  0.00  0.00    +0.000 C 
BRANCH  29  30
ATOM     30  C   UNL     1      -5.574  54.273  50.456  0.00  0.00    +0.000 C 
BRANCH  30  31
ATOM     31  C   UNL     1      -6.307  54.607  51.756  0.00  0.00    +0.000 C 
BRANCH  31  32
ATOM     32  O   UNL     1      -6.686  55.977  51.780  0.00  0.00    +0.000 OA
ATOM     33  H   UNL     1      -7.094  56.185  52.635  0.00  0.00    +0.000 HD
ENDBRANCH  31  32
ENDBRANCH  30  31
ENDBRANCH  29  30
ENDBRANCH  28  29
ENDBRANCH   5  28
TORSDOF 7
ENDMDL
MODEL 9
REMARK VINA RESULT:      -7.1      2.517      7.689
REMARK  Name = 338541
REMARK  7 active torsions:
REMARK  status: ('A' for Active; 'I' for Inactive)
REMARK    1  A    between atoms: C_6  and  C_10
REMARK    2  A    between atoms: C_14  and  O_18
REMARK    3  A    between atoms: N_17  and  C_21
REMARK    4  A    between atoms: C_21  and  C_24
REMARK    5  A    between atoms: C_24  and  C_27
REMARK    6  A    between atoms: C_27  and  C_28
REMARK    7  A    between atoms: C_28  and  O_29
REMARK                            x       y       z     vdW  Elec       q    Type
REMARK                         _______ _______ _______ _____ _____    ______ ____
ROOT
ATOM      1  C   UNL     1     -10.612  54.974  50.556  0.00  0.00    +0.000 A 
ATOM      2  C   UNL     1     -11.699  55.422  51.480  0.00  0.00    +0.000 A 
ATOM      3  C   UNL     1     -10.734  55.160  49.231  0.00  0.00    +0.000 A 
ATOM      4  O   UNL     1     -11.500  55.340  52.696  0.00  0.00    +0.000 OA
ATOM      5  N   UNL     1     -12.875  55.926  50.935  0.00  0.00    +0.000 N 
ATOM      6  C   UNL     1     -11.927  55.819  48.680  0.00  0.00    +0.000 A 
ATOM      7  C   UNL     1     -12.971  56.212  49.537  0.00  0.00    +0.000 A 
ATOM      8  C   UNL     1     -12.024  56.089  47.302  0.00  0.00    +0.000 A 
ATOM      9  C   UNL     1     -14.063  56.904  48.990  0.00  0.00    +0.000 A 
ATOM     10  C   UNL     1     -13.130  56.753  46.775  0.00  0.00    +0.000 A 
ATOM     11  C   UNL     1     -14.149  57.163  47.621  0.00  0.00    +0.000 A 
ENDROOT
BRANCH   1  17
ATOM     12  S   UNL     1      -7.626  52.507  51.210  0.00  0.00    +0.000 S 
ATOM     13  O   UNL     1      -6.560  52.647  50.235  0.00  0.00    +0.000 OA
ATOM     14  O   UNL     1      -8.042  51.192  51.657  0.00  0.00    +0.000 OA
ATOM     15  N   UNL     1      -8.931  53.269  50.624  0.00  0.00    +0.000 N 
ATOM     16  C   UNL     1      -7.088  53.358  52.645  0.00  0.00    +0.000 A 
ATOM     17  C   UNL     1      -9.346  54.385  51.144  0.00  0.00    +0.000 C 
ATOM     18  C   UNL     1      -7.727  54.543  52.976  0.00  0.00    +0.000 A 
ATOM     19  C   UNL     1      -6.057  52.829  53.430  0.00  0.00    +0.000 A 
ATOM     20  N   UNL     1      -8.741  55.064  52.180  0.00  0.00    +0.000 N 
ATOM     21  C   UNL     1      -7.271  55.252  54.092  0.00  0.00    +0.000 A 
ATOM     22  C   UNL     1      -5.635  53.529  54.557  0.00  0.00    +0.000 A 
ATOM     23  C   UNL     1      -6.237  54.745  54.883  0.00  0.00    +0.000 A 
ATOM     24  H   UNL     1      -9.418  52.879  49.861  0.00  0.00    +0.000 HD
ATOM     25  H   UNL     1      -9.047  55.981  52.369  0.00  0.00    +0.000 HD
ENDBRANCH   1  17
BRANCH   3  26
ATOM     26  O   UNL     1      -9.770  54.814  48.300  0.00  0.00    +0.000 OA
ATOM     27  H   UNL     1      -9.419  55.465  47.725  0.00  0.00    +0.000 HD
ENDBRANCH   3  26
BRANCH   5  28
ATOM     28  C   UNL     1     -13.943  56.308  51.865  0.00  0.00    +0.000 C 
BRANCH  28  29
ATOM     29  C   UNL     1     -13.762  57.651  52.585  0.00  0.00    +0.000 C 
BRANCH  29  30
ATOM     30  C   UNL     1     -15.004  58.541  52.632  0.00  0.00    +0.000 C 
BRANCH  30  31
ATOM     31  C   UNL     1     -15.136  59.326  51.325  0.00  0.00    +0.000 C 
BRANCH  31  32
ATOM     32  O   UNL     1     -13.864  59.782  50.883  0.00  0.00    +0.000 OA
ATOM     33  H   UNL     1     -13.839  60.751  50.911  0.00  0.00    +0.000 HD
ENDBRANCH  31  32
ENDBRANCH  30  31
ENDBRANCH  29  30
ENDBRANCH  28  29
ENDBRANCH   5  28
TORSDOF 7
ENDMDL
