MODEL 1
REMARK VINA RESULT:      -8.6      0.000      0.000
REMARK  Name = 338063
REMARK  8 active torsions:
REMARK  status: ('A' for Active; 'I' for Inactive)
REMARK    1  A    between atoms: C_6  and  C_10
REMARK    2  A    between atoms: C_14  and  O_18
REMARK    3  A    between atoms: N_17  and  C_21
REMARK    4  A    between atoms: C_21  and  C_24
REMARK    5  A    between atoms: C_24  and  C_27
REMARK    6  A    between atoms: C_25  and  C_28
REMARK    7  A    between atoms: C_27  and  C_29
REMARK    8  A    between atoms: C_27  and  C_30
REMARK                            x       y       z     vdW  Elec       q    Type
REMARK                         _______ _______ _______ _____ _____    ______ ____
ROOT
ATOM      1  C   UNL     1     -10.139  54.425  52.192  0.00  0.00    +0.000 A 
ATOM      2  C   UNL     1      -8.750  54.972  52.106  0.00  0.00    +0.000 A 
ATOM      3  C   UNL     1     -10.384  53.321  52.918  0.00  0.00    +0.000 A 
ATOM      4  O   UNL     1      -8.581  56.038  51.506  0.00  0.00    +0.000 OA
ATOM      5  N   UNL     1      -7.717  54.279  52.724  0.00  0.00    +0.000 N 
ATOM      6  C   UNL     1      -9.295  52.649  53.640  0.00  0.00    +0.000 A 
ATOM      7  C   UNL     1      -7.986  53.152  53.564  0.00  0.00    +0.000 A 
ATOM      8  C   UNL     1      -9.561  51.518  54.432  0.00  0.00    +0.000 A 
ATOM      9  C   UNL     1      -6.988  52.544  54.339  0.00  0.00    +0.000 A 
ATOM     10  C   UNL     1      -8.550  50.897  55.170  0.00  0.00    +0.000 A 
ATOM     11  C   UNL     1      -7.263  51.427  55.129  0.00  0.00    +0.000 A 
ATOM     12  C   UNL     1      -8.842  49.704  56.028  0.00  0.00    +0.000 C 
ENDROOT
BRANCH   1  18
ATOM     13  S   UNL     1     -12.423  55.979  49.397  0.00  0.00    +0.000 S 
ATOM     14  O   UNL     1     -13.308  54.997  48.803  0.00  0.00    +0.000 OA
ATOM     15  O   UNL     1     -11.762  56.968  48.565  0.00  0.00    +0.000 OA
ATOM     16  N   UNL     1     -11.285  55.180  50.226  0.00  0.00    +0.000 N 
ATOM     17  C   UNL     1     -13.399  56.887  50.540  0.00  0.00    +0.000 A 
ATOM     18  C   UNL     1     -11.275  55.177  51.526  0.00  0.00    +0.000 C 
ATOM     19  C   UNL     1     -13.159  56.696  51.891  0.00  0.00    +0.000 A 
ATOM     20  C   UNL     1     -14.369  57.778  50.075  0.00  0.00    +0.000 A 
ATOM     21  N   UNL     1     -12.199  55.795  52.337  0.00  0.00    +0.000 N 
ATOM     22  C   UNL     1     -13.966  57.379  52.806  0.00  0.00    +0.000 A 
ATOM     23  C   UNL     1     -15.143  58.476  50.998  0.00  0.00    +0.000 A 
ATOM     24  C   UNL     1     -14.946  58.270  52.364  0.00  0.00    +0.000 A 
ATOM     25  H   UNL     1     -10.589  54.685  49.736  0.00  0.00    +0.000 HD
ATOM     26  H   UNL     1     -12.178  55.586  53.300  0.00  0.00    +0.000 HD
ENDBRANCH   1  18
BRANCH   3  27
ATOM     27  O   UNL     1     -11.640  52.768  53.102  0.00  0.00    +0.000 OA
ATOM     28  H   UNL     1     -11.773  51.851  52.961  0.00  0.00    +0.000 HD
ENDBRANCH   3  27
BRANCH   5  29
ATOM     29  C   UNL     1      -6.353  54.801  52.575  0.00  0.00    +0.000 C 
BRANCH  29  30
ATOM     30  C   UNL     1      -5.472  54.074  51.545  0.00  0.00    +0.000 C 
BRANCH  30  31
ATOM     31  C   UNL     1      -4.095  53.596  52.034  0.00  0.00    +0.000 C 
ATOM     32  C   UNL     1      -3.852  53.930  53.505  0.00  0.00    +0.000 C 
ATOM     33  C   UNL     1      -3.996  52.080  51.826  0.00  0.00    +0.000 C 
ENDBRANCH  30  31
ENDBRANCH  29  30
ENDBRANCH   5  29
TORSDOF 5
ENDMDL
MODEL 2
REMARK VINA RESULT:      -8.3      3.676      5.408
REMARK  Name = 338063
REMARK  8 active torsions:
REMARK  status: ('A' for Active; 'I' for Inactive)
REMARK    1  A    between atoms: C_6  and  C_10
REMARK    2  A    between atoms: C_14  and  O_18
REMARK    3  A    between atoms: N_17  and  C_21
REMARK    4  A    between atoms: C_21  and  C_24
REMARK    5  A    between atoms: C_24  and  C_27
REMARK    6  A    between atoms: C_25  and  C_28
REMARK    7  A    between atoms: C_27  and  C_29
REMARK    8  A    between atoms: C_27  and  C_30
REMARK                            x       y       z     vdW  Elec       q    Type
REMARK                         _______ _______ _______ _____ _____    ______ ____
ROOT
ATOM      1  C   UNL     1     -11.328  56.159  48.733  0.00  0.00    +0.000 A 
ATOM      2  C   UNL     1     -10.129  55.725  49.514  0.00  0.00    +0.000 A 
ATOM      3  C   UNL     1     -11.532  55.683  47.493  0.00  0.00    +0.000 A 
ATOM      4  O   UNL     1     -10.025  56.111  50.683  0.00  0.00    +0.000 OA
ATOM      5  N   UNL     1      -9.202  54.886  48.908  0.00  0.00    +0.000 N 
ATOM      6  C   UNL     1     -10.589  54.726  46.898  0.00  0.00    +0.000 A 
ATOM      7  C   UNL     1      -9.458  54.313  47.622  0.00  0.00    +0.000 A 
ATOM      8  C   UNL     1     -10.825  54.198  45.618  0.00  0.00    +0.000 A 
ATOM      9  C   UNL     1      -8.628  53.329  47.066  0.00  0.00    +0.000 A 
ATOM     10  C   UNL     1      -9.970  53.246  45.057  0.00  0.00    +0.000 A 
ATOM     11  C   UNL     1      -8.877  52.804  45.797  0.00  0.00    +0.000 A 
ATOM     12  C   UNL     1     -10.238  52.672  43.700  0.00  0.00    +0.000 C 
ENDROOT
BRANCH   1  18
ATOM     13  S   UNL     1     -13.558  59.312  49.461  0.00  0.00    +0.000 S 
ATOM     14  O   UNL     1     -14.703  59.390  48.575  0.00  0.00    +0.000 OA
ATOM     15  O   UNL     1     -12.810  60.509  49.799  0.00  0.00    +0.000 OA
ATOM     16  N   UNL     1     -12.525  58.235  48.835  0.00  0.00    +0.000 N 
ATOM     17  C   UNL     1     -14.161  58.675  50.982  0.00  0.00    +0.000 A 
ATOM     18  C   UNL     1     -12.349  57.069  49.386  0.00  0.00    +0.000 C 
ATOM     19  C   UNL     1     -13.798  57.386  51.334  0.00  0.00    +0.000 A 
ATOM     20  C   UNL     1     -14.966  59.470  51.801  0.00  0.00    +0.000 A 
ATOM     21  N   UNL     1     -13.007  56.602  50.501  0.00  0.00    +0.000 N 
ATOM     22  C   UNL     1     -14.315  56.855  52.520  0.00  0.00    +0.000 A 
ATOM     23  C   UNL     1     -15.447  58.941  52.996  0.00  0.00    +0.000 A 
ATOM     24  C   UNL     1     -15.127  57.630  53.351  0.00  0.00    +0.000 A 
ATOM     25  H   UNL     1     -12.020  58.465  48.022  0.00  0.00    +0.000 HD
ATOM     26  H   UNL     1     -12.910  55.647  50.725  0.00  0.00    +0.000 HD
ENDBRANCH   1  18
BRANCH   3  27
ATOM     27  O   UNL     1     -12.635  55.983  46.710  0.00  0.00    +0.000 OA
ATOM     28  H   UNL     1     -12.521  56.419  45.889  0.00  0.00    +0.000 HD
ENDBRANCH   3  27
BRANCH   5  29
ATOM     29  C   UNL     1      -8.003  54.521  49.673  0.00  0.00    +0.000 C 
BRANCH  29  30
ATOM     30  C   UNL     1      -6.849  55.537  49.622  0.00  0.00    +0.000 C 
BRANCH  30  31
ATOM     31  C   UNL     1      -5.424  54.958  49.623  0.00  0.00    +0.000 C 
ATOM     32  C   UNL     1      -5.077  54.268  50.941  0.00  0.00    +0.000 C 
ATOM     33  C   UNL     1      -5.299  53.958  48.467  0.00  0.00    +0.000 C 
ENDBRANCH  30  31
ENDBRANCH  29  30
ENDBRANCH   5  29
TORSDOF 5
ENDMDL
MODEL 3
REMARK VINA RESULT:      -8.2      3.614      5.459
REMARK  Name = 338063
REMARK  8 active torsions:
REMARK  status: ('A' for Active; 'I' for Inactive)
REMARK    1  A    between atoms: C_6  and  C_10
REMARK    2  A    between atoms: C_14  and  O_18
REMARK    3  A    between atoms: N_17  and  C_21
REMARK    4  A    between atoms: C_21  and  C_24
REMARK    5  A    between atoms: C_24  and  C_27
REMARK    6  A    between atoms: C_25  and  C_28
REMARK    7  A    between atoms: C_27  and  C_29
REMARK    8  A    between atoms: C_27  and  C_30
REMARK                            x       y       z     vdW  Elec       q    Type
REMARK                         _______ _______ _______ _____ _____    ______ ____
ROOT
ATOM      1  C   UNL     1     -11.539  55.861  48.830  0.00  0.00    +0.000 A 
ATOM      2  C   UNL     1     -10.539  55.171  49.703  0.00  0.00    +0.000 A 
ATOM      3  C   UNL     1     -11.635  55.534  47.530  0.00  0.00    +0.000 A 
ATOM      4  O   UNL     1     -10.543  55.432  50.910  0.00  0.00    +0.000 OA
ATOM      5  N   UNL     1      -9.670  54.251  49.130  0.00  0.00    +0.000 N 
ATOM      6  C   UNL     1     -10.770  54.494  46.957  0.00  0.00    +0.000 A 
ATOM      7  C   UNL     1      -9.825  53.842  47.767  0.00  0.00    +0.000 A 
ATOM      8  C   UNL     1     -10.901  54.125  45.607  0.00  0.00    +0.000 A 
ATOM      9  C   UNL     1      -9.081  52.790  47.215  0.00  0.00    +0.000 A 
ATOM     10  C   UNL     1     -10.126  53.101  45.058  0.00  0.00    +0.000 A 
ATOM     11  C   UNL     1      -9.224  52.425  45.876  0.00  0.00    +0.000 A 
ATOM     12  C   UNL     1     -10.283  52.699  43.623  0.00  0.00    +0.000 C 
ENDROOT
BRANCH   1  18
ATOM     13  S   UNL     1     -13.543  59.186  49.438  0.00  0.00    +0.000 S 
ATOM     14  O   UNL     1     -14.676  59.314  48.542  0.00  0.00    +0.000 OA
ATOM     15  O   UNL     1     -12.713  60.338  49.740  0.00  0.00    +0.000 OA
ATOM     16  N   UNL     1     -12.586  58.017  48.855  0.00  0.00    +0.000 N 
ATOM     17  C   UNL     1     -14.195  58.645  50.975  0.00  0.00    +0.000 A 
ATOM     18  C   UNL     1     -12.496  56.862  49.446  0.00  0.00    +0.000 C 
ATOM     19  C   UNL     1     -13.926  57.346  51.372  0.00  0.00    +0.000 A 
ATOM     20  C   UNL     1     -14.945  59.523  51.762  0.00  0.00    +0.000 A 
ATOM     21  N   UNL     1     -13.189  56.480  50.572  0.00  0.00    +0.000 N 
ATOM     22  C   UNL     1     -14.484  56.894  52.572  0.00  0.00    +0.000 A 
ATOM     23  C   UNL     1     -15.467  59.069  52.971  0.00  0.00    +0.000 A 
ATOM     24  C   UNL     1     -15.242  57.752  53.372  0.00  0.00    +0.000 A 
ATOM     25  H   UNL     1     -12.063  58.184  48.038  0.00  0.00    +0.000 HD
ATOM     26  H   UNL     1     -13.161  55.529  50.828  0.00  0.00    +0.000 HD
ENDBRANCH   1  18
BRANCH   3  27
ATOM     27  O   UNL     1     -12.561  56.075  46.653  0.00  0.00    +0.000 OA
ATOM     28  H   UNL     1     -13.441  55.752  46.643  0.00  0.00    +0.000 HD
ENDBRANCH   3  27
BRANCH   5  29
ATOM     29  C   UNL     1      -8.657  53.632  49.993  0.00  0.00    +0.000 C 
BRANCH  29  30
ATOM     30  C   UNL     1      -7.252  54.256  49.921  0.00  0.00    +0.000 C 
BRANCH  30  31
ATOM     31  C   UNL     1      -6.874  55.229  51.050  0.00  0.00    +0.000 C 
ATOM     32  C   UNL     1      -7.390  56.644  50.795  0.00  0.00    +0.000 C 
ATOM     33  C   UNL     1      -7.448  54.699  52.369  0.00  0.00    +0.000 C 
ENDBRANCH  30  31
ENDBRANCH  29  30
ENDBRANCH   5  29
TORSDOF 5
ENDMDL
MODEL 4
REMARK VINA RESULT:      -8.1      3.729      4.858
REMARK  Name = 338063
REMARK  8 active torsions:
REMARK  status: ('A' for Active; 'I' for Inactive)
REMARK    1  A    between atoms: C_6  and  C_10
REMARK    2  A    between atoms: C_14  and  O_18
REMARK    3  A    between atoms: N_17  and  C_21
REMARK    4  A    between atoms: C_21  and  C_24
REMARK    5  A    between atoms: C_24  and  C_27
REMARK    6  A    between atoms: C_25  and  C_28
REMARK    7  A    between atoms: C_27  and  C_29
REMARK    8  A    between atoms: C_27  and  C_30
REMARK                            x       y       z     vdW  Elec       q    Type
REMARK                         _______ _______ _______ _____ _____    ______ ____
ROOT
ATOM      1  C   UNL     1     -12.437  54.364  49.783  0.00  0.00    +0.000 A 
ATOM      2  C   UNL     1     -12.032  54.204  48.352  0.00  0.00    +0.000 A 
ATOM      3  C   UNL     1     -11.992  53.498  50.708  0.00  0.00    +0.000 A 
ATOM      4  O   UNL     1     -12.386  55.072  47.547  0.00  0.00    +0.000 OA
ATOM      5  N   UNL     1     -11.257  53.109  47.992  0.00  0.00    +0.000 N 
ATOM      6  C   UNL     1     -11.099  52.395  50.328  0.00  0.00    +0.000 A 
ATOM      7  C   UNL     1     -10.715  52.234  48.986  0.00  0.00    +0.000 A 
ATOM      8  C   UNL     1     -10.602  51.515  51.304  0.00  0.00    +0.000 A 
ATOM      9  C   UNL     1      -9.788  51.230  48.671  0.00  0.00    +0.000 A 
ATOM     10  C   UNL     1      -9.708  50.493  50.971  0.00  0.00    +0.000 A 
ATOM     11  C   UNL     1      -9.294  50.366  49.648  0.00  0.00    +0.000 A 
ATOM     12  C   UNL     1      -9.167  49.570  52.019  0.00  0.00    +0.000 C 
ENDROOT
BRANCH   1  18
ATOM     13  S   UNL     1     -15.393  56.489  51.262  0.00  0.00    +0.000 S 
ATOM     14  O   UNL     1     -15.311  56.613  52.704  0.00  0.00    +0.000 OA
ATOM     15  O   UNL     1     -16.674  56.263  50.618  0.00  0.00    +0.000 OA
ATOM     16  N   UNL     1     -14.389  55.302  50.812  0.00  0.00    +0.000 N 
ATOM     17  C   UNL     1     -14.785  58.001  50.608  0.00  0.00    +0.000 A 
ATOM     18  C   UNL     1     -13.278  55.559  50.186  0.00  0.00    +0.000 C 
ATOM     19  C   UNL     1     -13.558  57.981  49.966  0.00  0.00    +0.000 A 
ATOM     20  C   UNL     1     -15.541  59.169  50.730  0.00  0.00    +0.000 A 
ATOM     21  N   UNL     1     -12.810  56.813  49.864  0.00  0.00    +0.000 N 
ATOM     22  C   UNL     1     -13.045  59.190  49.486  0.00  0.00    +0.000 A 
ATOM     23  C   UNL     1     -15.034  60.359  50.217  0.00  0.00    +0.000 A 
ATOM     24  C   UNL     1     -13.782  60.372  49.603  0.00  0.00    +0.000 A 
ATOM     25  H   UNL     1     -14.623  54.368  51.017  0.00  0.00    +0.000 HD
ATOM     26  H   UNL     1     -11.883  56.888  49.539  0.00  0.00    +0.000 HD
ENDBRANCH   1  18
BRANCH   3  27
ATOM     27  O   UNL     1     -12.266  53.590  52.063  0.00  0.00    +0.000 OA
ATOM     28  H   UNL     1     -13.035  54.038  52.356  0.00  0.00    +0.000 HD
ENDBRANCH   3  27
BRANCH   5  29
ATOM     29  C   UNL     1     -10.923  52.939  46.573  0.00  0.00    +0.000 C 
BRANCH  29  30
ATOM     30  C   UNL     1     -10.084  54.068  45.949  0.00  0.00    +0.000 C 
BRANCH  30  31
ATOM     31  C   UNL     1      -8.657  54.245  46.494  0.00  0.00    +0.000 C 
ATOM     32  C   UNL     1      -7.661  54.629  45.402  0.00  0.00    +0.000 C 
ATOM     33  C   UNL     1      -8.676  55.327  47.581  0.00  0.00    +0.000 C 
ENDBRANCH  30  31
ENDBRANCH  29  30
ENDBRANCH   5  29
TORSDOF 5
ENDMDL
MODEL 5
REMARK VINA RESULT:      -8.0      3.832      5.498
REMARK  Name = 338063
REMARK  8 active torsions:
REMARK  status: ('A' for Active; 'I' for Inactive)
REMARK    1  A    between atoms: C_6  and  C_10
REMARK    2  A    between atoms: C_14  and  O_18
REMARK    3  A    between atoms: N_17  and  C_21
REMARK    4  A    between atoms: C_21  and  C_24
REMARK    5  A    between atoms: C_24  and  C_27
REMARK    6  A    between atoms: C_25  and  C_28
REMARK    7  A    between atoms: C_27  and  C_29
REMARK    8  A    between atoms: C_27  and  C_30
REMARK                            x       y       z     vdW  Elec       q    Type
REMARK                         _______ _______ _______ _____ _____    ______ ____
ROOT
ATOM      1  C   UNL     1     -10.862  55.569  48.753  0.00  0.00    +0.000 A 
ATOM      2  C   UNL     1      -9.586  55.159  49.416  0.00  0.00    +0.000 A 
ATOM      3  C   UNL     1     -11.110  55.201  47.485  0.00  0.00    +0.000 A 
ATOM      4  O   UNL     1      -9.435  55.438  50.610  0.00  0.00    +0.000 OA
ATOM      5  N   UNL     1      -8.640  54.462  48.676  0.00  0.00    +0.000 N 
ATOM      6  C   UNL     1     -10.139  54.386  46.743  0.00  0.00    +0.000 A 
ATOM      7  C   UNL     1      -8.935  53.998  47.354  0.00  0.00    +0.000 A 
ATOM      8  C   UNL     1     -10.419  53.968  45.430  0.00  0.00    +0.000 A 
ATOM      9  C   UNL     1      -8.072  53.143  46.654  0.00  0.00    +0.000 A 
ATOM     10  C   UNL     1      -9.533  53.147  44.727  0.00  0.00    +0.000 A 
ATOM     11  C   UNL     1      -8.363  52.726  45.354  0.00  0.00    +0.000 A 
ATOM     12  C   UNL     1      -9.844  52.688  43.336  0.00  0.00    +0.000 C 
ENDROOT
BRANCH   1  18
ATOM     13  S   UNL     1     -13.594  56.374  51.461  0.00  0.00    +0.000 S 
ATOM     14  O   UNL     1     -13.012  56.684  52.752  0.00  0.00    +0.000 OA
ATOM     15  O   UNL     1     -14.785  55.548  51.373  0.00  0.00    +0.000 OA
ATOM     16  N   UNL     1     -12.442  55.690  50.553  0.00  0.00    +0.000 N 
ATOM     17  C   UNL     1     -14.022  57.914  50.736  0.00  0.00    +0.000 A 
ATOM     18  C   UNL     1     -11.904  56.325  49.554  0.00  0.00    +0.000 C 
ATOM     19  C   UNL     1     -13.276  58.350  49.653  0.00  0.00    +0.000 A 
ATOM     20  C   UNL     1     -15.096  58.650  51.243  0.00  0.00    +0.000 A 
ATOM     21  N   UNL     1     -12.202  57.613  49.168  0.00  0.00    +0.000 N 
ATOM     22  C   UNL     1     -13.580  59.599  49.103  0.00  0.00    +0.000 A 
ATOM     23  C   UNL     1     -15.409  59.876  50.664  0.00  0.00    +0.000 A 
ATOM     24  C   UNL     1     -14.646  60.355  49.598  0.00  0.00    +0.000 A 
ATOM     25  H   UNL     1     -12.141  54.775  50.762  0.00  0.00    +0.000 HD
ATOM     26  H   UNL     1     -11.614  58.040  48.503  0.00  0.00    +0.000 HD
ENDBRANCH   1  18
BRANCH   3  27
ATOM     27  O   UNL     1     -12.281  55.485  46.802  0.00  0.00    +0.000 OA
ATOM     28  H   UNL     1     -12.829  54.787  46.501  0.00  0.00    +0.000 HD
ENDBRANCH   3  27
BRANCH   5  29
ATOM     29  C   UNL     1      -7.369  54.123  49.329  0.00  0.00    +0.000 C 
BRANCH  29  30
ATOM     30  C   UNL     1      -6.235  55.145  49.143  0.00  0.00    +0.000 C 
BRANCH  30  31
ATOM     31  C   UNL     1      -4.803  54.628  49.362  0.00  0.00    +0.000 C 
ATOM     32  C   UNL     1      -4.623  53.973  50.730  0.00  0.00    +0.000 C 
ATOM     33  C   UNL     1      -4.470  53.617  48.258  0.00  0.00    +0.000 C 
ENDBRANCH  30  31
ENDBRANCH  29  30
ENDBRANCH   5  29
TORSDOF 5
ENDMDL
MODEL 6
REMARK VINA RESULT:      -7.8      3.218      7.529
REMARK  Name = 338063
REMARK  8 active torsions:
REMARK  status: ('A' for Active; 'I' for Inactive)
REMARK    1  A    between atoms: C_6  and  C_10
REMARK    2  A    between atoms: C_14  and  O_18
REMARK    3  A    between atoms: N_17  and  C_21
REMARK    4  A    between atoms: C_21  and  C_24
REMARK    5  A    between atoms: C_24  and  C_27
REMARK    6  A    between atoms: C_25  and  C_28
REMARK    7  A    between atoms: C_27  and  C_29
REMARK    8  A    between atoms: C_27  and  C_30
REMARK                            x       y       z     vdW  Elec       q    Type
REMARK                         _______ _______ _______ _____ _____    ______ ____
ROOT
ATOM      1  C   UNL     1     -10.004  55.155  51.002  0.00  0.00    +0.000 A 
ATOM      2  C   UNL     1      -9.711  55.170  49.535  0.00  0.00    +0.000 A 
ATOM      3  C   UNL     1     -11.219  55.514  51.450  0.00  0.00    +0.000 A 
ATOM      4  O   UNL     1      -8.615  54.746  49.157  0.00  0.00    +0.000 OA
ATOM      5  N   UNL     1     -10.689  55.629  48.661  0.00  0.00    +0.000 N 
ATOM      6  C   UNL     1     -12.272  55.913  50.506  0.00  0.00    +0.000 A 
ATOM      7  C   UNL     1     -12.007  55.933  49.126  0.00  0.00    +0.000 A 
ATOM      8  C   UNL     1     -13.554  56.249  50.973  0.00  0.00    +0.000 A 
ATOM      9  C   UNL     1     -13.059  56.227  48.246  0.00  0.00    +0.000 A 
ATOM     10  C   UNL     1     -14.585  56.577  50.088  0.00  0.00    +0.000 A 
ATOM     11  C   UNL     1     -14.331  56.550  48.719  0.00  0.00    +0.000 A 
ATOM     12  C   UNL     1     -15.955  56.915  50.590  0.00  0.00    +0.000 C 
ENDROOT
BRANCH   1  18
ATOM     13  S   UNL     1      -6.564  54.764  52.862  0.00  0.00    +0.000 S 
ATOM     14  O   UNL     1      -6.366  55.787  53.870  0.00  0.00    +0.000 OA
ATOM     15  O   UNL     1      -5.465  54.355  52.007  0.00  0.00    +0.000 OA
ATOM     16  N   UNL     1      -7.788  55.237  51.914  0.00  0.00    +0.000 N 
ATOM     17  C   UNL     1      -7.066  53.320  53.725  0.00  0.00    +0.000 A 
ATOM     18  C   UNL     1      -8.947  54.650  51.964  0.00  0.00    +0.000 C 
ATOM     19  C   UNL     1      -8.380  52.904  53.584  0.00  0.00    +0.000 A 
ATOM     20  C   UNL     1      -6.146  52.621  54.510  0.00  0.00    +0.000 A 
ATOM     21  N   UNL     1      -9.287  53.618  52.809  0.00  0.00    +0.000 N 
ATOM     22  C   UNL     1      -8.799  51.784  54.307  0.00  0.00    +0.000 A 
ATOM     23  C   UNL     1      -6.568  51.487  55.199  0.00  0.00    +0.000 A 
ATOM     24  C   UNL     1      -7.897  51.073  55.104  0.00  0.00    +0.000 A 
ATOM     25  H   UNL     1      -7.652  55.985  51.287  0.00  0.00    +0.000 HD
ATOM     26  H   UNL     1     -10.239  53.368  52.869  0.00  0.00    +0.000 HD
ENDBRANCH   1  18
BRANCH   3  27
ATOM     27  O   UNL     1     -11.604  55.485  52.780  0.00  0.00    +0.000 OA
ATOM     28  H   UNL     1     -10.976  55.660  53.453  0.00  0.00    +0.000 HD
ENDBRANCH   3  27
BRANCH   5  29
ATOM     29  C   UNL     1     -10.358  55.692  47.232  0.00  0.00    +0.000 C 
BRANCH  29  30
ATOM     30  C   UNL     1     -10.617  54.402  46.434  0.00  0.00    +0.000 C 
BRANCH  30  31
ATOM     31  C   UNL     1      -9.388  53.731  45.797  0.00  0.00    +0.000 C 
ATOM     32  C   UNL     1      -9.695  53.144  44.420  0.00  0.00    +0.000 C 
ATOM     33  C   UNL     1      -8.266  54.770  45.678  0.00  0.00    +0.000 C 
ENDBRANCH  30  31
ENDBRANCH  29  30
ENDBRANCH   5  29
TORSDOF 5
ENDMDL
MODEL 7
REMARK VINA RESULT:      -7.8      3.196      8.209
REMARK  Name = 338063
REMARK  8 active torsions:
REMARK  status: ('A' for Active; 'I' for Inactive)
REMARK    1  A    between atoms: C_6  and  C_10
REMARK    2  A    between atoms: C_14  and  O_18
REMARK    3  A    between atoms: N_17  and  C_21
REMARK    4  A    between atoms: C_21  and  C_24
REMARK    5  A    between atoms: C_24  and  C_27
REMARK    6  A    between atoms: C_25  and  C_28
REMARK    7  A    between atoms: C_27  and  C_29
REMARK    8  A    between atoms: C_27  and  C_30
REMARK                            x       y       z     vdW  Elec       q    Type
REMARK                         _______ _______ _______ _____ _____    ______ ____
ROOT
ATOM      1  C   UNL     1      -9.805  53.920  50.904  0.00  0.00    +0.000 A 
ATOM      2  C   UNL     1     -10.848  54.964  51.147  0.00  0.00    +0.000 A 
ATOM      3  C   UNL     1      -9.598  53.453  49.662  0.00  0.00    +0.000 A 
ATOM      4  O   UNL     1     -10.946  55.435  52.285  0.00  0.00    +0.000 OA
ATOM      5  N   UNL     1     -11.641  55.380  50.085  0.00  0.00    +0.000 N 
ATOM      6  C   UNL     1     -10.383  53.968  48.531  0.00  0.00    +0.000 A 
ATOM      7  C   UNL     1     -11.368  54.946  48.749  0.00  0.00    +0.000 A 
ATOM      8  C   UNL     1     -10.137  53.507  47.227  0.00  0.00    +0.000 A 
ATOM      9  C   UNL     1     -12.035  55.484  47.639  0.00  0.00    +0.000 A 
ATOM     10  C   UNL     1     -10.835  54.024  46.132  0.00  0.00    +0.000 A 
ATOM     11  C   UNL     1     -11.777  55.027  46.346  0.00  0.00    +0.000 A 
ATOM     12  C   UNL     1     -10.555  53.543  44.742  0.00  0.00    +0.000 C 
ENDROOT
BRANCH   1  18
ATOM     13  S   UNL     1      -6.650  53.422  53.194  0.00  0.00    +0.000 S 
ATOM     14  O   UNL     1      -6.392  54.578  54.031  0.00  0.00    +0.000 OA
ATOM     15  O   UNL     1      -5.552  52.721  52.554  0.00  0.00    +0.000 OA
ATOM     16  N   UNL     1      -7.695  53.872  52.042  0.00  0.00    +0.000 N 
ATOM     17  C   UNL     1      -7.443  52.241  54.223  0.00  0.00    +0.000 A 
ATOM     18  C   UNL     1      -8.930  53.464  52.055  0.00  0.00    +0.000 C 
ATOM     19  C   UNL     1      -8.786  51.986  54.001  0.00  0.00    +0.000 A 
ATOM     20  C   UNL     1      -6.715  51.582  55.217  0.00  0.00    +0.000 A 
ATOM     21  N   UNL     1      -9.499  52.660  53.016  0.00  0.00    +0.000 N 
ATOM     22  C   UNL     1      -9.434  51.083  54.848  0.00  0.00    +0.000 A 
ATOM     23  C   UNL     1      -7.366  50.661  56.032  0.00  0.00    +0.000 A 
ATOM     24  C   UNL     1      -8.728  50.417  55.853  0.00  0.00    +0.000 A 
ATOM     25  H   UNL     1      -7.391  54.468  51.319  0.00  0.00    +0.000 HD
ATOM     26  H   UNL     1     -10.479  52.554  53.005  0.00  0.00    +0.000 HD
ENDBRANCH   1  18
BRANCH   3  27
ATOM     27  O   UNL     1      -8.624  52.527  49.325  0.00  0.00    +0.000 OA
ATOM     28  H   UNL     1      -8.006  52.723  48.649  0.00  0.00    +0.000 HD
ENDBRANCH   3  27
BRANCH   5  29
ATOM     29  C   UNL     1     -12.699  56.361  50.359  0.00  0.00    +0.000 C 
BRANCH  29  30
ATOM     30  C   UNL     1     -14.058  55.772  50.775  0.00  0.00    +0.000 C 
BRANCH  30  31
ATOM     31  C   UNL     1     -15.184  56.780  51.060  0.00  0.00    +0.000 C 
ATOM     32  C   UNL     1     -16.549  56.273  50.598  0.00  0.00    +0.000 C 
ATOM     33  C   UNL     1     -15.221  57.064  52.566  0.00  0.00    +0.000 C 
ENDBRANCH  30  31
ENDBRANCH  29  30
ENDBRANCH   5  29
TORSDOF 5
ENDMDL
MODEL 8
REMARK VINA RESULT:      -7.7      4.535      7.136
REMARK  Name = 338063
REMARK  8 active torsions:
REMARK  status: ('A' for Active; 'I' for Inactive)
REMARK    1  A    between atoms: C_6  and  C_10
REMARK    2  A    between atoms: C_14  and  O_18
REMARK    3  A    between atoms: N_17  and  C_21
REMARK    4  A    between atoms: C_21  and  C_24
REMARK    5  A    between atoms: C_24  and  C_27
REMARK    6  A    between atoms: C_25  and  C_28
REMARK    7  A    between atoms: C_27  and  C_29
REMARK    8  A    between atoms: C_27  and  C_30
REMARK                            x       y       z     vdW  Elec       q    Type
REMARK                         _______ _______ _______ _____ _____    ______ ____
ROOT
ATOM      1  C   UNL     1     -10.798  54.412  48.682  0.00  0.00    +0.000 A 
ATOM      2  C   UNL     1     -10.307  53.970  50.024  0.00  0.00    +0.000 A 
ATOM      3  C   UNL     1     -11.808  55.293  48.592  0.00  0.00    +0.000 A 
ATOM      4  O   UNL     1      -9.318  53.231  50.068  0.00  0.00    +0.000 OA
ATOM      5  N   UNL     1     -10.962  54.427  51.162  0.00  0.00    +0.000 N 
ATOM      6  C   UNL     1     -12.432  55.837  49.806  0.00  0.00    +0.000 A 
ATOM      7  C   UNL     1     -11.982  55.426  51.071  0.00  0.00    +0.000 A 
ATOM      8  C   UNL     1     -13.462  56.789  49.709  0.00  0.00    +0.000 A 
ATOM      9  C   UNL     1     -12.534  56.033  52.209  0.00  0.00    +0.000 A 
ATOM     10  C   UNL     1     -14.031  57.359  50.851  0.00  0.00    +0.000 A 
ATOM     11  C   UNL     1     -13.549  56.984  52.102  0.00  0.00    +0.000 A 
ATOM     12  C   UNL     1     -15.114  58.388  50.742  0.00  0.00    +0.000 C 
ENDROOT
BRANCH   1  18
ATOM     13  S   UNL     1      -8.027  53.948  45.935  0.00  0.00    +0.000 S 
ATOM     14  O   UNL     1      -6.984  53.033  46.357  0.00  0.00    +0.000 OA
ATOM     15  O   UNL     1      -7.688  55.162  45.215  0.00  0.00    +0.000 OA
ATOM     16  N   UNL     1      -8.877  54.364  47.248  0.00  0.00    +0.000 N 
ATOM     17  C   UNL     1      -9.077  53.032  44.868  0.00  0.00    +0.000 A 
ATOM     18  C   UNL     1     -10.087  53.924  47.435  0.00  0.00    +0.000 C 
ATOM     19  C   UNL     1     -10.343  52.707  45.327  0.00  0.00    +0.000 A 
ATOM     20  C   UNL     1      -8.633  52.669  43.594  0.00  0.00    +0.000 A 
ATOM     21  N   UNL     1     -10.766  53.064  46.603  0.00  0.00    +0.000 N 
ATOM     22  C   UNL     1     -11.166  51.936  44.501  0.00  0.00    +0.000 A 
ATOM     23  C   UNL     1      -9.476  51.930  42.769  0.00  0.00    +0.000 A 
ATOM     24  C   UNL     1     -10.740  51.556  43.226  0.00  0.00    +0.000 A 
ATOM     25  H   UNL     1      -8.470  54.960  47.918  0.00  0.00    +0.000 HD
ATOM     26  H   UNL     1     -11.609  52.676  46.933  0.00  0.00    +0.000 HD
ENDBRANCH   1  18
BRANCH   3  27
ATOM     27  O   UNL     1     -12.299  55.803  47.401  0.00  0.00    +0.000 OA
ATOM     28  H   UNL     1     -11.706  56.091  46.735  0.00  0.00    +0.000 HD
ENDBRANCH   3  27
BRANCH   5  29
ATOM     29  C   UNL     1     -10.502  53.932  52.465  0.00  0.00    +0.000 C 
BRANCH  29  30
ATOM     30  C   UNL     1      -9.626  54.904  53.273  0.00  0.00    +0.000 C 
BRANCH  30  31
ATOM     31  C   UNL     1      -8.123  54.910  52.944  0.00  0.00    +0.000 C 
ATOM     32  C   UNL     1      -7.768  55.929  51.862  0.00  0.00    +0.000 C 
ATOM     33  C   UNL     1      -7.340  55.222  54.225  0.00  0.00    +0.000 C 
ENDBRANCH  30  31
ENDBRANCH  29  30
ENDBRANCH   5  29
TORSDOF 5
ENDMDL
MODEL 9
REMARK VINA RESULT:      -7.6      3.967      5.806
REMARK  Name = 338063
REMARK  8 active torsions:
REMARK  status: ('A' for Active; 'I' for Inactive)
REMARK    1  A    between atoms: C_6  and  C_10
REMARK    2  A    between atoms: C_14  and  O_18
REMARK    3  A    between atoms: N_17  and  C_21
REMARK    4  A    between atoms: C_21  and  C_24
REMARK    5  A    between atoms: C_24  and  C_27
REMARK    6  A    between atoms: C_25  and  C_28
REMARK    7  A    between atoms: C_27  and  C_29
REMARK    8  A    between atoms: C_27  and  C_30
REMARK                            x       y       z     vdW  Elec       q    Type
REMARK                         _______ _______ _______ _____ _____    ______ ____
ROOT
ATOM      1  C   UNL     1     -11.819  54.704  48.689  0.00  0.00    +0.000 A 
ATOM      2  C   UNL     1     -11.145  53.640  49.497  0.00  0.00    +0.000 A 
ATOM      3  C   UNL     1     -11.674  54.728  47.354  0.00  0.00    +0.000 A 
ATOM      4  O   UNL     1     -11.376  53.596  50.709  0.00  0.00    +0.000 OA
ATOM      5  N   UNL     1     -10.313  52.733  48.851  0.00  0.00    +0.000 N 
ATOM      6  C   UNL     1     -10.863  53.708  46.674  0.00  0.00    +0.000 A 
ATOM      7  C   UNL     1     -10.223  52.706  47.423  0.00  0.00    +0.000 A 
ATOM      8  C   UNL     1     -10.746  53.711  45.273  0.00  0.00    +0.000 A 
ATOM      9  C   UNL     1      -9.535  51.694  46.738  0.00  0.00    +0.000 A 
ATOM     10  C   UNL     1     -10.026  52.718  44.604  0.00  0.00    +0.000 A 
ATOM     11  C   UNL     1      -9.432  51.700  45.347  0.00  0.00    +0.000 A 
ATOM     12  C   UNL     1      -9.920  52.715  43.110  0.00  0.00    +0.000 C 
ENDROOT
BRANCH   1  18
ATOM     13  S   UNL     1     -14.779  56.145  50.834  0.00  0.00    +0.000 S 
ATOM     14  O   UNL     1     -14.518  56.056  52.258  0.00  0.00    +0.000 OA
ATOM     15  O   UNL     1     -16.099  55.844  50.311  0.00  0.00    +0.000 OA
ATOM     16  N   UNL     1     -13.711  55.192  50.078  0.00  0.00    +0.000 N 
ATOM     17  C   UNL     1     -14.448  57.809  50.381  0.00  0.00    +0.000 A 
ATOM     18  C   UNL     1     -12.733  55.694  49.383  0.00  0.00    +0.000 C 
ATOM     19  C   UNL     1     -13.325  58.058  49.609  0.00  0.00    +0.000 A 
ATOM     20  C   UNL     1     -15.314  58.828  50.784  0.00  0.00    +0.000 A 
ATOM     21  N   UNL     1     -12.465  57.035  49.227  0.00  0.00    +0.000 N 
ATOM     22  C   UNL     1     -13.029  59.386  49.286  0.00  0.00    +0.000 A 
ATOM     23  C   UNL     1     -15.025  60.142  50.427  0.00  0.00    +0.000 A 
ATOM     24  C   UNL     1     -13.878  60.422  49.684  0.00  0.00    +0.000 A 
ATOM     25  H   UNL     1     -13.803  54.214  50.147  0.00  0.00    +0.000 HD
ATOM     26  H   UNL     1     -11.606  57.287  48.815  0.00  0.00    +0.000 HD
ENDBRANCH   1  18
BRANCH   3  27
ATOM     27  O   UNL     1     -12.297  55.637  46.514  0.00  0.00    +0.000 OA
ATOM     28  H   UNL     1     -12.003  55.736  45.630  0.00  0.00    +0.000 HD
ENDBRANCH   3  27
BRANCH   5  29
ATOM     29  C   UNL     1      -9.615  51.737  49.671  0.00  0.00    +0.000 C 
BRANCH  29  30
ATOM     30  C   UNL     1      -8.212  52.142  50.156  0.00  0.00    +0.000 C 
BRANCH  30  31
ATOM     31  C   UNL     1      -8.091  52.569  51.628  0.00  0.00    +0.000 C 
ATOM     32  C   UNL     1      -8.924  51.690  52.560  0.00  0.00    +0.000 C 
ATOM     33  C   UNL     1      -6.615  52.505  52.040  0.00  0.00    +0.000 C 
ENDBRANCH  30  31
ENDBRANCH  29  30
ENDBRANCH   5  29
TORSDOF 5
ENDMDL
