MODEL 1
REMARK VINA RESULT:      -8.9      0.000      0.000
REMARK  Name = 338126
REMARK  4 active torsions:
REMARK  status: ('A' for Active; 'I' for Inactive)
REMARK    1  A    between atoms: C_6  and  C_10
REMARK    2  A    between atoms: C_14  and  O_18
REMARK    3  A    between atoms: N_17  and  C_21
REMARK    4  A    between atoms: C_21  and  C_24
REMARK                            x       y       z     vdW  Elec       q    Type
REMARK                         _______ _______ _______ _____ _____    ______ ____
ROOT
ATOM      1  C   UNL     1     -10.100  54.394  52.227  0.00  0.00    +0.000 A 
ATOM      2  C   UNL     1      -8.707  54.898  52.032  0.00  0.00    +0.000 A 
ATOM      3  C   UNL     1     -10.321  53.329  53.018  0.00  0.00    +0.000 A 
ATOM      4  O   UNL     1      -8.533  55.858  51.275  0.00  0.00    +0.000 OA
ATOM      5  N   UNL     1      -7.672  54.292  52.726  0.00  0.00    +0.000 N 
ATOM      6  C   UNL     1      -9.206  52.660  53.704  0.00  0.00    +0.000 A 
ATOM      7  C   UNL     1      -7.898  53.157  53.565  0.00  0.00    +0.000 A 
ATOM      8  C   UNL     1      -9.439  51.537  54.519  0.00  0.00    +0.000 A 
ATOM      9  C   UNL     1      -6.856  52.518  54.259  0.00  0.00    +0.000 A 
ATOM     10  C   UNL     1      -8.395  50.915  55.200  0.00  0.00    +0.000 A 
ATOM     11  C   UNL     1      -7.104  51.408  55.071  0.00  0.00    +0.000 A 
ENDROOT
BRANCH   1  17
ATOM     12  S   UNL     1     -12.496  55.912  49.499  0.00  0.00    +0.000 S 
ATOM     13  O   UNL     1     -13.391  54.921  48.939  0.00  0.00    +0.000 OA
ATOM     14  O   UNL     1     -11.864  56.897  48.642  0.00  0.00    +0.000 OA
ATOM     15  N   UNL     1     -11.327  55.121  50.295  0.00  0.00    +0.000 N 
ATOM     16  C   UNL     1     -13.442  56.822  50.664  0.00  0.00    +0.000 A 
ATOM     17  C   UNL     1     -11.251  55.156  51.593  0.00  0.00    +0.000 C 
ATOM     18  C   UNL     1     -13.134  56.674  52.006  0.00  0.00    +0.000 A 
ATOM     19  C   UNL     1     -14.464  57.667  50.224  0.00  0.00    +0.000 A 
ATOM     20  N   UNL     1     -12.126  55.817  52.429  0.00  0.00    +0.000 N 
ATOM     21  C   UNL     1     -13.930  57.344  52.942  0.00  0.00    +0.000 A 
ATOM     22  C   UNL     1     -15.224  58.356  51.164  0.00  0.00    +0.000 A 
ATOM     23  C   UNL     1     -14.963  58.186  52.524  0.00  0.00    +0.000 A 
ATOM     24  H   UNL     1     -10.661  54.604  49.786  0.00  0.00    +0.000 HD
ATOM     25  H   UNL     1     -12.028  55.671  53.398  0.00  0.00    +0.000 HD
ENDBRANCH   1  17
BRANCH   3  26
ATOM     26  O   UNL     1     -11.572  52.806  53.292  0.00  0.00    +0.000 OA
ATOM     27  H   UNL     1     -11.732  52.377  54.110  0.00  0.00    +0.000 HD
ENDBRANCH   3  26
BRANCH   5  28
ATOM     28  C   UNL     1      -6.326  54.846  52.544  0.00  0.00    +0.000 C 
BRANCH  28  29
ATOM     29  C   UNL     1      -5.591  54.293  51.342  0.00  0.00    +0.000 A 
ATOM     30  C   UNL     1      -5.571  54.974  50.116  0.00  0.00    +0.000 A 
ATOM     31  C   UNL     1      -4.901  53.075  51.446  0.00  0.00    +0.000 A 
ATOM     32  C   UNL     1      -4.963  54.402  48.998  0.00  0.00    +0.000 A 
ATOM     33  C   UNL     1      -4.287  52.510  50.330  0.00  0.00    +0.000 A 
ATOM     34  C   UNL     1      -4.337  53.162  49.101  0.00  0.00    +0.000 A 
ENDBRANCH  28  29
ENDBRANCH   5  28
TORSDOF 4
ENDMDL
MODEL 2
REMARK VINA RESULT:      -8.9      3.369      4.422
REMARK  Name = 338126
REMARK  4 active torsions:
REMARK  status: ('A' for Active; 'I' for Inactive)
REMARK    1  A    between atoms: C_6  and  C_10
REMARK    2  A    between atoms: C_14  and  O_18
REMARK    3  A    between atoms: N_17  and  C_21
REMARK    4  A    between atoms: C_21  and  C_24
REMARK                            x       y       z     vdW  Elec       q    Type
REMARK                         _______ _______ _______ _____ _____    ______ ____
ROOT
ATOM      1  C   UNL     1     -12.270  54.210  50.226  0.00  0.00    +0.000 A 
ATOM      2  C   UNL     1     -11.999  53.778  48.822  0.00  0.00    +0.000 A 
ATOM      3  C   UNL     1     -11.691  53.557  51.250  0.00  0.00    +0.000 A 
ATOM      4  O   UNL     1     -12.569  54.377  47.906  0.00  0.00    +0.000 OA
ATOM      5  N   UNL     1     -11.099  52.748  48.601  0.00  0.00    +0.000 N 
ATOM      6  C   UNL     1     -10.783  52.428  51.002  0.00  0.00    +0.000 A 
ATOM      7  C   UNL     1     -10.484  52.046  49.683  0.00  0.00    +0.000 A 
ATOM      8  C   UNL     1     -10.192  51.737  52.076  0.00  0.00    +0.000 A 
ATOM      9  C   UNL     1      -9.586  50.984  49.476  0.00  0.00    +0.000 A 
ATOM     10  C   UNL     1      -9.304  50.688  51.853  0.00  0.00    +0.000 A 
ATOM     11  C   UNL     1      -9.000  50.313  50.552  0.00  0.00    +0.000 A 
ENDROOT
BRANCH   1  17
ATOM     12  S   UNL     1     -15.276  56.479  51.367  0.00  0.00    +0.000 S 
ATOM     13  O   UNL     1     -15.275  56.719  52.795  0.00  0.00    +0.000 OA
ATOM     14  O   UNL     1     -16.518  56.205  50.670  0.00  0.00    +0.000 OA
ATOM     15  N   UNL     1     -14.260  55.250  51.076  0.00  0.00    +0.000 N 
ATOM     16  C   UNL     1     -14.618  57.929  50.628  0.00  0.00    +0.000 A 
ATOM     17  C   UNL     1     -13.129  55.440  50.462  0.00  0.00    +0.000 C 
ATOM     18  C   UNL     1     -13.374  57.843  50.026  0.00  0.00    +0.000 A 
ATOM     19  C   UNL     1     -15.349  59.119  50.657  0.00  0.00    +0.000 A 
ATOM     20  N   UNL     1     -12.652  56.656  50.021  0.00  0.00    +0.000 N 
ATOM     21  C   UNL     1     -12.816  59.012  49.497  0.00  0.00    +0.000 A 
ATOM     22  C   UNL     1     -14.798  60.266  50.093  0.00  0.00    +0.000 A 
ATOM     23  C   UNL     1     -13.526  60.214  49.523  0.00  0.00    +0.000 A 
ATOM     24  H   UNL     1     -14.505  54.342  51.369  0.00  0.00    +0.000 HD
ATOM     25  H   UNL     1     -11.730  56.685  49.676  0.00  0.00    +0.000 HD
ENDBRANCH   1  17
BRANCH   3  26
ATOM     26  O   UNL     1     -11.848  53.897  52.583  0.00  0.00    +0.000 OA
ATOM     27  H   UNL     1     -12.501  54.522  52.833  0.00  0.00    +0.000 HD
ENDBRANCH   3  26
BRANCH   5  28
ATOM     28  C   UNL     1     -10.824  52.385  47.206  0.00  0.00    +0.000 C 
BRANCH  28  29
ATOM     29  C   UNL     1      -9.707  53.186  46.570  0.00  0.00    +0.000 A 
ATOM     30  C   UNL     1      -8.907  54.057  47.325  0.00  0.00    +0.000 A 
ATOM     31  C   UNL     1      -9.452  53.058  45.196  0.00  0.00    +0.000 A 
ATOM     32  C   UNL     1      -7.944  54.851  46.703  0.00  0.00    +0.000 A 
ATOM     33  C   UNL     1      -8.483  53.847  44.578  0.00  0.00    +0.000 A 
ATOM     34  C   UNL     1      -7.745  54.760  45.327  0.00  0.00    +0.000 A 
ENDBRANCH  28  29
ENDBRANCH   5  28
TORSDOF 4
ENDMDL
MODEL 3
REMARK VINA RESULT:      -8.8      3.551      7.217
REMARK  Name = 338126
REMARK  4 active torsions:
REMARK  status: ('A' for Active; 'I' for Inactive)
REMARK    1  A    between atoms: C_6  and  C_10
REMARK    2  A    between atoms: C_14  and  O_18
REMARK    3  A    between atoms: N_17  and  C_21
REMARK    4  A    between atoms: C_21  and  C_24
REMARK                            x       y       z     vdW  Elec       q    Type
REMARK                         _______ _______ _______ _____ _____    ______ ____
ROOT
ATOM      1  C   UNL     1     -10.169  55.207  50.764  0.00  0.00    +0.000 A 
ATOM      2  C   UNL     1      -9.721  55.237  49.339  0.00  0.00    +0.000 A 
ATOM      3  C   UNL     1     -11.411  55.614  51.082  0.00  0.00    +0.000 A 
ATOM      4  O   UNL     1      -8.565  54.886  49.082  0.00  0.00    +0.000 OA
ATOM      5  N   UNL     1     -10.623  55.626  48.361  0.00  0.00    +0.000 N 
ATOM      6  C   UNL     1     -12.338  56.079  50.041  0.00  0.00    +0.000 A 
ATOM      7  C   UNL     1     -11.942  56.064  48.692  0.00  0.00    +0.000 A 
ATOM      8  C   UNL     1     -13.631  56.519  50.380  0.00  0.00    +0.000 A 
ATOM      9  C   UNL     1     -12.861  56.483  47.715  0.00  0.00    +0.000 A 
ATOM     10  C   UNL     1     -14.530  56.930  49.399  0.00  0.00    +0.000 A 
ATOM     11  C   UNL     1     -14.145  56.909  48.066  0.00  0.00    +0.000 A 
ENDROOT
BRANCH   1  17
ATOM     12  S   UNL     1      -7.019  54.724  53.072  0.00  0.00    +0.000 S 
ATOM     13  O   UNL     1      -6.985  55.674  54.164  0.00  0.00    +0.000 OA
ATOM     14  O   UNL     1      -5.805  54.392  52.351  0.00  0.00    +0.000 OA
ATOM     15  N   UNL     1      -8.109  55.254  51.996  0.00  0.00    +0.000 N 
ATOM     16  C   UNL     1      -7.602  53.216  53.756  0.00  0.00    +0.000 A 
ATOM     17  C   UNL     1      -9.236  54.630  51.814  0.00  0.00    +0.000 C 
ATOM     18  C   UNL     1      -8.857  52.773  53.374  0.00  0.00    +0.000 A 
ATOM     19  C   UNL     1      -6.802  52.501  54.650  0.00  0.00    +0.000 A 
ATOM     20  N   UNL     1      -9.648  53.505  52.496  0.00  0.00    +0.000 N 
ATOM     21  C   UNL     1      -9.354  51.608  53.968  0.00  0.00    +0.000 A 
ATOM     22  C   UNL     1      -7.293  51.323  55.205  0.00  0.00    +0.000 A 
ATOM     23  C   UNL     1      -8.574  50.883  54.872  0.00  0.00    +0.000 A 
ATOM     24  H   UNL     1      -7.914  56.063  51.470  0.00  0.00    +0.000 HD
ATOM     25  H   UNL     1     -10.571  53.196  52.349  0.00  0.00    +0.000 HD
ENDBRANCH   1  17
BRANCH   3  26
ATOM     26  O   UNL     1     -11.935  55.593  52.363  0.00  0.00    +0.000 OA
ATOM     27  H   UNL     1     -11.424  55.905  53.084  0.00  0.00    +0.000 HD
ENDBRANCH   3  26
BRANCH   5  28
ATOM     28  C   UNL     1     -10.158  55.597  46.970  0.00  0.00    +0.000 C 
BRANCH  28  29
ATOM     29  C   UNL     1     -10.401  54.277  46.267  0.00  0.00    +0.000 A 
ATOM     30  C   UNL     1      -9.429  53.266  46.247  0.00  0.00    +0.000 A 
ATOM     31  C   UNL     1     -11.627  54.045  45.624  0.00  0.00    +0.000 A 
ATOM     32  C   UNL     1      -9.641  52.096  45.519  0.00  0.00    +0.000 A 
ATOM     33  C   UNL     1     -11.839  52.871  44.905  0.00  0.00    +0.000 A 
ATOM     34  C   UNL     1     -10.838  51.906  44.832  0.00  0.00    +0.000 A 
ENDBRANCH  28  29
ENDBRANCH   5  28
TORSDOF 4
ENDMDL
MODEL 4
REMARK VINA RESULT:      -8.7      2.028      2.618
REMARK  Name = 338126
REMARK  4 active torsions:
REMARK  status: ('A' for Active; 'I' for Inactive)
REMARK    1  A    between atoms: C_6  and  C_10
REMARK    2  A    between atoms: C_14  and  O_18
REMARK    3  A    between atoms: N_17  and  C_21
REMARK    4  A    between atoms: C_21  and  C_24
REMARK                            x       y       z     vdW  Elec       q    Type
REMARK                         _______ _______ _______ _____ _____    ______ ____
ROOT
ATOM      1  C   UNL     1     -11.164  54.601  50.895  0.00  0.00    +0.000 A 
ATOM      2  C   UNL     1      -9.732  54.972  50.686  0.00  0.00    +0.000 A 
ATOM      3  C   UNL     1     -11.485  53.339  51.233  0.00  0.00    +0.000 A 
ATOM      4  O   UNL     1      -9.472  56.130  50.346  0.00  0.00    +0.000 OA
ATOM      5  N   UNL     1      -8.753  54.017  50.911  0.00  0.00    +0.000 N 
ATOM      6  C   UNL     1     -10.440  52.322  51.412  0.00  0.00    +0.000 A 
ATOM      7  C   UNL     1      -9.086  52.673  51.266  0.00  0.00    +0.000 A 
ATOM      8  C   UNL     1     -10.780  50.999  51.751  0.00  0.00    +0.000 A 
ATOM      9  C   UNL     1      -8.107  51.687  51.476  0.00  0.00    +0.000 A 
ATOM     10  C   UNL     1      -9.797  50.034  51.956  0.00  0.00    +0.000 A 
ATOM     11  C   UNL     1      -8.460  50.380  51.820  0.00  0.00    +0.000 A 
ENDROOT
BRANCH   1  17
ATOM     12  S   UNL     1     -13.550  57.349  49.399  0.00  0.00    +0.000 S 
ATOM     13  O   UNL     1     -14.672  56.776  48.686  0.00  0.00    +0.000 OA
ATOM     14  O   UNL     1     -12.856  58.505  48.865  0.00  0.00    +0.000 OA
ATOM     15  N   UNL     1     -12.459  56.172  49.622  0.00  0.00    +0.000 N 
ATOM     16  C   UNL     1     -14.167  57.839  50.968  0.00  0.00    +0.000 A 
ATOM     17  C   UNL     1     -12.223  55.686  50.806  0.00  0.00    +0.000 C 
ATOM     18  C   UNL     1     -13.734  57.139  52.082  0.00  0.00    +0.000 A 
ATOM     19  C   UNL     1     -15.063  58.907  51.062  0.00  0.00    +0.000 A 
ATOM     20  N   UNL     1     -12.856  56.068  51.969  0.00  0.00    +0.000 N 
ATOM     21  C   UNL     1     -14.276  57.481  53.326  0.00  0.00    +0.000 A 
ATOM     22  C   UNL     1     -15.565  59.260  52.311  0.00  0.00    +0.000 A 
ATOM     23  C   UNL     1     -15.179  58.540  53.441  0.00  0.00    +0.000 A 
ATOM     24  H   UNL     1     -11.965  55.818  48.847  0.00  0.00    +0.000 HD
ATOM     25  H   UNL     1     -12.672  55.543  52.782  0.00  0.00    +0.000 HD
ENDBRANCH   1  17
BRANCH   3  26
ATOM     26  O   UNL     1     -12.774  52.901  51.482  0.00  0.00    +0.000 OA
ATOM     27  H   UNL     1     -13.228  52.389  50.841  0.00  0.00    +0.000 HD
ENDBRANCH   3  26
BRANCH   5  28
ATOM     28  C   UNL     1      -7.357  54.434  50.742  0.00  0.00    +0.000 C 
BRANCH  28  29
ATOM     29  C   UNL     1      -6.599  54.589  52.043  0.00  0.00    +0.000 A 
ATOM     30  C   UNL     1      -5.257  54.197  52.162  0.00  0.00    +0.000 A 
ATOM     31  C   UNL     1      -7.239  55.143  53.162  0.00  0.00    +0.000 A 
ATOM     32  C   UNL     1      -4.606  54.266  53.394  0.00  0.00    +0.000 A 
ATOM     33  C   UNL     1      -6.584  55.219  54.390  0.00  0.00    +0.000 A 
ATOM     34  C   UNL     1      -5.275  54.760  54.512  0.00  0.00    +0.000 A 
ENDBRANCH  28  29
ENDBRANCH   5  28
TORSDOF 4
ENDMDL
MODEL 5
REMARK VINA RESULT:      -8.7      3.661      7.270
REMARK  Name = 338126
REMARK  4 active torsions:
REMARK  status: ('A' for Active; 'I' for Inactive)
REMARK    1  A    between atoms: C_6  and  C_10
REMARK    2  A    between atoms: C_14  and  O_18
REMARK    3  A    between atoms: N_17  and  C_21
REMARK    4  A    between atoms: C_21  and  C_24
REMARK                            x       y       z     vdW  Elec       q    Type
REMARK                         _______ _______ _______ _____ _____    ______ ____
ROOT
ATOM      1  C   UNL     1     -10.418  54.942  50.485  0.00  0.00    +0.000 A 
ATOM      2  C   UNL     1      -9.936  55.037  49.073  0.00  0.00    +0.000 A 
ATOM      3  C   UNL     1     -11.640  55.405  50.806  0.00  0.00    +0.000 A 
ATOM      4  O   UNL     1      -8.799  54.631  48.816  0.00  0.00    +0.000 OA
ATOM      5  N   UNL     1     -10.789  55.544  48.107  0.00  0.00    +0.000 N 
ATOM      6  C   UNL     1     -12.512  55.994  49.780  0.00  0.00    +0.000 A 
ATOM      7  C   UNL     1     -12.086  56.043  48.440  0.00  0.00    +0.000 A 
ATOM      8  C   UNL     1     -13.783  56.492  50.122  0.00  0.00    +0.000 A 
ATOM      9  C   UNL     1     -12.955  56.581  47.476  0.00  0.00    +0.000 A 
ATOM     10  C   UNL     1     -14.632  57.022  49.153  0.00  0.00    +0.000 A 
ATOM     11  C   UNL     1     -14.218  57.064  47.830  0.00  0.00    +0.000 A 
ENDROOT
BRANCH   1  17
ATOM     12  S   UNL     1      -9.109  52.222  53.009  0.00  0.00    +0.000 S 
ATOM     13  O   UNL     1      -8.501  51.093  52.336  0.00  0.00    +0.000 OA
ATOM     14  O   UNL     1      -9.977  52.014  54.153  0.00  0.00    +0.000 OA
ATOM     15  N   UNL     1      -9.941  53.062  51.900  0.00  0.00    +0.000 N 
ATOM     16  C   UNL     1      -7.784  53.219  53.583  0.00  0.00    +0.000 A 
ATOM     17  C   UNL     1      -9.548  54.240  51.512  0.00  0.00    +0.000 C 
ATOM     18  C   UNL     1      -7.598  54.455  52.986  0.00  0.00    +0.000 A 
ATOM     19  C   UNL     1      -6.962  52.760  54.615  0.00  0.00    +0.000 A 
ATOM     20  N   UNL     1      -8.414  54.891  51.949  0.00  0.00    +0.000 N 
ATOM     21  C   UNL     1      -6.501  55.224  53.393  0.00  0.00    +0.000 A 
ATOM     22  C   UNL     1      -5.898  53.552  55.035  0.00  0.00    +0.000 A 
ATOM     23  C   UNL     1      -5.661  54.779  54.416  0.00  0.00    +0.000 A 
ATOM     24  H   UNL     1     -10.759  52.674  51.513  0.00  0.00    +0.000 HD
ATOM     25  H   UNL     1      -8.163  55.727  51.493  0.00  0.00    +0.000 HD
ENDBRANCH   1  17
BRANCH   3  26
ATOM     26  O   UNL     1     -12.194  55.335  52.072  0.00  0.00    +0.000 OA
ATOM     27  H   UNL     1     -13.099  55.544  52.200  0.00  0.00    +0.000 HD
ENDBRANCH   3  26
BRANCH   5  28
ATOM     28  C   UNL     1     -10.295  55.576  46.726  0.00  0.00    +0.000 C 
BRANCH  28  29
ATOM     29  C   UNL     1     -10.476  54.273  45.977  0.00  0.00    +0.000 A 
ATOM     30  C   UNL     1      -9.383  53.576  45.440  0.00  0.00    +0.000 A 
ATOM     31  C   UNL     1     -11.762  53.734  45.816  0.00  0.00    +0.000 A 
ATOM     32  C   UNL     1      -9.583  52.426  44.678  0.00  0.00    +0.000 A 
ATOM     33  C   UNL     1     -11.958  52.579  45.061  0.00  0.00    +0.000 A 
ATOM     34  C   UNL     1     -10.871  51.937  44.473  0.00  0.00    +0.000 A 
ENDBRANCH  28  29
ENDBRANCH   5  28
TORSDOF 4
ENDMDL
MODEL 6
REMARK VINA RESULT:      -8.6      2.747      8.113
REMARK  Name = 338126
REMARK  4 active torsions:
REMARK  status: ('A' for Active; 'I' for Inactive)
REMARK    1  A    between atoms: C_6  and  C_10
REMARK    2  A    between atoms: C_14  and  O_18
REMARK    3  A    between atoms: N_17  and  C_21
REMARK    4  A    between atoms: C_21  and  C_24
REMARK                            x       y       z     vdW  Elec       q    Type
REMARK                         _______ _______ _______ _____ _____    ______ ____
ROOT
ATOM      1  C   UNL     1      -9.948  54.317  50.840  0.00  0.00    +0.000 A 
ATOM      2  C   UNL     1     -11.383  54.552  51.185  0.00  0.00    +0.000 A 
ATOM      3  C   UNL     1      -9.525  54.509  49.577  0.00  0.00    +0.000 A 
ATOM      4  O   UNL     1     -11.748  54.336  52.344  0.00  0.00    +0.000 OA
ATOM      5  N   UNL     1     -12.238  55.029  50.205  0.00  0.00    +0.000 N 
ATOM      6  C   UNL     1     -10.457  54.961  48.534  0.00  0.00    +0.000 A 
ATOM      7  C   UNL     1     -11.797  55.232  48.861  0.00  0.00    +0.000 A 
ATOM      8  C   UNL     1     -10.013  55.147  47.211  0.00  0.00    +0.000 A 
ATOM      9  C   UNL     1     -12.657  55.694  47.850  0.00  0.00    +0.000 A 
ATOM     10  C   UNL     1     -10.879  55.606  46.222  0.00  0.00    +0.000 A 
ATOM     11  C   UNL     1     -12.201  55.882  46.543  0.00  0.00    +0.000 A 
ENDROOT
BRANCH   1  17
ATOM     12  S   UNL     1      -6.769  54.354  53.159  0.00  0.00    +0.000 S 
ATOM     13  O   UNL     1      -6.796  55.443  54.113  0.00  0.00    +0.000 OA
ATOM     14  O   UNL     1      -5.538  54.007  52.475  0.00  0.00    +0.000 OA
ATOM     15  N   UNL     1      -7.894  54.662  52.033  0.00  0.00    +0.000 N 
ATOM     16  C   UNL     1      -7.251  52.917  54.044  0.00  0.00    +0.000 A 
ATOM     17  C   UNL     1      -8.978  53.948  51.948  0.00  0.00    +0.000 C 
ATOM     18  C   UNL     1      -8.475  52.347  53.738  0.00  0.00    +0.000 A 
ATOM     19  C   UNL     1      -6.404  52.383  55.019  0.00  0.00    +0.000 A 
ATOM     20  N   UNL     1      -9.314  52.901  52.779  0.00  0.00    +0.000 N 
ATOM     21  C   UNL     1      -8.893  51.243  54.490  0.00  0.00    +0.000 A 
ATOM     22  C   UNL     1      -6.817  51.261  55.732  0.00  0.00    +0.000 A 
ATOM     23  C   UNL     1      -8.067  50.698  55.474  0.00  0.00    +0.000 A 
ATOM     24  H   UNL     1      -7.753  55.404  51.400  0.00  0.00    +0.000 HD
ATOM     25  H   UNL     1     -10.216  52.516  52.685  0.00  0.00    +0.000 HD
ENDBRANCH   1  17
BRANCH   3  26
ATOM     26  O   UNL     1      -8.214  54.354  49.161  0.00  0.00    +0.000 OA
ATOM     27  H   UNL     1      -7.872  53.496  49.000  0.00  0.00    +0.000 HD
ENDBRANCH   3  26
BRANCH   5  28
ATOM     28  C   UNL     1     -13.628  55.292  50.596  0.00  0.00    +0.000 C 
BRANCH  28  29
ATOM     29  C   UNL     1     -13.867  56.697  51.107  0.00  0.00    +0.000 A 
ATOM     30  C   UNL     1     -13.931  56.979  52.480  0.00  0.00    +0.000 A 
ATOM     31  C   UNL     1     -14.024  57.754  50.196  0.00  0.00    +0.000 A 
ATOM     32  C   UNL     1     -14.242  58.263  52.925  0.00  0.00    +0.000 A 
ATOM     33  C   UNL     1     -14.326  59.038  50.644  0.00  0.00    +0.000 A 
ATOM     34  C   UNL     1     -14.457  59.289  52.008  0.00  0.00    +0.000 A 
ENDBRANCH  28  29
ENDBRANCH   5  28
TORSDOF 4
ENDMDL
MODEL 7
REMARK VINA RESULT:      -8.5      3.118      4.719
REMARK  Name = 338126
REMARK  4 active torsions:
REMARK  status: ('A' for Active; 'I' for Inactive)
REMARK    1  A    between atoms: C_6  and  C_10
REMARK    2  A    between atoms: C_14  and  O_18
REMARK    3  A    between atoms: N_17  and  C_21
REMARK    4  A    between atoms: C_21  and  C_24
REMARK                            x       y       z     vdW  Elec       q    Type
REMARK                         _______ _______ _______ _____ _____    ______ ____
ROOT
ATOM      1  C   UNL     1     -11.496  55.814  48.830  0.00  0.00    +0.000 A 
ATOM      2  C   UNL     1     -10.516  55.097  49.701  0.00  0.00    +0.000 A 
ATOM      3  C   UNL     1     -11.590  55.496  47.527  0.00  0.00    +0.000 A 
ATOM      4  O   UNL     1     -10.431  55.433  50.885  0.00  0.00    +0.000 OA
ATOM      5  N   UNL     1      -9.766  54.067  49.157  0.00  0.00    +0.000 N 
ATOM      6  C   UNL     1     -10.747  54.439  46.950  0.00  0.00    +0.000 A 
ATOM      7  C   UNL     1      -9.857  53.725  47.772  0.00  0.00    +0.000 A 
ATOM      8  C   UNL     1     -10.837  54.119  45.583  0.00  0.00    +0.000 A 
ATOM      9  C   UNL     1      -9.087  52.698  47.200  0.00  0.00    +0.000 A 
ATOM     10  C   UNL     1     -10.067  53.097  45.032  0.00  0.00    +0.000 A 
ATOM     11  C   UNL     1      -9.194  52.386  45.842  0.00  0.00    +0.000 A 
ENDROOT
BRANCH   1  17
ATOM     12  S   UNL     1     -13.501  59.147  49.429  0.00  0.00    +0.000 S 
ATOM     13  O   UNL     1     -14.638  59.273  48.542  0.00  0.00    +0.000 OA
ATOM     14  O   UNL     1     -12.662  60.296  49.715  0.00  0.00    +0.000 OA
ATOM     15  N   UNL     1     -12.552  57.971  48.844  0.00  0.00    +0.000 N 
ATOM     16  C   UNL     1     -14.144  58.623  50.976  0.00  0.00    +0.000 A 
ATOM     17  C   UNL     1     -12.430  56.832  49.461  0.00  0.00    +0.000 C 
ATOM     18  C   UNL     1     -13.845  57.340  51.401  0.00  0.00    +0.000 A 
ATOM     19  C   UNL     1     -14.927  59.495  51.737  0.00  0.00    +0.000 A 
ATOM     20  N   UNL     1     -13.079  56.478  50.625  0.00  0.00    +0.000 N 
ATOM     21  C   UNL     1     -14.412  56.894  52.600  0.00  0.00    +0.000 A 
ATOM     22  C   UNL     1     -15.454  59.051  52.946  0.00  0.00    +0.000 A 
ATOM     23  C   UNL     1     -15.205  57.747  53.372  0.00  0.00    +0.000 A 
ATOM     24  H   UNL     1     -12.058  58.121  48.006  0.00  0.00    +0.000 HD
ATOM     25  H   UNL     1     -12.993  55.545  50.929  0.00  0.00    +0.000 HD
ENDBRANCH   1  17
BRANCH   3  26
ATOM     26  O   UNL     1     -12.486  56.073  46.644  0.00  0.00    +0.000 OA
ATOM     27  H   UNL     1     -12.175  56.476  45.857  0.00  0.00    +0.000 HD
ENDBRANCH   3  26
BRANCH   5  28
ATOM     28  C   UNL     1      -8.850  53.356  50.056  0.00  0.00    +0.000 C 
BRANCH  28  29
ATOM     29  C   UNL     1      -7.391  53.706  49.851  0.00  0.00    +0.000 A 
ATOM     30  C   UNL     1      -6.967  55.037  49.723  0.00  0.00    +0.000 A 
ATOM     31  C   UNL     1      -6.430  52.684  49.793  0.00  0.00    +0.000 A 
ATOM     32  C   UNL     1      -5.632  55.330  49.445  0.00  0.00    +0.000 A 
ATOM     33  C   UNL     1      -5.096  52.981  49.524  0.00  0.00    +0.000 A 
ATOM     34  C   UNL     1      -4.700  54.301  49.328  0.00  0.00    +0.000 A 
ENDBRANCH  28  29
ENDBRANCH   5  28
TORSDOF 4
ENDMDL
MODEL 8
REMARK VINA RESULT:      -8.3      3.145      5.188
REMARK  Name = 338126
REMARK  4 active torsions:
REMARK  status: ('A' for Active; 'I' for Inactive)
REMARK    1  A    between atoms: C_6  and  C_10
REMARK    2  A    between atoms: C_14  and  O_18
REMARK    3  A    between atoms: N_17  and  C_21
REMARK    4  A    between atoms: C_21  and  C_24
REMARK                            x       y       z     vdW  Elec       q    Type
REMARK                         _______ _______ _______ _____ _____    ______ ____
ROOT
ATOM      1  C   UNL     1     -11.332  56.068  48.794  0.00  0.00    +0.000 A 
ATOM      2  C   UNL     1     -10.185  55.559  49.606  0.00  0.00    +0.000 A 
ATOM      3  C   UNL     1     -11.512  55.620  47.538  0.00  0.00    +0.000 A 
ATOM      4  O   UNL     1     -10.028  56.012  50.743  0.00  0.00    +0.000 OA
ATOM      5  N   UNL     1      -9.364  54.582  49.067  0.00  0.00    +0.000 N 
ATOM      6  C   UNL     1     -10.598  54.625  46.958  0.00  0.00    +0.000 A 
ATOM      7  C   UNL     1      -9.546  54.104  47.732  0.00  0.00    +0.000 A 
ATOM      8  C   UNL     1     -10.781  54.170  45.639  0.00  0.00    +0.000 A 
ATOM      9  C   UNL     1      -8.709  53.129  47.163  0.00  0.00    +0.000 A 
ATOM     10  C   UNL     1      -9.942  53.203  45.090  0.00  0.00    +0.000 A 
ATOM     11  C   UNL     1      -8.907  52.681  45.854  0.00  0.00    +0.000 A 
ENDROOT
BRANCH   1  17
ATOM     12  S   UNL     1     -13.523  59.270  49.448  0.00  0.00    +0.000 S 
ATOM     13  O   UNL     1     -14.662  59.349  48.558  0.00  0.00    +0.000 OA
ATOM     14  O   UNL     1     -12.752  60.458  49.761  0.00  0.00    +0.000 OA
ATOM     15  N   UNL     1     -12.507  58.160  48.845  0.00  0.00    +0.000 N 
ATOM     16  C   UNL     1     -14.142  58.679  50.981  0.00  0.00    +0.000 A 
ATOM     17  C   UNL     1     -12.324  57.018  49.440  0.00  0.00    +0.000 C 
ATOM     18  C   UNL     1     -13.772  57.407  51.383  0.00  0.00    +0.000 A 
ATOM     19  C   UNL     1     -14.976  59.491  51.755  0.00  0.00    +0.000 A 
ATOM     20  N   UNL     1     -12.956  56.606  50.593  0.00  0.00    +0.000 N 
ATOM     21  C   UNL     1     -14.318  56.906  52.570  0.00  0.00    +0.000 A 
ATOM     22  C   UNL     1     -15.481  58.994  52.953  0.00  0.00    +0.000 A 
ATOM     23  C   UNL     1     -15.161  57.697  53.355  0.00  0.00    +0.000 A 
ATOM     24  H   UNL     1     -12.019  58.355  48.012  0.00  0.00    +0.000 HD
ATOM     25  H   UNL     1     -12.819  55.673  50.879  0.00  0.00    +0.000 HD
ENDBRANCH   1  17
BRANCH   3  26
ATOM     26  O   UNL     1     -12.558  55.999  46.716  0.00  0.00    +0.000 OA
ATOM     27  H   UNL     1     -12.461  56.734  46.142  0.00  0.00    +0.000 HD
ENDBRANCH   3  26
BRANCH   5  28
ATOM     28  C   UNL     1      -8.279  54.074  49.914  0.00  0.00    +0.000 C 
BRANCH  28  29
ATOM     29  C   UNL     1      -8.735  53.105  50.984  0.00  0.00    +0.000 A 
ATOM     30  C   UNL     1      -8.458  53.327  52.341  0.00  0.00    +0.000 A 
ATOM     31  C   UNL     1      -9.459  51.958  50.623  0.00  0.00    +0.000 A 
ATOM     32  C   UNL     1      -8.809  52.376  53.299  0.00  0.00    +0.000 A 
ATOM     33  C   UNL     1      -9.817  51.014  51.584  0.00  0.00    +0.000 A 
ATOM     34  C   UNL     1      -9.472  51.211  52.919  0.00  0.00    +0.000 A 
ENDBRANCH  28  29
ENDBRANCH   5  28
TORSDOF 4
ENDMDL
MODEL 9
REMARK VINA RESULT:      -8.2      3.262      5.102
REMARK  Name = 338126
REMARK  4 active torsions:
REMARK  status: ('A' for Active; 'I' for Inactive)
REMARK    1  A    between atoms: C_6  and  C_10
REMARK    2  A    between atoms: C_14  and  O_18
REMARK    3  A    between atoms: N_17  and  C_21
REMARK    4  A    between atoms: C_21  and  C_24
REMARK                            x       y       z     vdW  Elec       q    Type
REMARK                         _______ _______ _______ _____ _____    ______ ____
ROOT
ATOM      1  C   UNL     1     -10.721  55.706  48.323  0.00  0.00    +0.000 A 
ATOM      2  C   UNL     1      -9.283  55.715  48.729  0.00  0.00    +0.000 A 
ATOM      3  C   UNL     1     -11.091  55.086  47.188  0.00  0.00    +0.000 A 
ATOM      4  O   UNL     1      -8.971  56.318  49.759  0.00  0.00    +0.000 OA
ATOM      5  N   UNL     1      -8.365  55.024  47.955  0.00  0.00    +0.000 N 
ATOM      6  C   UNL     1     -10.097  54.406  46.346  0.00  0.00    +0.000 A 
ATOM      7  C   UNL     1      -8.749  54.367  46.745  0.00  0.00    +0.000 A 
ATOM      8  C   UNL     1     -10.485  53.772  45.151  0.00  0.00    +0.000 A 
ATOM      9  C   UNL     1      -7.826  53.681  45.938  0.00  0.00    +0.000 A 
ATOM     10  C   UNL     1      -9.557  53.095  44.363  0.00  0.00    +0.000 A 
ATOM     11  C   UNL     1      -8.228  53.049  44.758  0.00  0.00    +0.000 A 
ENDROOT
BRANCH   1  17
ATOM     12  S   UNL     1     -13.226  56.147  51.326  0.00  0.00    +0.000 S 
ATOM     13  O   UNL     1     -12.546  56.419  52.575  0.00  0.00    +0.000 OA
ATOM     14  O   UNL     1     -14.356  55.239  51.289  0.00  0.00    +0.000 OA
ATOM     15  N   UNL     1     -12.118  55.607  50.273  0.00  0.00    +0.000 N 
ATOM     16  C   UNL     1     -13.829  57.693  50.753  0.00  0.00    +0.000 A 
ATOM     17  C   UNL     1     -11.750  56.325  49.253  0.00  0.00    +0.000 C 
ATOM     18  C   UNL     1     -13.250  58.233  49.616  0.00  0.00    +0.000 A 
ATOM     19  C   UNL     1     -14.864  58.334  51.437  0.00  0.00    +0.000 A 
ATOM     20  N   UNL     1     -12.210  57.590  48.957  0.00  0.00    +0.000 N 
ATOM     21  C   UNL     1     -13.681  59.496  49.195  0.00  0.00    +0.000 A 
ATOM     22  C   UNL     1     -15.308  59.573  50.985  0.00  0.00    +0.000 A 
ATOM     23  C   UNL     1     -14.708  60.159  49.870  0.00  0.00    +0.000 A 
ATOM     24  H   UNL     1     -11.716  54.718  50.409  0.00  0.00    +0.000 HD
ATOM     25  H   UNL     1     -11.767  58.075  48.222  0.00  0.00    +0.000 HD
ENDBRANCH   1  17
BRANCH   3  26
ATOM     26  O   UNL     1     -12.398  54.990  46.740  0.00  0.00    +0.000 OA
ATOM     27  H   UNL     1     -12.891  54.209  46.900  0.00  0.00    +0.000 HD
ENDBRANCH   3  26
BRANCH   5  28
ATOM     28  C   UNL     1      -6.971  55.017  48.413  0.00  0.00    +0.000 C 
BRANCH  28  29
ATOM     29  C   UNL     1      -6.706  54.070  49.565  0.00  0.00    +0.000 A 
ATOM     30  C   UNL     1      -6.071  54.501  50.739  0.00  0.00    +0.000 A 
ATOM     31  C   UNL     1      -7.108  52.728  49.471  0.00  0.00    +0.000 A 
ATOM     32  C   UNL     1      -5.758  53.592  51.749  0.00  0.00    +0.000 A 
ATOM     33  C   UNL     1      -6.802  51.824  50.486  0.00  0.00    +0.000 A 
ATOM     34  C   UNL     1      -6.107  52.250  51.615  0.00  0.00    +0.000 A 
ENDBRANCH  28  29
ENDBRANCH   5  28
TORSDOF 4
ENDMDL
