MODEL 1
REMARK VINA RESULT:      -8.7      0.000      0.000
REMARK  Name = 338213
REMARK  6 active torsions:
REMARK  status: ('A' for Active; 'I' for Inactive)
REMARK    1  A    between atoms: C_6  and  C_10
REMARK    2  A    between atoms: C_14  and  O_18
REMARK    3  A    between atoms: N_17  and  C_21
REMARK    4  A    between atoms: C_21  and  C_24
REMARK    5  A    between atoms: C_24  and  C_27
REMARK    6  A    between atoms: C_27  and  C_28
REMARK                            x       y       z     vdW  Elec       q    Type
REMARK                         _______ _______ _______ _____ _____    ______ ____
ROOT
ATOM      1  C   UNL     1     -11.273  54.548  50.621  0.00  0.00    +0.000 A 
ATOM      2  C   UNL     1      -9.927  54.884  50.077  0.00  0.00    +0.000 A 
ATOM      3  C   UNL     1     -11.499  53.339  51.162  0.00  0.00    +0.000 A 
ATOM      4  O   UNL     1      -9.722  56.036  49.681  0.00  0.00    +0.000 OA
ATOM      5  N   UNL     1      -8.953  53.896  50.039  0.00  0.00    +0.000 N 
ATOM      6  C   UNL     1     -10.421  52.343  51.230  0.00  0.00    +0.000 A 
ATOM      7  C   UNL     1      -9.168  52.621  50.649  0.00  0.00    +0.000 A 
ATOM      8  C   UNL     1     -10.626  51.115  51.888  0.00  0.00    +0.000 A 
ATOM      9  C   UNL     1      -8.158  51.648  50.734  0.00  0.00    +0.000 A 
ATOM     10  C   UNL     1      -9.602  50.179  51.993  0.00  0.00    +0.000 A 
ATOM     11  C   UNL     1      -8.368  50.446  51.416  0.00  0.00    +0.000 A 
ENDROOT
BRANCH   1  17
ATOM     12  S   UNL     1     -13.724  57.344  49.340  0.00  0.00    +0.000 S 
ATOM     13  O   UNL     1     -14.907  56.806  48.697  0.00  0.00    +0.000 OA
ATOM     14  O   UNL     1     -13.049  58.500  48.781  0.00  0.00    +0.000 OA
ATOM     15  N   UNL     1     -12.641  56.144  49.463  0.00  0.00    +0.000 N 
ATOM     16  C   UNL     1     -14.220  57.812  50.958  0.00  0.00    +0.000 A 
ATOM     17  C   UNL     1     -12.350  55.619  50.616  0.00  0.00    +0.000 C 
ATOM     18  C   UNL     1     -13.745  57.062  52.021  0.00  0.00    +0.000 A 
ATOM     19  C   UNL     1     -15.056  58.916  51.144  0.00  0.00    +0.000 A 
ATOM     20  N   UNL     1     -12.921  55.960  51.822  0.00  0.00    +0.000 N 
ATOM     21  C   UNL     1     -14.182  57.390  53.309  0.00  0.00    +0.000 A 
ATOM     22  C   UNL     1     -15.457  59.252  52.436  0.00  0.00    +0.000 A 
ATOM     23  C   UNL     1     -15.027  58.484  53.517  0.00  0.00    +0.000 A 
ATOM     24  H   UNL     1     -12.198  55.807  48.651  0.00  0.00    +0.000 HD
ATOM     25  H   UNL     1     -12.734  55.381  52.596  0.00  0.00    +0.000 HD
ENDBRANCH   1  17
BRANCH   3  26
ATOM     26  O   UNL     1     -12.705  52.944  51.718  0.00  0.00    +0.000 OA
ATOM     27  H   UNL     1     -13.293  53.586  52.064  0.00  0.00    +0.000 HD
ENDBRANCH   3  26
BRANCH   5  28
ATOM     28  C   UNL     1      -7.671  54.247  49.421  0.00  0.00    +0.000 C 
BRANCH  28  29
ATOM     29  C   UNL     1      -7.549  53.826  47.952  0.00  0.00    +0.000 C 
BRANCH  29  30
ATOM     30  C   UNL     1      -7.958  54.909  46.944  0.00  0.00    +0.000 C 
BRANCH  30  31
ATOM     31  C   UNL     1      -9.202  54.486  46.193  0.00  0.00    +0.000 A 
ATOM     32  C   UNL     1     -10.450  55.032  46.521  0.00  0.00    +0.000 A 
ATOM     33  C   UNL     1      -9.135  53.489  45.210  0.00  0.00    +0.000 A 
ATOM     34  C   UNL     1     -11.610  54.576  45.891  0.00  0.00    +0.000 A 
ATOM     35  C   UNL     1     -10.297  53.034  44.581  0.00  0.00    +0.000 A 
ATOM     36  C   UNL     1     -11.534  53.573  44.927  0.00  0.00    +0.000 A 
ENDBRANCH  30  31
ENDBRANCH  29  30
ENDBRANCH  28  29
ENDBRANCH   5  28
TORSDOF 6
ENDMDL
MODEL 2
REMARK VINA RESULT:      -8.6      2.924      7.390
REMARK  Name = 338213
REMARK  6 active torsions:
REMARK  status: ('A' for Active; 'I' for Inactive)
REMARK    1  A    between atoms: C_6  and  C_10
REMARK    2  A    between atoms: C_14  and  O_18
REMARK    3  A    between atoms: N_17  and  C_21
REMARK    4  A    between atoms: C_21  and  C_24
REMARK    5  A    between atoms: C_24  and  C_27
REMARK    6  A    between atoms: C_27  and  C_28
REMARK                            x       y       z     vdW  Elec       q    Type
REMARK                         _______ _______ _______ _____ _____    ______ ____
ROOT
ATOM      1  C   UNL     1      -9.288  54.082  49.545  0.00  0.00    +0.000 A 
ATOM      2  C   UNL     1     -10.235  55.222  49.385  0.00  0.00    +0.000 A 
ATOM      3  C   UNL     1      -9.150  53.178  48.562  0.00  0.00    +0.000 A 
ATOM      4  O   UNL     1     -10.264  56.092  50.262  0.00  0.00    +0.000 OA
ATOM      5  N   UNL     1     -11.045  55.268  48.259  0.00  0.00    +0.000 N 
ATOM      6  C   UNL     1      -9.922  53.308  47.319  0.00  0.00    +0.000 A 
ATOM      7  C   UNL     1     -10.877  54.335  47.188  0.00  0.00    +0.000 A 
ATOM      8  C   UNL     1      -9.704  52.420  46.248  0.00  0.00    +0.000 A 
ATOM      9  C   UNL     1     -11.597  54.434  45.985  0.00  0.00    +0.000 A 
ATOM     10  C   UNL     1     -10.401  52.557  45.051  0.00  0.00    +0.000 A 
ATOM     11  C   UNL     1     -11.347  53.563  44.920  0.00  0.00    +0.000 A 
ENDROOT
BRANCH   1  17
ATOM     12  S   UNL     1      -8.273  54.055  53.345  0.00  0.00    +0.000 S 
ATOM     13  O   UNL     1      -8.494  52.770  53.979  0.00  0.00    +0.000 OA
ATOM     14  O   UNL     1      -8.602  55.283  54.045  0.00  0.00    +0.000 OA
ATOM     15  N   UNL     1      -9.075  54.054  51.936  0.00  0.00    +0.000 N 
ATOM     16  C   UNL     1      -6.553  54.141  53.004  0.00  0.00    +0.000 A 
ATOM     17  C   UNL     1      -8.439  54.011  50.803  0.00  0.00    +0.000 C 
ATOM     18  C   UNL     1      -6.153  54.074  51.680  0.00  0.00    +0.000 A 
ATOM     19  C   UNL     1      -5.636  54.284  54.050  0.00  0.00    +0.000 A 
ATOM     20  N   UNL     1      -7.074  53.921  50.649  0.00  0.00    +0.000 N 
ATOM     21  C   UNL     1      -4.781  54.080  51.403  0.00  0.00    +0.000 A 
ATOM     22  C   UNL     1      -4.275  54.323  53.757  0.00  0.00    +0.000 A 
ATOM     23  C   UNL     1      -3.847  54.212  52.434  0.00  0.00    +0.000 A 
ATOM     24  H   UNL     1     -10.059  54.086  51.939  0.00  0.00    +0.000 HD
ATOM     25  H   UNL     1      -6.726  53.734  49.748  0.00  0.00    +0.000 HD
ENDBRANCH   1  17
BRANCH   3  26
ATOM     26  O   UNL     1      -8.277  52.103  48.606  0.00  0.00    +0.000 OA
ATOM     27  H   UNL     1      -7.575  52.095  49.225  0.00  0.00    +0.000 HD
ENDBRANCH   3  26
BRANCH   5  28
ATOM     28  C   UNL     1     -12.019  56.361  48.181  0.00  0.00    +0.000 C 
BRANCH  28  29
ATOM     29  C   UNL     1     -13.361  56.052  48.855  0.00  0.00    +0.000 C 
BRANCH  29  30
ATOM     30  C   UNL     1     -14.336  57.237  48.903  0.00  0.00    +0.000 C 
BRANCH  30  31
ATOM     31  C   UNL     1     -14.691  57.569  50.336  0.00  0.00    +0.000 A 
ATOM     32  C   UNL     1     -14.409  58.837  50.863  0.00  0.00    +0.000 A 
ATOM     33  C   UNL     1     -15.238  56.591  51.178  0.00  0.00    +0.000 A 
ATOM     34  C   UNL     1     -14.652  59.114  52.209  0.00  0.00    +0.000 A 
ATOM     35  C   UNL     1     -15.481  56.871  52.525  0.00  0.00    +0.000 A 
ATOM     36  C   UNL     1     -15.181  58.129  53.041  0.00  0.00    +0.000 A 
ENDBRANCH  30  31
ENDBRANCH  29  30
ENDBRANCH  28  29
ENDBRANCH   5  28
TORSDOF 6
ENDMDL
MODEL 3
REMARK VINA RESULT:      -8.6      2.131      2.741
REMARK  Name = 338213
REMARK  6 active torsions:
REMARK  status: ('A' for Active; 'I' for Inactive)
REMARK    1  A    between atoms: C_6  and  C_10
REMARK    2  A    between atoms: C_14  and  O_18
REMARK    3  A    between atoms: N_17  and  C_21
REMARK    4  A    between atoms: C_21  and  C_24
REMARK    5  A    between atoms: C_24  and  C_27
REMARK    6  A    between atoms: C_27  and  C_28
REMARK                            x       y       z     vdW  Elec       q    Type
REMARK                         _______ _______ _______ _____ _____    ______ ____
ROOT
ATOM      1  C   UNL     1     -10.176  54.491  52.231  0.00  0.00    +0.000 A 
ATOM      2  C   UNL     1      -8.801  55.050  52.089  0.00  0.00    +0.000 A 
ATOM      3  C   UNL     1     -10.380  53.381  52.959  0.00  0.00    +0.000 A 
ATOM      4  O   UNL     1      -8.661  56.127  51.500  0.00  0.00    +0.000 OA
ATOM      5  N   UNL     1      -7.732  54.346  52.624  0.00  0.00    +0.000 N 
ATOM      6  C   UNL     1      -9.254  52.713  53.627  0.00  0.00    +0.000 A 
ATOM      7  C   UNL     1      -7.941  53.186  53.435  0.00  0.00    +0.000 A 
ATOM      8  C   UNL     1      -9.480  51.610  54.472  0.00  0.00    +0.000 A 
ATOM      9  C   UNL     1      -6.887  52.527  54.090  0.00  0.00    +0.000 A 
ATOM     10  C   UNL     1      -8.426  50.993  55.141  0.00  0.00    +0.000 A 
ATOM     11  C   UNL     1      -7.131  51.452  54.949  0.00  0.00    +0.000 A 
ENDROOT
BRANCH   1  17
ATOM     12  S   UNL     1     -12.546  56.065  49.517  0.00  0.00    +0.000 S 
ATOM     13  O   UNL     1     -13.460  55.100  48.937  0.00  0.00    +0.000 OA
ATOM     14  O   UNL     1     -11.895  57.052  48.676  0.00  0.00    +0.000 OA
ATOM     15  N   UNL     1     -11.393  55.242  50.303  0.00  0.00    +0.000 N 
ATOM     16  C   UNL     1     -13.480  56.974  50.693  0.00  0.00    +0.000 A 
ATOM     17  C   UNL     1     -11.337  55.242  51.602  0.00  0.00    +0.000 C 
ATOM     18  C   UNL     1     -13.198  56.776  52.034  0.00  0.00    +0.000 A 
ATOM     19  C   UNL     1     -14.461  57.874  50.266  0.00  0.00    +0.000 A 
ATOM     20  N   UNL     1     -12.226  55.870  52.446  0.00  0.00    +0.000 N 
ATOM     21  C   UNL     1     -13.977  57.450  52.980  0.00  0.00    +0.000 A 
ATOM     22  C   UNL     1     -15.207  58.564  51.219  0.00  0.00    +0.000 A 
ATOM     23  C   UNL     1     -14.971  58.345  52.576  0.00  0.00    +0.000 A 
ATOM     24  H   UNL     1     -10.725  54.733  49.790  0.00  0.00    +0.000 HD
ATOM     25  H   UNL     1     -12.169  55.664  53.406  0.00  0.00    +0.000 HD
ENDBRANCH   1  17
BRANCH   3  26
ATOM     26  O   UNL     1     -11.620  52.803  53.173  0.00  0.00    +0.000 OA
ATOM     27  H   UNL     1     -11.844  52.475  54.022  0.00  0.00    +0.000 HD
ENDBRANCH   3  26
BRANCH   5  28
ATOM     28  C   UNL     1      -6.391  54.889  52.389  0.00  0.00    +0.000 C 
BRANCH  28  29
ATOM     29  C   UNL     1      -5.632  54.208  51.244  0.00  0.00    +0.000 C 
BRANCH  29  30
ATOM     30  C   UNL     1      -5.762  54.914  49.887  0.00  0.00    +0.000 C 
BRANCH  30  31
ATOM     31  C   UNL     1      -6.957  54.379  49.129  0.00  0.00    +0.000 A 
ATOM     32  C   UNL     1      -7.718  55.225  48.311  0.00  0.00    +0.000 A 
ATOM     33  C   UNL     1      -7.365  53.047  49.291  0.00  0.00    +0.000 A 
ATOM     34  C   UNL     1      -8.873  54.754  47.684  0.00  0.00    +0.000 A 
ATOM     35  C   UNL     1      -8.521  52.578  48.662  0.00  0.00    +0.000 A 
ATOM     36  C   UNL     1      -9.278  53.434  47.866  0.00  0.00    +0.000 A 
ENDBRANCH  30  31
ENDBRANCH  29  30
ENDBRANCH  28  29
ENDBRANCH   5  28
TORSDOF 6
ENDMDL
MODEL 4
REMARK VINA RESULT:      -8.4      2.081      2.960
REMARK  Name = 338213
REMARK  6 active torsions:
REMARK  status: ('A' for Active; 'I' for Inactive)
REMARK    1  A    between atoms: C_6  and  C_10
REMARK    2  A    between atoms: C_14  and  O_18
REMARK    3  A    between atoms: N_17  and  C_21
REMARK    4  A    between atoms: C_21  and  C_24
REMARK    5  A    between atoms: C_24  and  C_27
REMARK    6  A    between atoms: C_27  and  C_28
REMARK                            x       y       z     vdW  Elec       q    Type
REMARK                         _______ _______ _______ _____ _____    ______ ____
ROOT
ATOM      1  C   UNL     1     -11.552  54.085  51.196  0.00  0.00    +0.000 A 
ATOM      2  C   UNL     1     -10.602  54.145  52.344  0.00  0.00    +0.000 A 
ATOM      3  C   UNL     1     -11.655  52.962  50.466  0.00  0.00    +0.000 A 
ATOM      4  O   UNL     1     -10.604  55.153  53.058  0.00  0.00    +0.000 OA
ATOM      5  N   UNL     1      -9.756  53.069  52.572  0.00  0.00    +0.000 N 
ATOM      6  C   UNL     1     -10.843  51.783  50.796  0.00  0.00    +0.000 A 
ATOM      7  C   UNL     1      -9.887  51.854  51.828  0.00  0.00    +0.000 A 
ATOM      8  C   UNL     1     -11.024  50.575  50.098  0.00  0.00    +0.000 A 
ATOM      9  C   UNL     1      -9.128  50.709  52.121  0.00  0.00    +0.000 A 
ATOM     10  C   UNL     1     -10.288  49.440  50.426  0.00  0.00    +0.000 A 
ATOM     11  C   UNL     1      -9.340  49.507  51.437  0.00  0.00    +0.000 A 
ENDROOT
BRANCH   1  17
ATOM     12  S   UNL     1     -13.275  57.079  49.318  0.00  0.00    +0.000 S 
ATOM     13  O   UNL     1     -14.370  56.657  48.468  0.00  0.00    +0.000 OA
ATOM     14  O   UNL     1     -12.343  58.094  48.861  0.00  0.00    +0.000 OA
ATOM     15  N   UNL     1     -12.420  55.760  49.713  0.00  0.00    +0.000 N 
ATOM     16  C   UNL     1     -14.010  57.722  50.776  0.00  0.00    +0.000 A 
ATOM     17  C   UNL     1     -12.442  55.285  50.923  0.00  0.00    +0.000 C 
ATOM     18  C   UNL     1     -13.867  56.994  51.946  0.00  0.00    +0.000 A 
ATOM     19  C   UNL     1     -14.700  58.937  50.738  0.00  0.00    +0.000 A 
ATOM     20  N   UNL     1     -13.187  55.782  51.969  0.00  0.00    +0.000 N 
ATOM     21  C   UNL     1     -14.501  57.467  53.101  0.00  0.00    +0.000 A 
ATOM     22  C   UNL     1     -15.298  59.413  51.903  0.00  0.00    +0.000 A 
ATOM     23  C   UNL     1     -15.206  58.674  53.082  0.00  0.00    +0.000 A 
ATOM     24  H   UNL     1     -11.876  55.311  49.025  0.00  0.00    +0.000 HD
ATOM     25  H   UNL     1     -13.241  55.241  52.789  0.00  0.00    +0.000 HD
ENDBRANCH   1  17
BRANCH   3  26
ATOM     26  O   UNL     1     -12.527  52.800  49.402  0.00  0.00    +0.000 OA
ATOM     27  H   UNL     1     -12.249  52.340  48.635  0.00  0.00    +0.000 HD
ENDBRANCH   3  26
BRANCH   5  28
ATOM     28  C   UNL     1      -8.782  53.204  53.660  0.00  0.00    +0.000 C 
BRANCH  28  29
ATOM     29  C   UNL     1      -7.662  54.211  53.375  0.00  0.00    +0.000 C 
BRANCH  29  30
ATOM     30  C   UNL     1      -6.883  53.946  52.079  0.00  0.00    +0.000 C 
BRANCH  30  31
ATOM     31  C   UNL     1      -7.520  54.686  50.922  0.00  0.00    +0.000 A 
ATOM     32  C   UNL     1      -7.828  56.049  51.033  0.00  0.00    +0.000 A 
ATOM     33  C   UNL     1      -7.878  54.003  49.751  0.00  0.00    +0.000 A 
ATOM     34  C   UNL     1      -8.498  56.709  50.001  0.00  0.00    +0.000 A 
ATOM     35  C   UNL     1      -8.547  54.667  48.720  0.00  0.00    +0.000 A 
ATOM     36  C   UNL     1      -8.863  56.017  48.849  0.00  0.00    +0.000 A 
ENDBRANCH  30  31
ENDBRANCH  29  30
ENDBRANCH  28  29
ENDBRANCH   5  28
TORSDOF 6
ENDMDL
MODEL 5
REMARK VINA RESULT:      -8.4      2.239      4.942
REMARK  Name = 338213
REMARK  6 active torsions:
REMARK  status: ('A' for Active; 'I' for Inactive)
REMARK    1  A    between atoms: C_6  and  C_10
REMARK    2  A    between atoms: C_14  and  O_18
REMARK    3  A    between atoms: N_17  and  C_21
REMARK    4  A    between atoms: C_21  and  C_24
REMARK    5  A    between atoms: C_24  and  C_27
REMARK    6  A    between atoms: C_27  and  C_28
REMARK                            x       y       z     vdW  Elec       q    Type
REMARK                         _______ _______ _______ _____ _____    ______ ____
ROOT
ATOM      1  C   UNL     1     -11.572  55.950  48.736  0.00  0.00    +0.000 A 
ATOM      2  C   UNL     1     -10.525  55.307  49.579  0.00  0.00    +0.000 A 
ATOM      3  C   UNL     1     -11.700  55.607  47.444  0.00  0.00    +0.000 A 
ATOM      4  O   UNL     1     -10.499  55.568  50.787  0.00  0.00    +0.000 OA
ATOM      5  N   UNL     1      -9.622  54.438  48.983  0.00  0.00    +0.000 N 
ATOM      6  C   UNL     1     -10.818  54.590  46.854  0.00  0.00    +0.000 A 
ATOM      7  C   UNL     1      -9.775  54.034  47.619  0.00  0.00    +0.000 A 
ATOM      8  C   UNL     1     -11.018  54.156  45.529  0.00  0.00    +0.000 A 
ATOM      9  C   UNL     1      -8.951  53.063  47.027  0.00  0.00    +0.000 A 
ATOM     10  C   UNL     1     -10.213  53.167  44.972  0.00  0.00    +0.000 A 
ATOM     11  C   UNL     1      -9.181  52.621  45.720  0.00  0.00    +0.000 A 
ENDROOT
BRANCH   1  17
ATOM     12  S   UNL     1     -13.564  59.263  49.461  0.00  0.00    +0.000 S 
ATOM     13  O   UNL     1     -14.713  59.431  48.593  0.00  0.00    +0.000 OA
ATOM     14  O   UNL     1     -12.715  60.396  49.779  0.00  0.00    +0.000 OA
ATOM     15  N   UNL     1     -12.629  58.104  48.821  0.00  0.00    +0.000 N 
ATOM     16  C   UNL     1     -14.192  58.685  50.994  0.00  0.00    +0.000 A 
ATOM     17  C   UNL     1     -12.527  56.937  49.385  0.00  0.00    +0.000 C 
ATOM     18  C   UNL     1     -13.921  57.375  51.351  0.00  0.00    +0.000 A 
ATOM     19  C   UNL     1     -14.929  59.541  51.818  0.00  0.00    +0.000 A 
ATOM     20  N   UNL     1     -13.196  56.530  50.518  0.00  0.00    +0.000 N 
ATOM     21  C   UNL     1     -14.469  56.887  52.543  0.00  0.00    +0.000 A 
ATOM     22  C   UNL     1     -15.440  59.052  53.019  0.00  0.00    +0.000 A 
ATOM     23  C   UNL     1     -15.217  57.723  53.377  0.00  0.00    +0.000 A 
ATOM     24  H   UNL     1     -12.131  58.285  47.991  0.00  0.00    +0.000 HD
ATOM     25  H   UNL     1     -13.158  55.575  50.754  0.00  0.00    +0.000 HD
ENDBRANCH   1  17
BRANCH   3  26
ATOM     26  O   UNL     1     -12.659  56.125  46.589  0.00  0.00    +0.000 OA
ATOM     27  H   UNL     1     -13.521  55.759  46.574  0.00  0.00    +0.000 HD
ENDBRANCH   3  26
BRANCH   5  28
ATOM     28  C   UNL     1      -8.559  53.893  49.832  0.00  0.00    +0.000 C 
BRANCH  28  29
ATOM     29  C   UNL     1      -7.204  54.589  49.662  0.00  0.00    +0.000 C 
BRANCH  29  30
ATOM     30  C   UNL     1      -6.984  55.788  50.595  0.00  0.00    +0.000 C 
BRANCH  30  31
ATOM     31  C   UNL     1      -6.709  55.314  52.006  0.00  0.00    +0.000 A 
ATOM     32  C   UNL     1      -5.675  54.404  52.261  0.00  0.00    +0.000 A 
ATOM     33  C   UNL     1      -7.532  55.721  53.066  0.00  0.00    +0.000 A 
ATOM     34  C   UNL     1      -5.480  53.896  53.547  0.00  0.00    +0.000 A 
ATOM     35  C   UNL     1      -7.335  55.212  54.352  0.00  0.00    +0.000 A 
ATOM     36  C   UNL     1      -6.314  54.295  54.590  0.00  0.00    +0.000 A 
ENDBRANCH  30  31
ENDBRANCH  29  30
ENDBRANCH  28  29
ENDBRANCH   5  28
TORSDOF 6
ENDMDL
MODEL 6
REMARK VINA RESULT:      -8.3      3.420      7.550
REMARK  Name = 338213
REMARK  6 active torsions:
REMARK  status: ('A' for Active; 'I' for Inactive)
REMARK    1  A    between atoms: C_6  and  C_10
REMARK    2  A    between atoms: C_14  and  O_18
REMARK    3  A    between atoms: N_17  and  C_21
REMARK    4  A    between atoms: C_21  and  C_24
REMARK    5  A    between atoms: C_24  and  C_27
REMARK    6  A    between atoms: C_27  and  C_28
REMARK                            x       y       z     vdW  Elec       q    Type
REMARK                         _______ _______ _______ _____ _____    ______ ____
ROOT
ATOM      1  C   UNL     1      -8.081  53.753  50.865  0.00  0.00    +0.000 A 
ATOM      2  C   UNL     1      -9.135  54.804  50.780  0.00  0.00    +0.000 A 
ATOM      3  C   UNL     1      -7.454  53.337  49.753  0.00  0.00    +0.000 A 
ATOM      4  O   UNL     1      -9.620  55.238  51.830  0.00  0.00    +0.000 OA
ATOM      5  N   UNL     1      -9.530  55.258  49.530  0.00  0.00    +0.000 N 
ATOM      6  C   UNL     1      -7.793  53.918  48.447  0.00  0.00    +0.000 A 
ATOM      7  C   UNL     1      -8.841  54.853  48.344  0.00  0.00    +0.000 A 
ATOM      8  C   UNL     1      -7.066  53.557  47.296  0.00  0.00    +0.000 A 
ATOM      9  C   UNL     1      -9.139  55.392  47.081  0.00  0.00    +0.000 A 
ATOM     10  C   UNL     1      -7.353  54.128  46.060  0.00  0.00    +0.000 A 
ATOM     11  C   UNL     1      -8.389  55.045  45.953  0.00  0.00    +0.000 A 
ENDROOT
BRANCH   1  17
ATOM     12  S   UNL     1      -5.938  52.974  54.069  0.00  0.00    +0.000 S 
ATOM     13  O   UNL     1      -5.879  54.089  54.994  0.00  0.00    +0.000 OA
ATOM     14  O   UNL     1      -4.750  52.185  53.799  0.00  0.00    +0.000 OA
ATOM     15  N   UNL     1      -6.496  53.535  52.655  0.00  0.00    +0.000 N 
ATOM     16  C   UNL     1      -7.119  51.855  54.728  0.00  0.00    +0.000 A 
ATOM     17  C   UNL     1      -7.687  53.225  52.234  0.00  0.00    +0.000 C 
ATOM     18  C   UNL     1      -8.323  51.719  54.058  0.00  0.00    +0.000 A 
ATOM     19  C   UNL     1      -6.828  51.127  55.886  0.00  0.00    +0.000 A 
ATOM     20  N   UNL     1      -8.605  52.456  52.913  0.00  0.00    +0.000 N 
ATOM     21  C   UNL     1      -9.295  50.876  54.608  0.00  0.00    +0.000 A 
ATOM     22  C   UNL     1      -7.792  50.266  56.404  0.00  0.00    +0.000 A 
ATOM     23  C   UNL     1      -9.029  50.147  55.771  0.00  0.00    +0.000 A 
ATOM     24  H   UNL     1      -5.925  54.121  52.106  0.00  0.00    +0.000 HD
ATOM     25  H   UNL     1      -9.525  52.428  52.564  0.00  0.00    +0.000 HD
ENDBRANCH   1  17
BRANCH   3  26
ATOM     26  O   UNL     1      -6.443  52.389  49.734  0.00  0.00    +0.000 OA
ATOM     27  H   UNL     1      -6.571  51.560  50.150  0.00  0.00    +0.000 HD
ENDBRANCH   3  26
BRANCH   5  28
ATOM     28  C   UNL     1     -10.626  56.230  49.489  0.00  0.00    +0.000 C 
BRANCH  28  29
ATOM     29  C   UNL     1     -11.989  55.622  49.137  0.00  0.00    +0.000 C 
BRANCH  29  30
ATOM     30  C   UNL     1     -12.690  54.915  50.305  0.00  0.00    +0.000 C 
BRANCH  30  31
ATOM     31  C   UNL     1     -13.580  55.886  51.050  0.00  0.00    +0.000 A 
ATOM     32  C   UNL     1     -13.098  56.573  52.173  0.00  0.00    +0.000 A 
ATOM     33  C   UNL     1     -14.920  56.056  50.674  0.00  0.00    +0.000 A 
ATOM     34  C   UNL     1     -13.945  57.399  52.915  0.00  0.00    +0.000 A 
ATOM     35  C   UNL     1     -15.765  56.884  51.418  0.00  0.00    +0.000 A 
ATOM     36  C   UNL     1     -15.279  57.548  52.542  0.00  0.00    +0.000 A 
ENDBRANCH  30  31
ENDBRANCH  29  30
ENDBRANCH  28  29
ENDBRANCH   5  28
TORSDOF 6
ENDMDL
MODEL 7
REMARK VINA RESULT:      -8.3      3.106      6.236
REMARK  Name = 338213
REMARK  6 active torsions:
REMARK  status: ('A' for Active; 'I' for Inactive)
REMARK    1  A    between atoms: C_6  and  C_10
REMARK    2  A    between atoms: C_14  and  O_18
REMARK    3  A    between atoms: N_17  and  C_21
REMARK    4  A    between atoms: C_21  and  C_24
REMARK    5  A    between atoms: C_24  and  C_27
REMARK    6  A    between atoms: C_27  and  C_28
REMARK                            x       y       z     vdW  Elec       q    Type
REMARK                         _______ _______ _______ _____ _____    ______ ____
ROOT
ATOM      1  C   UNL     1     -10.254  55.176  50.767  0.00  0.00    +0.000 A 
ATOM      2  C   UNL     1      -9.814  55.126  49.343  0.00  0.00    +0.000 A 
ATOM      3  C   UNL     1     -11.479  55.630  51.077  0.00  0.00    +0.000 A 
ATOM      4  O   UNL     1      -8.723  54.608  49.082  0.00  0.00    +0.000 OA
ATOM      5  N   UNL     1     -10.643  55.656  48.366  0.00  0.00    +0.000 N 
ATOM      6  C   UNL     1     -12.398  56.072  50.019  0.00  0.00    +0.000 A 
ATOM      7  C   UNL     1     -11.965  56.103  48.679  0.00  0.00    +0.000 A 
ATOM      8  C   UNL     1     -13.717  56.451  50.334  0.00  0.00    +0.000 A 
ATOM      9  C   UNL     1     -12.869  56.528  47.691  0.00  0.00    +0.000 A 
ATOM     10  C   UNL     1     -14.608  56.835  49.336  0.00  0.00    +0.000 A 
ATOM     11  C   UNL     1     -14.184  56.873  48.016  0.00  0.00    +0.000 A 
ENDROOT
BRANCH   1  17
ATOM     12  S   UNL     1      -7.068  54.711  53.025  0.00  0.00    +0.000 S 
ATOM     13  O   UNL     1      -6.992  55.681  54.100  0.00  0.00    +0.000 OA
ATOM     14  O   UNL     1      -5.875  54.346  52.283  0.00  0.00    +0.000 OA
ATOM     15  N   UNL     1      -8.174  55.237  51.964  0.00  0.00    +0.000 N 
ATOM     16  C   UNL     1      -7.657  53.225  53.750  0.00  0.00    +0.000 A 
ATOM     17  C   UNL     1      -9.321  54.638  51.838  0.00  0.00    +0.000 C 
ATOM     18  C   UNL     1      -8.940  52.814  53.428  0.00  0.00    +0.000 A 
ATOM     19  C   UNL     1      -6.837  52.490  54.611  0.00  0.00    +0.000 A 
ATOM     20  N   UNL     1      -9.750  53.559  52.578  0.00  0.00    +0.000 N 
ATOM     21  C   UNL     1      -9.441  51.663  54.048  0.00  0.00    +0.000 A 
ATOM     22  C   UNL     1      -7.337  51.328  55.195  0.00  0.00    +0.000 A 
ATOM     23  C   UNL     1      -8.641  50.920  54.920  0.00  0.00    +0.000 A 
ATOM     24  H   UNL     1      -7.975  56.024  51.406  0.00  0.00    +0.000 HD
ATOM     25  H   UNL     1     -10.695  53.298  52.500  0.00  0.00    +0.000 HD
ENDBRANCH   1  17
BRANCH   3  26
ATOM     26  O   UNL     1     -11.988  55.688  52.364  0.00  0.00    +0.000 OA
ATOM     27  H   UNL     1     -12.477  54.967  52.708  0.00  0.00    +0.000 HD
ENDBRANCH   3  26
BRANCH   5  28
ATOM     28  C   UNL     1     -10.136  55.660  46.990  0.00  0.00    +0.000 C 
BRANCH  28  29
ATOM     29  C   UNL     1     -10.181  54.290  46.302  0.00  0.00    +0.000 C 
BRANCH  29  30
ATOM     30  C   UNL     1     -11.583  53.844  45.865  0.00  0.00    +0.000 C 
BRANCH  30  31
ATOM     31  C   UNL     1     -11.946  52.530  46.522  0.00  0.00    +0.000 A 
ATOM     32  C   UNL     1     -12.078  52.444  47.915  0.00  0.00    +0.000 A 
ATOM     33  C   UNL     1     -12.082  51.364  45.755  0.00  0.00    +0.000 A 
ATOM     34  C   UNL     1     -12.323  51.214  48.528  0.00  0.00    +0.000 A 
ATOM     35  C   UNL     1     -12.327  50.135  46.371  0.00  0.00    +0.000 A 
ATOM     36  C   UNL     1     -12.440  50.059  47.758  0.00  0.00    +0.000 A 
ENDBRANCH  30  31
ENDBRANCH  29  30
ENDBRANCH  28  29
ENDBRANCH   5  28
TORSDOF 6
ENDMDL
MODEL 8
REMARK VINA RESULT:      -8.2      1.950      4.020
REMARK  Name = 338213
REMARK  6 active torsions:
REMARK  status: ('A' for Active; 'I' for Inactive)
REMARK    1  A    between atoms: C_6  and  C_10
REMARK    2  A    between atoms: C_14  and  O_18
REMARK    3  A    between atoms: N_17  and  C_21
REMARK    4  A    between atoms: C_21  and  C_24
REMARK    5  A    between atoms: C_24  and  C_27
REMARK    6  A    between atoms: C_27  and  C_28
REMARK                            x       y       z     vdW  Elec       q    Type
REMARK                         _______ _______ _______ _____ _____    ______ ____
ROOT
ATOM      1  C   UNL     1     -12.268  54.489  48.724  0.00  0.00    +0.000 A 
ATOM      2  C   UNL     1     -11.842  53.292  49.503  0.00  0.00    +0.000 A 
ATOM      3  C   UNL     1     -12.004  54.566  47.409  0.00  0.00    +0.000 A 
ATOM      4  O   UNL     1     -12.189  53.205  50.686  0.00  0.00    +0.000 OA
ATOM      5  N   UNL     1     -11.077  52.320  48.875  0.00  0.00    +0.000 N 
ATOM      6  C   UNL     1     -11.302  53.470  46.727  0.00  0.00    +0.000 A 
ATOM      7  C   UNL     1     -10.825  52.371  47.468  0.00  0.00    +0.000 A 
ATOM      8  C   UNL     1     -11.116  53.502  45.332  0.00  0.00    +0.000 A 
ATOM      9  C   UNL     1     -10.161  51.338  46.785  0.00  0.00    +0.000 A 
ATOM     10  C   UNL     1     -10.486  52.453  44.669  0.00  0.00    +0.000 A 
ATOM     11  C   UNL     1     -10.009  51.371  45.396  0.00  0.00    +0.000 A 
ENDROOT
BRANCH   1  17
ATOM     12  S   UNL     1     -15.030  56.243  50.906  0.00  0.00    +0.000 S 
ATOM     13  O   UNL     1     -14.762  56.160  52.329  0.00  0.00    +0.000 OA
ATOM     14  O   UNL     1     -16.378  56.054  50.404  0.00  0.00    +0.000 OA
ATOM     15  N   UNL     1     -14.065  55.176  50.160  0.00  0.00    +0.000 N 
ATOM     16  C   UNL     1     -14.555  57.860  50.415  0.00  0.00    +0.000 A 
ATOM     17  C   UNL     1     -13.065  55.573  49.430  0.00  0.00    +0.000 C 
ATOM     18  C   UNL     1     -13.429  57.988  49.618  0.00  0.00    +0.000 A 
ATOM     19  C   UNL     1     -15.310  58.966  50.815  0.00  0.00    +0.000 A 
ATOM     20  N   UNL     1     -12.681  56.880  49.234  0.00  0.00    +0.000 N 
ATOM     21  C   UNL     1     -13.008  59.276  49.271  0.00  0.00    +0.000 A 
ATOM     22  C   UNL     1     -14.897  60.241  50.434  0.00  0.00    +0.000 A 
ATOM     23  C   UNL     1     -13.741  60.397  49.670  0.00  0.00    +0.000 A 
ATOM     24  H   UNL     1     -14.238  54.212  50.262  0.00  0.00    +0.000 HD
ATOM     25  H   UNL     1     -11.816  57.042  48.793  0.00  0.00    +0.000 HD
ENDBRANCH   1  17
BRANCH   3  26
ATOM     26  O   UNL     1     -12.385  55.620  46.596  0.00  0.00    +0.000 OA
ATOM     27  H   UNL     1     -11.750  56.047  46.054  0.00  0.00    +0.000 HD
ENDBRANCH   3  26
BRANCH   5  28
ATOM     28  C   UNL     1     -10.610  51.202  49.700  0.00  0.00    +0.000 C 
BRANCH  28  29
ATOM     29  C   UNL     1      -9.089  51.155  49.888  0.00  0.00    +0.000 C 
BRANCH  29  30
ATOM     30  C   UNL     1      -8.453  52.501  50.266  0.00  0.00    +0.000 C 
BRANCH  30  31
ATOM     31  C   UNL     1      -7.941  53.206  49.029  0.00  0.00    +0.000 A 
ATOM     32  C   UNL     1      -8.349  54.515  48.737  0.00  0.00    +0.000 A 
ATOM     33  C   UNL     1      -7.111  52.536  48.120  0.00  0.00    +0.000 A 
ATOM     34  C   UNL     1      -7.949  55.133  47.551  0.00  0.00    +0.000 A 
ATOM     35  C   UNL     1      -6.712  53.157  46.933  0.00  0.00    +0.000 A 
ATOM     36  C   UNL     1      -7.138  54.451  46.646  0.00  0.00    +0.000 A 
ENDBRANCH  30  31
ENDBRANCH  29  30
ENDBRANCH  28  29
ENDBRANCH   5  28
TORSDOF 6
ENDMDL
MODEL 9
REMARK VINA RESULT:      -8.2      2.570      3.674
REMARK  Name = 338213
REMARK  6 active torsions:
REMARK  status: ('A' for Active; 'I' for Inactive)
REMARK    1  A    between atoms: C_6  and  C_10
REMARK    2  A    between atoms: C_14  and  O_18
REMARK    3  A    between atoms: N_17  and  C_21
REMARK    4  A    between atoms: C_21  and  C_24
REMARK    5  A    between atoms: C_24  and  C_27
REMARK    6  A    between atoms: C_27  and  C_28
REMARK                            x       y       z     vdW  Elec       q    Type
REMARK                         _______ _______ _______ _____ _____    ______ ____
ROOT
ATOM      1  C   UNL     1     -10.178  54.523  52.153  0.00  0.00    +0.000 A 
ATOM      2  C   UNL     1      -8.782  55.045  52.115  0.00  0.00    +0.000 A 
ATOM      3  C   UNL     1     -10.462  53.413  52.854  0.00  0.00    +0.000 A 
ATOM      4  O   UNL     1      -8.572  56.123  51.548  0.00  0.00    +0.000 OA
ATOM      5  N   UNL     1      -7.773  54.309  52.718  0.00  0.00    +0.000 N 
ATOM      6  C   UNL     1      -9.404  52.710  53.594  0.00  0.00    +0.000 A 
ATOM      7  C   UNL     1      -8.070  53.150  53.501  0.00  0.00    +0.000 A 
ATOM      8  C   UNL     1      -9.719  51.607  54.411  0.00  0.00    +0.000 A 
ATOM      9  C   UNL     1      -7.083  52.458  54.224  0.00  0.00    +0.000 A 
ATOM     10  C   UNL     1      -8.733  50.957  55.147  0.00  0.00    +0.000 A 
ATOM     11  C   UNL     1      -7.415  51.383  55.053  0.00  0.00    +0.000 A 
ENDROOT
BRANCH   1  17
ATOM     12  S   UNL     1     -13.533  56.477  51.530  0.00  0.00    +0.000 S 
ATOM     13  O   UNL     1     -13.478  57.852  51.986  0.00  0.00    +0.000 OA
ATOM     14  O   UNL     1     -14.724  55.678  51.757  0.00  0.00    +0.000 OA
ATOM     15  N   UNL     1     -12.275  55.691  52.182  0.00  0.00    +0.000 N 
ATOM     16  C   UNL     1     -13.313  56.531  49.790  0.00  0.00    +0.000 A 
ATOM     17  C   UNL     1     -11.271  55.309  51.450  0.00  0.00    +0.000 C 
ATOM     18  C   UNL     1     -12.125  56.042  49.274  0.00  0.00    +0.000 A 
ATOM     19  C   UNL     1     -14.322  57.044  48.970  0.00  0.00    +0.000 A 
ATOM     20  N   UNL     1     -11.124  55.544  50.101  0.00  0.00    +0.000 N 
ATOM     21  C   UNL     1     -11.914  56.136  47.894  0.00  0.00    +0.000 A 
ATOM     22  C   UNL     1     -14.114  57.101  47.594  0.00  0.00    +0.000 A 
ATOM     23  C   UNL     1     -12.906  56.655  47.057  0.00  0.00    +0.000 A 
ATOM     24  H   UNL     1     -12.269  55.500  53.148  0.00  0.00    +0.000 HD
ATOM     25  H   UNL     1     -10.249  55.346  49.695  0.00  0.00    +0.000 HD
ENDBRANCH   1  17
BRANCH   3  26
ATOM     26  O   UNL     1     -11.729  52.867  52.973  0.00  0.00    +0.000 OA
ATOM     27  H   UNL     1     -12.238  53.029  53.742  0.00  0.00    +0.000 HD
ENDBRANCH   3  26
BRANCH   5  28
ATOM     28  C   UNL     1      -6.404  54.818  52.585  0.00  0.00    +0.000 C 
BRANCH  28  29
ATOM     29  C   UNL     1      -5.538  54.033  51.593  0.00  0.00    +0.000 C 
BRANCH  29  30
ATOM     30  C   UNL     1      -5.483  54.637  50.182  0.00  0.00    +0.000 C 
BRANCH  30  31
ATOM     31  C   UNL     1      -6.710  54.239  49.392  0.00  0.00    +0.000 A 
ATOM     32  C   UNL     1      -7.205  52.930  49.458  0.00  0.00    +0.000 A 
ATOM     33  C   UNL     1      -7.325  55.154  48.525  0.00  0.00    +0.000 A 
ATOM     34  C   UNL     1      -8.282  52.539  48.659  0.00  0.00    +0.000 A 
ATOM     35  C   UNL     1      -8.403  54.760  47.728  0.00  0.00    +0.000 A 
ATOM     36  C   UNL     1      -8.875  53.452  47.789  0.00  0.00    +0.000 A 
ENDBRANCH  30  31
ENDBRANCH  29  30
ENDBRANCH  28  29
ENDBRANCH   5  28
TORSDOF 6
ENDMDL
