MODEL 1
REMARK VINA RESULT:      -8.4      0.000      0.000
REMARK  Name = 338234
REMARK  7 active torsions:
REMARK  status: ('A' for Active; 'I' for Inactive)
REMARK    1  A    between atoms: C_5  and  O_8
REMARK    2  A    between atoms: C_9  and  C_13
REMARK    3  A    between atoms: N_10  and  C_14
REMARK    4  A    between atoms: C_14  and  C_18
REMARK    5  A    between atoms: C_18  and  C_21
REMARK    6  A    between atoms: C_21  and  C_26
REMARK    7  A    between atoms: C_21  and  C_27
REMARK                            x       y       z     vdW  Elec       q    Type
REMARK                         _______ _______ _______ _____ _____    ______ ____
ROOT
ATOM      1 BR   UNL     1     -11.350  53.762  45.110  0.00  0.00    +0.000 Br
ATOM      2  C   UNL     1     -10.694  53.371  46.860  0.00  0.00    +0.000 A 
ATOM      3  C   UNL     1     -10.936  54.149  48.016  0.00  0.00    +0.000 A 
ATOM      4  C   UNL     1      -9.974  52.179  46.941  0.00  0.00    +0.000 A 
ATOM      5  C   UNL     1     -11.809  55.336  48.040  0.00  0.00    +0.000 A 
ATOM      6  C   UNL     1     -10.413  53.713  49.255  0.00  0.00    +0.000 A 
ATOM      7  C   UNL     1      -9.499  51.739  48.165  0.00  0.00    +0.000 A 
ATOM      8  C   UNL     1     -12.378  55.749  49.184  0.00  0.00    +0.000 A 
ATOM      9  N   UNL     1     -10.654  54.475  50.442  0.00  0.00    +0.000 N 
ATOM     10  C   UNL     1      -9.719  52.497  49.310  0.00  0.00    +0.000 A 
ATOM     11  C   UNL     1     -11.706  55.388  50.475  0.00  0.00    +0.000 A 
ATOM     12  O   UNL     1     -12.074  55.948  51.513  0.00  0.00    +0.000 OA
ENDROOT
BRANCH   8  13
ATOM     13  C   UNL     1     -13.433  56.840  49.147  0.00  0.00    +0.000 C 
ATOM     14  N   UNL     1     -13.070  58.037  48.787  0.00  0.00    +0.000 N 
ATOM     15  N   UNL     1     -14.705  56.568  49.618  0.00  0.00    +0.000 N 
ATOM     16  S   UNL     1     -13.851  59.310  49.397  0.00  0.00    +0.000 S 
ATOM     17  C   UNL     1     -15.044  57.313  50.761  0.00  0.00    +0.000 A 
ATOM     18  O   UNL     1     -14.868  59.786  48.482  0.00  0.00    +0.000 OA
ATOM     19  O   UNL     1     -12.842  60.221  49.914  0.00  0.00    +0.000 OA
ATOM     20  C   UNL     1     -14.679  58.659  50.825  0.00  0.00    +0.000 A 
ATOM     21  C   UNL     1     -15.559  56.676  51.885  0.00  0.00    +0.000 A 
ATOM     22  C   UNL     1     -14.743  59.363  52.022  0.00  0.00    +0.000 A 
ATOM     23  C   UNL     1     -15.614  57.362  53.092  0.00  0.00    +0.000 A 
ATOM     24  C   UNL     1     -15.199  58.696  53.163  0.00  0.00    +0.000 A 
ATOM     25  H   UNL     1     -12.328  58.164  48.152  0.00  0.00    +0.000 HD
ATOM     26  H   UNL     1     -15.313  55.918  49.196  0.00  0.00    +0.000 HD
ENDBRANCH   8  13
BRANCH   5  27
ATOM     27  O   UNL     1     -12.025  56.015  46.861  0.00  0.00    +0.000 OA
ATOM     28  H   UNL     1     -11.442  56.701  46.601  0.00  0.00    +0.000 HD
ENDBRANCH   5  27
BRANCH   9  29
ATOM     29  C   UNL     1      -9.983  54.164  51.717  0.00  0.00    +0.000 C 
BRANCH  29  30
ATOM     30  C   UNL     1      -8.747  55.003  52.109  0.00  0.00    +0.000 C 
BRANCH  30  31
ATOM     31  C   UNL     1      -7.788  55.425  50.982  0.00  0.00    +0.000 C 
ATOM     32  C   UNL     1      -7.712  56.942  50.814  0.00  0.00    +0.000 C 
ATOM     33  C   UNL     1      -6.385  54.878  51.290  0.00  0.00    +0.000 C 
ENDBRANCH  30  31
ENDBRANCH  29  30
ENDBRANCH   9  29
TORSDOF 5
ENDMDL
MODEL 2
REMARK VINA RESULT:      -8.3      1.887      2.189
REMARK  Name = 338234
REMARK  7 active torsions:
REMARK  status: ('A' for Active; 'I' for Inactive)
REMARK    1  A    between atoms: C_5  and  O_8
REMARK    2  A    between atoms: C_9  and  C_13
REMARK    3  A    between atoms: N_10  and  C_14
REMARK    4  A    between atoms: C_14  and  C_18
REMARK    5  A    between atoms: C_18  and  C_21
REMARK    6  A    between atoms: C_21  and  C_26
REMARK    7  A    between atoms: C_21  and  C_27
REMARK                            x       y       z     vdW  Elec       q    Type
REMARK                         _______ _______ _______ _____ _____    ______ ____
ROOT
ATOM      1 BR   UNL     1     -12.082  50.586  48.139  0.00  0.00    +0.000 Br
ATOM      2  C   UNL     1     -11.260  51.067  49.795  0.00  0.00    +0.000 A 
ATOM      3  C   UNL     1     -11.293  52.355  50.379  0.00  0.00    +0.000 A 
ATOM      4  C   UNL     1     -10.645  50.001  50.452  0.00  0.00    +0.000 A 
ATOM      5  C   UNL     1     -12.048  53.491  49.822  0.00  0.00    +0.000 A 
ATOM      6  C   UNL     1     -10.668  52.552  51.631  0.00  0.00    +0.000 A 
ATOM      7  C   UNL     1     -10.069  50.195  51.696  0.00  0.00    +0.000 A 
ATOM      8  C   UNL     1     -12.439  54.509  50.606  0.00  0.00    +0.000 A 
ATOM      9  N   UNL     1     -10.698  53.843  52.251  0.00  0.00    +0.000 N 
ATOM     10  C   UNL     1     -10.083  51.457  52.280  0.00  0.00    +0.000 A 
ATOM     11  C   UNL     1     -11.653  54.777  51.856  0.00  0.00    +0.000 A 
ATOM     12  O   UNL     1     -11.843  55.837  52.461  0.00  0.00    +0.000 OA
ENDROOT
BRANCH   8  13
ATOM     13  C   UNL     1     -13.390  55.558  50.058  0.00  0.00    +0.000 C 
ATOM     14  N   UNL     1     -12.921  56.434  49.217  0.00  0.00    +0.000 N 
ATOM     15  N   UNL     1     -14.676  55.636  50.561  0.00  0.00    +0.000 N 
ATOM     16  S   UNL     1     -13.575  57.909  49.176  0.00  0.00    +0.000 S 
ATOM     17  C   UNL     1     -14.931  56.836  51.245  0.00  0.00    +0.000 A 
ATOM     18  O   UNL     1     -14.555  58.017  48.115  0.00  0.00    +0.000 OA
ATOM     19  O   UNL     1     -12.481  58.862  49.268  0.00  0.00    +0.000 OA
ATOM     20  C   UNL     1     -14.444  58.033  50.720  0.00  0.00    +0.000 A 
ATOM     21  C   UNL     1     -15.491  56.811  52.519  0.00  0.00    +0.000 A 
ATOM     22  C   UNL     1     -14.429  59.198  51.478  0.00  0.00    +0.000 A 
ATOM     23  C   UNL     1     -15.469  57.963  53.296  0.00  0.00    +0.000 A 
ATOM     24  C   UNL     1     -14.932  59.148  52.782  0.00  0.00    +0.000 A 
ATOM     25  H   UNL     1     -12.178  56.201  48.614  0.00  0.00    +0.000 HD
ATOM     26  H   UNL     1     -15.345  54.922  50.452  0.00  0.00    +0.000 HD
ENDBRANCH   8  13
BRANCH   5  27
ATOM     27  O   UNL     1     -12.341  53.487  48.476  0.00  0.00    +0.000 OA
ATOM     28  H   UNL     1     -12.604  52.691  48.056  0.00  0.00    +0.000 HD
ENDBRANCH   5  27
BRANCH   9  29
ATOM     29  C   UNL     1      -9.911  54.145  53.460  0.00  0.00    +0.000 C 
BRANCH  29  30
ATOM     30  C   UNL     1      -8.532  54.814  53.278  0.00  0.00    +0.000 C 
BRANCH  30  31
ATOM     31  C   UNL     1      -7.996  54.961  51.843  0.00  0.00    +0.000 C 
ATOM     32  C   UNL     1      -7.584  56.395  51.513  0.00  0.00    +0.000 C 
ATOM     33  C   UNL     1      -6.783  54.032  51.666  0.00  0.00    +0.000 C 
ENDBRANCH  30  31
ENDBRANCH  29  30
ENDBRANCH   9  29
TORSDOF 5
ENDMDL
MODEL 3
REMARK VINA RESULT:      -8.3      1.959      3.920
REMARK  Name = 338234
REMARK  7 active torsions:
REMARK  status: ('A' for Active; 'I' for Inactive)
REMARK    1  A    between atoms: C_5  and  O_8
REMARK    2  A    between atoms: C_9  and  C_13
REMARK    3  A    between atoms: N_10  and  C_14
REMARK    4  A    between atoms: C_14  and  C_18
REMARK    5  A    between atoms: C_18  and  C_21
REMARK    6  A    between atoms: C_21  and  C_26
REMARK    7  A    between atoms: C_21  and  C_27
REMARK                            x       y       z     vdW  Elec       q    Type
REMARK                         _______ _______ _______ _____ _____    ______ ____
ROOT
ATOM      1 BR   UNL     1     -10.435  54.712  52.654  0.00  0.00    +0.000 Br
ATOM      2  C   UNL     1     -10.016  54.270  50.844  0.00  0.00    +0.000 A 
ATOM      3  C   UNL     1     -10.772  54.660  49.713  0.00  0.00    +0.000 A 
ATOM      4  C   UNL     1      -8.830  53.553  50.696  0.00  0.00    +0.000 A 
ATOM      5  C   UNL     1     -11.950  55.543  49.776  0.00  0.00    +0.000 A 
ATOM      6  C   UNL     1     -10.317  54.287  48.427  0.00  0.00    +0.000 A 
ATOM      7  C   UNL     1      -8.372  53.225  49.431  0.00  0.00    +0.000 A 
ATOM      8  C   UNL     1     -12.337  56.252  48.703  0.00  0.00    +0.000 A 
ATOM      9  N   UNL     1     -11.055  54.680  47.265  0.00  0.00    +0.000 N 
ATOM     10  C   UNL     1      -9.107  53.592  48.309  0.00  0.00    +0.000 A 
ATOM     11  C   UNL     1     -11.958  55.739  47.345  0.00  0.00    +0.000 A 
ATOM     12  O   UNL     1     -12.496  56.236  46.351  0.00  0.00    +0.000 OA
ENDROOT
BRANCH   8  13
ATOM     13  C   UNL     1     -13.418  57.307  48.850  0.00  0.00    +0.000 C 
ATOM     14  N   UNL     1     -13.083  58.557  48.709  0.00  0.00    +0.000 N 
ATOM     15  N   UNL     1     -14.684  56.927  49.257  0.00  0.00    +0.000 N 
ATOM     16  S   UNL     1     -13.897  59.685  49.527  0.00  0.00    +0.000 S 
ATOM     17  C   UNL     1     -15.044  57.451  50.510  0.00  0.00    +0.000 A 
ATOM     18  O   UNL     1     -14.923  60.289  48.703  0.00  0.00    +0.000 OA
ATOM     19  O   UNL     1     -12.912  60.513  50.203  0.00  0.00    +0.000 OA
ATOM     20  C   UNL     1     -14.713  58.772  50.813  0.00  0.00    +0.000 A 
ATOM     21  C   UNL     1     -15.547  56.614  51.502  0.00  0.00    +0.000 A 
ATOM     22  C   UNL     1     -14.797  59.254  52.114  0.00  0.00    +0.000 A 
ATOM     23  C   UNL     1     -15.622  57.076  52.810  0.00  0.00    +0.000 A 
ATOM     24  C   UNL     1     -15.240  58.386  53.117  0.00  0.00    +0.000 A 
ATOM     25  H   UNL     1     -12.343  58.811  48.111  0.00  0.00    +0.000 HD
ATOM     26  H   UNL     1     -15.275  56.347  48.723  0.00  0.00    +0.000 HD
ENDBRANCH   8  13
BRANCH   5  27
ATOM     27  O   UNL     1     -12.648  55.621  50.961  0.00  0.00    +0.000 OA
ATOM     28  H   UNL     1     -12.239  55.363  51.763  0.00  0.00    +0.000 HD
ENDBRANCH   5  27
BRANCH   9  29
ATOM     29  C   UNL     1     -10.727  54.166  45.923  0.00  0.00    +0.000 C 
BRANCH  29  30
ATOM     30  C   UNL     1     -11.757  53.252  45.226  0.00  0.00    +0.000 C 
BRANCH  30  31
ATOM     31  C   UNL     1     -11.711  51.749  45.553  0.00  0.00    +0.000 C 
ATOM     32  C   UNL     1     -10.285  51.235  45.753  0.00  0.00    +0.000 C 
ATOM     33  C   UNL     1     -12.526  51.491  46.831  0.00  0.00    +0.000 C 
ENDBRANCH  30  31
ENDBRANCH  29  30
ENDBRANCH   9  29
TORSDOF 5
ENDMDL
MODEL 4
REMARK VINA RESULT:      -8.1      3.179      6.642
REMARK  Name = 338234
REMARK  7 active torsions:
REMARK  status: ('A' for Active; 'I' for Inactive)
REMARK    1  A    between atoms: C_5  and  O_8
REMARK    2  A    between atoms: C_9  and  C_13
REMARK    3  A    between atoms: N_10  and  C_14
REMARK    4  A    between atoms: C_14  and  C_18
REMARK    5  A    between atoms: C_18  and  C_21
REMARK    6  A    between atoms: C_21  and  C_26
REMARK    7  A    between atoms: C_21  and  C_27
REMARK                            x       y       z     vdW  Elec       q    Type
REMARK                         _______ _______ _______ _____ _____    ______ ____
ROOT
ATOM      1 BR   UNL     1      -8.361  54.168  46.981  0.00  0.00    +0.000 Br
ATOM      2  C   UNL     1     -10.111  54.821  47.381  0.00  0.00    +0.000 A 
ATOM      3  C   UNL     1     -10.655  54.955  48.679  0.00  0.00    +0.000 A 
ATOM      4  C   UNL     1     -10.831  55.232  46.260  0.00  0.00    +0.000 A 
ATOM      5  C   UNL     1      -9.904  54.684  49.918  0.00  0.00    +0.000 A 
ATOM      6  C   UNL     1     -11.956  55.489  48.822  0.00  0.00    +0.000 A 
ATOM      7  C   UNL     1     -12.089  55.791  46.412  0.00  0.00    +0.000 A 
ATOM      8  C   UNL     1     -10.265  55.252  51.080  0.00  0.00    +0.000 A 
ATOM      9  N   UNL     1     -12.526  55.647  50.126  0.00  0.00    +0.000 N 
ATOM     10  C   UNL     1     -12.644  55.920  47.680  0.00  0.00    +0.000 A 
ATOM     11  C   UNL     1     -11.695  55.671  51.245  0.00  0.00    +0.000 A 
ATOM     12  O   UNL     1     -12.099  55.973  52.372  0.00  0.00    +0.000 OA
ENDROOT
BRANCH   8  13
ATOM     13  C   UNL     1      -9.357  55.127  52.291  0.00  0.00    +0.000 C 
ATOM     14  N   UNL     1      -8.141  55.582  52.198  0.00  0.00    +0.000 N 
ATOM     15  N   UNL     1      -9.797  54.423  53.397  0.00  0.00    +0.000 N 
ATOM     16  S   UNL     1      -6.972  54.877  53.059  0.00  0.00    +0.000 S 
ATOM     17  C   UNL     1      -9.049  53.260  53.647  0.00  0.00    +0.000 A 
ATOM     18  O   UNL     1      -6.717  55.603  54.286  0.00  0.00    +0.000 OA
ATOM     19  O   UNL     1      -5.886  54.580  52.139  0.00  0.00    +0.000 OA
ATOM     20  C   UNL     1      -7.661  53.302  53.503  0.00  0.00    +0.000 A 
ATOM     21  C   UNL     1      -9.692  52.042  53.844  0.00  0.00    +0.000 A 
ATOM     22  C   UNL     1      -6.907  52.135  53.471  0.00  0.00    +0.000 A 
ATOM     23  C   UNL     1      -8.954  50.866  53.797  0.00  0.00    +0.000 A 
ATOM     24  C   UNL     1      -7.569  50.911  53.602  0.00  0.00    +0.000 A 
ATOM     25  H   UNL     1      -7.937  56.346  51.611  0.00  0.00    +0.000 HD
ATOM     26  H   UNL     1     -10.558  54.707  53.954  0.00  0.00    +0.000 HD
ENDBRANCH   8  13
BRANCH   5  27
ATOM     27  O   UNL     1      -8.823  53.832  49.856  0.00  0.00    +0.000 OA
ATOM     28  H   UNL     1      -8.078  53.980  50.404  0.00  0.00    +0.000 HD
ENDBRANCH   5  27
BRANCH   9  29
ATOM     29  C   UNL     1     -13.937  56.026  50.319  0.00  0.00    +0.000 C 
BRANCH  29  30
ATOM     30  C   UNL     1     -14.285  57.530  50.359  0.00  0.00    +0.000 C 
BRANCH  30  31
ATOM     31  C   UNL     1     -15.172  58.024  51.515  0.00  0.00    +0.000 C 
ATOM     32  C   UNL     1     -15.598  56.895  52.453  0.00  0.00    +0.000 C 
ATOM     33  C   UNL     1     -14.400  59.084  52.318  0.00  0.00    +0.000 C 
ENDBRANCH  30  31
ENDBRANCH  29  30
ENDBRANCH   9  29
TORSDOF 5
ENDMDL
MODEL 5
REMARK VINA RESULT:      -7.8      1.243      1.537
REMARK  Name = 338234
REMARK  7 active torsions:
REMARK  status: ('A' for Active; 'I' for Inactive)
REMARK    1  A    between atoms: C_5  and  O_8
REMARK    2  A    between atoms: C_9  and  C_13
REMARK    3  A    between atoms: N_10  and  C_14
REMARK    4  A    between atoms: C_14  and  C_18
REMARK    5  A    between atoms: C_18  and  C_21
REMARK    6  A    between atoms: C_21  and  C_26
REMARK    7  A    between atoms: C_21  and  C_27
REMARK                            x       y       z     vdW  Elec       q    Type
REMARK                         _______ _______ _______ _____ _____    ______ ____
ROOT
ATOM      1 BR   UNL     1      -9.821  53.844  45.942  0.00  0.00    +0.000 Br
ATOM      2  C   UNL     1      -9.434  53.557  47.791  0.00  0.00    +0.000 A 
ATOM      3  C   UNL     1      -9.972  54.306  48.863  0.00  0.00    +0.000 A 
ATOM      4  C   UNL     1      -8.592  52.471  48.030  0.00  0.00    +0.000 A 
ATOM      5  C   UNL     1     -10.981  55.367  48.700  0.00  0.00    +0.000 A 
ATOM      6  C   UNL     1      -9.621  53.953  50.186  0.00  0.00    +0.000 A 
ATOM      7  C   UNL     1      -8.284  52.108  49.331  0.00  0.00    +0.000 A 
ATOM      8  C   UNL     1     -11.790  55.710  49.717  0.00  0.00    +0.000 A 
ATOM      9  N   UNL     1     -10.161  54.686  51.291  0.00  0.00    +0.000 N 
ATOM     10  C   UNL     1      -8.796  52.840  50.397  0.00  0.00    +0.000 A 
ATOM     11  C   UNL     1     -11.312  55.452  51.115  0.00  0.00    +0.000 A 
ATOM     12  O   UNL     1     -11.923  55.967  52.056  0.00  0.00    +0.000 OA
ENDROOT
BRANCH   8  13
ATOM     13  C   UNL     1     -12.954  56.651  49.465  0.00  0.00    +0.000 C 
ATOM     14  N   UNL     1     -12.697  57.835  48.987  0.00  0.00    +0.000 N 
ATOM     15  N   UNL     1     -14.224  56.281  49.871  0.00  0.00    +0.000 N 
ATOM     16  S   UNL     1     -13.668  59.064  49.374  0.00  0.00    +0.000 S 
ATOM     17  C   UNL     1     -14.744  57.105  50.883  0.00  0.00    +0.000 A 
ATOM     18  O   UNL     1     -14.648  59.303  48.334  0.00  0.00    +0.000 OA
ATOM     19  O   UNL     1     -12.819  60.145  49.847  0.00  0.00    +0.000 OA
ATOM     20  C   UNL     1     -14.541  58.484  50.807  0.00  0.00    +0.000 A 
ATOM     21  C   UNL     1     -15.282  56.543  52.037  0.00  0.00    +0.000 A 
ATOM     22  C   UNL     1     -14.790  59.308  51.898  0.00  0.00    +0.000 A 
ATOM     23  C   UNL     1     -15.521  57.351  53.141  0.00  0.00    +0.000 A 
ATOM     24  C   UNL     1     -15.267  58.725  53.076  0.00  0.00    +0.000 A 
ATOM     25  H   UNL     1     -11.921  57.978  48.398  0.00  0.00    +0.000 HD
ATOM     26  H   UNL     1     -14.714  55.518  49.489  0.00  0.00    +0.000 HD
ENDBRANCH   8  13
BRANCH   5  27
ATOM     27  O   UNL     1     -11.075  56.001  47.481  0.00  0.00    +0.000 OA
ATOM     28  H   UNL     1     -11.889  56.010  47.018  0.00  0.00    +0.000 HD
ENDBRANCH   5  27
BRANCH   9  29
ATOM     29  C   UNL     1      -9.687  54.477  52.671  0.00  0.00    +0.000 C 
BRANCH  29  30
ATOM     30  C   UNL     1      -8.375  55.167  53.099  0.00  0.00    +0.000 C 
BRANCH  30  31
ATOM     31  C   UNL     1      -7.507  54.454  54.152  0.00  0.00    +0.000 C 
ATOM     32  C   UNL     1      -7.301  52.973  53.838  0.00  0.00    +0.000 C 
ATOM     33  C   UNL     1      -6.139  55.151  54.226  0.00  0.00    +0.000 C 
ENDBRANCH  30  31
ENDBRANCH  29  30
ENDBRANCH   9  29
TORSDOF 5
ENDMDL
MODEL 6
REMARK VINA RESULT:      -7.5      3.100      6.951
REMARK  Name = 338234
REMARK  7 active torsions:
REMARK  status: ('A' for Active; 'I' for Inactive)
REMARK    1  A    between atoms: C_5  and  O_8
REMARK    2  A    between atoms: C_9  and  C_13
REMARK    3  A    between atoms: N_10  and  C_14
REMARK    4  A    between atoms: C_14  and  C_18
REMARK    5  A    between atoms: C_18  and  C_21
REMARK    6  A    between atoms: C_21  and  C_26
REMARK    7  A    between atoms: C_21  and  C_27
REMARK                            x       y       z     vdW  Elec       q    Type
REMARK                         _______ _______ _______ _____ _____    ______ ____
ROOT
ATOM      1 BR   UNL     1     -11.216  54.253  45.932  0.00  0.00    +0.000 Br
ATOM      2  C   UNL     1     -12.026  55.288  47.318  0.00  0.00    +0.000 A 
ATOM      3  C   UNL     1     -11.823  55.095  48.704  0.00  0.00    +0.000 A 
ATOM      4  C   UNL     1     -12.822  56.334  46.851  0.00  0.00    +0.000 A 
ATOM      5  C   UNL     1     -10.882  54.112  49.269  0.00  0.00    +0.000 A 
ATOM      6  C   UNL     1     -12.465  55.966  49.615  0.00  0.00    +0.000 A 
ATOM      7  C   UNL     1     -13.415  57.205  47.749  0.00  0.00    +0.000 A 
ATOM      8  C   UNL     1     -10.377  54.274  50.503  0.00  0.00    +0.000 A 
ATOM      9  N   UNL     1     -12.267  55.802  51.023  0.00  0.00    +0.000 N 
ATOM     10  C   UNL     1     -13.235  57.025  49.116  0.00  0.00    +0.000 A 
ATOM     11  C   UNL     1     -11.165  55.086  51.487  0.00  0.00    +0.000 A 
ATOM     12  O   UNL     1     -10.843  55.051  52.679  0.00  0.00    +0.000 OA
ENDROOT
BRANCH   8  13
ATOM     13  C   UNL     1      -9.256  53.368  50.979  0.00  0.00    +0.000 C 
ATOM     14  N   UNL     1      -9.574  52.271  51.605  0.00  0.00    +0.000 N 
ATOM     15  N   UNL     1      -7.944  53.791  50.857  0.00  0.00    +0.000 N 
ATOM     16  S   UNL     1      -8.568  51.686  52.723  0.00  0.00    +0.000 S 
ATOM     17  C   UNL     1      -7.307  53.986  52.094  0.00  0.00    +0.000 A 
ATOM     18  O   UNL     1      -7.723  50.645  52.172  0.00  0.00    +0.000 OA
ATOM     19  O   UNL     1      -9.357  51.437  53.917  0.00  0.00    +0.000 OA
ATOM     20  C   UNL     1      -7.524  53.065  53.121  0.00  0.00    +0.000 A 
ATOM     21  C   UNL     1      -6.630  55.173  52.355  0.00  0.00    +0.000 A 
ATOM     22  C   UNL     1      -7.146  53.347  54.429  0.00  0.00    +0.000 A 
ATOM     23  C   UNL     1      -6.261  55.475  53.659  0.00  0.00    +0.000 A 
ATOM     24  C   UNL     1      -6.526  54.571  54.693  0.00  0.00    +0.000 A 
ATOM     25  H   UNL     1     -10.417  51.805  51.399  0.00  0.00    +0.000 HD
ATOM     26  H   UNL     1      -7.501  53.941  49.991  0.00  0.00    +0.000 HD
ENDBRANCH   8  13
BRANCH   5  27
ATOM     27  O   UNL     1     -10.536  53.021  48.503  0.00  0.00    +0.000 OA
ATOM     28  H   UNL     1      -9.852  52.447  48.787  0.00  0.00    +0.000 HD
ENDBRANCH   5  27
BRANCH   9  29
ATOM     29  C   UNL     1     -13.050  56.562  52.014  0.00  0.00    +0.000 C 
BRANCH  29  30
ATOM     30  C   UNL     1     -14.590  56.480  51.937  0.00  0.00    +0.000 C 
BRANCH  30  31
ATOM     31  C   UNL     1     -15.389  57.742  52.310  0.00  0.00    +0.000 C 
ATOM     32  C   UNL     1     -15.103  58.218  53.734  0.00  0.00    +0.000 C 
ATOM     33  C   UNL     1     -15.038  58.865  51.320  0.00  0.00    +0.000 C 
ENDBRANCH  30  31
ENDBRANCH  29  30
ENDBRANCH   9  29
TORSDOF 5
ENDMDL
MODEL 7
REMARK VINA RESULT:      -7.4      3.513      7.146
REMARK  Name = 338234
REMARK  7 active torsions:
REMARK  status: ('A' for Active; 'I' for Inactive)
REMARK    1  A    between atoms: C_5  and  O_8
REMARK    2  A    between atoms: C_9  and  C_13
REMARK    3  A    between atoms: N_10  and  C_14
REMARK    4  A    between atoms: C_14  and  C_18
REMARK    5  A    between atoms: C_18  and  C_21
REMARK    6  A    between atoms: C_21  and  C_26
REMARK    7  A    between atoms: C_21  and  C_27
REMARK                            x       y       z     vdW  Elec       q    Type
REMARK                         _______ _______ _______ _____ _____    ______ ____
ROOT
ATOM      1 BR   UNL     1     -13.597  56.825  52.247  0.00  0.00    +0.000 Br
ATOM      2  C   UNL     1     -13.287  56.651  50.371  0.00  0.00    +0.000 A 
ATOM      3  C   UNL     1     -12.247  55.895  49.782  0.00  0.00    +0.000 A 
ATOM      4  C   UNL     1     -14.234  57.301  49.579  0.00  0.00    +0.000 A 
ATOM      5  C   UNL     1     -11.302  55.062  50.546  0.00  0.00    +0.000 A 
ATOM      6  C   UNL     1     -12.165  55.831  48.372  0.00  0.00    +0.000 A 
ATOM      7  C   UNL     1     -14.168  57.200  48.199  0.00  0.00    +0.000 A 
ATOM      8  C   UNL     1     -10.667  54.031  49.964  0.00  0.00    +0.000 A 
ATOM      9  N   UNL     1     -11.129  55.062  47.750  0.00  0.00    +0.000 N 
ATOM     10  C   UNL     1     -13.146  56.470  47.603  0.00  0.00    +0.000 A 
ATOM     11  C   UNL     1     -10.470  54.073  48.478  0.00  0.00    +0.000 A 
ATOM     12  O   UNL     1      -9.694  53.266  47.958  0.00  0.00    +0.000 OA
ENDROOT
BRANCH   8  13
ATOM     13  C   UNL     1      -9.866  53.065  50.817  0.00  0.00    +0.000 C 
ATOM     14  N   UNL     1     -10.476  52.449  51.789  0.00  0.00    +0.000 N 
ATOM     15  N   UNL     1      -8.499  52.967  50.628  0.00  0.00    +0.000 N 
ATOM     16  S   UNL     1      -9.638  52.041  53.106  0.00  0.00    +0.000 S 
ATOM     17  C   UNL     1      -7.754  53.399  51.737  0.00  0.00    +0.000 A 
ATOM     18  O   UNL     1      -9.209  50.658  53.044  0.00  0.00    +0.000 OA
ATOM     19  O   UNL     1     -10.385  52.528  54.254  0.00  0.00    +0.000 OA
ATOM     20  C   UNL     1      -8.184  53.056  53.020  0.00  0.00    +0.000 A 
ATOM     21  C   UNL     1      -6.717  54.313  51.572  0.00  0.00    +0.000 A 
ATOM     22  C   UNL     1      -7.652  53.673  54.145  0.00  0.00    +0.000 A 
ATOM     23  C   UNL     1      -6.185  54.950  52.686  0.00  0.00    +0.000 A 
ATOM     24  C   UNL     1      -6.657  54.639  53.966  0.00  0.00    +0.000 A 
ATOM     25  H   UNL     1     -11.435  52.236  51.721  0.00  0.00    +0.000 HD
ATOM     26  H   UNL     1      -8.089  52.628  49.799  0.00  0.00    +0.000 HD
ENDBRANCH   8  13
BRANCH   5  27
ATOM     27  O   UNL     1     -11.082  55.367  51.871  0.00  0.00    +0.000 OA
ATOM     28  H   UNL     1     -11.800  55.613  52.421  0.00  0.00    +0.000 HD
ENDBRANCH   5  27
BRANCH   9  29
ATOM     29  C   UNL     1     -10.891  55.109  46.296  0.00  0.00    +0.000 C 
BRANCH  29  30
ATOM     30  C   UNL     1     -11.722  54.172  45.395  0.00  0.00    +0.000 C 
BRANCH  30  31
ATOM     31  C   UNL     1     -10.958  53.145  44.541  0.00  0.00    +0.000 C 
ATOM     32  C   UNL     1      -9.449  53.388  44.539  0.00  0.00    +0.000 C 
ATOM     33  C   UNL     1     -11.243  51.734  45.082  0.00  0.00    +0.000 C 
ENDBRANCH  30  31
ENDBRANCH  29  30
ENDBRANCH   9  29
TORSDOF 5
ENDMDL
MODEL 8
REMARK VINA RESULT:      -7.4      3.193      6.801
REMARK  Name = 338234
REMARK  7 active torsions:
REMARK  status: ('A' for Active; 'I' for Inactive)
REMARK    1  A    between atoms: C_5  and  O_8
REMARK    2  A    between atoms: C_9  and  C_13
REMARK    3  A    between atoms: N_10  and  C_14
REMARK    4  A    between atoms: C_14  and  C_18
REMARK    5  A    between atoms: C_18  and  C_21
REMARK    6  A    between atoms: C_21  and  C_26
REMARK    7  A    between atoms: C_21  and  C_27
REMARK                            x       y       z     vdW  Elec       q    Type
REMARK                         _______ _______ _______ _____ _____    ______ ____
ROOT
ATOM      1 BR   UNL     1     -14.041  57.863  47.791  0.00  0.00    +0.000 Br
ATOM      2  C   UNL     1     -13.484  57.059  49.432  0.00  0.00    +0.000 A 
ATOM      3  C   UNL     1     -12.437  56.117  49.564  0.00  0.00    +0.000 A 
ATOM      4  C   UNL     1     -14.170  57.526  50.552  0.00  0.00    +0.000 A 
ATOM      5  C   UNL     1     -11.570  55.689  48.453  0.00  0.00    +0.000 A 
ATOM      6  C   UNL     1     -12.113  55.634  50.853  0.00  0.00    +0.000 A 
ATOM      7  C   UNL     1     -13.820  57.077  51.815  0.00  0.00    +0.000 A 
ATOM      8  C   UNL     1     -10.344  55.192  48.688  0.00  0.00    +0.000 A 
ATOM      9  N   UNL     1     -11.050  54.690  51.018  0.00  0.00    +0.000 N 
ATOM     10  C   UNL     1     -12.800  56.144  51.963  0.00  0.00    +0.000 A 
ATOM     11  C   UNL     1     -10.086  54.554  50.020  0.00  0.00    +0.000 A 
ATOM     12  O   UNL     1      -9.057  53.889  50.171  0.00  0.00    +0.000 OA
ENDROOT
BRANCH   8  13
ATOM     13  C   UNL     1      -9.395  54.957  47.527  0.00  0.00    +0.000 C 
ATOM     14  N   UNL     1      -9.752  54.116  46.600  0.00  0.00    +0.000 N 
ATOM     15  N   UNL     1      -8.136  55.531  47.554  0.00  0.00    +0.000 N 
ATOM     16  S   UNL     1      -8.613  53.286  45.813  0.00  0.00    +0.000 S 
ATOM     17  C   UNL     1      -7.098  54.587  47.625  0.00  0.00    +0.000 A 
ATOM     18  O   UNL     1      -8.290  53.915  44.548  0.00  0.00    +0.000 OA
ATOM     19  O   UNL     1      -8.997  51.885  45.861  0.00  0.00    +0.000 OA
ATOM     20  C   UNL     1      -7.185  53.424  46.859  0.00  0.00    +0.000 A 
ATOM     21  C   UNL     1      -6.097  54.716  48.583  0.00  0.00    +0.000 A 
ATOM     22  C   UNL     1      -6.338  52.347  47.089  0.00  0.00    +0.000 A 
ATOM     23  C   UNL     1      -5.253  53.643  48.836  0.00  0.00    +0.000 A 
ATOM     24  C   UNL     1      -5.378  52.460  48.100  0.00  0.00    +0.000 A 
ATOM     25  H   UNL     1     -10.704  53.987  46.382  0.00  0.00    +0.000 HD
ATOM     26  H   UNL     1      -7.983  56.504  47.527  0.00  0.00    +0.000 HD
ENDBRANCH   8  13
BRANCH   5  27
ATOM     27  O   UNL     1     -12.048  55.807  47.166  0.00  0.00    +0.000 OA
ATOM     28  H   UNL     1     -12.738  55.248  46.869  0.00  0.00    +0.000 HD
ENDBRANCH   5  27
BRANCH   9  29
ATOM     29  C   UNL     1     -10.793  54.023  52.307  0.00  0.00    +0.000 C 
BRANCH  29  30
ATOM     30  C   UNL     1      -9.928  54.765  53.348  0.00  0.00    +0.000 C 
BRANCH  30  31
ATOM     31  C   UNL     1      -8.404  54.560  53.281  0.00  0.00    +0.000 C 
ATOM     32  C   UNL     1      -7.644  55.502  54.215  0.00  0.00    +0.000 C 
ATOM     33  C   UNL     1      -8.079  53.105  53.654  0.00  0.00    +0.000 C 
ENDBRANCH  30  31
ENDBRANCH  29  30
ENDBRANCH   9  29
TORSDOF 5
ENDMDL
MODEL 9
REMARK VINA RESULT:      -7.3      3.664      7.202
REMARK  Name = 338234
REMARK  7 active torsions:
REMARK  status: ('A' for Active; 'I' for Inactive)
REMARK    1  A    between atoms: C_5  and  O_8
REMARK    2  A    between atoms: C_9  and  C_13
REMARK    3  A    between atoms: N_10  and  C_14
REMARK    4  A    between atoms: C_14  and  C_18
REMARK    5  A    between atoms: C_18  and  C_21
REMARK    6  A    between atoms: C_21  and  C_26
REMARK    7  A    between atoms: C_21  and  C_27
REMARK                            x       y       z     vdW  Elec       q    Type
REMARK                         _______ _______ _______ _____ _____    ______ ____
ROOT
ATOM      1 BR   UNL     1     -14.462  57.745  52.225  0.00  0.00    +0.000 Br
ATOM      2  C   UNL     1     -13.766  57.428  50.475  0.00  0.00    +0.000 A 
ATOM      3  C   UNL     1     -12.777  56.470  50.151  0.00  0.00    +0.000 A 
ATOM      4  C   UNL     1     -14.365  58.198  49.479  0.00  0.00    +0.000 A 
ATOM      5  C   UNL     1     -12.206  55.517  51.120  0.00  0.00    +0.000 A 
ATOM      6  C   UNL     1     -12.385  56.323  48.801  0.00  0.00    +0.000 A 
ATOM      7  C   UNL     1     -14.003  58.021  48.155  0.00  0.00    +0.000 A 
ATOM      8  C   UNL     1     -11.658  54.362  50.709  0.00  0.00    +0.000 A 
ATOM      9  N   UNL     1     -11.396  55.352  48.444  0.00  0.00    +0.000 N 
ATOM     10  C   UNL     1     -13.025  57.091  47.819  0.00  0.00    +0.000 A 
ATOM     11  C   UNL     1     -11.119  54.297  49.311  0.00  0.00    +0.000 A 
ATOM     12  O   UNL     1     -10.408  53.338  48.993  0.00  0.00    +0.000 OA
ENDROOT
BRANCH   8  13
ATOM     13  C   UNL     1     -11.270  53.309  51.731  0.00  0.00    +0.000 C 
ATOM     14  N   UNL     1     -10.389  53.625  52.636  0.00  0.00    +0.000 N 
ATOM     15  N   UNL     1     -11.754  52.021  51.595  0.00  0.00    +0.000 N 
ATOM     16  S   UNL     1      -9.424  52.474  53.227  0.00  0.00    +0.000 S 
ATOM     17  C   UNL     1     -10.747  51.075  51.340  0.00  0.00    +0.000 A 
ATOM     18  O   UNL     1      -9.932  51.962  54.484  0.00  0.00    +0.000 OA
ATOM     19  O   UNL     1      -8.062  52.970  53.132  0.00  0.00    +0.000 OA
ATOM     20  C   UNL     1      -9.539  51.166  52.032  0.00  0.00    +0.000 A 
ATOM     21  C   UNL     1     -10.877  50.181  50.281  0.00  0.00    +0.000 A 
ATOM     22  C   UNL     1      -8.425  50.438  51.632  0.00  0.00    +0.000 A 
ATOM     23  C   UNL     1      -9.768  49.458  49.859  0.00  0.00    +0.000 A 
ATOM     24  C   UNL     1      -8.546  49.592  50.525  0.00  0.00    +0.000 A 
ATOM     25  H   UNL     1     -10.311  54.554  52.956  0.00  0.00    +0.000 HD
ATOM     26  H   UNL     1     -12.709  51.790  51.668  0.00  0.00    +0.000 HD
ENDBRANCH   8  13
BRANCH   5  27
ATOM     27  O   UNL     1     -12.245  55.841  52.458  0.00  0.00    +0.000 OA
ATOM     28  H   UNL     1     -12.524  55.205  53.087  0.00  0.00    +0.000 HD
ENDBRANCH   5  27
BRANCH   9  29
ATOM     29  C   UNL     1     -10.823  55.285  47.087  0.00  0.00    +0.000 C 
BRANCH  29  30
ATOM     30  C   UNL     1     -11.720  54.754  45.948  0.00  0.00    +0.000 C 
BRANCH  30  31
ATOM     31  C   UNL     1     -11.297  53.442  45.264  0.00  0.00    +0.000 C 
ATOM     32  C   UNL     1      -9.785  53.223  45.297  0.00  0.00    +0.000 C 
ATOM     33  C   UNL     1     -11.995  52.266  45.965  0.00  0.00    +0.000 C 
ENDBRANCH  30  31
ENDBRANCH  29  30
ENDBRANCH   9  29
TORSDOF 5
ENDMDL
