MODEL 1
REMARK VINA RESULT:      -7.7      0.000      0.000
REMARK  Name = 338631
REMARK  7 active torsions:
REMARK  status: ('A' for Active; 'I' for Inactive)
REMARK    1  A    between atoms: C_6  and  C_10
REMARK    2  A    between atoms: C_14  and  O_18
REMARK    3  A    between atoms: N_17  and  C_21
REMARK    4  A    between atoms: C_21  and  C_24
REMARK    5  A    between atoms: C_24  and  C_27
REMARK    6  A    between atoms: C_27  and  C_28
REMARK    7  A    between atoms: C_28  and  C_29
REMARK                            x       y       z     vdW  Elec       q    Type
REMARK                         _______ _______ _______ _____ _____    ______ ____
ROOT
ATOM      1  C   UNL     1     -10.163  54.563  52.094  0.00  0.00    +0.000 A 
ATOM      2  C   UNL     1      -8.782  55.101  51.909  0.00  0.00    +0.000 A 
ATOM      3  C   UNL     1     -10.366  53.458  52.832  0.00  0.00    +0.000 A 
ATOM      4  O   UNL     1      -8.645  56.169  51.306  0.00  0.00    +0.000 OA
ATOM      5  N   UNL     1      -7.713  54.396  52.448  0.00  0.00    +0.000 N 
ATOM      6  C   UNL     1      -9.235  52.778  53.476  0.00  0.00    +0.000 A 
ATOM      7  C   UNL     1      -7.929  53.269  53.301  0.00  0.00    +0.000 A 
ATOM      8  C   UNL     1      -9.452  51.664  54.305  0.00  0.00    +0.000 A 
ATOM      9  C   UNL     1      -6.882  52.658  54.008  0.00  0.00    +0.000 A 
ATOM     10  C   UNL     1      -8.398  51.065  54.990  0.00  0.00    +0.000 A 
ATOM     11  C   UNL     1      -7.114  51.567  54.845  0.00  0.00    +0.000 A 
ENDROOT
BRANCH   1  17
ATOM     12  S   UNL     1     -12.580  56.232  49.490  0.00  0.00    +0.000 S 
ATOM     13  O   UNL     1     -13.478  55.267  48.884  0.00  0.00    +0.000 OA
ATOM     14  O   UNL     1     -11.966  57.269  48.689  0.00  0.00    +0.000 OA
ATOM     15  N   UNL     1     -11.400  55.404  50.225  0.00  0.00    +0.000 N 
ATOM     16  C   UNL     1     -13.518  57.059  50.723  0.00  0.00    +0.000 A 
ATOM     17  C   UNL     1     -11.333  55.332  51.521  0.00  0.00    +0.000 C 
ATOM     18  C   UNL     1     -13.214  56.805  52.050  0.00  0.00    +0.000 A 
ATOM     19  C   UNL     1     -14.522  57.954  50.349  0.00  0.00    +0.000 A 
ATOM     20  N   UNL     1     -12.227  55.889  52.406  0.00  0.00    +0.000 N 
ATOM     21  C   UNL     1     -13.984  57.427  53.036  0.00  0.00    +0.000 A 
ATOM     22  C   UNL     1     -15.263  58.590  51.344  0.00  0.00    +0.000 A 
ATOM     23  C   UNL     1     -14.999  58.320  52.685  0.00  0.00    +0.000 A 
ATOM     24  H   UNL     1     -10.719  54.945  49.680  0.00  0.00    +0.000 HD
ATOM     25  H   UNL     1     -12.164  55.625  53.352  0.00  0.00    +0.000 HD
ENDBRANCH   1  17
BRANCH   3  26
ATOM     26  O   UNL     1     -11.611  52.920  53.109  0.00  0.00    +0.000 OA
ATOM     27  H   UNL     1     -11.722  52.347  53.842  0.00  0.00    +0.000 HD
ENDBRANCH   3  26
BRANCH   5  28
ATOM     28  C   UNL     1      -6.365  54.927  52.221  0.00  0.00    +0.000 C 
BRANCH  28  29
ATOM     29  C   UNL     1      -5.654  54.390  50.973  0.00  0.00    +0.000 C 
BRANCH  29  30
ATOM     30  C   UNL     1      -5.765  55.285  49.740  0.00  0.00    +0.000 C 
BRANCH  30  31
ATOM     31  C   UNL     1      -6.418  54.498  48.602  0.00  0.00    +0.000 C 
BRANCH  31  32
ATOM     32  C   UNL     1      -7.757  55.006  48.295  0.00  0.00    +0.000 C 
ATOM     33  N   UNL     1      -8.816  55.418  48.052  0.00  0.00    +0.000 NA
ENDBRANCH  31  32
ENDBRANCH  30  31
ENDBRANCH  29  30
ENDBRANCH  28  29
ENDBRANCH   5  28
TORSDOF 7
ENDMDL
MODEL 2
REMARK VINA RESULT:      -7.5      2.548      7.595
REMARK  Name = 338631
REMARK  7 active torsions:
REMARK  status: ('A' for Active; 'I' for Inactive)
REMARK    1  A    between atoms: C_6  and  C_10
REMARK    2  A    between atoms: C_14  and  O_18
REMARK    3  A    between atoms: N_17  and  C_21
REMARK    4  A    between atoms: C_21  and  C_24
REMARK    5  A    between atoms: C_24  and  C_27
REMARK    6  A    between atoms: C_27  and  C_28
REMARK    7  A    between atoms: C_28  and  C_29
REMARK                            x       y       z     vdW  Elec       q    Type
REMARK                         _______ _______ _______ _____ _____    ______ ____
ROOT
ATOM      1  C   UNL     1     -10.406  55.034  51.084  0.00  0.00    +0.000 A 
ATOM      2  C   UNL     1     -11.658  55.575  51.691  0.00  0.00    +0.000 A 
ATOM      3  C   UNL     1     -10.261  55.000  49.748  0.00  0.00    +0.000 A 
ATOM      4  O   UNL     1     -11.717  55.678  52.920  0.00  0.00    +0.000 OA
ATOM      5  N   UNL     1     -12.692  55.969  50.851  0.00  0.00    +0.000 N 
ATOM      6  C   UNL     1     -11.324  55.511  48.874  0.00  0.00    +0.000 A 
ATOM      7  C   UNL     1     -12.512  56.014  49.433  0.00  0.00    +0.000 A 
ATOM      8  C   UNL     1     -11.147  55.542  47.480  0.00  0.00    +0.000 A 
ATOM      9  C   UNL     1     -13.468  56.585  48.578  0.00  0.00    +0.000 A 
ATOM     10  C   UNL     1     -12.111  56.104  46.647  0.00  0.00    +0.000 A 
ATOM     11  C   UNL     1     -13.269  56.631  47.199  0.00  0.00    +0.000 A 
ENDROOT
BRANCH   1  17
ATOM     12  S   UNL     1      -6.868  54.914  52.780  0.00  0.00    +0.000 S 
ATOM     13  O   UNL     1      -6.710  55.948  53.785  0.00  0.00    +0.000 OA
ATOM     14  O   UNL     1      -5.784  54.599  51.874  0.00  0.00    +0.000 OA
ATOM     15  N   UNL     1      -8.168  55.291  51.893  0.00  0.00    +0.000 N 
ATOM     16  C   UNL     1      -7.215  53.433  53.658  0.00  0.00    +0.000 A 
ATOM     17  C   UNL     1      -9.271  54.613  51.992  0.00  0.00    +0.000 C 
ATOM     18  C   UNL     1      -8.495  52.910  53.569  0.00  0.00    +0.000 A 
ATOM     19  C   UNL     1      -6.210  52.813  54.401  0.00  0.00    +0.000 A 
ATOM     20  N   UNL     1      -9.493  53.556  52.844  0.00  0.00    +0.000 N 
ATOM     21  C   UNL     1      -8.790  51.756  54.298  0.00  0.00    +0.000 A 
ATOM     22  C   UNL     1      -6.511  51.646  55.101  0.00  0.00    +0.000 A 
ATOM     23  C   UNL     1      -7.801  51.123  55.055  0.00  0.00    +0.000 A 
ATOM     24  H   UNL     1      -8.122  56.051  51.267  0.00  0.00    +0.000 HD
ATOM     25  H   UNL     1     -10.418  53.234  52.947  0.00  0.00    +0.000 HD
ENDBRANCH   1  17
BRANCH   3  26
ATOM     26  O   UNL     1      -9.117  54.573  49.095  0.00  0.00    +0.000 OA
ATOM     27  H   UNL     1      -9.114  53.753  48.641  0.00  0.00    +0.000 HD
ENDBRANCH   3  26
BRANCH   5  28
ATOM     28  C   UNL     1     -13.924  56.464  51.474  0.00  0.00    +0.000 C 
BRANCH  28  29
ATOM     29  C   UNL     1     -13.778  57.772  52.260  0.00  0.00    +0.000 C 
BRANCH  29  30
ATOM     30  C   UNL     1     -14.965  58.727  52.137  0.00  0.00    +0.000 C 
BRANCH  30  31
ATOM     31  C   UNL     1     -15.137  59.131  50.671  0.00  0.00    +0.000 C 
BRANCH  31  32
ATOM     32  C   UNL     1     -13.997  59.917  50.192  0.00  0.00    +0.000 C 
ATOM     33  N   UNL     1     -13.089  60.539  49.819  0.00  0.00    +0.000 NA
ENDBRANCH  31  32
ENDBRANCH  30  31
ENDBRANCH  29  30
ENDBRANCH  28  29
ENDBRANCH   5  28
TORSDOF 7
ENDMDL
MODEL 3
REMARK VINA RESULT:      -7.5      3.094      4.137
REMARK  Name = 338631
REMARK  7 active torsions:
REMARK  status: ('A' for Active; 'I' for Inactive)
REMARK    1  A    between atoms: C_6  and  C_10
REMARK    2  A    between atoms: C_14  and  O_18
REMARK    3  A    between atoms: N_17  and  C_21
REMARK    4  A    between atoms: C_21  and  C_24
REMARK    5  A    between atoms: C_24  and  C_27
REMARK    6  A    between atoms: C_27  and  C_28
REMARK    7  A    between atoms: C_28  and  C_29
REMARK                            x       y       z     vdW  Elec       q    Type
REMARK                         _______ _______ _______ _____ _____    ______ ____
ROOT
ATOM      1  C   UNL     1     -12.450  54.328  49.683  0.00  0.00    +0.000 A 
ATOM      2  C   UNL     1     -11.982  54.232  48.268  0.00  0.00    +0.000 A 
ATOM      3  C   UNL     1     -12.072  53.405  50.585  0.00  0.00    +0.000 A 
ATOM      4  O   UNL     1     -12.271  55.148  47.492  0.00  0.00    +0.000 OA
ATOM      5  N   UNL     1     -11.216  53.136  47.890  0.00  0.00    +0.000 N 
ATOM      6  C   UNL     1     -11.183  52.305  50.192  0.00  0.00    +0.000 A 
ATOM      7  C   UNL     1     -10.743  52.199  48.860  0.00  0.00    +0.000 A 
ATOM      8  C   UNL     1     -10.730  51.379  51.147  0.00  0.00    +0.000 A 
ATOM      9  C   UNL     1      -9.816  51.195  48.537  0.00  0.00    +0.000 A 
ATOM     10  C   UNL     1      -9.818  50.384  50.804  0.00  0.00    +0.000 A 
ATOM     11  C   UNL     1      -9.357  50.297  49.499  0.00  0.00    +0.000 A 
ENDROOT
BRANCH   1  17
ATOM     12  S   UNL     1     -15.376  56.463  51.194  0.00  0.00    +0.000 S 
ATOM     13  O   UNL     1     -15.287  56.565  52.639  0.00  0.00    +0.000 OA
ATOM     14  O   UNL     1     -16.655  56.260  50.550  0.00  0.00    +0.000 OA
ATOM     15  N   UNL     1     -14.385  55.272  50.728  0.00  0.00    +0.000 N 
ATOM     16  C   UNL     1     -14.747  57.977  50.563  0.00  0.00    +0.000 A 
ATOM     17  C   UNL     1     -13.274  55.524  50.105  0.00  0.00    +0.000 C 
ATOM     18  C   UNL     1     -13.523  57.951  49.913  0.00  0.00    +0.000 A 
ATOM     19  C   UNL     1     -15.485  59.152  50.709  0.00  0.00    +0.000 A 
ATOM     20  N   UNL     1     -12.787  56.775  49.799  0.00  0.00    +0.000 N 
ATOM     21  C   UNL     1     -12.997  59.158  49.445  0.00  0.00    +0.000 A 
ATOM     22  C   UNL     1     -14.961  60.344  50.212  0.00  0.00    +0.000 A 
ATOM     23  C   UNL     1     -13.716  60.347  49.588  0.00  0.00    +0.000 A 
ATOM     24  H   UNL     1     -14.630  54.337  50.921  0.00  0.00    +0.000 HD
ATOM     25  H   UNL     1     -11.859  56.842  49.478  0.00  0.00    +0.000 HD
ENDBRANCH   1  17
BRANCH   3  26
ATOM     26  O   UNL     1     -12.405  53.441  51.928  0.00  0.00    +0.000 OA
ATOM     27  H   UNL     1     -11.731  53.426  52.579  0.00  0.00    +0.000 HD
ENDBRANCH   3  26
BRANCH   5  28
ATOM     28  C   UNL     1     -10.800  53.049  46.486  0.00  0.00    +0.000 C 
BRANCH  28  29
ATOM     29  C   UNL     1      -9.359  53.489  46.205  0.00  0.00    +0.000 C 
BRANCH  29  30
ATOM     30  C   UNL     1      -9.084  54.972  46.448  0.00  0.00    +0.000 C 
BRANCH  30  31
ATOM     31  C   UNL     1      -8.275  55.130  47.737  0.00  0.00    +0.000 C 
BRANCH  31  32
ATOM     32  C   UNL     1      -8.986  55.946  48.724  0.00  0.00    +0.000 C 
ATOM     33  N   UNL     1      -9.547  56.589  49.513  0.00  0.00    +0.000 NA
ENDBRANCH  31  32
ENDBRANCH  30  31
ENDBRANCH  29  30
ENDBRANCH  28  29
ENDBRANCH   5  28
TORSDOF 7
ENDMDL
MODEL 4
REMARK VINA RESULT:      -7.3      2.482      4.932
REMARK  Name = 338631
REMARK  7 active torsions:
REMARK  status: ('A' for Active; 'I' for Inactive)
REMARK    1  A    between atoms: C_6  and  C_10
REMARK    2  A    between atoms: C_14  and  O_18
REMARK    3  A    between atoms: N_17  and  C_21
REMARK    4  A    between atoms: C_21  and  C_24
REMARK    5  A    between atoms: C_24  and  C_27
REMARK    6  A    between atoms: C_27  and  C_28
REMARK    7  A    between atoms: C_28  and  C_29
REMARK                            x       y       z     vdW  Elec       q    Type
REMARK                         _______ _______ _______ _____ _____    ______ ____
ROOT
ATOM      1  C   UNL     1     -11.438  56.087  48.820  0.00  0.00    +0.000 A 
ATOM      2  C   UNL     1     -10.359  55.500  49.671  0.00  0.00    +0.000 A 
ATOM      3  C   UNL     1     -11.569  55.708  47.537  0.00  0.00    +0.000 A 
ATOM      4  O   UNL     1     -10.329  55.800  50.868  0.00  0.00    +0.000 OA
ATOM      5  N   UNL     1      -9.456  54.619  49.090  0.00  0.00    +0.000 N 
ATOM      6  C   UNL     1     -10.666  54.703  46.964  0.00  0.00    +0.000 A 
ATOM      7  C   UNL     1      -9.641  54.150  47.753  0.00  0.00    +0.000 A 
ATOM      8  C   UNL     1     -10.844  54.254  45.644  0.00  0.00    +0.000 A 
ATOM      9  C   UNL     1      -8.856  53.120  47.209  0.00  0.00    +0.000 A 
ATOM     10  C   UNL     1     -10.049  53.238  45.120  0.00  0.00    +0.000 A 
ATOM     11  C   UNL     1      -9.059  52.668  45.905  0.00  0.00    +0.000 A 
ENDROOT
BRANCH   1  17
ATOM     12  S   UNL     1     -13.562  59.321  49.480  0.00  0.00    +0.000 S 
ATOM     13  O   UNL     1     -14.695  59.422  48.579  0.00  0.00    +0.000 OA
ATOM     14  O   UNL     1     -12.778  60.491  49.808  0.00  0.00    +0.000 OA
ATOM     15  N   UNL     1     -12.562  58.199  48.880  0.00  0.00    +0.000 N 
ATOM     16  C   UNL     1     -14.205  58.723  51.001  0.00  0.00    +0.000 A 
ATOM     17  C   UNL     1     -12.432  57.038  49.448  0.00  0.00    +0.000 C 
ATOM     18  C   UNL     1     -13.886  57.428  51.378  0.00  0.00    +0.000 A 
ATOM     19  C   UNL     1     -14.997  59.553  51.797  0.00  0.00    +0.000 A 
ATOM     20  N   UNL     1     -13.116  56.604  50.561  0.00  0.00    +0.000 N 
ATOM     21  C   UNL     1     -14.428  56.931  52.566  0.00  0.00    +0.000 A 
ATOM     22  C   UNL     1     -15.508  59.054  52.993  0.00  0.00    +0.000 A 
ATOM     23  C   UNL     1     -15.229  57.743  53.373  0.00  0.00    +0.000 A 
ATOM     24  H   UNL     1     -12.041  58.401  48.068  0.00  0.00    +0.000 HD
ATOM     25  H   UNL     1     -13.057  55.650  50.795  0.00  0.00    +0.000 HD
ENDBRANCH   1  17
BRANCH   3  26
ATOM     26  O   UNL     1     -12.570  56.150  46.690  0.00  0.00    +0.000 OA
ATOM     27  H   UNL     1     -12.691  57.068  46.544  0.00  0.00    +0.000 HD
ENDBRANCH   3  26
BRANCH   5  28
ATOM     28  C   UNL     1      -8.386  54.085  49.939  0.00  0.00    +0.000 C 
BRANCH  28  29
ATOM     29  C   UNL     1      -7.129  54.958  50.030  0.00  0.00    +0.000 C 
BRANCH  29  30
ATOM     30  C   UNL     1      -6.365  54.842  51.349  0.00  0.00    +0.000 C 
BRANCH  30  31
ATOM     31  C   UNL     1      -7.155  55.547  52.453  0.00  0.00    +0.000 C 
BRANCH  31  32
ATOM     32  C   UNL     1      -6.717  55.122  53.784  0.00  0.00    +0.000 C 
ATOM     33  N   UNL     1      -6.363  54.781  54.837  0.00  0.00    +0.000 NA
ENDBRANCH  31  32
ENDBRANCH  30  31
ENDBRANCH  29  30
ENDBRANCH  28  29
ENDBRANCH   5  28
TORSDOF 7
ENDMDL
MODEL 5
REMARK VINA RESULT:      -7.3      2.835      6.908
REMARK  Name = 338631
REMARK  7 active torsions:
REMARK  status: ('A' for Active; 'I' for Inactive)
REMARK    1  A    between atoms: C_6  and  C_10
REMARK    2  A    between atoms: C_14  and  O_18
REMARK    3  A    between atoms: N_17  and  C_21
REMARK    4  A    between atoms: C_21  and  C_24
REMARK    5  A    between atoms: C_24  and  C_27
REMARK    6  A    between atoms: C_27  and  C_28
REMARK    7  A    between atoms: C_28  and  C_29
REMARK                            x       y       z     vdW  Elec       q    Type
REMARK                         _______ _______ _______ _____ _____    ______ ____
ROOT
ATOM      1  C   UNL     1     -10.201  55.198  50.753  0.00  0.00    +0.000 A 
ATOM      2  C   UNL     1      -9.771  55.124  49.325  0.00  0.00    +0.000 A 
ATOM      3  C   UNL     1     -11.413  55.685  51.071  0.00  0.00    +0.000 A 
ATOM      4  O   UNL     1      -8.691  54.584  49.065  0.00  0.00    +0.000 OA
ATOM      5  N   UNL     1     -10.613  55.637  48.346  0.00  0.00    +0.000 N 
ATOM      6  C   UNL     1     -12.331  56.134  50.017  0.00  0.00    +0.000 A 
ATOM      7  C   UNL     1     -11.934  56.078  48.669  0.00  0.00    +0.000 A 
ATOM      8  C   UNL     1     -13.625  56.578  50.341  0.00  0.00    +0.000 A 
ATOM      9  C   UNL     1     -12.868  56.421  47.679  0.00  0.00    +0.000 A 
ATOM     10  C   UNL     1     -14.534  56.923  49.345  0.00  0.00    +0.000 A 
ATOM     11  C   UNL     1     -14.156  56.838  48.013  0.00  0.00    +0.000 A 
ENDROOT
BRANCH   1  17
ATOM     12  S   UNL     1      -7.059  54.662  53.045  0.00  0.00    +0.000 S 
ATOM     13  O   UNL     1      -6.999  55.633  54.122  0.00  0.00    +0.000 OA
ATOM     14  O   UNL     1      -5.860  54.282  52.331  0.00  0.00    +0.000 OA
ATOM     15  N   UNL     1      -8.136  55.202  51.964  0.00  0.00    +0.000 N 
ATOM     16  C   UNL     1      -7.691  53.187  53.758  0.00  0.00    +0.000 A 
ATOM     17  C   UNL     1      -9.294  54.631  51.824  0.00  0.00    +0.000 C 
ATOM     18  C   UNL     1      -8.974  52.795  53.410  0.00  0.00    +0.000 A 
ATOM     19  C   UNL     1      -6.898  52.441  54.631  0.00  0.00    +0.000 A 
ATOM     20  N   UNL     1      -9.761  53.565  52.558  0.00  0.00    +0.000 N 
ATOM     21  C   UNL     1      -9.499  51.645  54.005  0.00  0.00    +0.000 A 
ATOM     22  C   UNL     1      -7.424  51.280  55.195  0.00  0.00    +0.000 A 
ATOM     23  C   UNL     1      -8.725  50.888  54.888  0.00  0.00    +0.000 A 
ATOM     24  H   UNL     1      -7.909  55.979  51.402  0.00  0.00    +0.000 HD
ATOM     25  H   UNL     1     -10.714  53.330  52.475  0.00  0.00    +0.000 HD
ENDBRANCH   1  17
BRANCH   3  26
ATOM     26  O   UNL     1     -11.922  55.738  52.357  0.00  0.00    +0.000 OA
ATOM     27  H   UNL     1     -11.501  55.266  53.049  0.00  0.00    +0.000 HD
ENDBRANCH   3  26
BRANCH   5  28
ATOM     28  C   UNL     1     -10.150  55.584  46.956  0.00  0.00    +0.000 C 
BRANCH  28  29
ATOM     29  C   UNL     1     -10.208  54.200  46.301  0.00  0.00    +0.000 C 
BRANCH  29  30
ATOM     30  C   UNL     1     -11.513  53.895  45.567  0.00  0.00    +0.000 C 
BRANCH  30  31
ATOM     31  C   UNL     1     -12.055  52.544  46.042  0.00  0.00    +0.000 C 
BRANCH  31  32
ATOM     32  C   UNL     1     -12.182  52.498  47.500  0.00  0.00    +0.000 C 
ATOM     33  N   UNL     1     -12.279  52.454  48.657  0.00  0.00    +0.000 NA
ENDBRANCH  31  32
ENDBRANCH  30  31
ENDBRANCH  29  30
ENDBRANCH  28  29
ENDBRANCH   5  28
TORSDOF 7
ENDMDL
MODEL 6
REMARK VINA RESULT:      -7.2      1.563      2.267
REMARK  Name = 338631
REMARK  7 active torsions:
REMARK  status: ('A' for Active; 'I' for Inactive)
REMARK    1  A    between atoms: C_6  and  C_10
REMARK    2  A    between atoms: C_14  and  O_18
REMARK    3  A    between atoms: N_17  and  C_21
REMARK    4  A    between atoms: C_21  and  C_24
REMARK    5  A    between atoms: C_24  and  C_27
REMARK    6  A    between atoms: C_27  and  C_28
REMARK    7  A    between atoms: C_28  and  C_29
REMARK                            x       y       z     vdW  Elec       q    Type
REMARK                         _______ _______ _______ _____ _____    ______ ____
ROOT
ATOM      1  C   UNL     1     -10.114  54.545  52.059  0.00  0.00    +0.000 A 
ATOM      2  C   UNL     1      -8.719  55.073  51.988  0.00  0.00    +0.000 A 
ATOM      3  C   UNL     1     -10.384  53.438  52.772  0.00  0.00    +0.000 A 
ATOM      4  O   UNL     1      -8.526  56.143  51.404  0.00  0.00    +0.000 OA
ATOM      5  N   UNL     1      -7.701  54.356  52.606  0.00  0.00    +0.000 N 
ATOM      6  C   UNL     1      -9.314  52.746  53.500  0.00  0.00    +0.000 A 
ATOM      7  C   UNL     1      -7.994  53.227  53.433  0.00  0.00    +0.000 A 
ATOM      8  C   UNL     1      -9.605  51.629  54.302  0.00  0.00    +0.000 A 
ATOM      9  C   UNL     1      -7.011  52.604  54.217  0.00  0.00    +0.000 A 
ATOM     10  C   UNL     1      -8.613  51.018  55.066  0.00  0.00    +0.000 A 
ATOM     11  C   UNL     1      -7.318  51.511  55.027  0.00  0.00    +0.000 A 
ENDROOT
BRANCH   1  17
ATOM     12  S   UNL     1     -13.482  56.502  51.570  0.00  0.00    +0.000 S 
ATOM     13  O   UNL     1     -13.389  57.872  52.038  0.00  0.00    +0.000 OA
ATOM     14  O   UNL     1     -14.669  55.716  51.828  0.00  0.00    +0.000 OA
ATOM     15  N   UNL     1     -12.210  55.697  52.165  0.00  0.00    +0.000 N 
ATOM     16  C   UNL     1     -13.316  56.574  49.823  0.00  0.00    +0.000 A 
ATOM     17  C   UNL     1     -11.229  55.326  51.398  0.00  0.00    +0.000 C 
ATOM     18  C   UNL     1     -12.151  56.080  49.260  0.00  0.00    +0.000 A 
ATOM     19  C   UNL     1     -14.350  57.102  49.047  0.00  0.00    +0.000 A 
ATOM     20  N   UNL     1     -11.119  55.581  50.051  0.00  0.00    +0.000 N 
ATOM     21  C   UNL     1     -11.994  56.173  47.875  0.00  0.00    +0.000 A 
ATOM     22  C   UNL     1     -14.191  57.162  47.664  0.00  0.00    +0.000 A 
ATOM     23  C   UNL     1     -13.013  56.705  47.080  0.00  0.00    +0.000 A 
ATOM     24  H   UNL     1     -12.179  55.485  53.126  0.00  0.00    +0.000 HD
ATOM     25  H   UNL     1     -10.254  55.397  49.616  0.00  0.00    +0.000 HD
ENDBRANCH   1  17
BRANCH   3  26
ATOM     26  O   UNL     1     -11.651  52.909  52.945  0.00  0.00    +0.000 OA
ATOM     27  H   UNL     1     -11.763  52.101  53.408  0.00  0.00    +0.000 HD
ENDBRANCH   3  26
BRANCH   5  28
ATOM     28  C   UNL     1      -6.336  54.877  52.490  0.00  0.00    +0.000 C 
BRANCH  28  29
ATOM     29  C   UNL     1      -5.495  54.261  51.366  0.00  0.00    +0.000 C 
BRANCH  29  30
ATOM     30  C   UNL     1      -5.579  54.996  50.029  0.00  0.00    +0.000 C 
BRANCH  30  31
ATOM     31  C   UNL     1      -6.339  54.128  49.024  0.00  0.00    +0.000 C 
BRANCH  31  32
ATOM     32  C   UNL     1      -7.505  54.830  48.480  0.00  0.00    +0.000 C 
ATOM     33  N   UNL     1      -8.434  55.382  48.055  0.00  0.00    +0.000 NA
ENDBRANCH  31  32
ENDBRANCH  30  31
ENDBRANCH  29  30
ENDBRANCH  28  29
ENDBRANCH   5  28
TORSDOF 7
ENDMDL
MODEL 7
REMARK VINA RESULT:      -7.1      1.766      2.013
REMARK  Name = 338631
REMARK  7 active torsions:
REMARK  status: ('A' for Active; 'I' for Inactive)
REMARK    1  A    between atoms: C_6  and  C_10
REMARK    2  A    between atoms: C_14  and  O_18
REMARK    3  A    between atoms: N_17  and  C_21
REMARK    4  A    between atoms: C_21  and  C_24
REMARK    5  A    between atoms: C_24  and  C_27
REMARK    6  A    between atoms: C_27  and  C_28
REMARK    7  A    between atoms: C_28  and  C_29
REMARK                            x       y       z     vdW  Elec       q    Type
REMARK                         _______ _______ _______ _____ _____    ______ ____
ROOT
ATOM      1  C   UNL     1     -11.100  54.733  50.878  0.00  0.00    +0.000 A 
ATOM      2  C   UNL     1      -9.696  55.149  50.589  0.00  0.00    +0.000 A 
ATOM      3  C   UNL     1     -11.364  53.481  51.291  0.00  0.00    +0.000 A 
ATOM      4  O   UNL     1      -9.482  56.332  50.304  0.00  0.00    +0.000 OA
ATOM      5  N   UNL     1      -8.685  54.201  50.681  0.00  0.00    +0.000 N 
ATOM      6  C   UNL     1     -10.272  52.517  51.477  0.00  0.00    +0.000 A 
ATOM      7  C   UNL     1      -8.947  52.894  51.199  0.00  0.00    +0.000 A 
ATOM      8  C   UNL     1     -10.537  51.229  51.975  0.00  0.00    +0.000 A 
ATOM      9  C   UNL     1      -7.916  51.984  51.480  0.00  0.00    +0.000 A 
ATOM     10  C   UNL     1      -9.501  50.336  52.238  0.00  0.00    +0.000 A 
ATOM     11  C   UNL     1      -8.190  50.718  51.996  0.00  0.00    +0.000 A 
ENDROOT
BRANCH   1  17
ATOM     12  S   UNL     1     -13.580  57.390  49.394  0.00  0.00    +0.000 S 
ATOM     13  O   UNL     1     -14.701  56.768  48.714  0.00  0.00    +0.000 OA
ATOM     14  O   UNL     1     -12.935  58.557  48.832  0.00  0.00    +0.000 OA
ATOM     15  N   UNL     1     -12.451  56.250  49.612  0.00  0.00    +0.000 N 
ATOM     16  C   UNL     1     -14.179  57.876  50.971  0.00  0.00    +0.000 A 
ATOM     17  C   UNL     1     -12.205  55.763  50.791  0.00  0.00    +0.000 C 
ATOM     18  C   UNL     1     -13.726  57.182  52.081  0.00  0.00    +0.000 A 
ATOM     19  C   UNL     1     -15.071  58.944  51.077  0.00  0.00    +0.000 A 
ATOM     20  N   UNL     1     -12.856  56.101  51.955  0.00  0.00    +0.000 N 
ATOM     21  C   UNL     1     -14.230  57.535  53.335  0.00  0.00    +0.000 A 
ATOM     22  C   UNL     1     -15.545  59.305  52.338  0.00  0.00    +0.000 A 
ATOM     23  C   UNL     1     -15.130  58.597  53.463  0.00  0.00    +0.000 A 
ATOM     24  H   UNL     1     -11.942  55.919  48.837  0.00  0.00    +0.000 HD
ATOM     25  H   UNL     1     -12.696  55.544  52.751  0.00  0.00    +0.000 HD
ENDBRANCH   1  17
BRANCH   3  26
ATOM     26  O   UNL     1     -12.621  53.020  51.640  0.00  0.00    +0.000 OA
ATOM     27  H   UNL     1     -12.731  52.142  51.949  0.00  0.00    +0.000 HD
ENDBRANCH   3  26
BRANCH   5  28
ATOM     28  C   UNL     1      -7.320  54.628  50.356  0.00  0.00    +0.000 C 
BRANCH  28  29
ATOM     29  C   UNL     1      -6.954  54.567  48.869  0.00  0.00    +0.000 C 
BRANCH  29  30
ATOM     30  C   UNL     1      -8.038  53.978  47.968  0.00  0.00    +0.000 C 
BRANCH  30  31
ATOM     31  C   UNL     1      -8.475  55.033  46.950  0.00  0.00    +0.000 C 
BRANCH  31  32
ATOM     32  C   UNL     1      -9.925  55.239  46.977  0.00  0.00    +0.000 C 
ATOM     33  N   UNL     1     -11.074  55.410  46.999  0.00  0.00    +0.000 NA
ENDBRANCH  31  32
ENDBRANCH  30  31
ENDBRANCH  29  30
ENDBRANCH  28  29
ENDBRANCH   5  28
TORSDOF 7
ENDMDL
MODEL 8
REMARK VINA RESULT:      -7.1      2.787      7.729
REMARK  Name = 338631
REMARK  7 active torsions:
REMARK  status: ('A' for Active; 'I' for Inactive)
REMARK    1  A    between atoms: C_6  and  C_10
REMARK    2  A    between atoms: C_14  and  O_18
REMARK    3  A    between atoms: N_17  and  C_21
REMARK    4  A    between atoms: C_21  and  C_24
REMARK    5  A    between atoms: C_24  and  C_27
REMARK    6  A    between atoms: C_27  and  C_28
REMARK    7  A    between atoms: C_28  and  C_29
REMARK                            x       y       z     vdW  Elec       q    Type
REMARK                         _______ _______ _______ _____ _____    ______ ____
ROOT
ATOM      1  C   UNL     1     -10.030  55.025  50.335  0.00  0.00    +0.000 A 
ATOM      2  C   UNL     1     -11.129  55.223  51.326  0.00  0.00    +0.000 A 
ATOM      3  C   UNL     1     -10.237  55.285  49.033  0.00  0.00    +0.000 A 
ATOM      4  O   UNL     1     -10.874  55.065  52.524  0.00  0.00    +0.000 OA
ATOM      5  N   UNL     1     -12.382  55.608  50.866  0.00  0.00    +0.000 N 
ATOM      6  C   UNL     1     -11.539  55.784  48.575  0.00  0.00    +0.000 A 
ATOM      7  C   UNL     1     -12.585  55.966  49.497  0.00  0.00    +0.000 A 
ATOM      8  C   UNL     1     -11.737  56.124  47.225  0.00  0.00    +0.000 A 
ATOM      9  C   UNL     1     -13.786  56.537  49.046  0.00  0.00    +0.000 A 
ATOM     10  C   UNL     1     -12.940  56.680  46.796  0.00  0.00    +0.000 A 
ATOM     11  C   UNL     1     -13.961  56.891  47.709  0.00  0.00    +0.000 A 
ENDROOT
BRANCH   1  17
ATOM     12  S   UNL     1      -6.628  53.091  50.651  0.00  0.00    +0.000 S 
ATOM     13  O   UNL     1      -5.662  53.523  49.659  0.00  0.00    +0.000 OA
ATOM     14  O   UNL     1      -6.769  51.688  50.977  0.00  0.00    +0.000 OA
ATOM     15  N   UNL     1      -8.078  53.647  50.193  0.00  0.00    +0.000 N 
ATOM     16  C   UNL     1      -6.181  53.896  52.146  0.00  0.00    +0.000 A 
ATOM     17  C   UNL     1      -8.659  54.618  50.830  0.00  0.00    +0.000 C 
ATOM     18  C   UNL     1      -7.010  54.902  52.616  0.00  0.00    +0.000 A 
ATOM     19  C   UNL     1      -5.029  53.503  52.830  0.00  0.00    +0.000 A 
ATOM     20  N   UNL     1      -8.140  55.300  51.907  0.00  0.00    +0.000 N 
ATOM     21  C   UNL     1      -6.638  55.576  53.782  0.00  0.00    +0.000 A 
ATOM     22  C   UNL     1      -4.686  54.165  54.008  0.00  0.00    +0.000 A 
ATOM     23  C   UNL     1      -5.485  55.204  54.478  0.00  0.00    +0.000 A 
ATOM     24  H   UNL     1      -8.527  53.242  49.415  0.00  0.00    +0.000 HD
ATOM     25  H   UNL     1      -8.599  56.122  52.196  0.00  0.00    +0.000 HD
ENDBRANCH   1  17
BRANCH   3  26
ATOM     26  O   UNL     1      -9.266  55.189  48.052  0.00  0.00    +0.000 OA
ATOM     27  H   UNL     1      -8.377  55.005  48.286  0.00  0.00    +0.000 HD
ENDBRANCH   3  26
BRANCH   5  28
ATOM     28  C   UNL     1     -13.453  55.761  51.856  0.00  0.00    +0.000 C 
BRANCH  28  29
ATOM     29  C   UNL     1     -13.546  57.146  52.507  0.00  0.00    +0.000 C 
BRANCH  29  30
ATOM     30  C   UNL     1     -14.968  57.611  52.818  0.00  0.00    +0.000 C 
BRANCH  30  31
ATOM     31  C   UNL     1     -15.061  59.124  52.608  0.00  0.00    +0.000 C 
BRANCH  31  32
ATOM     32  C   UNL     1     -14.696  59.501  51.240  0.00  0.00    +0.000 C 
ATOM     33  N   UNL     1     -14.414  59.803  50.155  0.00  0.00    +0.000 NA
ENDBRANCH  31  32
ENDBRANCH  30  31
ENDBRANCH  29  30
ENDBRANCH  28  29
ENDBRANCH   5  28
TORSDOF 7
ENDMDL
MODEL 9
REMARK VINA RESULT:      -7.0      3.638      4.782
REMARK  Name = 338631
REMARK  7 active torsions:
REMARK  status: ('A' for Active; 'I' for Inactive)
REMARK    1  A    between atoms: C_6  and  C_10
REMARK    2  A    between atoms: C_14  and  O_18
REMARK    3  A    between atoms: N_17  and  C_21
REMARK    4  A    between atoms: C_21  and  C_24
REMARK    5  A    between atoms: C_24  and  C_27
REMARK    6  A    between atoms: C_27  and  C_28
REMARK    7  A    between atoms: C_28  and  C_29
REMARK                            x       y       z     vdW  Elec       q    Type
REMARK                         _______ _______ _______ _____ _____    ______ ____
ROOT
ATOM      1  C   UNL     1     -12.303  54.370  49.671  0.00  0.00    +0.000 A 
ATOM      2  C   UNL     1     -11.597  54.409  48.356  0.00  0.00    +0.000 A 
ATOM      3  C   UNL     1     -12.110  53.341  50.513  0.00  0.00    +0.000 A 
ATOM      4  O   UNL     1     -11.726  55.414  47.651  0.00  0.00    +0.000 OA
ATOM      5  N   UNL     1     -10.801  53.329  47.992  0.00  0.00    +0.000 N 
ATOM      6  C   UNL     1     -11.190  52.253  50.156  0.00  0.00    +0.000 A 
ATOM      7  C   UNL     1     -10.526  52.274  48.917  0.00  0.00    +0.000 A 
ATOM      8  C   UNL     1     -10.932  51.211  51.064  0.00  0.00    +0.000 A 
ATOM      9  C   UNL     1      -9.579  51.274  48.645  0.00  0.00    +0.000 A 
ATOM     10  C   UNL     1      -9.996  50.223  50.772  0.00  0.00    +0.000 A 
ATOM     11  C   UNL     1      -9.316  50.259  49.564  0.00  0.00    +0.000 A 
ENDROOT
BRANCH   1  17
ATOM     12  S   UNL     1     -15.316  56.436  51.108  0.00  0.00    +0.000 S 
ATOM     13  O   UNL     1     -15.275  56.523  52.556  0.00  0.00    +0.000 OA
ATOM     14  O   UNL     1     -16.569  56.218  50.420  0.00  0.00    +0.000 OA
ATOM     15  N   UNL     1     -14.289  55.267  50.662  0.00  0.00    +0.000 N 
ATOM     16  C   UNL     1     -14.694  57.968  50.514  0.00  0.00    +0.000 A 
ATOM     17  C   UNL     1     -13.162  55.547  50.079  0.00  0.00    +0.000 C 
ATOM     18  C   UNL     1     -13.449  57.971  49.905  0.00  0.00    +0.000 A 
ATOM     19  C   UNL     1     -15.458  59.128  50.649  0.00  0.00    +0.000 A 
ATOM     20  N   UNL     1     -12.689  56.809  49.802  0.00  0.00    +0.000 N 
ATOM     21  C   UNL     1     -12.930  59.192  49.467  0.00  0.00    +0.000 A 
ATOM     22  C   UNL     1     -14.939  60.334  50.182  0.00  0.00    +0.000 A 
ATOM     23  C   UNL     1     -13.675  60.367  49.599  0.00  0.00    +0.000 A 
ATOM     24  H   UNL     1     -14.522  54.326  50.837  0.00  0.00    +0.000 HD
ATOM     25  H   UNL     1     -11.752  56.896  49.512  0.00  0.00    +0.000 HD
ENDBRANCH   1  17
BRANCH   3  26
ATOM     26  O   UNL     1     -12.672  53.245  51.775  0.00  0.00    +0.000 OA
ATOM     27  H   UNL     1     -13.155  53.966  52.130  0.00  0.00    +0.000 HD
ENDBRANCH   3  26
BRANCH   5  28
ATOM     28  C   UNL     1     -10.148  53.378  46.680  0.00  0.00    +0.000 C 
BRANCH  28  29
ATOM     29  C   UNL     1     -10.995  52.865  45.511  0.00  0.00    +0.000 C 
BRANCH  29  30
ATOM     30  C   UNL     1     -10.548  51.520  44.939  0.00  0.00    +0.000 C 
BRANCH  30  31
ATOM     31  C   UNL     1     -11.749  50.574  44.877  0.00  0.00    +0.000 C 
BRANCH  31  32
ATOM     32  C   UNL     1     -12.269  50.275  46.213  0.00  0.00    +0.000 C 
ATOM     33  N   UNL     1     -12.675  50.034  47.274  0.00  0.00    +0.000 NA
ENDBRANCH  31  32
ENDBRANCH  30  31
ENDBRANCH  29  30
ENDBRANCH  28  29
ENDBRANCH   5  28
TORSDOF 7
ENDMDL
