MODEL 1
REMARK VINA RESULT:      -8.6      0.000      0.000
REMARK  Name = 338168
REMARK  5 active torsions:
REMARK  status: ('A' for Active; 'I' for Inactive)
REMARK    1  A    between atoms: C_6  and  C_10
REMARK    2  A    between atoms: C_14  and  O_18
REMARK    3  A    between atoms: N_17  and  C_21
REMARK    4  A    between atoms: C_21  and  C_24
REMARK    5  A    between atoms: C_24  and  C_27
REMARK                            x       y       z     vdW  Elec       q    Type
REMARK                         _______ _______ _______ _____ _____    ______ ____
ROOT
ATOM      1  C   UNL     1      -9.996  54.557  52.368  0.00  0.00    +0.000 A 
ATOM      2  C   UNL     1      -8.601  55.062  52.258  0.00  0.00    +0.000 A 
ATOM      3  C   UNL     1     -10.251  53.425  53.046  0.00  0.00    +0.000 A 
ATOM      4  O   UNL     1      -8.398  56.004  51.489  0.00  0.00    +0.000 OA
ATOM      5  N   UNL     1      -7.608  54.480  53.049  0.00  0.00    +0.000 N 
ATOM      6  C   UNL     1      -9.173  52.710  53.735  0.00  0.00    +0.000 A 
ATOM      7  C   UNL     1      -7.870  53.250  53.754  0.00  0.00    +0.000 A 
ATOM      8  C   UNL     1      -9.453  51.511  54.415  0.00  0.00    +0.000 A 
ATOM      9  C   UNL     1      -6.876  52.551  54.467  0.00  0.00    +0.000 A 
ATOM     10  C   UNL     1      -8.460  50.865  55.130  0.00  0.00    +0.000 A 
ATOM     11  C   UNL     1      -7.175  51.374  55.165  0.00  0.00    +0.000 A 
ATOM     12  F   UNL     1      -8.747  49.742  55.801  0.00  0.00    +0.000 F 
ENDROOT
BRANCH   1  18
ATOM     13  S   UNL     1     -12.375  55.810  49.429  0.00  0.00    +0.000 S 
ATOM     14  O   UNL     1     -13.050  54.566  49.134  0.00  0.00    +0.000 OA
ATOM     15  O   UNL     1     -11.933  56.709  48.386  0.00  0.00    +0.000 OA
ATOM     16  N   UNL     1     -11.055  55.473  50.359  0.00  0.00    +0.000 N 
ATOM     17  C   UNL     1     -13.366  56.716  50.539  0.00  0.00    +0.000 A 
ATOM     18  C   UNL     1     -11.130  55.289  51.737  0.00  0.00    +0.000 C 
ATOM     19  C   UNL     1     -13.107  56.566  51.900  0.00  0.00    +0.000 A 
ATOM     20  C   UNL     1     -14.361  57.570  50.053  0.00  0.00    +0.000 A 
ATOM     21  N   UNL     1     -12.120  55.733  52.451  0.00  0.00    +0.000 N 
ATOM     22  C   UNL     1     -13.869  57.328  52.789  0.00  0.00    +0.000 A 
ATOM     23  C   UNL     1     -15.115  58.309  50.960  0.00  0.00    +0.000 A 
ATOM     24  C   UNL     1     -14.865  58.195  52.324  0.00  0.00    +0.000 A 
ATOM     25  H   UNL     1     -10.177  55.398  49.921  0.00  0.00    +0.000 HD
ATOM     26  H   UNL     1     -12.180  55.480  53.400  0.00  0.00    +0.000 HD
ENDBRANCH   1  18
BRANCH   3  27
ATOM     27  O   UNL     1     -11.508  52.855  53.180  0.00  0.00    +0.000 OA
ATOM     28  H   UNL     1     -12.249  53.394  53.373  0.00  0.00    +0.000 HD
ENDBRANCH   3  27
BRANCH   5  29
ATOM     29  C   UNL     1      -6.231  55.022  52.985  0.00  0.00    +0.000 C 
BRANCH  29  30
ATOM     30  C   UNL     1      -5.221  54.233  52.132  0.00  0.00    +0.000 C 
BRANCH  30  31
ATOM     31  C   UNL     1      -5.338  54.515  50.660  0.00  0.00    +0.000 C 
ATOM     32  C   UNL     1      -6.134  53.658  49.712  0.00  0.00    +0.000 C 
ATOM     33  C   UNL     1      -4.633  53.594  49.698  0.00  0.00    +0.000 C 
ENDBRANCH  30  31
ENDBRANCH  29  30
ENDBRANCH   5  29
TORSDOF 5
ENDMDL
MODEL 2
REMARK VINA RESULT:      -8.3      3.818      5.392
REMARK  Name = 338168
REMARK  5 active torsions:
REMARK  status: ('A' for Active; 'I' for Inactive)
REMARK    1  A    between atoms: C_6  and  C_10
REMARK    2  A    between atoms: C_14  and  O_18
REMARK    3  A    between atoms: N_17  and  C_21
REMARK    4  A    between atoms: C_21  and  C_24
REMARK    5  A    between atoms: C_24  and  C_27
REMARK                            x       y       z     vdW  Elec       q    Type
REMARK                         _______ _______ _______ _____ _____    ______ ____
ROOT
ATOM      1  C   UNL     1     -11.469  55.814  48.981  0.00  0.00    +0.000 A 
ATOM      2  C   UNL     1     -10.378  55.149  49.741  0.00  0.00    +0.000 A 
ATOM      3  C   UNL     1     -11.642  55.546  47.675  0.00  0.00    +0.000 A 
ATOM      4  O   UNL     1     -10.155  55.553  50.884  0.00  0.00    +0.000 OA
ATOM      5  N   UNL     1      -9.691  54.088  49.147  0.00  0.00    +0.000 N 
ATOM      6  C   UNL     1     -10.800  54.553  47.001  0.00  0.00    +0.000 A 
ATOM      7  C   UNL     1      -9.851  53.816  47.740  0.00  0.00    +0.000 A 
ATOM      8  C   UNL     1     -10.975  54.306  45.627  0.00  0.00    +0.000 A 
ATOM      9  C   UNL     1      -9.096  52.841  47.059  0.00  0.00    +0.000 A 
ATOM     10  C   UNL     1     -10.236  53.321  44.994  0.00  0.00    +0.000 A 
ATOM     11  C   UNL     1      -9.301  52.584  45.698  0.00  0.00    +0.000 A 
ATOM     12  F   UNL     1     -10.436  53.073  43.694  0.00  0.00    +0.000 F 
ENDROOT
BRANCH   1  18
ATOM     13  S   UNL     1     -13.530  59.190  49.447  0.00  0.00    +0.000 S 
ATOM     14  O   UNL     1     -14.522  58.998  48.412  0.00  0.00    +0.000 OA
ATOM     15  O   UNL     1     -12.901  60.472  49.678  0.00  0.00    +0.000 OA
ATOM     16  N   UNL     1     -12.316  58.100  49.206  0.00  0.00    +0.000 N 
ATOM     17  C   UNL     1     -14.205  58.639  50.955  0.00  0.00    +0.000 A 
ATOM     18  C   UNL     1     -12.390  56.780  49.643  0.00  0.00    +0.000 C 
ATOM     19  C   UNL     1     -13.948  57.322  51.330  0.00  0.00    +0.000 A 
ATOM     20  C   UNL     1     -14.953  59.514  51.749  0.00  0.00    +0.000 A 
ATOM     21  N   UNL     1     -13.201  56.397  50.583  0.00  0.00    +0.000 N 
ATOM     22  C   UNL     1     -14.449  56.892  52.561  0.00  0.00    +0.000 A 
ATOM     23  C   UNL     1     -15.451  59.058  52.966  0.00  0.00    +0.000 A 
ATOM     24  C   UNL     1     -15.194  57.753  53.375  0.00  0.00    +0.000 A 
ATOM     25  H   UNL     1     -11.505  58.395  48.732  0.00  0.00    +0.000 HD
ATOM     26  H   UNL     1     -13.292  55.437  50.776  0.00  0.00    +0.000 HD
ENDBRANCH   1  18
BRANCH   3  27
ATOM     27  O   UNL     1     -12.607  56.133  46.871  0.00  0.00    +0.000 OA
ATOM     28  H   UNL     1     -12.439  56.268  45.960  0.00  0.00    +0.000 HD
ENDBRANCH   3  27
BRANCH   5  29
ATOM     29  C   UNL     1      -8.643  53.386  49.925  0.00  0.00    +0.000 C 
BRANCH  29  30
ATOM     30  C   UNL     1      -7.439  54.232  50.376  0.00  0.00    +0.000 C 
BRANCH  30  31
ATOM     31  C   UNL     1      -6.722  54.901  49.235  0.00  0.00    +0.000 C 
ATOM     32  C   UNL     1      -5.780  54.177  48.310  0.00  0.00    +0.000 C 
ATOM     33  C   UNL     1      -5.234  55.112  49.352  0.00  0.00    +0.000 C 
ENDBRANCH  30  31
ENDBRANCH  29  30
ENDBRANCH   5  29
TORSDOF 5
ENDMDL
MODEL 3
REMARK VINA RESULT:      -8.3      3.863      7.417
REMARK  Name = 338168
REMARK  5 active torsions:
REMARK  status: ('A' for Active; 'I' for Inactive)
REMARK    1  A    between atoms: C_6  and  C_10
REMARK    2  A    between atoms: C_14  and  O_18
REMARK    3  A    between atoms: N_17  and  C_21
REMARK    4  A    between atoms: C_21  and  C_24
REMARK    5  A    between atoms: C_24  and  C_27
REMARK                            x       y       z     vdW  Elec       q    Type
REMARK                         _______ _______ _______ _____ _____    ______ ____
ROOT
ATOM      1  C   UNL     1     -10.150  55.095  50.798  0.00  0.00    +0.000 A 
ATOM      2  C   UNL     1      -9.745  55.199  49.371  0.00  0.00    +0.000 A 
ATOM      3  C   UNL     1     -11.365  55.519  51.187  0.00  0.00    +0.000 A 
ATOM      4  O   UNL     1      -8.568  54.957  49.096  0.00  0.00    +0.000 OA
ATOM      5  N   UNL     1     -10.712  55.525  48.418  0.00  0.00    +0.000 N 
ATOM      6  C   UNL     1     -12.326  56.030  50.204  0.00  0.00    +0.000 A 
ATOM      7  C   UNL     1     -12.006  56.008  48.830  0.00  0.00    +0.000 A 
ATOM      8  C   UNL     1     -13.581  56.496  50.632  0.00  0.00    +0.000 A 
ATOM      9  C   UNL     1     -12.977  56.466  47.919  0.00  0.00    +0.000 A 
ATOM     10  C   UNL     1     -14.524  56.914  49.708  0.00  0.00    +0.000 A 
ATOM     11  C   UNL     1     -14.235  56.901  48.357  0.00  0.00    +0.000 A 
ATOM     12  F   UNL     1     -15.728  57.324  50.127  0.00  0.00    +0.000 F 
ENDROOT
BRANCH   1  18
ATOM     13  S   UNL     1      -6.927  54.886  53.129  0.00  0.00    +0.000 S 
ATOM     14  O   UNL     1      -7.243  55.952  54.053  0.00  0.00    +0.000 OA
ATOM     15  O   UNL     1      -5.590  54.691  52.610  0.00  0.00    +0.000 OA
ATOM     16  N   UNL     1      -7.929  55.020  51.826  0.00  0.00    +0.000 N 
ATOM     17  C   UNL     1      -7.459  53.383  53.830  0.00  0.00    +0.000 A 
ATOM     18  C   UNL     1      -9.229  54.521  51.819  0.00  0.00    +0.000 C 
ATOM     19  C   UNL     1      -8.734  52.933  53.492  0.00  0.00    +0.000 A 
ATOM     20  C   UNL     1      -6.610  52.666  54.678  0.00  0.00    +0.000 A 
ATOM     21  N   UNL     1      -9.631  53.600  52.642  0.00  0.00    +0.000 N 
ATOM     22  C   UNL     1      -9.144  51.704  54.015  0.00  0.00    +0.000 A 
ATOM     23  C   UNL     1      -7.047  51.451  55.197  0.00  0.00    +0.000 A 
ATOM     24  C   UNL     1      -8.307  50.966  54.861  0.00  0.00    +0.000 A 
ATOM     25  H   UNL     1      -7.594  55.473  51.018  0.00  0.00    +0.000 HD
ATOM     26  H   UNL     1     -10.585  53.364  52.669  0.00  0.00    +0.000 HD
ENDBRANCH   1  18
BRANCH   3  27
ATOM     27  O   UNL     1     -11.826  55.494  52.494  0.00  0.00    +0.000 OA
ATOM     28  H   UNL     1     -12.626  55.052  52.700  0.00  0.00    +0.000 HD
ENDBRANCH   3  27
BRANCH   5  29
ATOM     29  C   UNL     1     -10.323  55.571  46.988  0.00  0.00    +0.000 C 
BRANCH  29  30
ATOM     30  C   UNL     1     -10.163  54.215  46.277  0.00  0.00    +0.000 C 
BRANCH  30  31
ATOM     31  C   UNL     1     -11.300  53.895  45.346  0.00  0.00    +0.000 C 
ATOM     32  C   UNL     1     -12.025  52.575  45.348  0.00  0.00    +0.000 C 
ATOM     33  C   UNL     1     -11.059  52.896  44.242  0.00  0.00    +0.000 C 
ENDBRANCH  30  31
ENDBRANCH  29  30
ENDBRANCH   5  29
TORSDOF 5
ENDMDL
MODEL 4
REMARK VINA RESULT:      -8.2      3.668      7.274
REMARK  Name = 338168
REMARK  5 active torsions:
REMARK  status: ('A' for Active; 'I' for Inactive)
REMARK    1  A    between atoms: C_6  and  C_10
REMARK    2  A    between atoms: C_14  and  O_18
REMARK    3  A    between atoms: N_17  and  C_21
REMARK    4  A    between atoms: C_21  and  C_24
REMARK    5  A    between atoms: C_24  and  C_27
REMARK                            x       y       z     vdW  Elec       q    Type
REMARK                         _______ _______ _______ _____ _____    ______ ____
ROOT
ATOM      1  C   UNL     1     -10.170  55.437  50.500  0.00  0.00    +0.000 A 
ATOM      2  C   UNL     1     -10.341  55.695  49.046  0.00  0.00    +0.000 A 
ATOM      3  C   UNL     1     -11.203  55.612  51.342  0.00  0.00    +0.000 A 
ATOM      4  O   UNL     1      -9.327  55.685  48.345  0.00  0.00    +0.000 OA
ATOM      5  N   UNL     1     -11.628  55.896  48.543  0.00  0.00    +0.000 N 
ATOM      6  C   UNL     1     -12.523  55.997  50.832  0.00  0.00    +0.000 A 
ATOM      7  C   UNL     1     -12.734  56.113  49.442  0.00  0.00    +0.000 A 
ATOM      8  C   UNL     1     -13.585  56.204  51.730  0.00  0.00    +0.000 A 
ATOM      9  C   UNL     1     -14.029  56.440  48.996  0.00  0.00    +0.000 A 
ATOM     10  C   UNL     1     -14.853  56.497  51.257  0.00  0.00    +0.000 A 
ATOM     11  C   UNL     1     -15.085  56.615  49.900  0.00  0.00    +0.000 A 
ATOM     12  F   UNL     1     -15.863  56.660  52.121  0.00  0.00    +0.000 F 
ENDROOT
BRANCH   1  18
ATOM     13  S   UNL     1      -6.585  53.702  50.486  0.00  0.00    +0.000 S 
ATOM     14  O   UNL     1      -5.873  54.652  49.661  0.00  0.00    +0.000 OA
ATOM     15  O   UNL     1      -6.401  52.274  50.344  0.00  0.00    +0.000 OA
ATOM     16  N   UNL     1      -8.200  53.992  50.329  0.00  0.00    +0.000 N 
ATOM     17  C   UNL     1      -6.312  54.119  52.155  0.00  0.00    +0.000 A 
ATOM     18  C   UNL     1      -8.863  54.981  51.052  0.00  0.00    +0.000 C 
ATOM     19  C   UNL     1      -7.248  54.946  52.771  0.00  0.00    +0.000 A 
ATOM     20  C   UNL     1      -5.198  53.611  52.830  0.00  0.00    +0.000 A 
ATOM     21  N   UNL     1      -8.389  55.482  52.152  0.00  0.00    +0.000 N 
ATOM     22  C   UNL     1      -7.056  55.243  54.123  0.00  0.00    +0.000 A 
ATOM     23  C   UNL     1      -5.022  53.932  54.173  0.00  0.00    +0.000 A 
ATOM     24  C   UNL     1      -5.953  54.739  54.821  0.00  0.00    +0.000 A 
ATOM     25  H   UNL     1      -8.720  53.443  49.698  0.00  0.00    +0.000 HD
ATOM     26  H   UNL     1      -8.840  56.254  52.562  0.00  0.00    +0.000 HD
ENDBRANCH   1  18
BRANCH   3  27
ATOM     27  O   UNL     1     -11.140  55.429  52.715  0.00  0.00    +0.000 OA
ATOM     28  H   UNL     1     -11.235  54.571  53.078  0.00  0.00    +0.000 HD
ENDBRANCH   3  27
BRANCH   5  29
ATOM     29  C   UNL     1     -11.807  56.093  47.085  0.00  0.00    +0.000 C 
BRANCH  29  30
ATOM     30  C   UNL     1     -12.092  54.831  46.251  0.00  0.00    +0.000 C 
BRANCH  30  31
ATOM     31  C   UNL     1     -10.859  54.243  45.622  0.00  0.00    +0.000 C 
ATOM     32  C   UNL     1     -10.898  53.145  44.591  0.00  0.00    +0.000 C 
ATOM     33  C   UNL     1     -10.467  52.836  45.997  0.00  0.00    +0.000 C 
ENDBRANCH  30  31
ENDBRANCH  29  30
ENDBRANCH   5  29
TORSDOF 5
ENDMDL
MODEL 5
REMARK VINA RESULT:      -8.0      3.627      5.276
REMARK  Name = 338168
REMARK  5 active torsions:
REMARK  status: ('A' for Active; 'I' for Inactive)
REMARK    1  A    between atoms: C_6  and  C_10
REMARK    2  A    between atoms: C_14  and  O_18
REMARK    3  A    between atoms: N_17  and  C_21
REMARK    4  A    between atoms: C_21  and  C_24
REMARK    5  A    between atoms: C_24  and  C_27
REMARK                            x       y       z     vdW  Elec       q    Type
REMARK                         _______ _______ _______ _____ _____    ______ ____
ROOT
ATOM      1  C   UNL     1     -10.372  55.811  48.968  0.00  0.00    +0.000 A 
ATOM      2  C   UNL     1     -10.263  55.314  47.571  0.00  0.00    +0.000 A 
ATOM      3  C   UNL     1      -9.328  55.700  49.807  0.00  0.00    +0.000 A 
ATOM      4  O   UNL     1     -11.294  55.284  46.897  0.00  0.00    +0.000 OA
ATOM      5  N   UNL     1      -9.008  54.944  47.083  0.00  0.00    +0.000 N 
ATOM      6  C   UNL     1      -8.053  55.145  49.341  0.00  0.00    +0.000 A 
ATOM      7  C   UNL     1      -7.892  54.795  47.984  0.00  0.00    +0.000 A 
ATOM      8  C   UNL     1      -6.980  55.008  50.239  0.00  0.00    +0.000 A 
ATOM      9  C   UNL     1      -6.636  54.309  47.572  0.00  0.00    +0.000 A 
ATOM     10  C   UNL     1      -5.750  54.554  49.796  0.00  0.00    +0.000 A 
ATOM     11  C   UNL     1      -5.567  54.205  48.471  0.00  0.00    +0.000 A 
ATOM     12  F   UNL     1      -4.728  54.460  50.655  0.00  0.00    +0.000 F 
ENDROOT
BRANCH   1  18
ATOM     13  S   UNL     1     -13.840  57.756  48.741  0.00  0.00    +0.000 S 
ATOM     14  O   UNL     1     -14.638  56.730  48.109  0.00  0.00    +0.000 OA
ATOM     15  O   UNL     1     -13.940  59.149  48.361  0.00  0.00    +0.000 OA
ATOM     16  N   UNL     1     -12.252  57.336  48.598  0.00  0.00    +0.000 N 
ATOM     17  C   UNL     1     -14.080  57.648  50.463  0.00  0.00    +0.000 A 
ATOM     18  C   UNL     1     -11.628  56.442  49.464  0.00  0.00    +0.000 C 
ATOM     19  C   UNL     1     -13.176  56.878  51.190  0.00  0.00    +0.000 A 
ATOM     20  C   UNL     1     -15.136  58.338  51.068  0.00  0.00    +0.000 A 
ATOM     21  N   UNL     1     -12.093  56.168  50.646  0.00  0.00    +0.000 N 
ATOM     22  C   UNL     1     -13.339  56.828  52.577  0.00  0.00    +0.000 A 
ATOM     23  C   UNL     1     -15.284  58.263  52.450  0.00  0.00    +0.000 A 
ATOM     24  C   UNL     1     -14.384  57.516  53.204  0.00  0.00    +0.000 A 
ATOM     25  H   UNL     1     -11.722  57.734  47.870  0.00  0.00    +0.000 HD
ATOM     26  H   UNL     1     -11.677  55.448  51.171  0.00  0.00    +0.000 HD
ENDBRANCH   1  18
BRANCH   3  27
ATOM     27  O   UNL     1      -9.337  56.103  51.134  0.00  0.00    +0.000 OA
ATOM     28  H   UNL     1      -8.815  56.832  51.405  0.00  0.00    +0.000 HD
ENDBRANCH   3  27
BRANCH   5  29
ATOM     29  C   UNL     1      -8.888  54.505  45.672  0.00  0.00    +0.000 C 
BRANCH  29  30
ATOM     30  C   UNL     1      -9.262  53.042  45.374  0.00  0.00    +0.000 C 
BRANCH  30  31
ATOM     31  C   UNL     1     -10.425  52.906  44.431  0.00  0.00    +0.000 C 
ATOM     32  C   UNL     1     -11.814  52.533  44.877  0.00  0.00    +0.000 C 
ATOM     33  C   UNL     1     -10.964  51.526  44.156  0.00  0.00    +0.000 C 
ENDBRANCH  30  31
ENDBRANCH  29  30
ENDBRANCH   5  29
TORSDOF 5
ENDMDL
MODEL 6
REMARK VINA RESULT:      -8.0      3.765      7.364
REMARK  Name = 338168
REMARK  5 active torsions:
REMARK  status: ('A' for Active; 'I' for Inactive)
REMARK    1  A    between atoms: C_6  and  C_10
REMARK    2  A    between atoms: C_14  and  O_18
REMARK    3  A    between atoms: N_17  and  C_21
REMARK    4  A    between atoms: C_21  and  C_24
REMARK    5  A    between atoms: C_24  and  C_27
REMARK                            x       y       z     vdW  Elec       q    Type
REMARK                         _______ _______ _______ _____ _____    ______ ____
ROOT
ATOM      1  C   UNL     1     -10.423  55.072  50.684  0.00  0.00    +0.000 A 
ATOM      2  C   UNL     1     -10.115  55.146  49.231  0.00  0.00    +0.000 A 
ATOM      3  C   UNL     1     -11.561  55.605  51.161  0.00  0.00    +0.000 A 
ATOM      4  O   UNL     1      -8.989  54.797  48.872  0.00  0.00    +0.000 OA
ATOM      5  N   UNL     1     -11.114  55.566  48.351  0.00  0.00    +0.000 N 
ATOM      6  C   UNL     1     -12.539  56.208  50.250  0.00  0.00    +0.000 A 
ATOM      7  C   UNL     1     -12.324  56.165  48.857  0.00  0.00    +0.000 A 
ATOM      8  C   UNL     1     -13.711  56.788  50.768  0.00  0.00    +0.000 A 
ATOM      9  C   UNL     1     -13.312  56.717  48.018  0.00  0.00    +0.000 A 
ATOM     10  C   UNL     1     -14.676  57.296  49.916  0.00  0.00    +0.000 A 
ATOM     11  C   UNL     1     -14.489  57.264  48.546  0.00  0.00    +0.000 A 
ATOM     12  F   UNL     1     -15.802  57.815  50.420  0.00  0.00    +0.000 F 
ENDROOT
BRANCH   1  18
ATOM     13  S   UNL     1      -8.869  52.102  52.836  0.00  0.00    +0.000 S 
ATOM     14  O   UNL     1      -8.288  51.323  51.766  0.00  0.00    +0.000 OA
ATOM     15  O   UNL     1      -9.564  51.485  53.945  0.00  0.00    +0.000 OA
ATOM     16  N   UNL     1      -9.909  53.195  52.172  0.00  0.00    +0.000 N 
ATOM     17  C   UNL     1      -7.632  53.142  53.485  0.00  0.00    +0.000 A 
ATOM     18  C   UNL     1      -9.487  54.410  51.636  0.00  0.00    +0.000 C 
ATOM     19  C   UNL     1      -7.537  54.430  52.964  0.00  0.00    +0.000 A 
ATOM     20  C   UNL     1      -6.794  52.681  54.507  0.00  0.00    +0.000 A 
ATOM     21  N   UNL     1      -8.349  54.955  51.946  0.00  0.00    +0.000 N 
ATOM     22  C   UNL     1      -6.576  55.281  53.516  0.00  0.00    +0.000 A 
ATOM     23  C   UNL     1      -5.837  53.544  55.032  0.00  0.00    +0.000 A 
ATOM     24  C   UNL     1      -5.732  54.843  54.544  0.00  0.00    +0.000 A 
ATOM     25  H   UNL     1     -10.870  52.982  52.152  0.00  0.00    +0.000 HD
ATOM     26  H   UNL     1      -8.051  55.754  51.455  0.00  0.00    +0.000 HD
ENDBRANCH   1  18
BRANCH   3  27
ATOM     27  O   UNL     1     -11.926  55.616  52.498  0.00  0.00    +0.000 OA
ATOM     28  H   UNL     1     -11.862  56.408  52.995  0.00  0.00    +0.000 HD
ENDBRANCH   3  27
BRANCH   5  29
ATOM     29  C   UNL     1     -10.829  55.582  46.897  0.00  0.00    +0.000 C 
BRANCH  29  30
ATOM     30  C   UNL     1     -11.376  54.401  46.076  0.00  0.00    +0.000 C 
BRANCH  30  31
ATOM     31  C   UNL     1     -10.331  53.373  45.743  0.00  0.00    +0.000 C 
ATOM     32  C   UNL     1      -9.048  53.699  45.025  0.00  0.00    +0.000 C 
ATOM     33  C   UNL     1     -10.150  52.981  44.299  0.00  0.00    +0.000 C 
ENDBRANCH  30  31
ENDBRANCH  29  30
ENDBRANCH   5  29
TORSDOF 5
ENDMDL
MODEL 7
REMARK VINA RESULT:      -8.0      4.894      7.782
REMARK  Name = 338168
REMARK  5 active torsions:
REMARK  status: ('A' for Active; 'I' for Inactive)
REMARK    1  A    between atoms: C_6  and  C_10
REMARK    2  A    between atoms: C_14  and  O_18
REMARK    3  A    between atoms: N_17  and  C_21
REMARK    4  A    between atoms: C_21  and  C_24
REMARK    5  A    between atoms: C_24  and  C_27
REMARK                            x       y       z     vdW  Elec       q    Type
REMARK                         _______ _______ _______ _____ _____    ______ ____
ROOT
ATOM      1  C   UNL     1     -11.394  54.315  47.947  0.00  0.00    +0.000 A 
ATOM      2  C   UNL     1     -11.514  53.487  49.176  0.00  0.00    +0.000 A 
ATOM      3  C   UNL     1     -12.028  55.497  47.865  0.00  0.00    +0.000 A 
ATOM      4  O   UNL     1     -11.056  52.343  49.137  0.00  0.00    +0.000 OA
ATOM      5  N   UNL     1     -12.097  54.049  50.314  0.00  0.00    +0.000 N 
ATOM      6  C   UNL     1     -12.793  56.012  49.005  0.00  0.00    +0.000 A 
ATOM      7  C   UNL     1     -12.803  55.302  50.224  0.00  0.00    +0.000 A 
ATOM      8  C   UNL     1     -13.474  57.237  48.893  0.00  0.00    +0.000 A 
ATOM      9  C   UNL     1     -13.514  55.859  51.306  0.00  0.00    +0.000 A 
ATOM     10  C   UNL     1     -14.140  57.770  49.983  0.00  0.00    +0.000 A 
ATOM     11  C   UNL     1     -14.164  57.094  51.189  0.00  0.00    +0.000 A 
ATOM     12  F   UNL     1     -14.757  58.953  49.872  0.00  0.00    +0.000 F 
ENDROOT
BRANCH   1  18
ATOM     13  S   UNL     1      -8.175  54.020  45.619  0.00  0.00    +0.000 S 
ATOM     14  O   UNL     1      -7.333  53.232  46.491  0.00  0.00    +0.000 OA
ATOM     15  O   UNL     1      -7.656  55.128  44.847  0.00  0.00    +0.000 OA
ATOM     16  N   UNL     1      -9.432  54.607  46.510  0.00  0.00    +0.000 N 
ATOM     17  C   UNL     1      -8.992  52.936  44.527  0.00  0.00    +0.000 A 
ATOM     18  C   UNL     1     -10.573  53.859  46.789  0.00  0.00    +0.000 C 
ATOM     19  C   UNL     1     -10.258  52.486  44.897  0.00  0.00    +0.000 A 
ATOM     20  C   UNL     1      -8.385  52.566  43.323  0.00  0.00    +0.000 A 
ATOM     21  N   UNL     1     -10.924  52.825  46.085  0.00  0.00    +0.000 N 
ATOM     22  C   UNL     1     -10.934  51.655  44.000  0.00  0.00    +0.000 A 
ATOM     23  C   UNL     1      -9.075  51.727  42.453  0.00  0.00    +0.000 A 
ATOM     24  C   UNL     1     -10.349  51.278  42.786  0.00  0.00    +0.000 A 
ATOM     25  H   UNL     1      -9.375  55.526  46.859  0.00  0.00    +0.000 HD
ATOM     26  H   UNL     1     -11.674  52.267  46.392  0.00  0.00    +0.000 HD
ENDBRANCH   1  18
BRANCH   3  27
ATOM     27  O   UNL     1     -12.006  56.328  46.755  0.00  0.00    +0.000 OA
ATOM     28  H   UNL     1     -12.802  56.702  46.434  0.00  0.00    +0.000 HD
ENDBRANCH   3  27
BRANCH   5  29
ATOM     29  C   UNL     1     -12.163  53.246  51.557  0.00  0.00    +0.000 C 
BRANCH  29  30
ATOM     30  C   UNL     1     -10.916  53.273  52.459  0.00  0.00    +0.000 C 
BRANCH  30  31
ATOM     31  C   UNL     1     -10.399  54.662  52.717  0.00  0.00    +0.000 C 
ATOM     32  C   UNL     1      -9.173  55.227  52.049  0.00  0.00    +0.000 C 
ATOM     33  C   UNL     1      -9.115  54.813  53.493  0.00  0.00    +0.000 C 
ENDBRANCH  30  31
ENDBRANCH  29  30
ENDBRANCH   5  29
TORSDOF 5
ENDMDL
MODEL 8
REMARK VINA RESULT:      -8.0      3.600      7.542
REMARK  Name = 338168
REMARK  5 active torsions:
REMARK  status: ('A' for Active; 'I' for Inactive)
REMARK    1  A    between atoms: C_6  and  C_10
REMARK    2  A    between atoms: C_14  and  O_18
REMARK    3  A    between atoms: N_17  and  C_21
REMARK    4  A    between atoms: C_21  and  C_24
REMARK    5  A    between atoms: C_24  and  C_27
REMARK                            x       y       z     vdW  Elec       q    Type
REMARK                         _______ _______ _______ _____ _____    ______ ____
ROOT
ATOM      1  C   UNL     1     -10.008  55.457  50.437  0.00  0.00    +0.000 A 
ATOM      2  C   UNL     1     -10.208  55.712  48.986  0.00  0.00    +0.000 A 
ATOM      3  C   UNL     1     -11.031  55.608  51.296  0.00  0.00    +0.000 A 
ATOM      4  O   UNL     1      -9.206  55.726  48.269  0.00  0.00    +0.000 OA
ATOM      5  N   UNL     1     -11.507  55.883  48.504  0.00  0.00    +0.000 N 
ATOM      6  C   UNL     1     -12.367  55.963  50.807  0.00  0.00    +0.000 A 
ATOM      7  C   UNL     1     -12.603  56.074  49.421  0.00  0.00    +0.000 A 
ATOM      8  C   UNL     1     -13.420  56.145  51.722  0.00  0.00    +0.000 A 
ATOM      9  C   UNL     1     -13.913  56.373  48.996  0.00  0.00    +0.000 A 
ATOM     10  C   UNL     1     -14.701  56.409  51.270  0.00  0.00    +0.000 A 
ATOM     11  C   UNL     1     -14.958  56.522  49.916  0.00  0.00    +0.000 A 
ATOM     12  F   UNL     1     -15.701  56.548  52.149  0.00  0.00    +0.000 F 
ENDROOT
BRANCH   1  18
ATOM     13  S   UNL     1      -7.124  54.958  53.138  0.00  0.00    +0.000 S 
ATOM     14  O   UNL     1      -7.746  53.939  53.954  0.00  0.00    +0.000 OA
ATOM     15  O   UNL     1      -6.388  56.060  53.719  0.00  0.00    +0.000 OA
ATOM     16  N   UNL     1      -8.280  55.618  52.165  0.00  0.00    +0.000 N 
ATOM     17  C   UNL     1      -6.092  54.171  51.977  0.00  0.00    +0.000 A 
ATOM     18  C   UNL     1      -8.682  55.031  50.968  0.00  0.00    +0.000 C 
ATOM     19  C   UNL     1      -6.635  53.885  50.726  0.00  0.00    +0.000 A 
ATOM     20  C   UNL     1      -4.767  53.869  52.308  0.00  0.00    +0.000 A 
ATOM     21  N   UNL     1      -7.952  54.167  50.330  0.00  0.00    +0.000 N 
ATOM     22  C   UNL     1      -5.794  53.296  49.778  0.00  0.00    +0.000 A 
ATOM     23  C   UNL     1      -3.954  53.271  51.350  0.00  0.00    +0.000 A 
ATOM     24  C   UNL     1      -4.463  52.992  50.085  0.00  0.00    +0.000 A 
ATOM     25  H   UNL     1      -8.705  56.462  52.442  0.00  0.00    +0.000 HD
ATOM     26  H   UNL     1      -8.330  53.701  49.550  0.00  0.00    +0.000 HD
ENDBRANCH   1  18
BRANCH   3  27
ATOM     27  O   UNL     1     -10.942  55.426  52.667  0.00  0.00    +0.000 OA
ATOM     28  H   UNL     1     -11.114  54.584  53.040  0.00  0.00    +0.000 HD
ENDBRANCH   3  27
BRANCH   5  29
ATOM     29  C   UNL     1     -11.713  56.077  47.049  0.00  0.00    +0.000 C 
BRANCH  29  30
ATOM     30  C   UNL     1     -12.019  54.814  46.225  0.00  0.00    +0.000 C 
BRANCH  30  31
ATOM     31  C   UNL     1     -10.796  54.204  45.597  0.00  0.00    +0.000 C 
ATOM     32  C   UNL     1     -10.852  53.095  44.579  0.00  0.00    +0.000 C 
ATOM     33  C   UNL     1     -10.419  52.797  45.987  0.00  0.00    +0.000 C 
ENDBRANCH  30  31
ENDBRANCH  29  30
ENDBRANCH   5  29
TORSDOF 5
ENDMDL
MODEL 9
REMARK VINA RESULT:      -7.7      1.963      3.373
REMARK  Name = 338168
REMARK  5 active torsions:
REMARK  status: ('A' for Active; 'I' for Inactive)
REMARK    1  A    between atoms: C_6  and  C_10
REMARK    2  A    between atoms: C_14  and  O_18
REMARK    3  A    between atoms: N_17  and  C_21
REMARK    4  A    between atoms: C_21  and  C_24
REMARK    5  A    between atoms: C_24  and  C_27
REMARK                            x       y       z     vdW  Elec       q    Type
REMARK                         _______ _______ _______ _____ _____    ______ ____
ROOT
ATOM      1  C   UNL     1      -9.878  54.614  52.512  0.00  0.00    +0.000 A 
ATOM      2  C   UNL     1     -10.050  53.311  53.207  0.00  0.00    +0.000 A 
ATOM      3  C   UNL     1      -8.679  55.221  52.505  0.00  0.00    +0.000 A 
ATOM      4  O   UNL     1     -11.199  52.881  53.330  0.00  0.00    +0.000 OA
ATOM      5  N   UNL     1      -8.916  52.626  53.648  0.00  0.00    +0.000 N 
ATOM      6  C   UNL     1      -7.516  54.579  53.126  0.00  0.00    +0.000 A 
ATOM      7  C   UNL     1      -7.633  53.283  53.670  0.00  0.00    +0.000 A 
ATOM      8  C   UNL     1      -6.275  55.241  53.135  0.00  0.00    +0.000 A 
ATOM      9  C   UNL     1      -6.479  52.688  54.215  0.00  0.00    +0.000 A 
ATOM     10  C   UNL     1      -5.153  54.617  53.653  0.00  0.00    +0.000 A 
ATOM     11  C   UNL     1      -5.243  53.347  54.191  0.00  0.00    +0.000 A 
ATOM     12  F   UNL     1      -3.971  55.245  53.626  0.00  0.00    +0.000 F 
ENDROOT
BRANCH   1  18
ATOM     13  S   UNL     1     -12.207  55.629  49.445  0.00  0.00    +0.000 S 
ATOM     14  O   UNL     1     -12.826  54.347  49.192  0.00  0.00    +0.000 OA
ATOM     15  O   UNL     1     -11.766  56.493  48.372  0.00  0.00    +0.000 OA
ATOM     16  N   UNL     1     -10.907  55.389  50.429  0.00  0.00    +0.000 N 
ATOM     17  C   UNL     1     -13.267  56.548  50.478  0.00  0.00    +0.000 A 
ATOM     18  C   UNL     1     -11.019  55.269  51.812  0.00  0.00    +0.000 C 
ATOM     19  C   UNL     1     -13.046  56.475  51.852  0.00  0.00    +0.000 A 
ATOM     20  C   UNL     1     -14.277  57.338  49.920  0.00  0.00    +0.000 A 
ATOM     21  N   UNL     1     -12.047  55.708  52.473  0.00  0.00    +0.000 N 
ATOM     22  C   UNL     1     -13.865  57.249  52.679  0.00  0.00    +0.000 A 
ATOM     23  C   UNL     1     -15.087  58.090  50.767  0.00  0.00    +0.000 A 
ATOM     24  C   UNL     1     -14.877  58.052  52.142  0.00  0.00    +0.000 A 
ATOM     25  H   UNL     1     -10.012  55.327  50.022  0.00  0.00    +0.000 HD
ATOM     26  H   UNL     1     -12.127  55.499  53.431  0.00  0.00    +0.000 HD
ENDBRANCH   1  18
BRANCH   3  27
ATOM     27  O   UNL     1      -8.421  56.448  51.914  0.00  0.00    +0.000 OA
ATOM     28  H   UNL     1      -8.474  57.233  52.422  0.00  0.00    +0.000 HD
ENDBRANCH   3  27
BRANCH   5  29
ATOM     29  C   UNL     1      -9.082  51.299  54.287  0.00  0.00    +0.000 C 
BRANCH  29  30
ATOM     30  C   UNL     1      -9.001  50.074  53.358  0.00  0.00    +0.000 C 
BRANCH  30  31
ATOM     31  C   UNL     1      -8.877  50.438  51.904  0.00  0.00    +0.000 C 
ATOM     32  C   UNL     1      -9.958  50.173  50.889  0.00  0.00    +0.000 C 
ATOM     33  C   UNL     1      -8.717  49.325  50.900  0.00  0.00    +0.000 C 
ENDBRANCH  30  31
ENDBRANCH  29  30
ENDBRANCH   5  29
TORSDOF 5
ENDMDL
