MODEL 1
REMARK VINA RESULT:      -8.7      0.000      0.000
REMARK  Name = 338063
REMARK  8 active torsions:
REMARK  status: ('A' for Active; 'I' for Inactive)
REMARK    1  A    between atoms: C_6  and  C_10
REMARK    2  A    between atoms: C_14  and  O_18
REMARK    3  A    between atoms: N_17  and  C_21
REMARK    4  A    between atoms: C_21  and  C_24
REMARK    5  A    between atoms: C_24  and  C_27
REMARK    6  A    between atoms: C_25  and  C_28
REMARK    7  A    between atoms: C_27  and  C_29
REMARK    8  A    between atoms: C_27  and  C_30
REMARK                            x       y       z     vdW  Elec       q    Type
REMARK                         _______ _______ _______ _____ _____    ______ ____
ROOT
ATOM      1  C   UNL     1     -10.162  54.456  52.186  0.00  0.00    +0.000 A 
ATOM      2  C   UNL     1      -8.777  55.012  52.092  0.00  0.00    +0.000 A 
ATOM      3  C   UNL     1     -10.401  53.358  52.921  0.00  0.00    +0.000 A 
ATOM      4  O   UNL     1      -8.621  56.096  51.519  0.00  0.00    +0.000 OA
ATOM      5  N   UNL     1      -7.732  54.301  52.666  0.00  0.00    +0.000 N 
ATOM      6  C   UNL     1      -9.302  52.691  53.632  0.00  0.00    +0.000 A 
ATOM      7  C   UNL     1      -7.990  53.182  53.517  0.00  0.00    +0.000 A 
ATOM      8  C   UNL     1      -9.555  51.575  54.450  0.00  0.00    +0.000 A 
ATOM      9  C   UNL     1      -6.979  52.572  54.273  0.00  0.00    +0.000 A 
ATOM     10  C   UNL     1      -8.530  50.952  55.165  0.00  0.00    +0.000 A 
ATOM     11  C   UNL     1      -7.240  51.464  55.076  0.00  0.00    +0.000 A 
ATOM     12  C   UNL     1      -8.810  49.778  56.053  0.00  0.00    +0.000 C 
ENDROOT
BRANCH   1  18
ATOM     13  S   UNL     1     -12.403  56.030  49.378  0.00  0.00    +0.000 S 
ATOM     14  O   UNL     1     -13.281  55.057  48.757  0.00  0.00    +0.000 OA
ATOM     15  O   UNL     1     -11.727  57.030  48.570  0.00  0.00    +0.000 OA
ATOM     16  N   UNL     1     -11.282  55.221  50.215  0.00  0.00    +0.000 N 
ATOM     17  C   UNL     1     -13.397  56.923  50.520  0.00  0.00    +0.000 A 
ATOM     18  C   UNL     1     -11.298  55.192  51.511  0.00  0.00    +0.000 C 
ATOM     19  C   UNL     1     -13.188  56.706  51.870  0.00  0.00    +0.000 A 
ATOM     20  C   UNL     1     -14.355  57.830  50.054  0.00  0.00    +0.000 A 
ATOM     21  N   UNL     1     -12.245  55.783  52.317  0.00  0.00    +0.000 N 
ATOM     22  C   UNL     1     -14.006  57.372  52.784  0.00  0.00    +0.000 A 
ATOM     23  C   UNL     1     -15.140  58.511  50.978  0.00  0.00    +0.000 A 
ATOM     24  C   UNL     1     -14.972  58.278  52.341  0.00  0.00    +0.000 A 
ATOM     25  H   UNL     1     -10.571  54.739  49.730  0.00  0.00    +0.000 HD
ATOM     26  H   UNL     1     -12.257  55.538  53.271  0.00  0.00    +0.000 HD
ENDBRANCH   1  18
BRANCH   3  27
ATOM     27  O   UNL     1     -11.654  52.803  53.118  0.00  0.00    +0.000 OA
ATOM     28  H   UNL     1     -11.784  51.885  52.993  0.00  0.00    +0.000 HD
ENDBRANCH   3  27
BRANCH   5  29
ATOM     29  C   UNL     1      -6.370  54.822  52.497  0.00  0.00    +0.000 C 
BRANCH  29  30
ATOM     30  C   UNL     1      -5.491  54.077  51.478  0.00  0.00    +0.000 C 
BRANCH  30  31
ATOM     31  C   UNL     1      -4.110  53.615  51.964  0.00  0.00    +0.000 C 
ATOM     32  C   UNL     1      -3.850  53.995  53.419  0.00  0.00    +0.000 C 
ATOM     33  C   UNL     1      -4.026  52.092  51.797  0.00  0.00    +0.000 C 
ENDBRANCH  30  31
ENDBRANCH  29  30
ENDBRANCH   5  29
TORSDOF 5
ENDMDL
MODEL 2
REMARK VINA RESULT:      -8.2      3.604      5.451
REMARK  Name = 338063
REMARK  8 active torsions:
REMARK  status: ('A' for Active; 'I' for Inactive)
REMARK    1  A    between atoms: C_6  and  C_10
REMARK    2  A    between atoms: C_14  and  O_18
REMARK    3  A    between atoms: N_17  and  C_21
REMARK    4  A    between atoms: C_21  and  C_24
REMARK    5  A    between atoms: C_24  and  C_27
REMARK    6  A    between atoms: C_25  and  C_28
REMARK    7  A    between atoms: C_27  and  C_29
REMARK    8  A    between atoms: C_27  and  C_30
REMARK                            x       y       z     vdW  Elec       q    Type
REMARK                         _______ _______ _______ _____ _____    ______ ____
ROOT
ATOM      1  C   UNL     1     -11.577  55.879  48.818  0.00  0.00    +0.000 A 
ATOM      2  C   UNL     1     -10.577  55.201  49.699  0.00  0.00    +0.000 A 
ATOM      3  C   UNL     1     -11.663  55.552  47.518  0.00  0.00    +0.000 A 
ATOM      4  O   UNL     1     -10.620  55.430  50.913  0.00  0.00    +0.000 OA
ATOM      5  N   UNL     1      -9.660  54.333  49.123  0.00  0.00    +0.000 N 
ATOM      6  C   UNL     1     -10.770  54.533  46.951  0.00  0.00    +0.000 A 
ATOM      7  C   UNL     1      -9.799  53.919  47.762  0.00  0.00    +0.000 A 
ATOM      8  C   UNL     1     -10.893  54.145  45.605  0.00  0.00    +0.000 A 
ATOM      9  C   UNL     1      -9.019  52.893  47.211  0.00  0.00    +0.000 A 
ATOM     10  C   UNL     1     -10.081  53.150  45.058  0.00  0.00    +0.000 A 
ATOM     11  C   UNL     1      -9.146  52.520  45.875  0.00  0.00    +0.000 A 
ATOM     12  C   UNL     1     -10.234  52.724  43.630  0.00  0.00    +0.000 C 
ENDROOT
BRANCH   1  18
ATOM     13  S   UNL     1     -13.559  59.205  49.446  0.00  0.00    +0.000 S 
ATOM     14  O   UNL     1     -14.696  59.350  48.558  0.00  0.00    +0.000 OA
ATOM     15  O   UNL     1     -12.717  60.348  49.755  0.00  0.00    +0.000 OA
ATOM     16  N   UNL     1     -12.616  58.034  48.853  0.00  0.00    +0.000 N 
ATOM     17  C   UNL     1     -14.209  58.655  50.983  0.00  0.00    +0.000 A 
ATOM     18  C   UNL     1     -12.541  56.873  49.426  0.00  0.00    +0.000 C 
ATOM     19  C   UNL     1     -13.961  57.348  51.363  0.00  0.00    +0.000 A 
ATOM     20  C   UNL     1     -14.943  59.533  51.788  0.00  0.00    +0.000 A 
ATOM     21  N   UNL     1     -13.247  56.478  50.540  0.00  0.00    +0.000 N 
ATOM     22  C   UNL     1     -14.515  56.885  52.558  0.00  0.00    +0.000 A 
ATOM     23  C   UNL     1     -15.462  59.068  52.991  0.00  0.00    +0.000 A 
ATOM     24  C   UNL     1     -15.255  57.744  53.374  0.00  0.00    +0.000 A 
ATOM     25  H   UNL     1     -12.086  58.206  48.039  0.00  0.00    +0.000 HD
ATOM     26  H   UNL     1     -13.248  55.521  50.771  0.00  0.00    +0.000 HD
ENDBRANCH   1  18
BRANCH   3  27
ATOM     27  O   UNL     1     -12.593  56.078  46.637  0.00  0.00    +0.000 OA
ATOM     28  H   UNL     1     -12.676  55.721  45.775  0.00  0.00    +0.000 HD
ENDBRANCH   3  27
BRANCH   5  29
ATOM     29  C   UNL     1      -8.637  53.737  49.992  0.00  0.00    +0.000 C 
BRANCH  29  30
ATOM     30  C   UNL     1      -7.261  54.425  49.973  0.00  0.00    +0.000 C 
BRANCH  30  31
ATOM     31  C   UNL     1      -6.944  55.368  51.144  0.00  0.00    +0.000 C 
ATOM     32  C   UNL     1      -7.492  56.775  50.920  0.00  0.00    +0.000 C 
ATOM     33  C   UNL     1      -7.544  54.767  52.421  0.00  0.00    +0.000 C 
ENDBRANCH  30  31
ENDBRANCH  29  30
ENDBRANCH   5  29
TORSDOF 5
ENDMDL
MODEL 3
REMARK VINA RESULT:      -8.1      1.676      2.488
REMARK  Name = 338063
REMARK  8 active torsions:
REMARK  status: ('A' for Active; 'I' for Inactive)
REMARK    1  A    between atoms: C_6  and  C_10
REMARK    2  A    between atoms: C_14  and  O_18
REMARK    3  A    between atoms: N_17  and  C_21
REMARK    4  A    between atoms: C_21  and  C_24
REMARK    5  A    between atoms: C_24  and  C_27
REMARK    6  A    between atoms: C_25  and  C_28
REMARK    7  A    between atoms: C_27  and  C_29
REMARK    8  A    between atoms: C_27  and  C_30
REMARK                            x       y       z     vdW  Elec       q    Type
REMARK                         _______ _______ _______ _____ _____    ______ ____
ROOT
ATOM      1  C   UNL     1     -10.102  54.586  52.134  0.00  0.00    +0.000 A 
ATOM      2  C   UNL     1      -8.703  55.111  52.090  0.00  0.00    +0.000 A 
ATOM      3  C   UNL     1     -10.386  53.480  52.842  0.00  0.00    +0.000 A 
ATOM      4  O   UNL     1      -8.506  56.201  51.542  0.00  0.00    +0.000 OA
ATOM      5  N   UNL     1      -7.691  54.366  52.680  0.00  0.00    +0.000 N 
ATOM      6  C   UNL     1      -9.324  52.776  53.571  0.00  0.00    +0.000 A 
ATOM      7  C   UNL     1      -7.998  53.238  53.503  0.00  0.00    +0.000 A 
ATOM      8  C   UNL     1      -9.625  51.651  54.360  0.00  0.00    +0.000 A 
ATOM      9  C   UNL     1      -7.024  52.592  54.275  0.00  0.00    +0.000 A 
ATOM     10  C   UNL     1      -8.636  50.992  55.092  0.00  0.00    +0.000 A 
ATOM     11  C   UNL     1      -7.332  51.475  55.050  0.00  0.00    +0.000 A 
ATOM     12  C   UNL     1      -8.967  49.809  55.951  0.00  0.00    +0.000 C 
ENDROOT
BRANCH   1  18
ATOM     13  S   UNL     1     -13.476  56.495  51.540  0.00  0.00    +0.000 S 
ATOM     14  O   UNL     1     -13.418  57.877  51.978  0.00  0.00    +0.000 OA
ATOM     15  O   UNL     1     -14.663  55.695  51.789  0.00  0.00    +0.000 OA
ATOM     16  N   UNL     1     -12.208  55.721  52.175  0.00  0.00    +0.000 N 
ATOM     17  C   UNL     1     -13.275  56.530  49.794  0.00  0.00    +0.000 A 
ATOM     18  C   UNL     1     -11.201  55.359  51.442  0.00  0.00    +0.000 C 
ATOM     19  C   UNL     1     -12.085  56.061  49.269  0.00  0.00    +0.000 A 
ATOM     20  C   UNL     1     -14.306  57.012  48.980  0.00  0.00    +0.000 A 
ATOM     21  N   UNL     1     -11.059  55.605  50.094  0.00  0.00    +0.000 N 
ATOM     22  C   UNL     1     -11.895  56.130  47.887  0.00  0.00    +0.000 A 
ATOM     23  C   UNL     1     -14.115  57.046  47.603  0.00  0.00    +0.000 A 
ATOM     24  C   UNL     1     -12.909  56.612  47.056  0.00  0.00    +0.000 A 
ATOM     25  H   UNL     1     -12.199  55.520  53.140  0.00  0.00    +0.000 HD
ATOM     26  H   UNL     1     -10.176  55.448  49.688  0.00  0.00    +0.000 HD
ENDBRANCH   1  18
BRANCH   3  27
ATOM     27  O   UNL     1     -11.657  52.951  52.993  0.00  0.00    +0.000 OA
ATOM     28  H   UNL     1     -12.271  53.364  53.567  0.00  0.00    +0.000 HD
ENDBRANCH   3  27
BRANCH   5  29
ATOM     29  C   UNL     1      -6.314  54.859  52.559  0.00  0.00    +0.000 C 
BRANCH  29  30
ATOM     30  C   UNL     1      -5.436  54.141  51.519  0.00  0.00    +0.000 C 
BRANCH  30  31
ATOM     31  C   UNL     1      -5.899  54.212  50.056  0.00  0.00    +0.000 C 
ATOM     32  C   UNL     1      -4.747  54.498  49.097  0.00  0.00    +0.000 C 
ATOM     33  C   UNL     1      -6.563  52.877  49.697  0.00  0.00    +0.000 C 
ENDBRANCH  30  31
ENDBRANCH  29  30
ENDBRANCH   5  29
TORSDOF 5
ENDMDL
MODEL 4
REMARK VINA RESULT:      -8.1      3.846      5.522
REMARK  Name = 338063
REMARK  8 active torsions:
REMARK  status: ('A' for Active; 'I' for Inactive)
REMARK    1  A    between atoms: C_6  and  C_10
REMARK    2  A    between atoms: C_14  and  O_18
REMARK    3  A    between atoms: N_17  and  C_21
REMARK    4  A    between atoms: C_21  and  C_24
REMARK    5  A    between atoms: C_24  and  C_27
REMARK    6  A    between atoms: C_25  and  C_28
REMARK    7  A    between atoms: C_27  and  C_29
REMARK    8  A    between atoms: C_27  and  C_30
REMARK                            x       y       z     vdW  Elec       q    Type
REMARK                         _______ _______ _______ _____ _____    ______ ____
ROOT
ATOM      1  C   UNL     1     -10.881  55.518  48.727  0.00  0.00    +0.000 A 
ATOM      2  C   UNL     1      -9.607  55.073  49.370  0.00  0.00    +0.000 A 
ATOM      3  C   UNL     1     -11.153  55.174  47.457  0.00  0.00    +0.000 A 
ATOM      4  O   UNL     1      -9.454  55.293  50.577  0.00  0.00    +0.000 OA
ATOM      5  N   UNL     1      -8.661  54.416  48.594  0.00  0.00    +0.000 N 
ATOM      6  C   UNL     1     -10.197  54.366  46.690  0.00  0.00    +0.000 A 
ATOM      7  C   UNL     1      -8.978  53.976  47.271  0.00  0.00    +0.000 A 
ATOM      8  C   UNL     1     -10.502  53.954  45.379  0.00  0.00    +0.000 A 
ATOM      9  C   UNL     1      -8.126  53.138  46.541  0.00  0.00    +0.000 A 
ATOM     10  C   UNL     1      -9.624  53.152  44.648  0.00  0.00    +0.000 A 
ATOM     11  C   UNL     1      -8.435  52.740  45.241  0.00  0.00    +0.000 A 
ATOM     12  C   UNL     1      -9.965  52.696  43.262  0.00  0.00    +0.000 C 
ENDROOT
BRANCH   1  18
ATOM     13  S   UNL     1     -13.567  56.346  51.462  0.00  0.00    +0.000 S 
ATOM     14  O   UNL     1     -12.973  56.667  52.746  0.00  0.00    +0.000 OA
ATOM     15  O   UNL     1     -14.761  55.522  51.390  0.00  0.00    +0.000 OA
ATOM     16  N   UNL     1     -12.427  55.657  50.548  0.00  0.00    +0.000 N 
ATOM     17  C   UNL     1     -13.998  57.885  50.729  0.00  0.00    +0.000 A 
ATOM     18  C   UNL     1     -11.891  56.287  49.548  0.00  0.00    +0.000 C 
ATOM     19  C   UNL     1     -13.254  58.318  49.646  0.00  0.00    +0.000 A 
ATOM     20  C   UNL     1     -15.072  58.625  51.235  0.00  0.00    +0.000 A 
ATOM     21  N   UNL     1     -12.174  57.580  49.168  0.00  0.00    +0.000 N 
ATOM     22  C   UNL     1     -13.555  59.562  49.087  0.00  0.00    +0.000 A 
ATOM     23  C   UNL     1     -15.381  59.848  50.648  0.00  0.00    +0.000 A 
ATOM     24  C   UNL     1     -14.620  60.320  49.580  0.00  0.00    +0.000 A 
ATOM     25  H   UNL     1     -12.132  54.739  50.753  0.00  0.00    +0.000 HD
ATOM     26  H   UNL     1     -11.574  58.010  48.516  0.00  0.00    +0.000 HD
ENDBRANCH   1  18
BRANCH   3  27
ATOM     27  O   UNL     1     -12.328  55.486  46.795  0.00  0.00    +0.000 OA
ATOM     28  H   UNL     1     -12.419  55.289  45.884  0.00  0.00    +0.000 HD
ENDBRANCH   3  27
BRANCH   5  29
ATOM     29  C   UNL     1      -7.384  54.057  49.223  0.00  0.00    +0.000 C 
BRANCH  29  30
ATOM     30  C   UNL     1      -6.270  55.114  49.127  0.00  0.00    +0.000 C 
BRANCH  30  31
ATOM     31  C   UNL     1      -4.828  54.617  49.312  0.00  0.00    +0.000 C 
ATOM     32  C   UNL     1      -4.606  53.979  50.680  0.00  0.00    +0.000 C 
ATOM     33  C   UNL     1      -4.524  53.600  48.203  0.00  0.00    +0.000 C 
ENDBRANCH  30  31
ENDBRANCH  29  30
ENDBRANCH   5  29
TORSDOF 5
ENDMDL
MODEL 5
REMARK VINA RESULT:      -7.9      4.053      5.991
REMARK  Name = 338063
REMARK  8 active torsions:
REMARK  status: ('A' for Active; 'I' for Inactive)
REMARK    1  A    between atoms: C_6  and  C_10
REMARK    2  A    between atoms: C_14  and  O_18
REMARK    3  A    between atoms: N_17  and  C_21
REMARK    4  A    between atoms: C_21  and  C_24
REMARK    5  A    between atoms: C_24  and  C_27
REMARK    6  A    between atoms: C_25  and  C_28
REMARK    7  A    between atoms: C_27  and  C_29
REMARK    8  A    between atoms: C_27  and  C_30
REMARK                            x       y       z     vdW  Elec       q    Type
REMARK                         _______ _______ _______ _____ _____    ______ ____
ROOT
ATOM      1  C   UNL     1     -11.461  56.011  48.752  0.00  0.00    +0.000 A 
ATOM      2  C   UNL     1     -11.670  55.571  47.338  0.00  0.00    +0.000 A 
ATOM      3  C   UNL     1     -10.368  55.620  49.426  0.00  0.00    +0.000 A 
ATOM      4  O   UNL     1     -12.615  56.058  46.708  0.00  0.00    +0.000 OA
ATOM      5  N   UNL     1     -10.786  54.652  46.788  0.00  0.00    +0.000 N 
ATOM      6  C   UNL     1      -9.373  54.752  48.784  0.00  0.00    +0.000 A 
ATOM      7  C   UNL     1      -9.580  54.299  47.469  0.00  0.00    +0.000 A 
ATOM      8  C   UNL     1      -8.198  54.386  49.466  0.00  0.00    +0.000 A 
ATOM      9  C   UNL     1      -8.574  53.539  46.857  0.00  0.00    +0.000 A 
ATOM     10  C   UNL     1      -7.223  53.594  48.857  0.00  0.00    +0.000 A 
ATOM     11  C   UNL     1      -7.415  53.179  47.544  0.00  0.00    +0.000 A 
ATOM     12  C   UNL     1      -5.962  53.228  49.580  0.00  0.00    +0.000 C 
ENDROOT
BRANCH   1  18
ATOM     13  S   UNL     1     -13.537  59.266  49.446  0.00  0.00    +0.000 S 
ATOM     14  O   UNL     1     -14.678  59.396  48.561  0.00  0.00    +0.000 OA
ATOM     15  O   UNL     1     -12.728  60.426  49.779  0.00  0.00    +0.000 OA
ATOM     16  N   UNL     1     -12.561  58.134  48.830  0.00  0.00    +0.000 N 
ATOM     17  C   UNL     1     -14.171  58.666  50.972  0.00  0.00    +0.000 A 
ATOM     18  C   UNL     1     -12.452  56.964  49.379  0.00  0.00    +0.000 C 
ATOM     19  C   UNL     1     -13.886  57.359  51.324  0.00  0.00    +0.000 A 
ATOM     20  C   UNL     1     -14.930  59.507  51.794  0.00  0.00    +0.000 A 
ATOM     21  N   UNL     1     -13.147  56.528  50.485  0.00  0.00    +0.000 N 
ATOM     22  C   UNL     1     -14.426  56.857  52.510  0.00  0.00    +0.000 A 
ATOM     23  C   UNL     1     -15.435  59.003  52.987  0.00  0.00    +0.000 A 
ATOM     24  C   UNL     1     -15.190  57.678  53.343  0.00  0.00    +0.000 A 
ATOM     25  H   UNL     1     -12.036  58.338  48.021  0.00  0.00    +0.000 HD
ATOM     26  H   UNL     1     -13.121  55.566  50.696  0.00  0.00    +0.000 HD
ENDBRANCH   1  18
BRANCH   3  27
ATOM     27  O   UNL     1     -10.056  56.022  50.715  0.00  0.00    +0.000 OA
ATOM     28  H   UNL     1      -9.284  56.527  50.874  0.00  0.00    +0.000 HD
ENDBRANCH   3  27
BRANCH   5  29
ATOM     29  C   UNL     1     -11.051  54.172  45.426  0.00  0.00    +0.000 C 
BRANCH  29  30
ATOM     30  C   UNL     1     -11.844  52.858  45.323  0.00  0.00    +0.000 C 
BRANCH  30  31
ATOM     31  C   UNL     1     -11.221  51.740  44.473  0.00  0.00    +0.000 C 
ATOM     32  C   UNL     1     -10.188  52.271  43.483  0.00  0.00    +0.000 C 
ATOM     33  C   UNL     1     -10.568  50.725  45.419  0.00  0.00    +0.000 C 
ENDBRANCH  30  31
ENDBRANCH  29  30
ENDBRANCH   5  29
TORSDOF 5
ENDMDL
MODEL 6
REMARK VINA RESULT:      -7.8      3.958      5.700
REMARK  Name = 338063
REMARK  8 active torsions:
REMARK  status: ('A' for Active; 'I' for Inactive)
REMARK    1  A    between atoms: C_6  and  C_10
REMARK    2  A    between atoms: C_14  and  O_18
REMARK    3  A    between atoms: N_17  and  C_21
REMARK    4  A    between atoms: C_21  and  C_24
REMARK    5  A    between atoms: C_24  and  C_27
REMARK    6  A    between atoms: C_25  and  C_28
REMARK    7  A    between atoms: C_27  and  C_29
REMARK    8  A    between atoms: C_27  and  C_30
REMARK                            x       y       z     vdW  Elec       q    Type
REMARK                         _______ _______ _______ _____ _____    ______ ____
ROOT
ATOM      1  C   UNL     1     -11.622  54.887  48.707  0.00  0.00    +0.000 A 
ATOM      2  C   UNL     1     -10.751  53.985  49.521  0.00  0.00    +0.000 A 
ATOM      3  C   UNL     1     -11.603  54.816  47.366  0.00  0.00    +0.000 A 
ATOM      4  O   UNL     1     -10.894  53.985  50.748  0.00  0.00    +0.000 OA
ATOM      5  N   UNL     1      -9.834  53.173  48.865  0.00  0.00    +0.000 N 
ATOM      6  C   UNL     1     -10.721  53.857  46.689  0.00  0.00    +0.000 A 
ATOM      7  C   UNL     1      -9.868  53.032  47.443  0.00  0.00    +0.000 A 
ATOM      8  C   UNL     1     -10.738  53.738  45.287  0.00  0.00    +0.000 A 
ATOM      9  C   UNL     1      -9.099  52.073  46.771  0.00  0.00    +0.000 A 
ATOM     10  C   UNL     1      -9.936  52.804  44.628  0.00  0.00    +0.000 A 
ATOM     11  C   UNL     1      -9.120  51.966  45.382  0.00  0.00    +0.000 A 
ATOM     12  C   UNL     1      -9.977  52.665  43.137  0.00  0.00    +0.000 C 
ENDROOT
BRANCH   1  18
ATOM     13  S   UNL     1     -14.665  56.150  50.835  0.00  0.00    +0.000 S 
ATOM     14  O   UNL     1     -14.414  56.077  52.262  0.00  0.00    +0.000 OA
ATOM     15  O   UNL     1     -15.962  55.775  50.297  0.00  0.00    +0.000 OA
ATOM     16  N   UNL     1     -13.538  55.263  50.089  0.00  0.00    +0.000 N 
ATOM     17  C   UNL     1     -14.423  57.831  50.384  0.00  0.00    +0.000 A 
ATOM     18  C   UNL     1     -12.580  55.819  49.414  0.00  0.00    +0.000 C 
ATOM     19  C   UNL     1     -13.303  58.147  49.636  0.00  0.00    +0.000 A 
ATOM     20  C   UNL     1     -15.354  58.801  50.771  0.00  0.00    +0.000 A 
ATOM     21  N   UNL     1     -12.374  57.173  49.276  0.00  0.00    +0.000 N 
ATOM     22  C   UNL     1     -13.075  59.487  49.314  0.00  0.00    +0.000 A 
ATOM     23  C   UNL     1     -15.130  60.127  50.417  0.00  0.00    +0.000 A 
ATOM     24  C   UNL     1     -13.989  60.472  49.695  0.00  0.00    +0.000 A 
ATOM     25  H   UNL     1     -13.580  54.280  50.148  0.00  0.00    +0.000 HD
ATOM     26  H   UNL     1     -11.515  57.473  48.900  0.00  0.00    +0.000 HD
ENDBRANCH   1  18
BRANCH   3  27
ATOM     27  O   UNL     1     -12.414  55.565  46.530  0.00  0.00    +0.000 OA
ATOM     28  H   UNL     1     -12.986  55.136  45.925  0.00  0.00    +0.000 HD
ENDBRANCH   3  27
BRANCH   5  29
ATOM     29  C   UNL     1      -8.934  52.352  49.684  0.00  0.00    +0.000 C 
BRANCH  29  30
ATOM     30  C   UNL     1      -7.555  52.965  49.981  0.00  0.00    +0.000 C 
BRANCH  30  31
ATOM     31  C   UNL     1      -7.294  54.377  49.434  0.00  0.00    +0.000 C 
ATOM     32  C   UNL     1      -6.604  55.277  50.456  0.00  0.00    +0.000 C 
ATOM     33  C   UNL     1      -6.425  54.251  48.175  0.00  0.00    +0.000 C 
ENDBRANCH  30  31
ENDBRANCH  29  30
ENDBRANCH   5  29
TORSDOF 5
ENDMDL
MODEL 7
REMARK VINA RESULT:      -7.8      3.157      7.575
REMARK  Name = 338063
REMARK  8 active torsions:
REMARK  status: ('A' for Active; 'I' for Inactive)
REMARK    1  A    between atoms: C_6  and  C_10
REMARK    2  A    between atoms: C_14  and  O_18
REMARK    3  A    between atoms: N_17  and  C_21
REMARK    4  A    between atoms: C_21  and  C_24
REMARK    5  A    between atoms: C_24  and  C_27
REMARK    6  A    between atoms: C_25  and  C_28
REMARK    7  A    between atoms: C_27  and  C_29
REMARK    8  A    between atoms: C_27  and  C_30
REMARK                            x       y       z     vdW  Elec       q    Type
REMARK                         _______ _______ _______ _____ _____    ______ ____
ROOT
ATOM      1  C   UNL     1     -10.192  55.210  51.004  0.00  0.00    +0.000 A 
ATOM      2  C   UNL     1      -9.959  55.186  49.527  0.00  0.00    +0.000 A 
ATOM      3  C   UNL     1     -11.392  55.564  51.492  0.00  0.00    +0.000 A 
ATOM      4  O   UNL     1      -8.889  54.727  49.113  0.00  0.00    +0.000 OA
ATOM      5  N   UNL     1     -10.957  55.659  48.686  0.00  0.00    +0.000 N 
ATOM      6  C   UNL     1     -12.481  55.937  50.580  0.00  0.00    +0.000 A 
ATOM      7  C   UNL     1     -12.260  55.957  49.192  0.00  0.00    +0.000 A 
ATOM      8  C   UNL     1     -13.756  56.253  51.083  0.00  0.00    +0.000 A 
ATOM      9  C   UNL     1     -13.342  56.237  48.347  0.00  0.00    +0.000 A 
ATOM     10  C   UNL     1     -14.815  56.571  50.230  0.00  0.00    +0.000 A 
ATOM     11  C   UNL     1     -14.600  56.554  48.855  0.00  0.00    +0.000 A 
ATOM     12  C   UNL     1     -16.177  56.883  50.770  0.00  0.00    +0.000 C 
ENDROOT
BRANCH   1  18
ATOM     13  S   UNL     1      -6.677  54.938  52.721  0.00  0.00    +0.000 S 
ATOM     14  O   UNL     1      -6.473  55.954  53.736  0.00  0.00    +0.000 OA
ATOM     15  O   UNL     1      -5.600  54.577  51.815  0.00  0.00    +0.000 OA
ATOM     16  N   UNL     1      -7.954  55.375  51.833  0.00  0.00    +0.000 N 
ATOM     17  C   UNL     1      -7.092  53.465  53.586  0.00  0.00    +0.000 A 
ATOM     18  C   UNL     1      -9.088  54.754  51.931  0.00  0.00    +0.000 C 
ATOM     19  C   UNL     1      -8.396  53.011  53.505  0.00  0.00    +0.000 A 
ATOM     20  C   UNL     1      -6.114  52.783  54.319  0.00  0.00    +0.000 A 
ATOM     21  N   UNL     1      -9.364  53.713  52.790  0.00  0.00    +0.000 N 
ATOM     22  C   UNL     1      -8.750  51.870  54.229  0.00  0.00    +0.000 A 
ATOM     23  C   UNL     1      -6.473  51.630  55.009  0.00  0.00    +0.000 A 
ATOM     24  C   UNL     1      -7.790  51.177  54.970  0.00  0.00    +0.000 A 
ATOM     25  H   UNL     1      -7.869  56.128  51.203  0.00  0.00    +0.000 HD
ATOM     26  H   UNL     1     -10.305  53.449  52.906  0.00  0.00    +0.000 HD
ENDBRANCH   1  18
BRANCH   3  27
ATOM     27  O   UNL     1     -11.723  55.560  52.837  0.00  0.00    +0.000 OA
ATOM     28  H   UNL     1     -11.059  55.693  53.483  0.00  0.00    +0.000 HD
ENDBRANCH   3  27
BRANCH   5  29
ATOM     29  C   UNL     1     -10.680  55.700  47.245  0.00  0.00    +0.000 C 
BRANCH  29  30
ATOM     30  C   UNL     1     -11.235  54.523  46.423  0.00  0.00    +0.000 C 
BRANCH  30  31
ATOM     31  C   UNL     1     -10.205  53.572  45.796  0.00  0.00    +0.000 C 
ATOM     32  C   UNL     1     -10.681  52.998  44.464  0.00  0.00    +0.000 C 
ATOM     33  C   UNL     1      -8.895  54.346  45.595  0.00  0.00    +0.000 C 
ENDBRANCH  30  31
ENDBRANCH  29  30
ENDBRANCH   5  29
TORSDOF 5
ENDMDL
MODEL 8
REMARK VINA RESULT:      -7.8      4.124      6.111
REMARK  Name = 338063
REMARK  8 active torsions:
REMARK  status: ('A' for Active; 'I' for Inactive)
REMARK    1  A    between atoms: C_6  and  C_10
REMARK    2  A    between atoms: C_14  and  O_18
REMARK    3  A    between atoms: N_17  and  C_21
REMARK    4  A    between atoms: C_21  and  C_24
REMARK    5  A    between atoms: C_24  and  C_27
REMARK    6  A    between atoms: C_25  and  C_28
REMARK    7  A    between atoms: C_27  and  C_29
REMARK    8  A    between atoms: C_27  and  C_30
REMARK                            x       y       z     vdW  Elec       q    Type
REMARK                         _______ _______ _______ _____ _____    ______ ____
ROOT
ATOM      1  C   UNL     1     -10.800  55.687  48.740  0.00  0.00    +0.000 A 
ATOM      2  C   UNL     1     -11.145  55.238  47.356  0.00  0.00    +0.000 A 
ATOM      3  C   UNL     1      -9.557  55.511  49.217  0.00  0.00    +0.000 A 
ATOM      4  O   UNL     1     -12.256  55.537  46.906  0.00  0.00    +0.000 OA
ATOM      5  N   UNL     1     -10.200  54.524  46.631  0.00  0.00    +0.000 N 
ATOM      6  C   UNL     1      -8.530  54.871  48.386  0.00  0.00    +0.000 A 
ATOM      7  C   UNL     1      -8.854  54.408  47.099  0.00  0.00    +0.000 A 
ATOM      8  C   UNL     1      -7.212  54.736  48.858  0.00  0.00    +0.000 A 
ATOM      9  C   UNL     1      -7.832  53.876  46.302  0.00  0.00    +0.000 A 
ATOM     10  C   UNL     1      -6.212  54.166  48.068  0.00  0.00    +0.000 A 
ATOM     11  C   UNL     1      -6.530  53.743  46.781  0.00  0.00    +0.000 A 
ATOM     12  C   UNL     1      -4.804  54.048  48.567  0.00  0.00    +0.000 C 
ENDROOT
BRANCH   1  18
ATOM     13  S   UNL     1     -13.547  56.389  51.450  0.00  0.00    +0.000 S 
ATOM     14  O   UNL     1     -12.980  56.704  52.747  0.00  0.00    +0.000 OA
ATOM     15  O   UNL     1     -14.715  55.531  51.347  0.00  0.00    +0.000 OA
ATOM     16  N   UNL     1     -12.374  55.749  50.541  0.00  0.00    +0.000 N 
ATOM     17  C   UNL     1     -14.013  57.926  50.737  0.00  0.00    +0.000 A 
ATOM     18  C   UNL     1     -11.843  56.411  49.560  0.00  0.00    +0.000 C 
ATOM     19  C   UNL     1     -13.267  58.400  49.673  0.00  0.00    +0.000 A 
ATOM     20  C   UNL     1     -15.115  58.627  51.240  0.00  0.00    +0.000 A 
ATOM     21  N   UNL     1     -12.159  57.702  49.197  0.00  0.00    +0.000 N 
ATOM     22  C   UNL     1     -13.597  59.644  49.131  0.00  0.00    +0.000 A 
ATOM     23  C   UNL     1     -15.451  59.849  50.670  0.00  0.00    +0.000 A 
ATOM     24  C   UNL     1     -14.691  60.362  49.621  0.00  0.00    +0.000 A 
ATOM     25  H   UNL     1     -12.056  54.837  50.735  0.00  0.00    +0.000 HD
ATOM     26  H   UNL     1     -11.563  58.161  48.562  0.00  0.00    +0.000 HD
ENDBRANCH   1  18
BRANCH   3  27
ATOM     27  O   UNL     1      -9.125  55.945  50.459  0.00  0.00    +0.000 OA
ATOM     28  H   UNL     1      -9.543  56.676  50.871  0.00  0.00    +0.000 HD
ENDBRANCH   3  27
BRANCH   5  29
ATOM     29  C   UNL     1     -10.584  54.024  45.306  0.00  0.00    +0.000 C 
BRANCH  29  30
ATOM     30  C   UNL     1     -11.460  52.760  45.296  0.00  0.00    +0.000 C 
BRANCH  30  31
ATOM     31  C   UNL     1     -11.286  51.789  46.474  0.00  0.00    +0.000 C 
ATOM     32  C   UNL     1     -12.552  50.983  46.752  0.00  0.00    +0.000 C 
ATOM     33  C   UNL     1     -10.122  50.844  46.150  0.00  0.00    +0.000 C 
ENDBRANCH  30  31
ENDBRANCH  29  30
ENDBRANCH   5  29
TORSDOF 5
ENDMDL
MODEL 9
REMARK VINA RESULT:      -7.7      4.517      7.106
REMARK  Name = 338063
REMARK  8 active torsions:
REMARK  status: ('A' for Active; 'I' for Inactive)
REMARK    1  A    between atoms: C_6  and  C_10
REMARK    2  A    between atoms: C_14  and  O_18
REMARK    3  A    between atoms: N_17  and  C_21
REMARK    4  A    between atoms: C_21  and  C_24
REMARK    5  A    between atoms: C_24  and  C_27
REMARK    6  A    between atoms: C_25  and  C_28
REMARK    7  A    between atoms: C_27  and  C_29
REMARK    8  A    between atoms: C_27  and  C_30
REMARK                            x       y       z     vdW  Elec       q    Type
REMARK                         _______ _______ _______ _____ _____    ______ ____
ROOT
ATOM      1  C   UNL     1     -10.767  54.446  48.703  0.00  0.00    +0.000 A 
ATOM      2  C   UNL     1     -10.271  54.020  50.048  0.00  0.00    +0.000 A 
ATOM      3  C   UNL     1     -11.777  55.326  48.603  0.00  0.00    +0.000 A 
ATOM      4  O   UNL     1      -9.256  53.316  50.099  0.00  0.00    +0.000 OA
ATOM      5  N   UNL     1     -10.955  54.446  51.178  0.00  0.00    +0.000 N 
ATOM      6  C   UNL     1     -12.405  55.870  49.814  0.00  0.00    +0.000 A 
ATOM      7  C   UNL     1     -11.974  55.445  51.082  0.00  0.00    +0.000 A 
ATOM      8  C   UNL     1     -13.424  56.835  49.717  0.00  0.00    +0.000 A 
ATOM      9  C   UNL     1     -12.538  56.044  52.217  0.00  0.00    +0.000 A 
ATOM     10  C   UNL     1     -14.007  57.393  50.857  0.00  0.00    +0.000 A 
ATOM     11  C   UNL     1     -13.550  56.996  52.109  0.00  0.00    +0.000 A 
ATOM     12  C   UNL     1     -15.074  58.439  50.747  0.00  0.00    +0.000 C 
ENDROOT
BRANCH   1  18
ATOM     13  S   UNL     1      -8.036  53.968  45.929  0.00  0.00    +0.000 S 
ATOM     14  O   UNL     1      -6.987  53.052  46.334  0.00  0.00    +0.000 OA
ATOM     15  O   UNL     1      -7.710  55.182  45.201  0.00  0.00    +0.000 OA
ATOM     16  N   UNL     1      -8.866  54.384  47.252  0.00  0.00    +0.000 N 
ATOM     17  C   UNL     1      -9.106  53.049  44.880  0.00  0.00    +0.000 A 
ATOM     18  C   UNL     1     -10.065  53.938  47.464  0.00  0.00    +0.000 C 
ATOM     19  C   UNL     1     -10.358  52.713  45.364  0.00  0.00    +0.000 A 
ATOM     20  C   UNL     1      -8.687  52.689  43.594  0.00  0.00    +0.000 A 
ATOM     21  N   UNL     1     -10.752  53.060  46.655  0.00  0.00    +0.000 N 
ATOM     22  C   UNL     1     -11.197  51.941  44.559  0.00  0.00    +0.000 A 
ATOM     23  C   UNL     1      -9.546  51.947  42.791  0.00  0.00    +0.000 A 
ATOM     24  C   UNL     1     -10.797  51.567  43.274  0.00  0.00    +0.000 A 
ATOM     25  H   UNL     1      -8.453  54.990  47.910  0.00  0.00    +0.000 HD
ATOM     26  H   UNL     1     -11.573  52.651  47.011  0.00  0.00    +0.000 HD
ENDBRANCH   1  18
BRANCH   3  27
ATOM     27  O   UNL     1     -12.266  55.827  47.408  0.00  0.00    +0.000 OA
ATOM     28  H   UNL     1     -12.651  55.248  46.781  0.00  0.00    +0.000 HD
ENDBRANCH   3  27
BRANCH   5  29
ATOM     29  C   UNL     1     -10.500  53.954  52.484  0.00  0.00    +0.000 C 
BRANCH  29  30
ATOM     30  C   UNL     1      -9.622  54.923  53.294  0.00  0.00    +0.000 C 
BRANCH  30  31
ATOM     31  C   UNL     1      -8.117  54.914  52.986  0.00  0.00    +0.000 C 
ATOM     32  C   UNL     1      -7.735  55.946  51.930  0.00  0.00    +0.000 C 
ATOM     33  C   UNL     1      -7.358  55.192  54.290  0.00  0.00    +0.000 C 
ENDBRANCH  30  31
ENDBRANCH  29  30
ENDBRANCH   5  29
TORSDOF 5
ENDMDL
