MODEL 1
REMARK VINA RESULT:      -8.1      0.000      0.000
REMARK  Name = 338256
REMARK  8 active torsions:
REMARK  status: ('A' for Active; 'I' for Inactive)
REMARK    1  A    between atoms: C_6  and  C_10
REMARK    2  A    between atoms: N_9  and  C_13
REMARK    3  A    between atoms: C_15  and  O_19
REMARK    4  A    between atoms: N_18  and  C_22
REMARK    5  A    between atoms: C_22  and  C_25
REMARK    6  A    between atoms: C_25  and  C_28
REMARK    7  A    between atoms: C_28  and  C_29
REMARK    8  A    between atoms: C_28  and  C_30
REMARK                            x       y       z     vdW  Elec       q    Type
REMARK                         _______ _______ _______ _____ _____    ______ ____
ROOT
ATOM      1  C   UNL     1     -11.445  56.121  48.567  0.00  0.00    +0.000 A 
ATOM      2  C   UNL     1     -11.860  55.454  47.291  0.00  0.00    +0.000 A 
ATOM      3  C   UNL     1     -10.223  55.762  49.021  0.00  0.00    +0.000 A 
ATOM      4  O   UNL     1     -12.608  55.964  46.466  0.00  0.00    +0.000 OA
ATOM      5  N   UNL     1     -11.397  54.112  47.194  0.00  0.00    +0.000 N 
ATOM      6  C   UNL     1      -9.345  54.995  48.150  0.00  0.00    +0.000 A 
ATOM      7  C   UNL     1      -9.962  54.055  47.312  0.00  0.00    +0.000 A 
ATOM      8  C   UNL     1      -7.973  55.223  48.092  0.00  0.00    +0.000 A 
ATOM      9  C   UNL     1      -9.186  53.287  46.448  0.00  0.00    +0.000 A 
ATOM     10  C   UNL     1      -7.208  54.519  47.171  0.00  0.00    +0.000 A 
ATOM     11  C   UNL     1      -7.807  53.538  46.370  0.00  0.00    +0.000 A 
ENDROOT
BRANCH   1  17
ATOM     12  S   UNL     1     -13.508  59.211  49.489  0.00  0.00    +0.000 S 
ATOM     13  O   UNL     1     -12.821  60.442  49.786  0.00  0.00    +0.000 OA
ATOM     14  O   UNL     1     -14.606  59.193  48.549  0.00  0.00    +0.000 OA
ATOM     15  N   UNL     1     -12.416  58.158  48.974  0.00  0.00    +0.000 N 
ATOM     16  C   UNL     1     -14.136  58.604  50.994  0.00  0.00    +0.000 A 
ATOM     17  C   UNL     1     -12.342  56.944  49.448  0.00  0.00    +0.000 C 
ATOM     18  C   UNL     1     -13.825  57.305  51.386  0.00  0.00    +0.000 A 
ATOM     19  C   UNL     1     -14.960  59.470  51.729  0.00  0.00    +0.000 A 
ATOM     20  N   UNL     1     -13.027  56.459  50.571  0.00  0.00    +0.000 N 
ATOM     21  C   UNL     1     -14.367  56.911  52.624  0.00  0.00    +0.000 A 
ATOM     22  C   UNL     1     -15.494  59.040  52.930  0.00  0.00    +0.000 A 
ATOM     23  C   UNL     1     -12.999  55.046  50.971  0.00  0.00    +0.000 C 
ATOM     24  C   UNL     1     -15.189  57.763  53.382  0.00  0.00    +0.000 A 
ATOM     25  H   UNL     1     -11.780  58.435  48.276  0.00  0.00    +0.000 HD
ENDBRANCH   1  17
BRANCH   3  26
ATOM     26  O   UNL     1      -9.758  55.907  50.309  0.00  0.00    +0.000 OA
ATOM     27  H   UNL     1      -9.704  55.162  50.874  0.00  0.00    +0.000 HD
ENDBRANCH   3  26
BRANCH   5  28
ATOM     28  C   UNL     1     -12.101  53.229  48.157  0.00  0.00    +0.000 C 
BRANCH  28  29
ATOM     29  C   UNL     1     -11.724  51.741  47.996  0.00  0.00    +0.000 C 
BRANCH  29  30
ATOM     30  C   UNL     1     -12.618  50.983  47.005  0.00  0.00    +0.000 C 
ATOM     31  C   UNL     1     -11.963  50.882  45.628  0.00  0.00    +0.000 C 
ATOM     32  C   UNL     1     -12.932  49.581  47.530  0.00  0.00    +0.000 C 
ENDBRANCH  29  30
ENDBRANCH  28  29
ENDBRANCH   5  28
TORSDOF 5
ENDMDL
MODEL 2
REMARK VINA RESULT:      -7.9      1.855      2.828
REMARK  Name = 338256
REMARK  8 active torsions:
REMARK  status: ('A' for Active; 'I' for Inactive)
REMARK    1  A    between atoms: C_6  and  C_10
REMARK    2  A    between atoms: N_9  and  C_13
REMARK    3  A    between atoms: C_15  and  O_19
REMARK    4  A    between atoms: N_18  and  C_22
REMARK    5  A    between atoms: C_22  and  C_25
REMARK    6  A    between atoms: C_25  and  C_28
REMARK    7  A    between atoms: C_28  and  C_29
REMARK    8  A    between atoms: C_28  and  C_30
REMARK                            x       y       z     vdW  Elec       q    Type
REMARK                         _______ _______ _______ _____ _____    ______ ____
ROOT
ATOM      1  C   UNL     1     -10.813  54.893  49.520  0.00  0.00    +0.000 A 
ATOM      2  C   UNL     1      -9.405  55.276  49.181  0.00  0.00    +0.000 A 
ATOM      3  C   UNL     1     -11.141  53.616  49.218  0.00  0.00    +0.000 A 
ATOM      4  O   UNL     1      -8.760  56.117  49.793  0.00  0.00    +0.000 OA
ATOM      5  N   UNL     1      -8.934  54.650  47.993  0.00  0.00    +0.000 N 
ATOM      6  C   UNL     1     -10.085  52.687  48.845  0.00  0.00    +0.000 A 
ATOM      7  C   UNL     1      -9.022  53.215  48.099  0.00  0.00    +0.000 A 
ATOM      8  C   UNL     1     -10.084  51.359  49.264  0.00  0.00    +0.000 A 
ATOM      9  C   UNL     1      -7.973  52.386  47.711  0.00  0.00    +0.000 A 
ATOM     10  C   UNL     1      -8.997  50.551  48.951  0.00  0.00    +0.000 A 
ATOM     11  C   UNL     1      -7.959  51.055  48.157  0.00  0.00    +0.000 A 
ENDROOT
BRANCH   1  17
ATOM     12  S   UNL     1     -13.790  57.227  48.936  0.00  0.00    +0.000 S 
ATOM     13  O   UNL     1     -13.574  58.468  48.237  0.00  0.00    +0.000 OA
ATOM     14  O   UNL     1     -14.859  56.339  48.537  0.00  0.00    +0.000 OA
ATOM     15  N   UNL     1     -12.424  56.392  48.877  0.00  0.00    +0.000 N 
ATOM     16  C   UNL     1     -14.077  57.626  50.605  0.00  0.00    +0.000 A 
ATOM     17  C   UNL     1     -11.895  55.848  49.939  0.00  0.00    +0.000 C 
ATOM     18  C   UNL     1     -13.300  57.023  51.590  0.00  0.00    +0.000 A 
ATOM     19  C   UNL     1     -15.114  58.534  50.867  0.00  0.00    +0.000 A 
ATOM     20  N   UNL     1     -12.299  56.072  51.262  0.00  0.00    +0.000 N 
ATOM     21  C   UNL     1     -13.597  57.421  52.908  0.00  0.00    +0.000 A 
ATOM     22  C   UNL     1     -15.392  58.884  52.176  0.00  0.00    +0.000 A 
ATOM     23  C   UNL     1     -11.745  55.325  52.400  0.00  0.00    +0.000 C 
ATOM     24  C   UNL     1     -14.626  58.335  53.196  0.00  0.00    +0.000 A 
ATOM     25  H   UNL     1     -11.969  56.286  48.012  0.00  0.00    +0.000 HD
ENDBRANCH   1  17
BRANCH   3  26
ATOM     26  O   UNL     1     -12.415  53.117  49.063  0.00  0.00    +0.000 OA
ATOM     27  H   UNL     1     -12.612  52.550  48.344  0.00  0.00    +0.000 HD
ENDBRANCH   3  26
BRANCH   5  28
ATOM     28  C   UNL     1      -9.616  55.192  46.792  0.00  0.00    +0.000 C 
BRANCH  28  29
ATOM     29  C   UNL     1      -9.635  54.200  45.610  0.00  0.00    +0.000 C 
BRANCH  29  30
ATOM     30  C   UNL     1     -11.050  53.825  45.145  0.00  0.00    +0.000 C 
ATOM     31  C   UNL     1     -11.327  52.336  45.349  0.00  0.00    +0.000 C 
ATOM     32  C   UNL     1     -12.097  54.651  45.895  0.00  0.00    +0.000 C 
ENDBRANCH  29  30
ENDBRANCH  28  29
ENDBRANCH   5  28
TORSDOF 5
ENDMDL
MODEL 3
REMARK VINA RESULT:      -7.7      3.982      6.579
REMARK  Name = 338256
REMARK  8 active torsions:
REMARK  status: ('A' for Active; 'I' for Inactive)
REMARK    1  A    between atoms: C_6  and  C_10
REMARK    2  A    between atoms: N_9  and  C_13
REMARK    3  A    between atoms: C_15  and  O_19
REMARK    4  A    between atoms: N_18  and  C_22
REMARK    5  A    between atoms: C_22  and  C_25
REMARK    6  A    between atoms: C_25  and  C_28
REMARK    7  A    between atoms: C_28  and  C_29
REMARK    8  A    between atoms: C_28  and  C_30
REMARK                            x       y       z     vdW  Elec       q    Type
REMARK                         _______ _______ _______ _____ _____    ______ ____
ROOT
ATOM      1  C   UNL     1      -9.388  54.064  49.310  0.00  0.00    +0.000 A 
ATOM      2  C   UNL     1      -9.980  55.350  48.822  0.00  0.00    +0.000 A 
ATOM      3  C   UNL     1      -9.658  52.987  48.537  0.00  0.00    +0.000 A 
ATOM      4  O   UNL     1      -9.481  56.450  49.018  0.00  0.00    +0.000 OA
ATOM      5  N   UNL     1     -11.254  55.175  48.212  0.00  0.00    +0.000 N 
ATOM      6  C   UNL     1     -10.253  53.193  47.226  0.00  0.00    +0.000 A 
ATOM      7  C   UNL     1     -11.175  54.243  47.115  0.00  0.00    +0.000 A 
ATOM      8  C   UNL     1      -9.881  52.438  46.116  0.00  0.00    +0.000 A 
ATOM      9  C   UNL     1     -11.781  54.502  45.889  0.00  0.00    +0.000 A 
ATOM     10  C   UNL     1     -10.420  52.750  44.874  0.00  0.00    +0.000 A 
ATOM     11  C   UNL     1     -11.384  53.760  44.765  0.00  0.00    +0.000 A 
ENDROOT
BRANCH   1  17
ATOM     12  S   UNL     1      -9.113  52.602  52.837  0.00  0.00    +0.000 S 
ATOM     13  O   UNL     1     -10.047  53.036  53.844  0.00  0.00    +0.000 OA
ATOM     14  O   UNL     1      -8.878  51.192  52.615  0.00  0.00    +0.000 OA
ATOM     15  N   UNL     1      -9.574  53.238  51.441  0.00  0.00    +0.000 N 
ATOM     16  C   UNL     1      -7.571  53.302  53.236  0.00  0.00    +0.000 A 
ATOM     17  C   UNL     1      -8.741  53.860  50.651  0.00  0.00    +0.000 C 
ATOM     18  C   UNL     1      -6.897  54.053  52.278  0.00  0.00    +0.000 A 
ATOM     19  C   UNL     1      -7.074  53.042  54.523  0.00  0.00    +0.000 A 
ATOM     20  N   UNL     1      -7.430  54.237  50.975  0.00  0.00    +0.000 N 
ATOM     21  C   UNL     1      -5.667  54.590  52.700  0.00  0.00    +0.000 A 
ATOM     22  C   UNL     1      -5.850  53.567  54.895  0.00  0.00    +0.000 A 
ATOM     23  C   UNL     1      -6.504  54.817  49.993  0.00  0.00    +0.000 C 
ATOM     24  C   UNL     1      -5.151  54.350  53.986  0.00  0.00    +0.000 A 
ATOM     25  H   UNL     1     -10.516  53.157  51.169  0.00  0.00    +0.000 HD
ENDBRANCH   1  17
BRANCH   3  26
ATOM     26  O   UNL     1      -9.578  51.667  48.923  0.00  0.00    +0.000 OA
ATOM     27  H   UNL     1     -10.036  51.374  49.686  0.00  0.00    +0.000 HD
ENDBRANCH   3  26
BRANCH   5  28
ATOM     28  C   UNL     1     -12.285  54.811  49.216  0.00  0.00    +0.000 C 
BRANCH  28  29
ATOM     29  C   UNL     1     -13.411  55.860  49.331  0.00  0.00    +0.000 C 
BRANCH  29  30
ATOM     30  C   UNL     1     -13.124  57.157  48.560  0.00  0.00    +0.000 C 
ATOM     31  C   UNL     1     -14.063  57.315  47.366  0.00  0.00    +0.000 C 
ATOM     32  C   UNL     1     -13.257  58.370  49.483  0.00  0.00    +0.000 C 
ENDBRANCH  29  30
ENDBRANCH  28  29
ENDBRANCH   5  28
TORSDOF 5
ENDMDL
MODEL 4
REMARK VINA RESULT:      -7.7      2.990      5.041
REMARK  Name = 338256
REMARK  8 active torsions:
REMARK  status: ('A' for Active; 'I' for Inactive)
REMARK    1  A    between atoms: C_6  and  C_10
REMARK    2  A    between atoms: N_9  and  C_13
REMARK    3  A    between atoms: C_15  and  O_19
REMARK    4  A    between atoms: N_18  and  C_22
REMARK    5  A    between atoms: C_22  and  C_25
REMARK    6  A    between atoms: C_25  and  C_28
REMARK    7  A    between atoms: C_28  and  C_29
REMARK    8  A    between atoms: C_28  and  C_30
REMARK                            x       y       z     vdW  Elec       q    Type
REMARK                         _______ _______ _______ _____ _____    ______ ____
ROOT
ATOM      1  C   UNL     1     -11.791  54.598  51.053  0.00  0.00    +0.000 A 
ATOM      2  C   UNL     1     -10.594  54.436  51.939  0.00  0.00    +0.000 A 
ATOM      3  C   UNL     1     -11.931  53.639  50.110  0.00  0.00    +0.000 A 
ATOM      4  O   UNL     1     -10.546  54.821  53.100  0.00  0.00    +0.000 OA
ATOM      5  N   UNL     1      -9.468  53.900  51.253  0.00  0.00    +0.000 N 
ATOM      6  C   UNL     1     -11.099  52.448  50.188  0.00  0.00    +0.000 A 
ATOM      7  C   UNL     1      -9.789  52.629  50.654  0.00  0.00    +0.000 A 
ATOM      8  C   UNL     1     -11.590  51.180  49.886  0.00  0.00    +0.000 A 
ATOM      9  C   UNL     1      -8.938  51.533  50.760  0.00  0.00    +0.000 A 
ATOM     10  C   UNL     1     -10.768  50.075  50.072  0.00  0.00    +0.000 A 
ATOM     11  C   UNL     1      -9.441  50.252  50.483  0.00  0.00    +0.000 A 
ENDROOT
BRANCH   1  17
ATOM     12  S   UNL     1     -14.442  57.018  52.382  0.00  0.00    +0.000 S 
ATOM     13  O   UNL     1     -15.810  56.573  52.466  0.00  0.00    +0.000 OA
ATOM     14  O   UNL     1     -13.806  57.647  53.518  0.00  0.00    +0.000 OA
ATOM     15  N   UNL     1     -13.546  55.758  51.965  0.00  0.00    +0.000 N 
ATOM     16  C   UNL     1     -14.359  58.162  51.074  0.00  0.00    +0.000 A 
ATOM     17  C   UNL     1     -12.671  55.815  50.998  0.00  0.00    +0.000 C 
ATOM     18  C   UNL     1     -13.429  57.965  50.057  0.00  0.00    +0.000 A 
ATOM     19  C   UNL     1     -15.236  59.256  51.135  0.00  0.00    +0.000 A 
ATOM     20  N   UNL     1     -12.532  56.865  50.080  0.00  0.00    +0.000 N 
ATOM     21  C   UNL     1     -13.449  58.935  49.037  0.00  0.00    +0.000 A 
ATOM     22  C   UNL     1     -15.211  60.202  50.126  0.00  0.00    +0.000 A 
ATOM     23  C   UNL     1     -11.440  56.924  49.098  0.00  0.00    +0.000 C 
ATOM     24  C   UNL     1     -14.323  60.035  49.071  0.00  0.00    +0.000 A 
ATOM     25  H   UNL     1     -13.659  54.911  52.454  0.00  0.00    +0.000 HD
ENDBRANCH   1  17
BRANCH   3  26
ATOM     26  O   UNL     1     -12.681  53.733  48.959  0.00  0.00    +0.000 OA
ATOM     27  H   UNL     1     -13.481  53.252  48.881  0.00  0.00    +0.000 HD
ENDBRANCH   3  26
BRANCH   5  28
ATOM     28  C   UNL     1      -8.911  54.879  50.286  0.00  0.00    +0.000 C 
BRANCH  28  29
ATOM     29  C   UNL     1      -7.623  55.561  50.795  0.00  0.00    +0.000 C 
BRANCH  29  30
ATOM     30  C   UNL     1      -7.025  54.893  52.042  0.00  0.00    +0.000 C 
ATOM     31  C   UNL     1      -5.612  54.377  51.773  0.00  0.00    +0.000 C 
ATOM     32  C   UNL     1      -6.999  55.875  53.215  0.00  0.00    +0.000 C 
ENDBRANCH  29  30
ENDBRANCH  28  29
ENDBRANCH   5  28
TORSDOF 5
ENDMDL
MODEL 5
REMARK VINA RESULT:      -7.7      3.157      7.167
REMARK  Name = 338256
REMARK  8 active torsions:
REMARK  status: ('A' for Active; 'I' for Inactive)
REMARK    1  A    between atoms: C_6  and  C_10
REMARK    2  A    between atoms: N_9  and  C_13
REMARK    3  A    between atoms: C_15  and  O_19
REMARK    4  A    between atoms: N_18  and  C_22
REMARK    5  A    between atoms: C_22  and  C_25
REMARK    6  A    between atoms: C_25  and  C_28
REMARK    7  A    between atoms: C_28  and  C_29
REMARK    8  A    between atoms: C_28  and  C_30
REMARK                            x       y       z     vdW  Elec       q    Type
REMARK                         _______ _______ _______ _____ _____    ______ ____
ROOT
ATOM      1  C   UNL     1      -9.144  53.817  49.723  0.00  0.00    +0.000 A 
ATOM      2  C   UNL     1      -9.297  52.843  50.852  0.00  0.00    +0.000 A 
ATOM      3  C   UNL     1      -8.828  55.076  50.102  0.00  0.00    +0.000 A 
ATOM      4  O   UNL     1      -9.063  51.645  50.756  0.00  0.00    +0.000 OA
ATOM      5  N   UNL     1      -9.864  53.432  52.016  0.00  0.00    +0.000 N 
ATOM      6  C   UNL     1      -8.429  55.319  51.480  0.00  0.00    +0.000 A 
ATOM      7  C   UNL     1      -9.074  54.553  52.462  0.00  0.00    +0.000 A 
ATOM      8  C   UNL     1      -7.412  56.210  51.811  0.00  0.00    +0.000 A 
ATOM      9  C   UNL     1      -8.739  54.727  53.802  0.00  0.00    +0.000 A 
ATOM     10  C   UNL     1      -7.017  56.323  53.139  0.00  0.00    +0.000 A 
ATOM     11  C   UNL     1      -7.695  55.604  54.132  0.00  0.00    +0.000 A 
ENDROOT
BRANCH   1  17
ATOM     12  S   UNL     1     -11.562  53.601  46.765  0.00  0.00    +0.000 S 
ATOM     13  O   UNL     1     -12.565  52.565  46.760  0.00  0.00    +0.000 OA
ATOM     14  O   UNL     1     -11.929  54.976  46.510  0.00  0.00    +0.000 OA
ATOM     15  N   UNL     1     -10.823  53.555  48.185  0.00  0.00    +0.000 N 
ATOM     16  C   UNL     1     -10.383  53.173  45.559  0.00  0.00    +0.000 A 
ATOM     17  C   UNL     1      -9.523  53.554  48.293  0.00  0.00    +0.000 C 
ATOM     18  C   UNL     1      -9.041  53.098  45.918  0.00  0.00    +0.000 A 
ATOM     19  C   UNL     1     -10.863  52.949  44.259  0.00  0.00    +0.000 A 
ATOM     20  N   UNL     1      -8.613  53.387  47.240  0.00  0.00    +0.000 N 
ATOM     21  C   UNL     1      -8.166  52.730  44.878  0.00  0.00    +0.000 A 
ATOM     22  C   UNL     1      -9.971  52.612  43.257  0.00  0.00    +0.000 A 
ATOM     23  C   UNL     1      -7.160  53.529  47.414  0.00  0.00    +0.000 C 
ATOM     24  C   UNL     1      -8.623  52.493  43.569  0.00  0.00    +0.000 A 
ATOM     25  H   UNL     1     -11.368  53.527  49.004  0.00  0.00    +0.000 HD
ENDBRANCH   1  17
BRANCH   3  26
ATOM     26  O   UNL     1      -8.997  56.218  49.351  0.00  0.00    +0.000 OA
ATOM     27  H   UNL     1      -8.792  56.213  48.438  0.00  0.00    +0.000 HD
ENDBRANCH   3  26
BRANCH   5  28
ATOM     28  C   UNL     1     -11.294  53.770  51.806  0.00  0.00    +0.000 C 
BRANCH  28  29
ATOM     29  C   UNL     1     -11.634  55.222  52.203  0.00  0.00    +0.000 C 
BRANCH  29  30
ATOM     30  C   UNL     1     -12.837  55.801  51.444  0.00  0.00    +0.000 C 
ATOM     31  C   UNL     1     -13.559  56.864  52.271  0.00  0.00    +0.000 C 
ATOM     32  C   UNL     1     -12.390  56.403  50.110  0.00  0.00    +0.000 C 
ENDBRANCH  29  30
ENDBRANCH  28  29
ENDBRANCH   5  28
TORSDOF 5
ENDMDL
MODEL 6
REMARK VINA RESULT:      -7.7      4.193      6.246
REMARK  Name = 338256
REMARK  8 active torsions:
REMARK  status: ('A' for Active; 'I' for Inactive)
REMARK    1  A    between atoms: C_6  and  C_10
REMARK    2  A    between atoms: N_9  and  C_13
REMARK    3  A    between atoms: C_15  and  O_19
REMARK    4  A    between atoms: N_18  and  C_22
REMARK    5  A    between atoms: C_22  and  C_25
REMARK    6  A    between atoms: C_25  and  C_28
REMARK    7  A    between atoms: C_28  and  C_29
REMARK    8  A    between atoms: C_28  and  C_30
REMARK                            x       y       z     vdW  Elec       q    Type
REMARK                         _______ _______ _______ _____ _____    ______ ____
ROOT
ATOM      1  C   UNL     1      -9.577  54.318  51.459  0.00  0.00    +0.000 A 
ATOM      2  C   UNL     1      -8.325  54.926  52.012  0.00  0.00    +0.000 A 
ATOM      3  C   UNL     1      -9.791  53.033  51.825  0.00  0.00    +0.000 A 
ATOM      4  O   UNL     1      -8.195  56.119  52.254  0.00  0.00    +0.000 OA
ATOM      5  N   UNL     1      -7.254  53.994  52.109  0.00  0.00    +0.000 N 
ATOM      6  C   UNL     1      -8.970  52.454  52.876  0.00  0.00    +0.000 A 
ATOM      7  C   UNL     1      -7.630  52.863  52.921  0.00  0.00    +0.000 A 
ATOM      8  C   UNL     1      -9.494  51.593  53.838  0.00  0.00    +0.000 A 
ATOM      9  C   UNL     1      -6.786  52.355  53.903  0.00  0.00    +0.000 A 
ATOM     10  C   UNL     1      -8.675  51.151  54.870  0.00  0.00    +0.000 A 
ATOM     11  C   UNL     1      -7.321  51.510  54.888  0.00  0.00    +0.000 A 
ENDROOT
BRANCH   1  17
ATOM     12  S   UNL     1     -10.857  54.805  47.884  0.00  0.00    +0.000 S 
ATOM     13  O   UNL     1      -9.990  55.425  46.914  0.00  0.00    +0.000 OA
ATOM     14  O   UNL     1     -11.527  53.561  47.579  0.00  0.00    +0.000 OA
ATOM     15  N   UNL     1     -10.005  54.577  49.221  0.00  0.00    +0.000 N 
ATOM     16  C   UNL     1     -12.104  55.958  48.262  0.00  0.00    +0.000 A 
ATOM     17  C   UNL     1     -10.446  54.932  50.397  0.00  0.00    +0.000 C 
ATOM     18  C   UNL     1     -12.329  56.305  49.591  0.00  0.00    +0.000 A 
ATOM     19  C   UNL     1     -12.845  56.462  47.182  0.00  0.00    +0.000 A 
ATOM     20  N   UNL     1     -11.579  55.719  50.644  0.00  0.00    +0.000 N 
ATOM     21  C   UNL     1     -13.348  57.255  49.794  0.00  0.00    +0.000 A 
ATOM     22  C   UNL     1     -13.854  57.378  47.422  0.00  0.00    +0.000 A 
ATOM     23  C   UNL     1     -12.093  55.971  51.998  0.00  0.00    +0.000 C 
ATOM     24  C   UNL     1     -14.099  57.781  48.728  0.00  0.00    +0.000 A 
ATOM     25  H   UNL     1      -9.118  54.154  49.154  0.00  0.00    +0.000 HD
ENDBRANCH   1  17
BRANCH   3  26
ATOM     26  O   UNL     1     -10.616  52.132  51.189  0.00  0.00    +0.000 OA
ATOM     27  H   UNL     1     -11.205  51.603  51.689  0.00  0.00    +0.000 HD
ENDBRANCH   3  26
BRANCH   5  28
ATOM     28  C   UNL     1      -6.752  53.610  50.766  0.00  0.00    +0.000 C 
BRANCH  28  29
ATOM     29  C   UNL     1      -5.433  54.318  50.391  0.00  0.00    +0.000 C 
BRANCH  29  30
ATOM     30  C   UNL     1      -4.183  53.629  50.959  0.00  0.00    +0.000 C 
ATOM     31  C   UNL     1      -3.847  54.147  52.356  0.00  0.00    +0.000 C 
ATOM     32  C   UNL     1      -4.382  52.112  51.007  0.00  0.00    +0.000 C 
ENDBRANCH  29  30
ENDBRANCH  28  29
ENDBRANCH   5  28
TORSDOF 5
ENDMDL
MODEL 7
REMARK VINA RESULT:      -7.7      3.478      5.702
REMARK  Name = 338256
REMARK  8 active torsions:
REMARK  status: ('A' for Active; 'I' for Inactive)
REMARK    1  A    between atoms: C_6  and  C_10
REMARK    2  A    between atoms: N_9  and  C_13
REMARK    3  A    between atoms: C_15  and  O_19
REMARK    4  A    between atoms: N_18  and  C_22
REMARK    5  A    between atoms: C_22  and  C_25
REMARK    6  A    between atoms: C_25  and  C_28
REMARK    7  A    between atoms: C_28  and  C_29
REMARK    8  A    between atoms: C_28  and  C_30
REMARK                            x       y       z     vdW  Elec       q    Type
REMARK                         _______ _______ _______ _____ _____    ______ ____
ROOT
ATOM      1  C   UNL     1      -9.363  53.536  48.058  0.00  0.00    +0.000 A 
ATOM      2  C   UNL     1      -9.423  54.485  46.899  0.00  0.00    +0.000 A 
ATOM      3  C   UNL     1      -9.712  52.263  47.765  0.00  0.00    +0.000 A 
ATOM      4  O   UNL     1      -8.704  55.469  46.785  0.00  0.00    +0.000 OA
ATOM      5  N   UNL     1     -10.489  54.195  46.003  0.00  0.00    +0.000 N 
ATOM      6  C   UNL     1      -9.861  51.876  46.370  0.00  0.00    +0.000 A 
ATOM      7  C   UNL     1     -10.389  52.845  45.506  0.00  0.00    +0.000 A 
ATOM      8  C   UNL     1      -9.438  50.638  45.895  0.00  0.00    +0.000 A 
ATOM      9  C   UNL     1     -10.555  52.548  44.156  0.00  0.00    +0.000 A 
ATOM     10  C   UNL     1      -9.524  50.370  44.534  0.00  0.00    +0.000 A 
ATOM     11  C   UNL     1     -10.103  51.310  43.672  0.00  0.00    +0.000 A 
ENDROOT
BRANCH   1  17
ATOM     12  S   UNL     1     -10.465  54.022  51.691  0.00  0.00    +0.000 S 
ATOM     13  O   UNL     1     -11.431  55.047  51.994  0.00  0.00    +0.000 OA
ATOM     14  O   UNL     1     -10.647  52.675  52.185  0.00  0.00    +0.000 OA
ATOM     15  N   UNL     1     -10.331  53.935  50.097  0.00  0.00    +0.000 N 
ATOM     16  C   UNL     1      -8.932  54.569  52.306  0.00  0.00    +0.000 A 
ATOM     17  C   UNL     1      -9.173  53.933  49.495  0.00  0.00    +0.000 C 
ATOM     18  C   UNL     1      -7.835  54.617  51.450  0.00  0.00    +0.000 A 
ATOM     19  C   UNL     1      -8.884  54.913  53.665  0.00  0.00    +0.000 A 
ATOM     20  N   UNL     1      -7.936  54.204  50.095  0.00  0.00    +0.000 N 
ATOM     21  C   UNL     1      -6.644  55.087  52.036  0.00  0.00    +0.000 A 
ATOM     22  C   UNL     1      -7.690  55.350  54.212  0.00  0.00    +0.000 A 
ATOM     23  C   UNL     1      -6.658  54.054  49.387  0.00  0.00    +0.000 C 
ATOM     24  C   UNL     1      -6.572  55.445  53.393  0.00  0.00    +0.000 A 
ATOM     25  H   UNL     1     -11.150  53.882  49.554  0.00  0.00    +0.000 HD
ENDBRANCH   1  17
BRANCH   3  26
ATOM     26  O   UNL     1     -10.109  51.300  48.666  0.00  0.00    +0.000 OA
ATOM     27  H   UNL     1     -10.862  50.772  48.486  0.00  0.00    +0.000 HD
ENDBRANCH   3  26
BRANCH   5  28
ATOM     28  C   UNL     1     -11.806  54.497  46.618  0.00  0.00    +0.000 C 
BRANCH  28  29
ATOM     29  C   UNL     1     -12.104  56.010  46.689  0.00  0.00    +0.000 C 
BRANCH  29  30
ATOM     30  C   UNL     1     -13.045  56.397  47.838  0.00  0.00    +0.000 C 
ATOM     31  C   UNL     1     -12.262  56.832  49.077  0.00  0.00    +0.000 C 
ATOM     32  C   UNL     1     -13.987  57.522  47.404  0.00  0.00    +0.000 C 
ENDBRANCH  29  30
ENDBRANCH  28  29
ENDBRANCH   5  28
TORSDOF 5
ENDMDL
MODEL 8
REMARK VINA RESULT:      -7.4      2.177      3.148
REMARK  Name = 338256
REMARK  8 active torsions:
REMARK  status: ('A' for Active; 'I' for Inactive)
REMARK    1  A    between atoms: C_6  and  C_10
REMARK    2  A    between atoms: N_9  and  C_13
REMARK    3  A    between atoms: C_15  and  O_19
REMARK    4  A    between atoms: N_18  and  C_22
REMARK    5  A    between atoms: C_22  and  C_25
REMARK    6  A    between atoms: C_25  and  C_28
REMARK    7  A    between atoms: C_28  and  C_29
REMARK    8  A    between atoms: C_28  and  C_30
REMARK                            x       y       z     vdW  Elec       q    Type
REMARK                         _______ _______ _______ _____ _____    ______ ____
ROOT
ATOM      1  C   UNL     1     -10.983  54.919  48.906  0.00  0.00    +0.000 A 
ATOM      2  C   UNL     1     -11.210  53.488  48.523  0.00  0.00    +0.000 A 
ATOM      3  C   UNL     1      -9.693  55.320  48.851  0.00  0.00    +0.000 A 
ATOM      4  O   UNL     1     -12.243  53.074  48.012  0.00  0.00    +0.000 OA
ATOM      5  N   UNL     1     -10.149  52.632  48.928  0.00  0.00    +0.000 N 
ATOM      6  C   UNL     1      -8.712  54.456  48.212  0.00  0.00    +0.000 A 
ATOM      7  C   UNL     1      -8.892  53.076  48.378  0.00  0.00    +0.000 A 
ATOM      8  C   UNL     1      -7.686  54.960  47.416  0.00  0.00    +0.000 A 
ATOM      9  C   UNL     1      -7.996  52.188  47.790  0.00  0.00    +0.000 A 
ATOM     10  C   UNL     1      -6.842  54.074  46.759  0.00  0.00    +0.000 A 
ATOM     11  C   UNL     1      -6.980  52.695  46.965  0.00  0.00    +0.000 A 
ENDROOT
BRANCH   1  17
ATOM     12  S   UNL     1     -13.972  57.309  48.883  0.00  0.00    +0.000 S 
ATOM     13  O   UNL     1     -13.809  58.620  48.309  0.00  0.00    +0.000 OA
ATOM     14  O   UNL     1     -15.087  56.473  48.495  0.00  0.00    +0.000 OA
ATOM     15  N   UNL     1     -12.630  56.483  48.597  0.00  0.00    +0.000 N 
ATOM     16  C   UNL     1     -14.089  57.518  50.606  0.00  0.00    +0.000 A 
ATOM     17  C   UNL     1     -12.006  55.822  49.534  0.00  0.00    +0.000 C 
ATOM     18  C   UNL     1     -13.227  56.807  51.437  0.00  0.00    +0.000 A 
ATOM     19  C   UNL     1     -15.084  58.392  51.070  0.00  0.00    +0.000 A 
ATOM     20  N   UNL     1     -12.275  55.897  50.907  0.00  0.00    +0.000 N 
ATOM     21  C   UNL     1     -13.389  57.055  52.813  0.00  0.00    +0.000 A 
ATOM     22  C   UNL     1     -15.228  58.594  52.430  0.00  0.00    +0.000 A 
ATOM     23  C   UNL     1     -11.623  55.026  51.895  0.00  0.00    +0.000 C 
ATOM     24  C   UNL     1     -14.373  57.932  53.302  0.00  0.00    +0.000 A 
ATOM     25  H   UNL     1     -12.262  56.474  47.684  0.00  0.00    +0.000 HD
ENDBRANCH   1  17
BRANCH   3  26
ATOM     26  O   UNL     1      -9.153  56.415  49.490  0.00  0.00    +0.000 OA
ATOM     27  H   UNL     1      -8.497  56.930  49.063  0.00  0.00    +0.000 HD
ENDBRANCH   3  26
BRANCH   5  28
ATOM     28  C   UNL     1     -10.119  52.475  50.404  0.00  0.00    +0.000 C 
BRANCH  28  29
ATOM     29  C   UNL     1      -8.687  52.349  50.968  0.00  0.00    +0.000 C 
BRANCH  29  30
ATOM     30  C   UNL     1      -8.275  53.524  51.865  0.00  0.00    +0.000 C 
ATOM     31  C   UNL     1      -8.222  53.111  53.335  0.00  0.00    +0.000 C 
ATOM     32  C   UNL     1      -6.912  54.074  51.436  0.00  0.00    +0.000 C 
ENDBRANCH  29  30
ENDBRANCH  28  29
ENDBRANCH   5  28
TORSDOF 5
ENDMDL
MODEL 9
REMARK VINA RESULT:      -7.4      3.715      5.512
REMARK  Name = 338256
REMARK  8 active torsions:
REMARK  status: ('A' for Active; 'I' for Inactive)
REMARK    1  A    between atoms: C_6  and  C_10
REMARK    2  A    between atoms: N_9  and  C_13
REMARK    3  A    between atoms: C_15  and  O_19
REMARK    4  A    between atoms: N_18  and  C_22
REMARK    5  A    between atoms: C_22  and  C_25
REMARK    6  A    between atoms: C_25  and  C_28
REMARK    7  A    between atoms: C_28  and  C_29
REMARK    8  A    between atoms: C_28  and  C_30
REMARK                            x       y       z     vdW  Elec       q    Type
REMARK                         _______ _______ _______ _____ _____    ______ ____
ROOT
ATOM      1  C   UNL     1      -9.074  54.506  50.329  0.00  0.00    +0.000 A 
ATOM      2  C   UNL     1      -8.682  53.296  51.121  0.00  0.00    +0.000 A 
ATOM      3  C   UNL     1      -8.037  55.249  49.881  0.00  0.00    +0.000 A 
ATOM      4  O   UNL     1      -9.342  52.266  51.167  0.00  0.00    +0.000 OA
ATOM      5  N   UNL     1      -7.523  53.510  51.918  0.00  0.00    +0.000 N 
ATOM      6  C   UNL     1      -6.690  54.708  49.975  0.00  0.00    +0.000 A 
ATOM      7  C   UNL     1      -6.408  53.924  51.103  0.00  0.00    +0.000 A 
ATOM      8  C   UNL     1      -5.744  54.893  48.970  0.00  0.00    +0.000 A 
ATOM      9  C   UNL     1      -5.141  53.369  51.258  0.00  0.00    +0.000 A 
ATOM     10  C   UNL     1      -4.506  54.270  49.082  0.00  0.00    +0.000 A 
ATOM     11  C   UNL     1      -4.198  53.533  50.232  0.00  0.00    +0.000 A 
ENDROOT
BRANCH   1  17
ATOM     12  S   UNL     1     -12.320  55.310  48.466  0.00  0.00    +0.000 S 
ATOM     13  O   UNL     1     -12.304  56.334  47.452  0.00  0.00    +0.000 OA
ATOM     14  O   UNL     1     -12.896  54.014  48.190  0.00  0.00    +0.000 OA
ATOM     15  N   UNL     1     -10.808  55.073  48.941  0.00  0.00    +0.000 N 
ATOM     16  C   UNL     1     -13.190  55.956  49.828  0.00  0.00    +0.000 A 
ATOM     17  C   UNL     1     -10.471  55.044  50.202  0.00  0.00    +0.000 C 
ATOM     18  C   UNL     1     -12.589  55.951  51.083  0.00  0.00    +0.000 A 
ATOM     19  C   UNL     1     -14.486  56.432  49.579  0.00  0.00    +0.000 A 
ATOM     20  N   UNL     1     -11.292  55.407  51.278  0.00  0.00    +0.000 N 
ATOM     21  C   UNL     1     -13.365  56.508  52.117  0.00  0.00    +0.000 A 
ATOM     22  C   UNL     1     -15.229  56.952  50.624  0.00  0.00    +0.000 A 
ATOM     23  C   UNL     1     -10.892  55.224  52.681  0.00  0.00    +0.000 C 
ATOM     24  C   UNL     1     -14.663  56.999  51.892  0.00  0.00    +0.000 A 
ATOM     25  H   UNL     1     -10.110  54.946  48.259  0.00  0.00    +0.000 HD
ENDBRANCH   1  17
BRANCH   3  26
ATOM     26  O   UNL     1      -8.092  56.564  49.477  0.00  0.00    +0.000 OA
ATOM     27  H   UNL     1      -8.517  57.202  50.016  0.00  0.00    +0.000 HD
ENDBRANCH   3  26
BRANCH   5  28
ATOM     28  C   UNL     1      -7.806  54.439  53.040  0.00  0.00    +0.000 C 
BRANCH  28  29
ATOM     29  C   UNL     1      -6.627  55.385  53.351  0.00  0.00    +0.000 C 
BRANCH  29  30
ATOM     30  C   UNL     1      -5.818  54.973  54.589  0.00  0.00    +0.000 C 
ATOM     31  C   UNL     1      -6.080  53.516  54.966  0.00  0.00    +0.000 C 
ATOM     32  C   UNL     1      -4.321  55.180  54.344  0.00  0.00    +0.000 C 
ENDBRANCH  29  30
ENDBRANCH  28  29
ENDBRANCH   5  28
TORSDOF 5
ENDMDL
