MODEL 1
REMARK VINA RESULT:      -8.9      0.000      0.000
REMARK  Name = 338062
REMARK  5 active torsions:
REMARK  status: ('A' for Active; 'I' for Inactive)
REMARK    1  A    between atoms: C_6  and  C_10
REMARK    2  A    between atoms: C_14  and  O_18
REMARK    3  A    between atoms: N_17  and  C_21
REMARK    4  A    between atoms: C_21  and  C_24
REMARK    5  A    between atoms: C_24  and  C_27
REMARK                            x       y       z     vdW  Elec       q    Type
REMARK                         _______ _______ _______ _____ _____    ______ ____
ROOT
ATOM      1  C   UNL     1      -9.406  54.228  49.763  0.00  0.00    +0.000 A 
ATOM      2  C   UNL     1     -10.432  55.315  49.731  0.00  0.00    +0.000 A 
ATOM      3  C   UNL     1      -9.228  53.426  48.699  0.00  0.00    +0.000 A 
ATOM      4  O   UNL     1     -10.460  56.119  50.667  0.00  0.00    +0.000 OA
ATOM      5  N   UNL     1     -11.286  55.393  48.639  0.00  0.00    +0.000 N 
ATOM      6  C   UNL     1     -10.049  53.612  47.495  0.00  0.00    +0.000 A 
ATOM      7  C   UNL     1     -11.056  54.596  47.475  0.00  0.00    +0.000 A 
ATOM      8  C   UNL     1      -9.812  52.838  46.348  0.00  0.00    +0.000 A 
ATOM      9  C   UNL     1     -11.771  54.803  46.289  0.00  0.00    +0.000 A 
ATOM     10  C   UNL     1     -10.534  53.064  45.174  0.00  0.00    +0.000 A 
ATOM     11  C   UNL     1     -11.510  54.049  45.151  0.00  0.00    +0.000 A 
ENDROOT
BRANCH   1  17
ATOM     12  S   UNL     1      -8.221  54.102  53.501  0.00  0.00    +0.000 S 
ATOM     13  O   UNL     1      -8.438  52.804  54.099  0.00  0.00    +0.000 OA
ATOM     14  O   UNL     1      -8.492  55.315  54.250  0.00  0.00    +0.000 OA
ATOM     15  N   UNL     1      -9.088  54.162  52.132  0.00  0.00    +0.000 N 
ATOM     16  C   UNL     1      -6.520  54.167  53.073  0.00  0.00    +0.000 A 
ATOM     17  C   UNL     1      -8.507  54.108  50.970  0.00  0.00    +0.000 C 
ATOM     18  C   UNL     1      -6.184  54.108  51.730  0.00  0.00    +0.000 A 
ATOM     19  C   UNL     1      -5.555  54.281  54.074  0.00  0.00    +0.000 A 
ATOM     20  N   UNL     1      -7.156  53.962  50.748  0.00  0.00    +0.000 N 
ATOM     21  C   UNL     1      -4.829  54.113  51.384  0.00  0.00    +0.000 A 
ATOM     22  C   UNL     1      -4.210  54.308  53.716  0.00  0.00    +0.000 A 
ATOM     23  C   UNL     1      -3.848  54.219  52.371  0.00  0.00    +0.000 A 
ATOM     24  H   UNL     1     -10.068  54.240  52.180  0.00  0.00    +0.000 HD
ATOM     25  H   UNL     1      -6.861  53.742  49.835  0.00  0.00    +0.000 HD
ENDBRANCH   1  17
BRANCH   3  26
ATOM     26  O   UNL     1      -8.259  52.442  48.608  0.00  0.00    +0.000 OA
ATOM     27  H   UNL     1      -7.634  52.335  49.298  0.00  0.00    +0.000 HD
ENDBRANCH   3  26
BRANCH   5  28
ATOM     28  C   UNL     1     -12.312  56.451  48.633  0.00  0.00    +0.000 C 
BRANCH  28  29
ATOM     29  C   UNL     1     -13.624  56.081  49.354  0.00  0.00    +0.000 C 
BRANCH  29  30
ATOM     30  C   UNL     1     -13.943  57.053  50.466  0.00  0.00    +0.000 A 
ATOM     31  C   UNL     1     -13.886  56.677  51.817  0.00  0.00    +0.000 A 
ATOM     32  C   UNL     1     -14.344  58.355  50.142  0.00  0.00    +0.000 A 
ATOM     33  C   UNL     1     -14.249  57.584  52.818  0.00  0.00    +0.000 A 
ATOM     34  C   UNL     1     -14.700  59.259  51.141  0.00  0.00    +0.000 A 
ATOM     35  C   UNL     1     -14.664  58.871  52.478  0.00  0.00    +0.000 A 
ENDBRANCH  29  30
ENDBRANCH  28  29
ENDBRANCH   5  28
TORSDOF 5
ENDMDL
MODEL 2
REMARK VINA RESULT:      -8.9      2.474      7.160
REMARK  Name = 338062
REMARK  5 active torsions:
REMARK  status: ('A' for Active; 'I' for Inactive)
REMARK    1  A    between atoms: C_6  and  C_10
REMARK    2  A    between atoms: C_14  and  O_18
REMARK    3  A    between atoms: N_17  and  C_21
REMARK    4  A    between atoms: C_21  and  C_24
REMARK    5  A    between atoms: C_24  and  C_27
REMARK                            x       y       z     vdW  Elec       q    Type
REMARK                         _______ _______ _______ _____ _____    ______ ____
ROOT
ATOM      1  C   UNL     1     -11.341  55.992  48.935  0.00  0.00    +0.000 A 
ATOM      2  C   UNL     1     -10.334  55.383  49.858  0.00  0.00    +0.000 A 
ATOM      3  C   UNL     1     -11.385  55.633  47.641  0.00  0.00    +0.000 A 
ATOM      4  O   UNL     1     -10.425  55.627  51.064  0.00  0.00    +0.000 OA
ATOM      5  N   UNL     1      -9.363  54.547  49.325  0.00  0.00    +0.000 N 
ATOM      6  C   UNL     1     -10.435  54.641  47.122  0.00  0.00    +0.000 A 
ATOM      7  C   UNL     1      -9.447  54.103  47.969  0.00  0.00    +0.000 A 
ATOM      8  C   UNL     1     -10.528  54.194  45.794  0.00  0.00    +0.000 A 
ATOM      9  C   UNL     1      -8.604  53.102  47.469  0.00  0.00    +0.000 A 
ATOM     10  C   UNL     1      -9.680  53.193  45.318  0.00  0.00    +0.000 A 
ATOM     11  C   UNL     1      -8.723  52.649  46.160  0.00  0.00    +0.000 A 
ENDROOT
BRANCH   1  17
ATOM     12  S   UNL     1     -13.530  59.208  49.447  0.00  0.00    +0.000 S 
ATOM     13  O   UNL     1     -14.650  59.256  48.534  0.00  0.00    +0.000 OA
ATOM     14  O   UNL     1     -12.765  60.405  49.741  0.00  0.00    +0.000 OA
ATOM     15  N   UNL     1     -12.499  58.084  48.896  0.00  0.00    +0.000 N 
ATOM     16  C   UNL     1     -14.172  58.653  50.983  0.00  0.00    +0.000 A 
ATOM     17  C   UNL     1     -12.371  56.940  49.501  0.00  0.00    +0.000 C 
ATOM     18  C   UNL     1     -13.851  57.371  51.397  0.00  0.00    +0.000 A 
ATOM     19  C   UNL     1     -14.974  59.501  51.748  0.00  0.00    +0.000 A 
ATOM     20  N   UNL     1     -13.078  56.528  50.608  0.00  0.00    +0.000 N 
ATOM     21  C   UNL     1     -14.397  56.906  52.599  0.00  0.00    +0.000 A 
ATOM     22  C   UNL     1     -15.492  59.034  52.953  0.00  0.00    +0.000 A 
ATOM     23  C   UNL     1     -15.207  57.735  53.375  0.00  0.00    +0.000 A 
ATOM     24  H   UNL     1     -11.961  58.270  48.093  0.00  0.00    +0.000 HD
ATOM     25  H   UNL     1     -13.032  55.576  50.856  0.00  0.00    +0.000 HD
ENDBRANCH   1  17
BRANCH   3  26
ATOM     26  O   UNL     1     -12.323  56.087  46.730  0.00  0.00    +0.000 OA
ATOM     27  H   UNL     1     -13.229  56.122  46.968  0.00  0.00    +0.000 HD
ENDBRANCH   3  26
BRANCH   5  28
ATOM     28  C   UNL     1      -8.358  53.977  50.240  0.00  0.00    +0.000 C 
BRANCH  28  29
ATOM     29  C   UNL     1      -7.158  54.898  50.535  0.00  0.00    +0.000 C 
BRANCH  29  30
ATOM     30  C   UNL     1      -6.763  54.852  51.993  0.00  0.00    +0.000 A 
ATOM     31  C   UNL     1      -5.600  54.196  52.425  0.00  0.00    +0.000 A 
ATOM     32  C   UNL     1      -7.598  55.448  52.947  0.00  0.00    +0.000 A 
ATOM     33  C   UNL     1      -5.298  54.119  53.789  0.00  0.00    +0.000 A 
ATOM     34  C   UNL     1      -7.293  55.374  54.304  0.00  0.00    +0.000 A 
ATOM     35  C   UNL     1      -6.150  54.701  54.727  0.00  0.00    +0.000 A 
ENDBRANCH  29  30
ENDBRANCH  28  29
ENDBRANCH   5  28
TORSDOF 5
ENDMDL
MODEL 3
REMARK VINA RESULT:      -8.8      2.007      5.645
REMARK  Name = 338062
REMARK  5 active torsions:
REMARK  status: ('A' for Active; 'I' for Inactive)
REMARK    1  A    between atoms: C_6  and  C_10
REMARK    2  A    between atoms: C_14  and  O_18
REMARK    3  A    between atoms: N_17  and  C_21
REMARK    4  A    between atoms: C_21  and  C_24
REMARK    5  A    between atoms: C_24  and  C_27
REMARK                            x       y       z     vdW  Elec       q    Type
REMARK                         _______ _______ _______ _____ _____    ______ ____
ROOT
ATOM      1  C   UNL     1     -10.374  55.260  50.903  0.00  0.00    +0.000 A 
ATOM      2  C   UNL     1     -10.078  55.139  49.442  0.00  0.00    +0.000 A 
ATOM      3  C   UNL     1     -11.550  55.759  51.322  0.00  0.00    +0.000 A 
ATOM      4  O   UNL     1      -9.053  54.541  49.102  0.00  0.00    +0.000 OA
ATOM      5  N   UNL     1     -10.980  55.675  48.533  0.00  0.00    +0.000 N 
ATOM      6  C   UNL     1     -12.553  56.195  50.341  0.00  0.00    +0.000 A 
ATOM      7  C   UNL     1     -12.262  56.137  48.964  0.00  0.00    +0.000 A 
ATOM      8  C   UNL     1     -13.817  56.635  50.765  0.00  0.00    +0.000 A 
ATOM      9  C   UNL     1     -13.264  56.487  48.050  0.00  0.00    +0.000 A 
ATOM     10  C   UNL     1     -14.802  56.974  49.836  0.00  0.00    +0.000 A 
ATOM     11  C   UNL     1     -14.520  56.895  48.481  0.00  0.00    +0.000 A 
ENDROOT
BRANCH   1  17
ATOM     12  S   UNL     1      -7.027  54.760  52.887  0.00  0.00    +0.000 S 
ATOM     13  O   UNL     1      -6.863  55.740  53.938  0.00  0.00    +0.000 OA
ATOM     14  O   UNL     1      -5.900  54.369  52.061  0.00  0.00    +0.000 OA
ATOM     15  N   UNL     1      -8.203  55.288  51.904  0.00  0.00    +0.000 N 
ATOM     16  C   UNL     1      -7.587  53.292  53.668  0.00  0.00    +0.000 A 
ATOM     17  C   UNL     1      -9.373  54.723  51.898  0.00  0.00    +0.000 C 
ATOM     18  C   UNL     1      -8.904  52.910  53.468  0.00  0.00    +0.000 A 
ATOM     19  C   UNL     1      -6.711  52.546  54.457  0.00  0.00    +0.000 A 
ATOM     20  N   UNL     1      -9.772  53.682  52.705  0.00  0.00    +0.000 N 
ATOM     21  C   UNL     1      -9.370  51.766  54.124  0.00  0.00    +0.000 A 
ATOM     22  C   UNL     1      -7.181  51.397  55.087  0.00  0.00    +0.000 A 
ATOM     23  C   UNL     1      -8.512  51.010  54.924  0.00  0.00    +0.000 A 
ATOM     24  H   UNL     1      -8.028  56.048  51.302  0.00  0.00    +0.000 HD
ATOM     25  H   UNL     1     -10.733  53.470  52.744  0.00  0.00    +0.000 HD
ENDBRANCH   1  17
BRANCH   3  26
ATOM     26  O   UNL     1     -11.942  55.844  52.647  0.00  0.00    +0.000 OA
ATOM     27  H   UNL     1     -12.570  55.239  52.989  0.00  0.00    +0.000 HD
ENDBRANCH   3  26
BRANCH   5  28
ATOM     28  C   UNL     1     -10.662  55.575  47.098  0.00  0.00    +0.000 C 
BRANCH  28  29
ATOM     29  C   UNL     1     -11.358  54.413  46.362  0.00  0.00    +0.000 C 
BRANCH  29  30
ATOM     30  C   UNL     1     -10.457  53.792  45.320  0.00  0.00    +0.000 A 
ATOM     31  C   UNL     1     -10.966  53.010  44.271  0.00  0.00    +0.000 A 
ATOM     32  C   UNL     1      -9.071  53.968  45.423  0.00  0.00    +0.000 A 
ATOM     33  C   UNL     1     -10.097  52.398  43.361  0.00  0.00    +0.000 A 
ATOM     34  C   UNL     1      -8.208  53.361  44.512  0.00  0.00    +0.000 A 
ATOM     35  C   UNL     1      -8.719  52.567  43.489  0.00  0.00    +0.000 A 
ENDBRANCH  29  30
ENDBRANCH  28  29
ENDBRANCH   5  28
TORSDOF 5
ENDMDL
MODEL 4
REMARK VINA RESULT:      -8.7      1.538      2.049
REMARK  Name = 338062
REMARK  5 active torsions:
REMARK  status: ('A' for Active; 'I' for Inactive)
REMARK    1  A    between atoms: C_6  and  C_10
REMARK    2  A    between atoms: C_14  and  O_18
REMARK    3  A    between atoms: N_17  and  C_21
REMARK    4  A    between atoms: C_21  and  C_24
REMARK    5  A    between atoms: C_24  and  C_27
REMARK                            x       y       z     vdW  Elec       q    Type
REMARK                         _______ _______ _______ _____ _____    ______ ____
ROOT
ATOM      1  C   UNL     1      -9.738  54.200  50.094  0.00  0.00    +0.000 A 
ATOM      2  C   UNL     1     -10.742  55.308  50.044  0.00  0.00    +0.000 A 
ATOM      3  C   UNL     1      -9.516  53.432  49.014  0.00  0.00    +0.000 A 
ATOM      4  O   UNL     1     -10.808  56.080  51.005  0.00  0.00    +0.000 OA
ATOM      5  N   UNL     1     -11.532  55.440  48.910  0.00  0.00    +0.000 N 
ATOM      6  C   UNL     1     -10.265  53.675  47.774  0.00  0.00    +0.000 A 
ATOM      7  C   UNL     1     -11.252  54.679  47.733  0.00  0.00    +0.000 A 
ATOM      8  C   UNL     1      -9.979  52.936  46.615  0.00  0.00    +0.000 A 
ATOM      9  C   UNL     1     -11.896  54.940  46.518  0.00  0.00    +0.000 A 
ATOM     10  C   UNL     1     -10.631  53.217  45.412  0.00  0.00    +0.000 A 
ATOM     11  C   UNL     1     -11.586  54.220  45.370  0.00  0.00    +0.000 A 
ENDROOT
BRANCH   1  17
ATOM     12  S   UNL     1      -6.943  54.740  52.794  0.00  0.00    +0.000 S 
ATOM     13  O   UNL     1      -7.268  55.812  53.709  0.00  0.00    +0.000 OA
ATOM     14  O   UNL     1      -5.592  54.586  52.289  0.00  0.00    +0.000 OA
ATOM     15  N   UNL     1      -7.938  54.866  51.519  0.00  0.00    +0.000 N 
ATOM     16  C   UNL     1      -7.321  53.246  53.634  0.00  0.00    +0.000 A 
ATOM     17  C   UNL     1      -8.910  54.021  51.343  0.00  0.00    +0.000 C 
ATOM     18  C   UNL     1      -8.426  52.525  53.214  0.00  0.00    +0.000 A 
ATOM     19  C   UNL     1      -6.512  52.818  54.687  0.00  0.00    +0.000 A 
ATOM     20  N   UNL     1      -9.239  52.982  52.184  0.00  0.00    +0.000 N 
ATOM     21  C   UNL     1      -8.759  51.357  53.908  0.00  0.00    +0.000 A 
ATOM     22  C   UNL     1      -6.841  51.642  55.356  0.00  0.00    +0.000 A 
ATOM     23  C   UNL     1      -7.968  50.914  54.969  0.00  0.00    +0.000 A 
ATOM     24  H   UNL     1      -7.804  55.593  50.868  0.00  0.00    +0.000 HD
ATOM     25  H   UNL     1     -10.105  52.535  52.046  0.00  0.00    +0.000 HD
ENDBRANCH   1  17
BRANCH   3  26
ATOM     26  O   UNL     1      -8.560  52.433  48.942  0.00  0.00    +0.000 OA
ATOM     27  H   UNL     1      -8.759  51.625  48.513  0.00  0.00    +0.000 HD
ENDBRANCH   3  26
BRANCH   5  28
ATOM     28  C   UNL     1     -12.538  56.517  48.885  0.00  0.00    +0.000 C 
BRANCH  28  29
ATOM     29  C   UNL     1     -13.877  56.165  49.562  0.00  0.00    +0.000 C 
BRANCH  29  30
ATOM     30  C   UNL     1     -14.216  57.134  50.670  0.00  0.00    +0.000 A 
ATOM     31  C   UNL     1     -14.330  56.719  52.007  0.00  0.00    +0.000 A 
ATOM     32  C   UNL     1     -14.458  58.477  50.354  0.00  0.00    +0.000 A 
ATOM     33  C   UNL     1     -14.707  57.632  52.998  0.00  0.00    +0.000 A 
ATOM     34  C   UNL     1     -14.828  59.385  51.345  0.00  0.00    +0.000 A 
ATOM     35  C   UNL     1     -14.964  58.961  52.664  0.00  0.00    +0.000 A 
ENDBRANCH  29  30
ENDBRANCH  28  29
ENDBRANCH   5  28
TORSDOF 5
ENDMDL
MODEL 5
REMARK VINA RESULT:      -8.7      2.948      7.538
REMARK  Name = 338062
REMARK  5 active torsions:
REMARK  status: ('A' for Active; 'I' for Inactive)
REMARK    1  A    between atoms: C_6  and  C_10
REMARK    2  A    between atoms: C_14  and  O_18
REMARK    3  A    between atoms: N_17  and  C_21
REMARK    4  A    between atoms: C_21  and  C_24
REMARK    5  A    between atoms: C_24  and  C_27
REMARK                            x       y       z     vdW  Elec       q    Type
REMARK                         _______ _______ _______ _____ _____    ______ ____
ROOT
ATOM      1  C   UNL     1     -11.159  54.594  50.765  0.00  0.00    +0.000 A 
ATOM      2  C   UNL     1      -9.788  54.976  50.309  0.00  0.00    +0.000 A 
ATOM      3  C   UNL     1     -11.383  53.392  51.323  0.00  0.00    +0.000 A 
ATOM      4  O   UNL     1      -9.597  56.138  49.942  0.00  0.00    +0.000 OA
ATOM      5  N   UNL     1      -8.783  54.018  50.346  0.00  0.00    +0.000 N 
ATOM      6  C   UNL     1     -10.276  52.440  51.482  0.00  0.00    +0.000 A 
ATOM      7  C   UNL     1      -8.992  52.767  51.004  0.00  0.00    +0.000 A 
ATOM      8  C   UNL     1     -10.480  51.217  52.141  0.00  0.00    +0.000 A 
ATOM      9  C   UNL     1      -7.940  51.873  51.237  0.00  0.00    +0.000 A 
ATOM     10  C   UNL     1      -9.414  50.343  52.366  0.00  0.00    +0.000 A 
ATOM     11  C   UNL     1      -8.148  50.678  51.915  0.00  0.00    +0.000 A 
ENDROOT
BRANCH   1  17
ATOM     12  S   UNL     1     -13.670  57.222  49.288  0.00  0.00    +0.000 S 
ATOM     13  O   UNL     1     -14.819  56.593  48.673  0.00  0.00    +0.000 OA
ATOM     14  O   UNL     1     -13.033  58.366  48.664  0.00  0.00    +0.000 OA
ATOM     15  N   UNL     1     -12.540  56.078  49.497  0.00  0.00    +0.000 N 
ATOM     16  C   UNL     1     -14.197  57.764  50.872  0.00  0.00    +0.000 A 
ATOM     17  C   UNL     1     -12.268  55.616  50.681  0.00  0.00    +0.000 C 
ATOM     18  C   UNL     1     -13.724  57.085  51.983  0.00  0.00    +0.000 A 
ATOM     19  C   UNL     1     -15.061  58.854  50.982  0.00  0.00    +0.000 A 
ATOM     20  N   UNL     1     -12.889  55.982  51.854  0.00  0.00    +0.000 N 
ATOM     21  C   UNL     1     -14.174  57.483  53.246  0.00  0.00    +0.000 A 
ATOM     22  C   UNL     1     -15.485  59.255  52.246  0.00  0.00    +0.000 A 
ATOM     23  C   UNL     1     -15.045  58.566  53.377  0.00  0.00    +0.000 A 
ATOM     24  H   UNL     1     -12.053  55.728  48.716  0.00  0.00    +0.000 HD
ATOM     25  H   UNL     1     -12.730  55.427  52.652  0.00  0.00    +0.000 HD
ENDBRANCH   1  17
BRANCH   3  26
ATOM     26  O   UNL     1     -12.599  52.977  51.839  0.00  0.00    +0.000 OA
ATOM     27  H   UNL     1     -13.396  53.217  51.410  0.00  0.00    +0.000 HD
ENDBRANCH   3  26
BRANCH   5  28
ATOM     28  C   UNL     1      -7.442  54.398  49.865  0.00  0.00    +0.000 C 
BRANCH  28  29
ATOM     29  C   UNL     1      -6.759  55.517  50.677  0.00  0.00    +0.000 C 
BRANCH  29  30
ATOM     30  C   UNL     1      -6.492  55.091  52.101  0.00  0.00    +0.000 A 
ATOM     31  C   UNL     1      -5.420  54.248  52.434  0.00  0.00    +0.000 A 
ATOM     32  C   UNL     1      -7.359  55.517  53.116  0.00  0.00    +0.000 A 
ATOM     33  C   UNL     1      -5.240  53.823  53.755  0.00  0.00    +0.000 A 
ATOM     34  C   UNL     1      -7.174  55.096  54.432  0.00  0.00    +0.000 A 
ATOM     35  C   UNL     1      -6.123  54.241  54.750  0.00  0.00    +0.000 A 
ENDBRANCH  29  30
ENDBRANCH  28  29
ENDBRANCH   5  28
TORSDOF 5
ENDMDL
MODEL 6
REMARK VINA RESULT:      -8.6      1.794      5.428
REMARK  Name = 338062
REMARK  5 active torsions:
REMARK  status: ('A' for Active; 'I' for Inactive)
REMARK    1  A    between atoms: C_6  and  C_10
REMARK    2  A    between atoms: C_14  and  O_18
REMARK    3  A    between atoms: N_17  and  C_21
REMARK    4  A    between atoms: C_21  and  C_24
REMARK    5  A    between atoms: C_24  and  C_27
REMARK                            x       y       z     vdW  Elec       q    Type
REMARK                         _______ _______ _______ _____ _____    ______ ____
ROOT
ATOM      1  C   UNL     1     -10.511  54.954  50.653  0.00  0.00    +0.000 A 
ATOM      2  C   UNL     1     -10.271  54.889  49.179  0.00  0.00    +0.000 A 
ATOM      3  C   UNL     1     -11.605  55.563  51.140  0.00  0.00    +0.000 A 
ATOM      4  O   UNL     1      -9.337  54.194  48.769  0.00  0.00    +0.000 OA
ATOM      5  N   UNL     1     -11.125  55.586  48.334  0.00  0.00    +0.000 N 
ATOM      6  C   UNL     1     -12.573  56.178  50.223  0.00  0.00    +0.000 A 
ATOM      7  C   UNL     1     -12.329  56.172  48.835  0.00  0.00    +0.000 A 
ATOM      8  C   UNL     1     -13.762  56.740  50.715  0.00  0.00    +0.000 A 
ATOM      9  C   UNL     1     -13.304  56.696  47.978  0.00  0.00    +0.000 A 
ATOM     10  C   UNL     1     -14.722  57.253  49.841  0.00  0.00    +0.000 A 
ATOM     11  C   UNL     1     -14.489  57.226  48.475  0.00  0.00    +0.000 A 
ENDROOT
BRANCH   1  17
ATOM     12  S   UNL     1      -8.986  52.196  52.991  0.00  0.00    +0.000 S 
ATOM     13  O   UNL     1      -8.328  51.148  52.241  0.00  0.00    +0.000 OA
ATOM     14  O   UNL     1      -9.806  51.875  54.143  0.00  0.00    +0.000 OA
ATOM     15  N   UNL     1      -9.900  53.041  51.951  0.00  0.00    +0.000 N 
ATOM     16  C   UNL     1      -7.713  53.251  53.579  0.00  0.00    +0.000 A 
ATOM     17  C   UNL     1      -9.558  54.238  51.580  0.00  0.00    +0.000 C 
ATOM     18  C   UNL     1      -7.589  54.505  53.003  0.00  0.00    +0.000 A 
ATOM     19  C   UNL     1      -6.869  52.819  54.603  0.00  0.00    +0.000 A 
ATOM     20  N   UNL     1      -8.417  54.908  51.962  0.00  0.00    +0.000 N 
ATOM     21  C   UNL     1      -6.548  55.334  53.436  0.00  0.00    +0.000 A 
ATOM     22  C   UNL     1      -5.852  53.662  55.041  0.00  0.00    +0.000 A 
ATOM     23  C   UNL     1      -5.689  54.917  54.453  0.00  0.00    +0.000 A 
ATOM     24  H   UNL     1     -10.728  52.642  51.597  0.00  0.00    +0.000 HD
ATOM     25  H   UNL     1      -8.174  55.723  51.468  0.00  0.00    +0.000 HD
ENDBRANCH   1  17
BRANCH   3  26
ATOM     26  O   UNL     1     -11.948  55.611  52.481  0.00  0.00    +0.000 OA
ATOM     27  H   UNL     1     -11.737  54.894  53.045  0.00  0.00    +0.000 HD
ENDBRANCH   3  26
BRANCH   5  28
ATOM     28  C   UNL     1     -10.861  55.539  46.885  0.00  0.00    +0.000 C 
BRANCH  28  29
ATOM     29  C   UNL     1     -11.489  54.337  46.153  0.00  0.00    +0.000 C 
BRANCH  29  30
ATOM     30  C   UNL     1     -10.518  53.702  45.185  0.00  0.00    +0.000 A 
ATOM     31  C   UNL     1      -9.136  53.936  45.262  0.00  0.00    +0.000 A 
ATOM     32  C   UNL     1     -11.011  52.885  44.160  0.00  0.00    +0.000 A 
ATOM     33  C   UNL     1      -8.273  53.382  44.311  0.00  0.00    +0.000 A 
ATOM     34  C   UNL     1     -10.148  52.330  43.216  0.00  0.00    +0.000 A 
ATOM     35  C   UNL     1      -8.781  52.587  43.284  0.00  0.00    +0.000 A 
ENDBRANCH  29  30
ENDBRANCH  28  29
ENDBRANCH   5  28
TORSDOF 5
ENDMDL
MODEL 7
REMARK VINA RESULT:      -8.5      3.519      7.337
REMARK  Name = 338062
REMARK  5 active torsions:
REMARK  status: ('A' for Active; 'I' for Inactive)
REMARK    1  A    between atoms: C_6  and  C_10
REMARK    2  A    between atoms: C_14  and  O_18
REMARK    3  A    between atoms: N_17  and  C_21
REMARK    4  A    between atoms: C_21  and  C_24
REMARK    5  A    between atoms: C_24  and  C_27
REMARK                            x       y       z     vdW  Elec       q    Type
REMARK                         _______ _______ _______ _____ _____    ______ ____
ROOT
ATOM      1  C   UNL     1     -11.627  54.920  50.137  0.00  0.00    +0.000 A 
ATOM      2  C   UNL     1     -10.412  55.245  49.328  0.00  0.00    +0.000 A 
ATOM      3  C   UNL     1     -11.887  53.653  50.499  0.00  0.00    +0.000 A 
ATOM      4  O   UNL     1     -10.132  56.433  49.144  0.00  0.00    +0.000 OA
ATOM      5  N   UNL     1      -9.634  54.200  48.847  0.00  0.00    +0.000 N 
ATOM      6  C   UNL     1     -10.976  52.573  50.097  0.00  0.00    +0.000 A 
ATOM      7  C   UNL     1      -9.859  52.860  49.289  0.00  0.00    +0.000 A 
ATOM      8  C   UNL     1     -11.190  51.259  50.544  0.00  0.00    +0.000 A 
ATOM      9  C   UNL     1      -8.966  51.825  48.984  0.00  0.00    +0.000 A 
ATOM     10  C   UNL     1     -10.283  50.244  50.231  0.00  0.00    +0.000 A 
ATOM     11  C   UNL     1      -9.173  50.534  49.454  0.00  0.00    +0.000 A 
ENDROOT
BRANCH   1  17
ATOM     12  S   UNL     1     -14.157  56.967  52.329  0.00  0.00    +0.000 S 
ATOM     13  O   UNL     1     -13.517  57.575  53.475  0.00  0.00    +0.000 OA
ATOM     14  O   UNL     1     -15.465  56.354  52.453  0.00  0.00    +0.000 OA
ATOM     15  N   UNL     1     -13.140  55.850  51.737  0.00  0.00    +0.000 N 
ATOM     16  C   UNL     1     -14.328  58.238  51.131  0.00  0.00    +0.000 A 
ATOM     17  C   UNL     1     -12.504  56.050  50.621  0.00  0.00    +0.000 C 
ATOM     18  C   UNL     1     -13.518  58.187  50.008  0.00  0.00    +0.000 A 
ATOM     19  C   UNL     1     -15.265  59.254  51.324  0.00  0.00    +0.000 A 
ATOM     20  N   UNL     1     -12.568  57.186  49.847  0.00  0.00    +0.000 N 
ATOM     21  C   UNL     1     -13.617  59.221  49.071  0.00  0.00    +0.000 A 
ATOM     22  C   UNL     1     -15.370  60.265  50.373  0.00  0.00    +0.000 A 
ATOM     23  C   UNL     1     -14.542  60.251  49.249  0.00  0.00    +0.000 A 
ATOM     24  H   UNL     1     -13.003  55.009  52.230  0.00  0.00    +0.000 HD
ATOM     25  H   UNL     1     -11.899  57.295  49.133  0.00  0.00    +0.000 HD
ENDBRANCH   1  17
BRANCH   3  26
ATOM     26  O   UNL     1     -12.944  53.265  51.304  0.00  0.00    +0.000 OA
ATOM     27  H   UNL     1     -12.866  52.506  51.847  0.00  0.00    +0.000 HD
ENDBRANCH   3  26
BRANCH   5  28
ATOM     28  C   UNL     1      -8.455  54.532  48.026  0.00  0.00    +0.000 C 
BRANCH  28  29
ATOM     29  C   UNL     1      -8.778  55.190  46.670  0.00  0.00    +0.000 C 
BRANCH  29  30
ATOM     30  C   UNL     1      -9.440  54.219  45.721  0.00  0.00    +0.000 A 
ATOM     31  C   UNL     1     -10.836  54.095  45.642  0.00  0.00    +0.000 A 
ATOM     32  C   UNL     1      -8.640  53.391  44.922  0.00  0.00    +0.000 A 
ATOM     33  C   UNL     1     -11.413  53.141  44.798  0.00  0.00    +0.000 A 
ATOM     34  C   UNL     1      -9.218  52.444  44.078  0.00  0.00    +0.000 A 
ATOM     35  C   UNL     1     -10.603  52.311  44.024  0.00  0.00    +0.000 A 
ENDBRANCH  29  30
ENDBRANCH  28  29
ENDBRANCH   5  28
TORSDOF 5
ENDMDL
MODEL 8
REMARK VINA RESULT:      -8.5      1.617      5.130
REMARK  Name = 338062
REMARK  5 active torsions:
REMARK  status: ('A' for Active; 'I' for Inactive)
REMARK    1  A    between atoms: C_6  and  C_10
REMARK    2  A    between atoms: C_14  and  O_18
REMARK    3  A    between atoms: N_17  and  C_21
REMARK    4  A    between atoms: C_21  and  C_24
REMARK    5  A    between atoms: C_24  and  C_27
REMARK                            x       y       z     vdW  Elec       q    Type
REMARK                         _______ _______ _______ _____ _____    ______ ____
ROOT
ATOM      1  C   UNL     1     -10.149  54.210  51.144  0.00  0.00    +0.000 A 
ATOM      2  C   UNL     1     -10.638  53.940  49.757  0.00  0.00    +0.000 A 
ATOM      3  C   UNL     1     -10.851  55.001  51.973  0.00  0.00    +0.000 A 
ATOM      4  O   UNL     1     -10.045  53.092  49.083  0.00  0.00    +0.000 OA
ATOM      5  N   UNL     1     -11.753  54.628  49.299  0.00  0.00    +0.000 N 
ATOM      6  C   UNL     1     -12.105  55.614  51.516  0.00  0.00    +0.000 A 
ATOM      7  C   UNL     1     -12.546  55.412  50.193  0.00  0.00    +0.000 A 
ATOM      8  C   UNL     1     -12.890  56.371  52.400  0.00  0.00    +0.000 A 
ATOM      9  C   UNL     1     -13.782  55.944  49.808  0.00  0.00    +0.000 A 
ATOM     10  C   UNL     1     -14.122  56.889  51.995  0.00  0.00    +0.000 A 
ATOM     11  C   UNL     1     -14.563  56.669  50.699  0.00  0.00    +0.000 A 
ENDROOT
BRANCH   1  17
ATOM     12  S   UNL     1      -7.830  51.745  53.129  0.00  0.00    +0.000 S 
ATOM     13  O   UNL     1      -7.801  50.426  52.536  0.00  0.00    +0.000 OA
ATOM     14  O   UNL     1      -7.889  51.905  54.570  0.00  0.00    +0.000 OA
ATOM     15  N   UNL     1      -9.090  52.541  52.490  0.00  0.00    +0.000 N 
ATOM     16  C   UNL     1      -6.358  52.548  52.612  0.00  0.00    +0.000 A 
ATOM     17  C   UNL     1      -8.909  53.500  51.632  0.00  0.00    +0.000 C 
ATOM     18  C   UNL     1      -6.466  53.570  51.683  0.00  0.00    +0.000 A 
ATOM     19  C   UNL     1      -5.128  52.155  53.142  0.00  0.00    +0.000 A 
ATOM     20  N   UNL     1      -7.695  53.928  51.142  0.00  0.00    +0.000 N 
ATOM     21  C   UNL     1      -5.293  54.184  51.232  0.00  0.00    +0.000 A 
ATOM     22  C   UNL     1      -3.970  52.789  52.702  0.00  0.00    +0.000 A 
ATOM     23  C   UNL     1      -4.052  53.800  51.743  0.00  0.00    +0.000 A 
ATOM     24  H   UNL     1     -10.005  52.295  52.756  0.00  0.00    +0.000 HD
ATOM     25  H   UNL     1      -7.699  54.525  50.359  0.00  0.00    +0.000 HD
ENDBRANCH   1  17
BRANCH   3  26
ATOM     26  O   UNL     1     -10.517  55.252  53.293  0.00  0.00    +0.000 OA
ATOM     27  H   UNL     1     -10.795  56.046  53.704  0.00  0.00    +0.000 HD
ENDBRANCH   3  26
BRANCH   5  28
ATOM     28  C   UNL     1     -12.207  54.376  47.919  0.00  0.00    +0.000 C 
BRANCH  28  29
ATOM     29  C   UNL     1     -11.636  55.343  46.864  0.00  0.00    +0.000 C 
BRANCH  29  30
ATOM     30  C   UNL     1     -10.436  54.755  46.158  0.00  0.00    +0.000 A 
ATOM     31  C   UNL     1      -9.139  55.249  46.366  0.00  0.00    +0.000 A 
ATOM     32  C   UNL     1     -10.626  53.713  45.242  0.00  0.00    +0.000 A 
ATOM     33  C   UNL     1      -8.060  54.721  45.648  0.00  0.00    +0.000 A 
ATOM     34  C   UNL     1      -9.549  53.186  44.531  0.00  0.00    +0.000 A 
ATOM     35  C   UNL     1      -8.268  53.698  44.725  0.00  0.00    +0.000 A 
ENDBRANCH  29  30
ENDBRANCH  28  29
ENDBRANCH   5  28
TORSDOF 5
ENDMDL
MODEL 9
REMARK VINA RESULT:      -8.4      2.678      7.449
REMARK  Name = 338062
REMARK  5 active torsions:
REMARK  status: ('A' for Active; 'I' for Inactive)
REMARK    1  A    between atoms: C_6  and  C_10
REMARK    2  A    between atoms: C_14  and  O_18
REMARK    3  A    between atoms: N_17  and  C_21
REMARK    4  A    between atoms: C_21  and  C_24
REMARK    5  A    between atoms: C_24  and  C_27
REMARK                            x       y       z     vdW  Elec       q    Type
REMARK                         _______ _______ _______ _____ _____    ______ ____
ROOT
ATOM      1  C   UNL     1     -11.075  54.673  50.969  0.00  0.00    +0.000 A 
ATOM      2  C   UNL     1      -9.664  55.090  50.703  0.00  0.00    +0.000 A 
ATOM      3  C   UNL     1     -11.349  53.430  51.400  0.00  0.00    +0.000 A 
ATOM      4  O   UNL     1      -9.443  56.278  50.453  0.00  0.00    +0.000 OA
ATOM      5  N   UNL     1      -8.661  54.132  50.779  0.00  0.00    +0.000 N 
ATOM      6  C   UNL     1     -10.259  52.468  51.608  0.00  0.00    +0.000 A 
ATOM      7  C   UNL     1      -8.932  52.833  51.308  0.00  0.00    +0.000 A 
ATOM      8  C   UNL     1     -10.526  51.197  52.141  0.00  0.00    +0.000 A 
ATOM      9  C   UNL     1      -7.905  51.923  51.588  0.00  0.00    +0.000 A 
ATOM     10  C   UNL     1      -9.485  50.308  52.417  0.00  0.00    +0.000 A 
ATOM     11  C   UNL     1      -8.178  50.677  52.141  0.00  0.00    +0.000 A 
ENDROOT
BRANCH   1  17
ATOM     12  S   UNL     1     -13.471  57.358  49.407  0.00  0.00    +0.000 S 
ATOM     13  O   UNL     1     -14.568  56.755  48.682  0.00  0.00    +0.000 OA
ATOM     14  O   UNL     1     -12.790  58.525  48.878  0.00  0.00    +0.000 OA
ATOM     15  N   UNL     1     -12.358  56.206  49.657  0.00  0.00    +0.000 N 
ATOM     16  C   UNL     1     -14.118  57.840  50.965  0.00  0.00    +0.000 A 
ATOM     17  C   UNL     1     -12.175  55.698  50.840  0.00  0.00    +0.000 C 
ATOM     18  C   UNL     1     -13.730  57.117  52.082  0.00  0.00    +0.000 A 
ATOM     19  C   UNL     1     -14.991  58.925  51.051  0.00  0.00    +0.000 A 
ATOM     20  N   UNL     1     -12.885  56.019  51.975  0.00  0.00    +0.000 N 
ATOM     21  C   UNL     1     -14.277  57.466  53.321  0.00  0.00    +0.000 A 
ATOM     22  C   UNL     1     -15.511  59.277  52.293  0.00  0.00    +0.000 A 
ATOM     23  C   UNL     1     -15.158  58.544  53.427  0.00  0.00    +0.000 A 
ATOM     24  H   UNL     1     -11.812  55.886  48.903  0.00  0.00    +0.000 HD
ATOM     25  H   UNL     1     -12.787  55.434  52.760  0.00  0.00    +0.000 HD
ENDBRANCH   1  17
BRANCH   3  26
ATOM     26  O   UNL     1     -12.612  52.976  51.740  0.00  0.00    +0.000 OA
ATOM     27  H   UNL     1     -12.851  52.086  51.573  0.00  0.00    +0.000 HD
ENDBRANCH   3  26
BRANCH   5  28
ATOM     28  C   UNL     1      -7.278  54.549  50.486  0.00  0.00    +0.000 C 
BRANCH  28  29
ATOM     29  C   UNL     1      -6.710  54.011  49.157  0.00  0.00    +0.000 C 
BRANCH  29  30
ATOM     30  C   UNL     1      -7.748  54.022  48.060  0.00  0.00    +0.000 A 
ATOM     31  C   UNL     1      -8.110  55.204  47.395  0.00  0.00    +0.000 A 
ATOM     32  C   UNL     1      -8.397  52.828  47.720  0.00  0.00    +0.000 A 
ATOM     33  C   UNL     1      -9.120  55.187  46.427  0.00  0.00    +0.000 A 
ATOM     34  C   UNL     1      -9.400  52.813  46.752  0.00  0.00    +0.000 A 
ATOM     35  C   UNL     1      -9.770  53.994  46.114  0.00  0.00    +0.000 A 
ENDBRANCH  29  30
ENDBRANCH  28  29
ENDBRANCH   5  28
TORSDOF 5
ENDMDL
