MODEL 1
REMARK VINA RESULT:      -8.4      0.000      0.000
REMARK  Name = 338119
REMARK  5 active torsions:
REMARK  status: ('A' for Active; 'I' for Inactive)
REMARK    1  A    between atoms: C_6  and  C_10
REMARK    2  A    between atoms: C_14  and  O_18
REMARK    3  A    between atoms: N_17  and  C_21
REMARK    4  A    between atoms: C_21  and  C_24
REMARK    5  A    between atoms: C_24  and  C_27
REMARK                            x       y       z     vdW  Elec       q    Type
REMARK                         _______ _______ _______ _____ _____    ______ ____
ROOT
ATOM      1  C   UNL     1     -10.049  54.393  52.307  0.00  0.00    +0.000 A 
ATOM      2  C   UNL     1      -8.669  54.967  52.234  0.00  0.00    +0.000 A 
ATOM      3  C   UNL     1     -10.272  53.273  53.017  0.00  0.00    +0.000 A 
ATOM      4  O   UNL     1      -8.516  56.038  51.638  0.00  0.00    +0.000 OA
ATOM      5  N   UNL     1      -7.625  54.292  52.853  0.00  0.00    +0.000 N 
ATOM      6  C   UNL     1      -9.174  52.619  53.746  0.00  0.00    +0.000 A 
ATOM      7  C   UNL     1      -7.870  53.141  53.667  0.00  0.00    +0.000 A 
ATOM      8  C   UNL     1      -9.421  51.490  54.546  0.00  0.00    +0.000 A 
ATOM      9  C   UNL     1      -6.852  52.527  54.415  0.00  0.00    +0.000 A 
ATOM     10  C   UNL     1      -8.395  50.884  55.270  0.00  0.00    +0.000 A 
ATOM     11  C   UNL     1      -7.111  51.406  55.206  0.00  0.00    +0.000 A 
ENDROOT
BRANCH   1  17
ATOM     12  S   UNL     1     -12.367  55.910  49.513  0.00  0.00    +0.000 S 
ATOM     13  O   UNL     1     -13.255  54.925  48.923  0.00  0.00    +0.000 OA
ATOM     14  O   UNL     1     -11.704  56.887  48.672  0.00  0.00    +0.000 OA
ATOM     15  N   UNL     1     -11.225  55.110  50.340  0.00  0.00    +0.000 N 
ATOM     16  C   UNL     1     -13.337  56.829  50.651  0.00  0.00    +0.000 A 
ATOM     17  C   UNL     1     -11.197  55.132  51.640  0.00  0.00    +0.000 C 
ATOM     18  C   UNL     1     -13.087  56.653  52.002  0.00  0.00    +0.000 A 
ATOM     19  C   UNL     1     -14.318  57.711  50.185  0.00  0.00    +0.000 A 
ATOM     20  N   UNL     1     -12.113  55.766  52.452  0.00  0.00    +0.000 N 
ATOM     21  C   UNL     1     -13.899  57.333  52.915  0.00  0.00    +0.000 A 
ATOM     22  C   UNL     1     -15.093  58.411  51.106  0.00  0.00    +0.000 A 
ATOM     23  C   UNL     1     -14.890  58.213  52.472  0.00  0.00    +0.000 A 
ATOM     24  H   UNL     1     -10.542  54.597  49.850  0.00  0.00    +0.000 HD
ATOM     25  H   UNL     1     -12.076  55.578  53.417  0.00  0.00    +0.000 HD
ENDBRANCH   1  17
BRANCH   3  26
ATOM     26  O   UNL     1     -11.513  52.678  53.170  0.00  0.00    +0.000 OA
ATOM     27  H   UNL     1     -12.262  53.201  53.376  0.00  0.00    +0.000 HD
ENDBRANCH   3  26
BRANCH   5  28
ATOM     28  C   UNL     1      -6.268  54.859  52.742  0.00  0.00    +0.000 C 
BRANCH  28  29
ATOM     29  C   UNL     1      -5.340  54.095  51.781  0.00  0.00    +0.000 C 
BRANCH  29  30
ATOM     30  C   UNL     1      -5.883  54.076  50.377  0.00  0.00    +0.000 A 
ATOM     31  S   UNL     1      -6.568  52.641  49.732  0.00  0.00    +0.000 S 
ATOM     32  C   UNL     1      -5.936  55.112  49.466  0.00  0.00    +0.000 A 
ATOM     33  C   UNL     1      -6.945  53.409  48.250  0.00  0.00    +0.000 A 
ATOM     34  C   UNL     1      -6.552  54.729  48.240  0.00  0.00    +0.000 A 
ENDBRANCH  29  30
ENDBRANCH  28  29
ENDBRANCH   5  28
TORSDOF 5
ENDMDL
MODEL 2
REMARK VINA RESULT:      -8.4      2.754      4.994
REMARK  Name = 338119
REMARK  5 active torsions:
REMARK  status: ('A' for Active; 'I' for Inactive)
REMARK    1  A    between atoms: C_6  and  C_10
REMARK    2  A    between atoms: C_14  and  O_18
REMARK    3  A    between atoms: N_17  and  C_21
REMARK    4  A    between atoms: C_21  and  C_24
REMARK    5  A    between atoms: C_24  and  C_27
REMARK                            x       y       z     vdW  Elec       q    Type
REMARK                         _______ _______ _______ _____ _____    ______ ____
ROOT
ATOM      1  C   UNL     1     -11.401  55.966  48.852  0.00  0.00    +0.000 A 
ATOM      2  C   UNL     1     -10.351  55.354  49.726  0.00  0.00    +0.000 A 
ATOM      3  C   UNL     1     -11.493  55.602  47.560  0.00  0.00    +0.000 A 
ATOM      4  O   UNL     1     -10.346  55.654  50.924  0.00  0.00    +0.000 OA
ATOM      5  N   UNL     1      -9.445  54.462  49.167  0.00  0.00    +0.000 N 
ATOM      6  C   UNL     1     -10.586  54.586  47.004  0.00  0.00    +0.000 A 
ATOM      7  C   UNL     1      -9.584  54.020  47.814  0.00  0.00    +0.000 A 
ATOM      8  C   UNL     1     -10.729  54.153  45.674  0.00  0.00    +0.000 A 
ATOM      9  C   UNL     1      -8.769  53.015  47.270  0.00  0.00    +0.000 A 
ATOM     10  C   UNL     1      -9.900  53.166  45.148  0.00  0.00    +0.000 A 
ATOM     11  C   UNL     1      -8.921  52.594  45.948  0.00  0.00    +0.000 A 
ENDROOT
BRANCH   1  17
ATOM     12  S   UNL     1     -13.529  59.221  49.449  0.00  0.00    +0.000 S 
ATOM     13  O   UNL     1     -14.662  59.326  48.548  0.00  0.00    +0.000 OA
ATOM     14  O   UNL     1     -12.731  60.393  49.752  0.00  0.00    +0.000 OA
ATOM     15  N   UNL     1     -12.537  58.082  48.862  0.00  0.00    +0.000 N 
ATOM     16  C   UNL     1     -14.172  58.662  50.984  0.00  0.00    +0.000 A 
ATOM     17  C   UNL     1     -12.401  56.936  49.460  0.00  0.00    +0.000 C 
ATOM     18  C   UNL     1     -13.862  57.372  51.382  0.00  0.00    +0.000 A 
ATOM     19  C   UNL     1     -14.961  59.512  51.766  0.00  0.00    +0.000 A 
ATOM     20  N   UNL     1     -13.082  56.534  50.590  0.00  0.00    +0.000 N 
ATOM     21  C   UNL     1     -14.423  56.898  52.572  0.00  0.00    +0.000 A 
ATOM     22  C   UNL     1     -15.481  59.038  52.968  0.00  0.00    +0.000 A 
ATOM     23  C   UNL     1     -15.220  57.726  53.365  0.00  0.00    +0.000 A 
ATOM     24  H   UNL     1     -12.029  58.261  48.037  0.00  0.00    +0.000 HD
ATOM     25  H   UNL     1     -13.011  55.588  50.854  0.00  0.00    +0.000 HD
ENDBRANCH   1  17
BRANCH   3  26
ATOM     26  O   UNL     1     -12.443  56.087  46.677  0.00  0.00    +0.000 OA
ATOM     27  H   UNL     1     -13.350  55.895  46.811  0.00  0.00    +0.000 HD
ENDBRANCH   3  26
BRANCH   5  28
ATOM     28  C   UNL     1      -8.401  53.895  50.039  0.00  0.00    +0.000 C 
BRANCH  28  29
ATOM     29  C   UNL     1      -7.130  54.756  50.146  0.00  0.00    +0.000 C 
BRANCH  29  30
ATOM     30  C   UNL     1      -6.737  54.996  51.580  0.00  0.00    +0.000 A 
ATOM     31  S   UNL     1      -5.386  54.183  52.257  0.00  0.00    +0.000 S 
ATOM     32  C   UNL     1      -7.326  55.842  52.499  0.00  0.00    +0.000 A 
ATOM     33  C   UNL     1      -5.582  54.971  53.762  0.00  0.00    +0.000 A 
ATOM     34  C   UNL     1      -6.657  55.831  53.757  0.00  0.00    +0.000 A 
ENDBRANCH  29  30
ENDBRANCH  28  29
ENDBRANCH   5  28
TORSDOF 5
ENDMDL
MODEL 3
REMARK VINA RESULT:      -8.2      3.930      4.963
REMARK  Name = 338119
REMARK  5 active torsions:
REMARK  status: ('A' for Active; 'I' for Inactive)
REMARK    1  A    between atoms: C_6  and  C_10
REMARK    2  A    between atoms: C_14  and  O_18
REMARK    3  A    between atoms: N_17  and  C_21
REMARK    4  A    between atoms: C_21  and  C_24
REMARK    5  A    between atoms: C_24  and  C_27
REMARK                            x       y       z     vdW  Elec       q    Type
REMARK                         _______ _______ _______ _____ _____    ______ ____
ROOT
ATOM      1  C   UNL     1     -12.314  54.310  49.704  0.00  0.00    +0.000 A 
ATOM      2  C   UNL     1     -11.574  54.352  48.403  0.00  0.00    +0.000 A 
ATOM      3  C   UNL     1     -12.159  53.259  50.528  0.00  0.00    +0.000 A 
ATOM      4  O   UNL     1     -11.679  55.367  47.707  0.00  0.00    +0.000 OA
ATOM      5  N   UNL     1     -10.784  53.268  48.042  0.00  0.00    +0.000 N 
ATOM      6  C   UNL     1     -11.247  52.160  50.175  0.00  0.00    +0.000 A 
ATOM      7  C   UNL     1     -10.562  52.183  48.947  0.00  0.00    +0.000 A 
ATOM      8  C   UNL     1     -11.030  51.097  51.070  0.00  0.00    +0.000 A 
ATOM      9  C   UNL     1      -9.658  51.147  48.661  0.00  0.00    +0.000 A 
ATOM     10  C   UNL     1     -10.141  50.070  50.762  0.00  0.00    +0.000 A 
ATOM     11  C   UNL     1      -9.452  50.098  49.558  0.00  0.00    +0.000 A 
ENDROOT
BRANCH   1  17
ATOM     12  S   UNL     1     -15.328  56.405  51.119  0.00  0.00    +0.000 S 
ATOM     13  O   UNL     1     -15.319  56.495  52.568  0.00  0.00    +0.000 OA
ATOM     14  O   UNL     1     -16.575  56.184  50.414  0.00  0.00    +0.000 OA
ATOM     15  N   UNL     1     -14.301  55.225  50.694  0.00  0.00    +0.000 N 
ATOM     16  C   UNL     1     -14.699  57.932  50.528  0.00  0.00    +0.000 A 
ATOM     17  C   UNL     1     -13.172  55.497  50.109  0.00  0.00    +0.000 C 
ATOM     18  C   UNL     1     -13.447  57.928  49.936  0.00  0.00    +0.000 A 
ATOM     19  C   UNL     1     -15.459  59.100  50.651  0.00  0.00    +0.000 A 
ATOM     20  N   UNL     1     -12.697  56.760  49.827  0.00  0.00    +0.000 N 
ATOM     21  C   UNL     1     -12.911  59.152  49.520  0.00  0.00    +0.000 A 
ATOM     22  C   UNL     1     -14.929  60.305  50.197  0.00  0.00    +0.000 A 
ATOM     23  C   UNL     1     -13.649  60.332  49.641  0.00  0.00    +0.000 A 
ATOM     24  H   UNL     1     -14.535  54.287  50.883  0.00  0.00    +0.000 HD
ATOM     25  H   UNL     1     -11.763  56.841  49.527  0.00  0.00    +0.000 HD
ENDBRANCH   1  17
BRANCH   3  26
ATOM     26  O   UNL     1     -12.776  53.136  51.762  0.00  0.00    +0.000 OA
ATOM     27  H   UNL     1     -12.812  52.302  52.187  0.00  0.00    +0.000 HD
ENDBRANCH   3  26
BRANCH   5  28
ATOM     28  C   UNL     1     -10.089  53.317  46.743  0.00  0.00    +0.000 C 
BRANCH  28  29
ATOM     29  C   UNL     1     -10.879  52.696  45.578  0.00  0.00    +0.000 C 
BRANCH  29  30
ATOM     30  C   UNL     1      -9.977  52.302  44.438  0.00  0.00    +0.000 A 
ATOM     31  S   UNL     1      -8.590  51.333  44.725  0.00  0.00    +0.000 S 
ATOM     32  C   UNL     1     -10.110  52.605  43.097  0.00  0.00    +0.000 A 
ATOM     33  C   UNL     1      -8.182  51.310  43.064  0.00  0.00    +0.000 A 
ATOM     34  C   UNL     1      -9.076  52.029  42.304  0.00  0.00    +0.000 A 
ENDBRANCH  29  30
ENDBRANCH  28  29
ENDBRANCH   5  28
TORSDOF 5
ENDMDL
MODEL 4
REMARK VINA RESULT:      -8.2      2.941      7.011
REMARK  Name = 338119
REMARK  5 active torsions:
REMARK  status: ('A' for Active; 'I' for Inactive)
REMARK    1  A    between atoms: C_6  and  C_10
REMARK    2  A    between atoms: C_14  and  O_18
REMARK    3  A    between atoms: N_17  and  C_21
REMARK    4  A    between atoms: C_21  and  C_24
REMARK    5  A    between atoms: C_24  and  C_27
REMARK                            x       y       z     vdW  Elec       q    Type
REMARK                         _______ _______ _______ _____ _____    ______ ____
ROOT
ATOM      1  C   UNL     1     -10.346  55.116  50.903  0.00  0.00    +0.000 A 
ATOM      2  C   UNL     1     -10.035  54.961  49.447  0.00  0.00    +0.000 A 
ATOM      3  C   UNL     1     -11.503  55.684  51.285  0.00  0.00    +0.000 A 
ATOM      4  O   UNL     1      -9.000  54.365  49.133  0.00  0.00    +0.000 OA
ATOM      5  N   UNL     1     -10.927  55.469  48.510  0.00  0.00    +0.000 N 
ATOM      6  C   UNL     1     -12.481  56.133  50.281  0.00  0.00    +0.000 A 
ATOM      7  C   UNL     1     -12.189  56.010  48.911  0.00  0.00    +0.000 A 
ATOM      8  C   UNL     1     -13.722  56.662  50.681  0.00  0.00    +0.000 A 
ATOM      9  C   UNL     1     -13.164  56.398  47.977  0.00  0.00    +0.000 A 
ATOM     10  C   UNL     1     -14.670  57.056  49.740  0.00  0.00    +0.000 A 
ATOM     11  C   UNL     1     -14.391  56.921  48.387  0.00  0.00    +0.000 A 
ENDROOT
BRANCH   1  17
ATOM     12  S   UNL     1      -7.067  54.558  53.005  0.00  0.00    +0.000 S 
ATOM     13  O   UNL     1      -6.894  55.551  54.051  0.00  0.00    +0.000 OA
ATOM     14  O   UNL     1      -5.930  54.133  52.212  0.00  0.00    +0.000 OA
ATOM     15  N   UNL     1      -8.204  55.109  51.989  0.00  0.00    +0.000 N 
ATOM     16  C   UNL     1      -7.677  53.114  53.794  0.00  0.00    +0.000 A 
ATOM     17  C   UNL     1      -9.379  54.554  51.932  0.00  0.00    +0.000 C 
ATOM     18  C   UNL     1      -8.990  52.750  53.548  0.00  0.00    +0.000 A 
ATOM     19  C   UNL     1      -6.842  52.366  54.631  0.00  0.00    +0.000 A 
ATOM     20  N   UNL     1      -9.812  53.508  52.719  0.00  0.00    +0.000 N 
ATOM     21  C   UNL     1      -9.502  51.637  54.223  0.00  0.00    +0.000 A 
ATOM     22  C   UNL     1      -7.355  51.238  55.266  0.00  0.00    +0.000 A 
ATOM     23  C   UNL     1      -8.689  50.879  55.070  0.00  0.00    +0.000 A 
ATOM     24  H   UNL     1      -8.002  55.876  51.406  0.00  0.00    +0.000 HD
ATOM     25  H   UNL     1     -10.770  53.283  52.692  0.00  0.00    +0.000 HD
ENDBRANCH   1  17
BRANCH   3  26
ATOM     26  O   UNL     1     -11.896  55.849  52.602  0.00  0.00    +0.000 OA
ATOM     27  H   UNL     1     -12.782  55.676  52.852  0.00  0.00    +0.000 HD
ENDBRANCH   3  26
BRANCH   5  28
ATOM     28  C   UNL     1     -10.586  55.334  47.082  0.00  0.00    +0.000 C 
BRANCH  28  29
ATOM     29  C   UNL     1     -11.201  54.099  46.400  0.00  0.00    +0.000 C 
BRANCH  29  30
ATOM     30  C   UNL     1     -10.368  53.632  45.235  0.00  0.00    +0.000 A 
ATOM     31  S   UNL     1      -8.675  53.910  45.213  0.00  0.00    +0.000 S 
ATOM     32  C   UNL     1     -10.781  52.950  44.108  0.00  0.00    +0.000 A 
ATOM     33  C   UNL     1      -8.498  53.109  43.712  0.00  0.00    +0.000 A 
ATOM     34  C   UNL     1      -9.701  52.644  43.230  0.00  0.00    +0.000 A 
ENDBRANCH  29  30
ENDBRANCH  28  29
ENDBRANCH   5  28
TORSDOF 5
ENDMDL
MODEL 5
REMARK VINA RESULT:      -8.1      2.839      7.925
REMARK  Name = 338119
REMARK  5 active torsions:
REMARK  status: ('A' for Active; 'I' for Inactive)
REMARK    1  A    between atoms: C_6  and  C_10
REMARK    2  A    between atoms: C_14  and  O_18
REMARK    3  A    between atoms: N_17  and  C_21
REMARK    4  A    between atoms: C_21  and  C_24
REMARK    5  A    between atoms: C_24  and  C_27
REMARK                            x       y       z     vdW  Elec       q    Type
REMARK                         _______ _______ _______ _____ _____    ______ ____
ROOT
ATOM      1  C   UNL     1      -9.477  54.342  49.749  0.00  0.00    +0.000 A 
ATOM      2  C   UNL     1     -10.485  55.449  49.738  0.00  0.00    +0.000 A 
ATOM      3  C   UNL     1      -9.359  53.533  48.681  0.00  0.00    +0.000 A 
ATOM      4  O   UNL     1     -10.512  56.220  50.703  0.00  0.00    +0.000 OA
ATOM      5  N   UNL     1     -11.329  55.581  48.643  0.00  0.00    +0.000 N 
ATOM      6  C   UNL     1     -10.196  53.742  47.489  0.00  0.00    +0.000 A 
ATOM      7  C   UNL     1     -11.159  54.767  47.478  0.00  0.00    +0.000 A 
ATOM      8  C   UNL     1     -10.022  52.942  46.346  0.00  0.00    +0.000 A 
ATOM      9  C   UNL     1     -11.905  54.977  46.307  0.00  0.00    +0.000 A 
ATOM     10  C   UNL     1     -10.783  53.154  45.199  0.00  0.00    +0.000 A 
ATOM     11  C   UNL     1     -11.723  54.175  45.179  0.00  0.00    +0.000 A 
ENDROOT
BRANCH   1  17
ATOM     12  S   UNL     1      -8.206  54.112  53.465  0.00  0.00    +0.000 S 
ATOM     13  O   UNL     1      -8.424  52.803  54.054  0.00  0.00    +0.000 OA
ATOM     14  O   UNL     1      -8.455  55.309  54.243  0.00  0.00    +0.000 OA
ATOM     15  N   UNL     1      -9.101  54.199  52.116  0.00  0.00    +0.000 N 
ATOM     16  C   UNL     1      -6.510  54.171  53.014  0.00  0.00    +0.000 A 
ATOM     17  C   UNL     1      -8.545  54.199  50.941  0.00  0.00    +0.000 C 
ATOM     18  C   UNL     1      -6.201  54.158  51.664  0.00  0.00    +0.000 A 
ATOM     19  C   UNL     1      -5.523  54.239  54.002  0.00  0.00    +0.000 A 
ATOM     20  N   UNL     1      -7.194  54.082  50.691  0.00  0.00    +0.000 N 
ATOM     21  C   UNL     1      -4.852  54.140  51.298  0.00  0.00    +0.000 A 
ATOM     22  C   UNL     1      -4.183  54.259  53.621  0.00  0.00    +0.000 A 
ATOM     23  C   UNL     1      -3.848  54.199  52.268  0.00  0.00    +0.000 A 
ATOM     24  H   UNL     1     -10.081  54.253  52.188  0.00  0.00    +0.000 HD
ATOM     25  H   UNL     1      -6.913  53.935  49.759  0.00  0.00    +0.000 HD
ENDBRANCH   1  17
BRANCH   3  26
ATOM     26  O   UNL     1      -8.443  52.500  48.581  0.00  0.00    +0.000 OA
ATOM     27  H   UNL     1      -8.685  51.697  48.165  0.00  0.00    +0.000 HD
ENDBRANCH   3  26
BRANCH   5  28
ATOM     28  C   UNL     1     -12.335  56.658  48.666  0.00  0.00    +0.000 C 
BRANCH  28  29
ATOM     29  C   UNL     1     -13.670  56.264  49.321  0.00  0.00    +0.000 C 
BRANCH  29  30
ATOM     30  C   UNL     1     -13.909  57.020  50.601  0.00  0.00    +0.000 A 
ATOM     31  S   UNL     1     -14.552  58.610  50.562  0.00  0.00    +0.000 S 
ATOM     32  C   UNL     1     -13.692  56.597  51.898  0.00  0.00    +0.000 A 
ATOM     33  C   UNL     1     -14.553  58.723  52.269  0.00  0.00    +0.000 A 
ATOM     34  C   UNL     1     -14.067  57.579  52.861  0.00  0.00    +0.000 A 
ENDBRANCH  29  30
ENDBRANCH  28  29
ENDBRANCH   5  28
TORSDOF 5
ENDMDL
MODEL 6
REMARK VINA RESULT:      -8.1      2.045      2.820
REMARK  Name = 338119
REMARK  5 active torsions:
REMARK  status: ('A' for Active; 'I' for Inactive)
REMARK    1  A    between atoms: C_6  and  C_10
REMARK    2  A    between atoms: C_14  and  O_18
REMARK    3  A    between atoms: N_17  and  C_21
REMARK    4  A    between atoms: C_21  and  C_24
REMARK    5  A    between atoms: C_24  and  C_27
REMARK                            x       y       z     vdW  Elec       q    Type
REMARK                         _______ _______ _______ _____ _____    ______ ____
ROOT
ATOM      1  C   UNL     1     -11.147  54.603  50.830  0.00  0.00    +0.000 A 
ATOM      2  C   UNL     1      -9.741  54.984  50.485  0.00  0.00    +0.000 A 
ATOM      3  C   UNL     1     -11.413  53.367  51.287  0.00  0.00    +0.000 A 
ATOM      4  O   UNL     1      -9.522  56.151  50.143  0.00  0.00    +0.000 OA
ATOM      5  N   UNL     1      -8.740  54.026  50.583  0.00  0.00    +0.000 N 
ATOM      6  C   UNL     1     -10.329  52.390  51.475  0.00  0.00    +0.000 A 
ATOM      7  C   UNL     1      -9.008  52.733  51.135  0.00  0.00    +0.000 A 
ATOM      8  C   UNL     1     -10.597  51.122  52.020  0.00  0.00    +0.000 A 
ATOM      9  C   UNL     1      -7.987  51.800  51.376  0.00  0.00    +0.000 A 
ATOM     10  C   UNL     1      -9.573  50.203  52.238  0.00  0.00    +0.000 A 
ATOM     11  C   UNL     1      -8.267  50.544  51.917  0.00  0.00    +0.000 A 
ENDROOT
BRANCH   1  17
ATOM     12  S   UNL     1     -13.610  57.276  49.323  0.00  0.00    +0.000 S 
ATOM     13  O   UNL     1     -14.747  56.675  48.649  0.00  0.00    +0.000 OA
ATOM     14  O   UNL     1     -12.941  58.422  48.738  0.00  0.00    +0.000 OA
ATOM     15  N   UNL     1     -12.501  56.114  49.546  0.00  0.00    +0.000 N 
ATOM     16  C   UNL     1     -14.190  57.801  50.894  0.00  0.00    +0.000 A 
ATOM     17  C   UNL     1     -12.244  55.650  50.733  0.00  0.00    +0.000 C 
ATOM     18  C   UNL     1     -13.744  57.112  52.010  0.00  0.00    +0.000 A 
ATOM     19  C   UNL     1     -15.065  58.888  50.992  0.00  0.00    +0.000 A 
ATOM     20  N   UNL     1     -12.879  56.027  51.897  0.00  0.00    +0.000 N 
ATOM     21  C   UNL     1     -14.251  57.484  53.259  0.00  0.00    +0.000 A 
ATOM     22  C   UNL     1     -15.532  59.271  52.246  0.00  0.00    +0.000 A 
ATOM     23  C   UNL     1     -15.133  58.562  53.380  0.00  0.00    +0.000 A 
ATOM     24  H   UNL     1     -12.015  55.753  48.769  0.00  0.00    +0.000 HD
ATOM     25  H   UNL     1     -12.707  55.492  52.705  0.00  0.00    +0.000 HD
ENDBRANCH   1  17
BRANCH   3  26
ATOM     26  O   UNL     1     -12.671  52.925  51.658  0.00  0.00    +0.000 OA
ATOM     27  H   UNL     1     -12.969  53.043  52.538  0.00  0.00    +0.000 HD
ENDBRANCH   3  26
BRANCH   5  28
ATOM     28  C   UNL     1      -7.368  54.413  50.209  0.00  0.00    +0.000 C 
BRANCH  28  29
ATOM     29  C   UNL     1      -6.737  55.474  51.128  0.00  0.00    +0.000 C 
BRANCH  29  30
ATOM     30  C   UNL     1      -6.341  54.895  52.461  0.00  0.00    +0.000 A 
ATOM     31  S   UNL     1      -7.242  55.269  53.872  0.00  0.00    +0.000 S 
ATOM     32  C   UNL     1      -5.300  54.032  52.743  0.00  0.00    +0.000 A 
ATOM     33  C   UNL     1      -6.254  54.271  54.848  0.00  0.00    +0.000 A 
ATOM     34  C   UNL     1      -5.252  53.669  54.120  0.00  0.00    +0.000 A 
ENDBRANCH  29  30
ENDBRANCH  28  29
ENDBRANCH   5  28
TORSDOF 5
ENDMDL
MODEL 7
REMARK VINA RESULT:      -8.0      2.643      7.828
REMARK  Name = 338119
REMARK  5 active torsions:
REMARK  status: ('A' for Active; 'I' for Inactive)
REMARK    1  A    between atoms: C_6  and  C_10
REMARK    2  A    between atoms: C_14  and  O_18
REMARK    3  A    between atoms: N_17  and  C_21
REMARK    4  A    between atoms: C_21  and  C_24
REMARK    5  A    between atoms: C_24  and  C_27
REMARK                            x       y       z     vdW  Elec       q    Type
REMARK                         _______ _______ _______ _____ _____    ______ ____
ROOT
ATOM      1  C   UNL     1      -9.754  54.329  50.234  0.00  0.00    +0.000 A 
ATOM      2  C   UNL     1     -10.781  55.418  50.257  0.00  0.00    +0.000 A 
ATOM      3  C   UNL     1      -9.548  53.626  49.106  0.00  0.00    +0.000 A 
ATOM      4  O   UNL     1     -10.888  56.093  51.286  0.00  0.00    +0.000 OA
ATOM      5  N   UNL     1     -11.551  55.641  49.123  0.00  0.00    +0.000 N 
ATOM      6  C   UNL     1     -10.306  53.936  47.883  0.00  0.00    +0.000 A 
ATOM      7  C   UNL     1     -11.287  54.945  47.902  0.00  0.00    +0.000 A 
ATOM      8  C   UNL     1     -10.040  53.250  46.685  0.00  0.00    +0.000 A 
ATOM      9  C   UNL     1     -11.957  55.255  46.707  0.00  0.00    +0.000 A 
ATOM     10  C   UNL     1     -10.726  53.561  45.513  0.00  0.00    +0.000 A 
ATOM     11  C   UNL     1     -11.683  54.566  45.525  0.00  0.00    +0.000 A 
ENDROOT
BRANCH   1  17
ATOM     12  S   UNL     1      -6.917  54.734  52.929  0.00  0.00    +0.000 S 
ATOM     13  O   UNL     1      -7.198  55.789  53.887  0.00  0.00    +0.000 OA
ATOM     14  O   UNL     1      -5.578  54.575  52.397  0.00  0.00    +0.000 OA
ATOM     15  N   UNL     1      -7.930  54.924  51.678  0.00  0.00    +0.000 N 
ATOM     16  C   UNL     1      -7.302  53.224  53.735  0.00  0.00    +0.000 A 
ATOM     17  C   UNL     1      -8.901  54.085  51.468  0.00  0.00    +0.000 C 
ATOM     18  C   UNL     1      -8.414  52.524  53.296  0.00  0.00    +0.000 A 
ATOM     19  C   UNL     1      -6.493  52.757  54.776  0.00  0.00    +0.000 A 
ATOM     20  N   UNL     1      -9.215  53.004  52.264  0.00  0.00    +0.000 N 
ATOM     21  C   UNL     1      -8.764  51.352  53.975  0.00  0.00    +0.000 A 
ATOM     22  C   UNL     1      -6.833  51.568  55.417  0.00  0.00    +0.000 A 
ATOM     23  C   UNL     1      -7.975  50.871  55.023  0.00  0.00    +0.000 A 
ATOM     24  H   UNL     1      -7.809  55.687  51.068  0.00  0.00    +0.000 HD
ATOM     25  H   UNL     1     -10.066  52.540  52.089  0.00  0.00    +0.000 HD
ENDBRANCH   1  17
BRANCH   3  26
ATOM     26  O   UNL     1      -8.607  52.620  48.972  0.00  0.00    +0.000 OA
ATOM     27  H   UNL     1      -8.326  52.137  49.724  0.00  0.00    +0.000 HD
ENDBRANCH   3  26
BRANCH   5  28
ATOM     28  C   UNL     1     -12.578  56.698  49.178  0.00  0.00    +0.000 C 
BRANCH  28  29
ATOM     29  C   UNL     1     -13.910  56.254  49.808  0.00  0.00    +0.000 C 
BRANCH  29  30
ATOM     30  C   UNL     1     -14.311  57.146  50.954  0.00  0.00    +0.000 A 
ATOM     31  S   UNL     1     -14.436  58.842  50.731  0.00  0.00    +0.000 S 
ATOM     32  C   UNL     1     -14.633  56.783  52.247  0.00  0.00    +0.000 A 
ATOM     33  C   UNL     1     -14.933  59.085  52.349  0.00  0.00    +0.000 A 
ATOM     34  C   UNL     1     -14.996  57.903  53.051  0.00  0.00    +0.000 A 
ENDBRANCH  29  30
ENDBRANCH  28  29
ENDBRANCH   5  28
TORSDOF 5
ENDMDL
MODEL 8
REMARK VINA RESULT:      -8.0      3.901      5.881
REMARK  Name = 338119
REMARK  5 active torsions:
REMARK  status: ('A' for Active; 'I' for Inactive)
REMARK    1  A    between atoms: C_6  and  C_10
REMARK    2  A    between atoms: C_14  and  O_18
REMARK    3  A    between atoms: N_17  and  C_21
REMARK    4  A    between atoms: C_21  and  C_24
REMARK    5  A    between atoms: C_24  and  C_27
REMARK                            x       y       z     vdW  Elec       q    Type
REMARK                         _______ _______ _______ _____ _____    ______ ____
ROOT
ATOM      1  C   UNL     1     -10.844  55.655  48.678  0.00  0.00    +0.000 A 
ATOM      2  C   UNL     1     -11.205  55.188  47.302  0.00  0.00    +0.000 A 
ATOM      3  C   UNL     1      -9.589  55.491  49.134  0.00  0.00    +0.000 A 
ATOM      4  O   UNL     1     -12.344  55.424  46.887  0.00  0.00    +0.000 OA
ATOM      5  N   UNL     1     -10.245  54.532  46.541  0.00  0.00    +0.000 N 
ATOM      6  C   UNL     1      -8.559  54.879  48.281  0.00  0.00    +0.000 A 
ATOM      7  C   UNL     1      -8.893  54.419  46.994  0.00  0.00    +0.000 A 
ATOM      8  C   UNL     1      -7.230  54.773  48.731  0.00  0.00    +0.000 A 
ATOM      9  C   UNL     1      -7.877  53.888  46.184  0.00  0.00    +0.000 A 
ATOM     10  C   UNL     1      -6.239  54.228  47.918  0.00  0.00    +0.000 A 
ATOM     11  C   UNL     1      -6.563  53.788  46.643  0.00  0.00    +0.000 A 
ENDROOT
BRANCH   1  17
ATOM     12  S   UNL     1     -13.534  56.380  51.456  0.00  0.00    +0.000 S 
ATOM     13  O   UNL     1     -12.942  56.696  52.743  0.00  0.00    +0.000 OA
ATOM     14  O   UNL     1     -14.696  55.516  51.383  0.00  0.00    +0.000 OA
ATOM     15  N   UNL     1     -12.374  55.732  50.527  0.00  0.00    +0.000 N 
ATOM     16  C   UNL     1     -14.022  57.911  50.751  0.00  0.00    +0.000 A 
ATOM     17  C   UNL     1     -11.886  56.382  49.511  0.00  0.00    +0.000 C 
ATOM     18  C   UNL     1     -13.313  58.372  49.654  0.00  0.00    +0.000 A 
ATOM     19  C   UNL     1     -15.102  58.619  51.289  0.00  0.00    +0.000 A 
ATOM     20  N   UNL     1     -12.236  57.661  49.133  0.00  0.00    +0.000 N 
ATOM     21  C   UNL     1     -13.655  59.621  49.127  0.00  0.00    +0.000 A 
ATOM     22  C   UNL     1     -15.456  59.844  50.729  0.00  0.00    +0.000 A 
ATOM     23  C   UNL     1     -14.725  60.350  49.653  0.00  0.00    +0.000 A 
ATOM     24  H   UNL     1     -12.032  54.833  50.735  0.00  0.00    +0.000 HD
ATOM     25  H   UNL     1     -11.684  58.101  48.447  0.00  0.00    +0.000 HD
ENDBRANCH   1  17
BRANCH   3  26
ATOM     26  O   UNL     1      -9.148  55.911  50.377  0.00  0.00    +0.000 OA
ATOM     27  H   UNL     1      -8.690  56.723  50.462  0.00  0.00    +0.000 HD
ENDBRANCH   3  26
BRANCH   5  28
ATOM     28  C   UNL     1     -10.631  54.052  45.201  0.00  0.00    +0.000 C 
BRANCH  28  29
ATOM     29  C   UNL     1     -11.060  52.575  45.157  0.00  0.00    +0.000 C 
BRANCH  29  30
ATOM     30  C   UNL     1     -10.294  51.801  44.116  0.00  0.00    +0.000 A 
ATOM     31  S   UNL     1      -9.857  50.166  44.398  0.00  0.00    +0.000 S 
ATOM     32  C   UNL     1      -9.872  52.227  42.872  0.00  0.00    +0.000 A 
ATOM     33  C   UNL     1      -9.123  50.028  42.860  0.00  0.00    +0.000 A 
ATOM     34  C   UNL     1      -9.200  51.202  42.145  0.00  0.00    +0.000 A 
ENDBRANCH  29  30
ENDBRANCH  28  29
ENDBRANCH   5  28
TORSDOF 5
ENDMDL
MODEL 9
REMARK VINA RESULT:      -8.0      2.804      5.252
REMARK  Name = 338119
REMARK  5 active torsions:
REMARK  status: ('A' for Active; 'I' for Inactive)
REMARK    1  A    between atoms: C_6  and  C_10
REMARK    2  A    between atoms: C_14  and  O_18
REMARK    3  A    between atoms: N_17  and  C_21
REMARK    4  A    between atoms: C_21  and  C_24
REMARK    5  A    between atoms: C_24  and  C_27
REMARK                            x       y       z     vdW  Elec       q    Type
REMARK                         _______ _______ _______ _____ _____    ______ ____
ROOT
ATOM      1  C   UNL     1     -10.704  55.648  48.333  0.00  0.00    +0.000 A 
ATOM      2  C   UNL     1      -9.279  55.509  48.772  0.00  0.00    +0.000 A 
ATOM      3  C   UNL     1     -11.094  55.138  47.151  0.00  0.00    +0.000 A 
ATOM      4  O   UNL     1      -8.975  55.921  49.896  0.00  0.00    +0.000 OA
ATOM      5  N   UNL     1      -8.366  54.907  47.915  0.00  0.00    +0.000 N 
ATOM      6  C   UNL     1     -10.136  54.420  46.295  0.00  0.00    +0.000 A 
ATOM      7  C   UNL     1      -8.792  54.301  46.691  0.00  0.00    +0.000 A 
ATOM      8  C   UNL     1     -10.560  53.824  45.094  0.00  0.00    +0.000 A 
ATOM      9  C   UNL     1      -7.913  53.564  45.880  0.00  0.00    +0.000 A 
ATOM     10  C   UNL     1      -9.671  53.110  44.294  0.00  0.00    +0.000 A 
ATOM     11  C   UNL     1      -8.347  52.979  44.689  0.00  0.00    +0.000 A 
ENDROOT
BRANCH   1  17
ATOM     12  S   UNL     1     -13.231  56.143  51.307  0.00  0.00    +0.000 S 
ATOM     13  O   UNL     1     -12.567  56.404  52.572  0.00  0.00    +0.000 OA
ATOM     14  O   UNL     1     -14.373  55.252  51.257  0.00  0.00    +0.000 OA
ATOM     15  N   UNL     1     -12.116  55.580  50.273  0.00  0.00    +0.000 N 
ATOM     16  C   UNL     1     -13.800  57.696  50.722  0.00  0.00    +0.000 A 
ATOM     17  C   UNL     1     -11.709  56.298  49.269  0.00  0.00    +0.000 C 
ATOM     18  C   UNL     1     -13.173  58.236  49.611  0.00  0.00    +0.000 A 
ATOM     19  C   UNL     1     -14.861  58.343  51.364  0.00  0.00    +0.000 A 
ATOM     20  N   UNL     1     -12.113  57.586  48.986  0.00  0.00    +0.000 N 
ATOM     21  C   UNL     1     -13.578  59.503  49.178  0.00  0.00    +0.000 A 
ATOM     22  C   UNL     1     -15.280  59.586  50.897  0.00  0.00    +0.000 A 
ATOM     23  C   UNL     1     -14.630  60.171  49.809  0.00  0.00    +0.000 A 
ATOM     24  H   UNL     1     -11.740  54.680  50.409  0.00  0.00    +0.000 HD
ATOM     25  H   UNL     1     -11.617  58.079  48.293  0.00  0.00    +0.000 HD
ENDBRANCH   1  17
BRANCH   3  26
ATOM     26  O   UNL     1     -12.389  55.189  46.666  0.00  0.00    +0.000 OA
ATOM     27  H   UNL     1     -12.548  55.429  45.775  0.00  0.00    +0.000 HD
ENDBRANCH   3  26
BRANCH   5  28
ATOM     28  C   UNL     1      -6.962  54.808  48.355  0.00  0.00    +0.000 C 
BRANCH  28  29
ATOM     29  C   UNL     1      -6.621  53.502  49.093  0.00  0.00    +0.000 C 
BRANCH  29  30
ATOM     30  C   UNL     1      -5.938  53.766  50.409  0.00  0.00    +0.000 A 
ATOM     31  S   UNL     1      -6.834  53.737  51.872  0.00  0.00    +0.000 S 
ATOM     32  C   UNL     1      -4.603  54.031  50.642  0.00  0.00    +0.000 A 
ATOM     33  C   UNL     1      -5.440  54.061  52.809  0.00  0.00    +0.000 A 
ATOM     34  C   UNL     1      -4.315  54.197  52.027  0.00  0.00    +0.000 A 
ENDBRANCH  29  30
ENDBRANCH  28  29
ENDBRANCH   5  28
TORSDOF 5
ENDMDL
