MODEL 1
REMARK VINA RESULT:      -8.3      0.000      0.000
REMARK  Name = 338298
REMARK  5 active torsions:
REMARK  status: ('A' for Active; 'I' for Inactive)
REMARK    1  A    between atoms: C_6  and  C_10
REMARK    2  A    between atoms: C_14  and  O_18
REMARK    3  A    between atoms: N_17  and  C_21
REMARK    4  A    between atoms: C_21  and  C_24
REMARK    5  A    between atoms: C_24  and  C_27
REMARK                            x       y       z     vdW  Elec       q    Type
REMARK                         _______ _______ _______ _____ _____    ______ ____
ROOT
ATOM      1  C   UNL     1     -10.143  54.420  52.268  0.00  0.00    +0.000 A 
ATOM      2  C   UNL     1      -8.763  54.957  52.111  0.00  0.00    +0.000 A 
ATOM      3  C   UNL     1     -10.358  53.323  53.010  0.00  0.00    +0.000 A 
ATOM      4  O   UNL     1      -8.639  55.953  51.395  0.00  0.00    +0.000 OA
ATOM      5  N   UNL     1      -7.705  54.352  52.780  0.00  0.00    +0.000 N 
ATOM      6  C   UNL     1      -9.241  52.670  53.707  0.00  0.00    +0.000 A 
ATOM      7  C   UNL     1      -7.929  53.172  53.574  0.00  0.00    +0.000 A 
ATOM      8  C   UNL     1      -9.484  51.548  54.522  0.00  0.00    +0.000 A 
ATOM      9  C   UNL     1      -6.894  52.500  54.251  0.00  0.00    +0.000 A 
ATOM     10  C   UNL     1      -8.450  50.924  55.213  0.00  0.00    +0.000 A 
ATOM     11  C   UNL     1      -7.155  51.399  55.074  0.00  0.00    +0.000 A 
ENDROOT
BRANCH   1  17
ATOM     12  S   UNL     1     -12.448  56.012  49.507  0.00  0.00    +0.000 S 
ATOM     13  O   UNL     1     -13.361  55.059  48.903  0.00  0.00    +0.000 OA
ATOM     14  O   UNL     1     -11.773  56.993  48.686  0.00  0.00    +0.000 OA
ATOM     15  N   UNL     1     -11.320  55.172  50.312  0.00  0.00    +0.000 N 
ATOM     16  C   UNL     1     -13.399  56.927  50.666  0.00  0.00    +0.000 A 
ATOM     17  C   UNL     1     -11.287  55.173  51.612  0.00  0.00    +0.000 C 
ATOM     18  C   UNL     1     -13.144  56.727  52.011  0.00  0.00    +0.000 A 
ATOM     19  C   UNL     1     -14.364  57.837  50.224  0.00  0.00    +0.000 A 
ATOM     20  N   UNL     1     -12.191  55.805  52.440  0.00  0.00    +0.000 N 
ATOM     21  C   UNL     1     -13.933  57.412  52.943  0.00  0.00    +0.000 A 
ATOM     22  C   UNL     1     -15.120  58.537  51.162  0.00  0.00    +0.000 A 
ATOM     23  C   UNL     1     -14.911  58.317  52.522  0.00  0.00    +0.000 A 
ATOM     24  H   UNL     1     -10.651  54.652  49.810  0.00  0.00    +0.000 HD
ATOM     25  H   UNL     1     -12.162  55.591  53.400  0.00  0.00    +0.000 HD
ENDBRANCH   1  17
BRANCH   3  26
ATOM     26  O   UNL     1     -11.602  52.747  53.204  0.00  0.00    +0.000 OA
ATOM     27  H   UNL     1     -11.898  52.068  52.630  0.00  0.00    +0.000 HD
ENDBRANCH   3  26
BRANCH   5  28
ATOM     28  C   UNL     1      -6.330  54.848  52.531  0.00  0.00    +0.000 C 
BRANCH  28  29
ATOM     29  C   UNL     1      -5.548  54.152  51.400  0.00  0.00    +0.000 C 
BRANCH  29  30
ATOM     30  C   UNL     1      -5.508  54.941  50.123  0.00  0.00    +0.000 C 
ATOM     31  C   UNL     1      -6.340  54.602  48.915  0.00  0.00    +0.000 C 
ATOM     32  C   UNL     1      -4.867  54.306  48.915  0.00  0.00    +0.000 C 
ENDBRANCH  29  30
ENDBRANCH  28  29
ENDBRANCH   5  28
TORSDOF 5
ENDMDL
MODEL 2
REMARK VINA RESULT:      -8.0      2.587      7.824
REMARK  Name = 338298
REMARK  5 active torsions:
REMARK  status: ('A' for Active; 'I' for Inactive)
REMARK    1  A    between atoms: C_6  and  C_10
REMARK    2  A    between atoms: C_14  and  O_18
REMARK    3  A    between atoms: N_17  and  C_21
REMARK    4  A    between atoms: C_21  and  C_24
REMARK    5  A    between atoms: C_24  and  C_27
REMARK                            x       y       z     vdW  Elec       q    Type
REMARK                         _______ _______ _______ _____ _____    ______ ____
ROOT
ATOM      1  C   UNL     1     -10.078  54.827  50.899  0.00  0.00    +0.000 A 
ATOM      2  C   UNL     1     -11.391  55.372  51.343  0.00  0.00    +0.000 A 
ATOM      3  C   UNL     1      -9.795  54.733  49.592  0.00  0.00    +0.000 A 
ATOM      4  O   UNL     1     -11.589  55.404  52.560  0.00  0.00    +0.000 OA
ATOM      5  N   UNL     1     -12.302  55.836  50.401  0.00  0.00    +0.000 N 
ATOM      6  C   UNL     1     -10.761  55.209  48.589  0.00  0.00    +0.000 A 
ATOM      7  C   UNL     1     -12.006  55.734  48.995  0.00  0.00    +0.000 A 
ATOM      8  C   UNL     1     -10.436  55.150  47.221  0.00  0.00    +0.000 A 
ATOM      9  C   UNL     1     -12.899  56.160  47.995  0.00  0.00    +0.000 A 
ATOM     10  C   UNL     1     -11.320  55.615  46.252  0.00  0.00    +0.000 A 
ATOM     11  C   UNL     1     -12.552  56.117  46.640  0.00  0.00    +0.000 A 
ENDROOT
BRANCH   1  17
ATOM     12  S   UNL     1      -6.779  54.732  53.041  0.00  0.00    +0.000 S 
ATOM     13  O   UNL     1      -6.723  55.770  54.053  0.00  0.00    +0.000 OA
ATOM     14  O   UNL     1      -5.601  54.403  52.271  0.00  0.00    +0.000 OA
ATOM     15  N   UNL     1      -7.963  55.119  52.003  0.00  0.00    +0.000 N 
ATOM     16  C   UNL     1      -7.232  53.259  53.882  0.00  0.00    +0.000 A 
ATOM     17  C   UNL     1      -9.066  54.433  51.962  0.00  0.00    +0.000 C 
ATOM     18  C   UNL     1      -8.492  52.738  53.641  0.00  0.00    +0.000 A 
ATOM     19  C   UNL     1      -6.328  52.636  54.748  0.00  0.00    +0.000 A 
ATOM     20  N   UNL     1      -9.389  53.377  52.789  0.00  0.00    +0.000 N 
ATOM     21  C   UNL     1      -8.881  51.594  54.347  0.00  0.00    +0.000 A 
ATOM     22  C   UNL     1      -6.717  51.478  55.419  0.00  0.00    +0.000 A 
ATOM     23  C   UNL     1      -7.997  50.962  55.226  0.00  0.00    +0.000 A 
ATOM     24  H   UNL     1      -7.845  55.886  51.395  0.00  0.00    +0.000 HD
ATOM     25  H   UNL     1     -10.319  53.052  52.776  0.00  0.00    +0.000 HD
ENDBRANCH   1  17
BRANCH   3  26
ATOM     26  O   UNL     1      -8.608  54.232  49.086  0.00  0.00    +0.000 OA
ATOM     27  H   UNL     1      -8.356  53.349  49.274  0.00  0.00    +0.000 HD
ENDBRANCH   3  26
BRANCH   5  28
ATOM     28  C   UNL     1     -13.637  56.284  50.864  0.00  0.00    +0.000 C 
BRANCH  28  29
ATOM     29  C   UNL     1     -13.809  57.799  51.088  0.00  0.00    +0.000 C 
BRANCH  29  30
ATOM     30  C   UNL     1     -14.094  58.166  52.516  0.00  0.00    +0.000 C 
ATOM     31  C   UNL     1     -15.335  57.734  53.250  0.00  0.00    +0.000 C 
ATOM     32  C   UNL     1     -15.197  59.157  52.788  0.00  0.00    +0.000 C 
ENDBRANCH  29  30
ENDBRANCH  28  29
ENDBRANCH   5  28
TORSDOF 5
ENDMDL
MODEL 3
REMARK VINA RESULT:      -8.0      3.372      4.386
REMARK  Name = 338298
REMARK  5 active torsions:
REMARK  status: ('A' for Active; 'I' for Inactive)
REMARK    1  A    between atoms: C_6  and  C_10
REMARK    2  A    between atoms: C_14  and  O_18
REMARK    3  A    between atoms: N_17  and  C_21
REMARK    4  A    between atoms: C_21  and  C_24
REMARK    5  A    between atoms: C_24  and  C_27
REMARK                            x       y       z     vdW  Elec       q    Type
REMARK                         _______ _______ _______ _____ _____    ______ ____
ROOT
ATOM      1  C   UNL     1     -12.383  54.261  49.904  0.00  0.00    +0.000 A 
ATOM      2  C   UNL     1     -12.111  54.006  48.462  0.00  0.00    +0.000 A 
ATOM      3  C   UNL     1     -11.871  53.447  50.839  0.00  0.00    +0.000 A 
ATOM      4  O   UNL     1     -12.636  54.782  47.659  0.00  0.00    +0.000 OA
ATOM      5  N   UNL     1     -11.281  52.956  48.089  0.00  0.00    +0.000 N 
ATOM      6  C   UNL     1     -11.004  52.326  50.450  0.00  0.00    +0.000 A 
ATOM      7  C   UNL     1     -10.732  52.076  49.088  0.00  0.00    +0.000 A 
ATOM      8  C   UNL     1     -10.432  51.505  51.442  0.00  0.00    +0.000 A 
ATOM      9  C   UNL     1      -9.908  50.981  48.770  0.00  0.00    +0.000 A 
ATOM     10  C   UNL     1      -9.589  50.452  51.104  0.00  0.00    +0.000 A 
ATOM     11  C   UNL     1      -9.330  50.188  49.768  0.00  0.00    +0.000 A 
ENDROOT
BRANCH   1  17
ATOM     12  S   UNL     1     -15.327  56.492  51.257  0.00  0.00    +0.000 S 
ATOM     13  O   UNL     1     -15.304  56.660  52.697  0.00  0.00    +0.000 OA
ATOM     14  O   UNL     1     -16.581  56.272  50.570  0.00  0.00    +0.000 OA
ATOM     15  N   UNL     1     -14.333  55.267  50.887  0.00  0.00    +0.000 N 
ATOM     16  C   UNL     1     -14.665  57.973  50.585  0.00  0.00    +0.000 A 
ATOM     17  C   UNL     1     -13.205  55.483  50.277  0.00  0.00    +0.000 C 
ATOM     18  C   UNL     1     -13.422  57.909  49.979  0.00  0.00    +0.000 A 
ATOM     19  C   UNL     1     -15.393  59.165  50.654  0.00  0.00    +0.000 A 
ATOM     20  N   UNL     1     -12.699  56.720  49.933  0.00  0.00    +0.000 N 
ATOM     21  C   UNL     1     -12.863  59.094  49.489  0.00  0.00    +0.000 A 
ATOM     22  C   UNL     1     -14.839  60.332  50.131  0.00  0.00    +0.000 A 
ATOM     23  C   UNL     1     -13.569  60.299  49.557  0.00  0.00    +0.000 A 
ATOM     24  H   UNL     1     -14.585  54.346  51.128  0.00  0.00    +0.000 HD
ATOM     25  H   UNL     1     -11.762  56.765  49.633  0.00  0.00    +0.000 HD
ENDBRANCH   1  17
BRANCH   3  26
ATOM     26  O   UNL     1     -12.077  53.599  52.200  0.00  0.00    +0.000 OA
ATOM     27  H   UNL     1     -12.623  54.291  52.516  0.00  0.00    +0.000 HD
ENDBRANCH   3  26
BRANCH   5  28
ATOM     28  C   UNL     1     -11.105  52.668  46.646  0.00  0.00    +0.000 C 
BRANCH  28  29
ATOM     29  C   UNL     1     -10.243  53.666  45.850  0.00  0.00    +0.000 C 
BRANCH  29  30
ATOM     30  C   UNL     1      -8.889  53.906  46.454  0.00  0.00    +0.000 C 
ATOM     31  C   UNL     1      -8.513  55.178  47.164  0.00  0.00    +0.000 C 
ATOM     32  C   UNL     1      -7.980  54.907  45.786  0.00  0.00    +0.000 C 
ENDBRANCH  29  30
ENDBRANCH  28  29
ENDBRANCH   5  28
TORSDOF 5
ENDMDL
MODEL 4
REMARK VINA RESULT:      -7.9      3.257      7.156
REMARK  Name = 338298
REMARK  5 active torsions:
REMARK  status: ('A' for Active; 'I' for Inactive)
REMARK    1  A    between atoms: C_6  and  C_10
REMARK    2  A    between atoms: C_14  and  O_18
REMARK    3  A    between atoms: N_17  and  C_21
REMARK    4  A    between atoms: C_21  and  C_24
REMARK    5  A    between atoms: C_24  and  C_27
REMARK                            x       y       z     vdW  Elec       q    Type
REMARK                         _______ _______ _______ _____ _____    ______ ____
ROOT
ATOM      1  C   UNL     1     -10.108  55.186  50.737  0.00  0.00    +0.000 A 
ATOM      2  C   UNL     1      -9.654  55.082  49.322  0.00  0.00    +0.000 A 
ATOM      3  C   UNL     1     -11.321  55.682  51.019  0.00  0.00    +0.000 A 
ATOM      4  O   UNL     1      -8.517  54.639  49.142  0.00  0.00    +0.000 OA
ATOM      5  N   UNL     1     -10.511  55.450  48.291  0.00  0.00    +0.000 N 
ATOM      6  C   UNL     1     -12.227  56.087  49.934  0.00  0.00    +0.000 A 
ATOM      7  C   UNL     1     -11.813  55.988  48.589  0.00  0.00    +0.000 A 
ATOM      8  C   UNL     1     -13.517  56.563  50.239  0.00  0.00    +0.000 A 
ATOM      9  C   UNL     1     -12.713  56.403  47.590  0.00  0.00    +0.000 A 
ATOM     10  C   UNL     1     -14.403  56.929  49.231  0.00  0.00    +0.000 A 
ATOM     11  C   UNL     1     -14.000  56.852  47.907  0.00  0.00    +0.000 A 
ENDROOT
BRANCH   1  17
ATOM     12  S   UNL     1      -6.953  54.768  53.049  0.00  0.00    +0.000 S 
ATOM     13  O   UNL     1      -6.896  55.742  54.122  0.00  0.00    +0.000 OA
ATOM     14  O   UNL     1      -5.752  54.409  52.327  0.00  0.00    +0.000 OA
ATOM     15  N   UNL     1      -8.048  55.285  51.971  0.00  0.00    +0.000 N 
ATOM     16  C   UNL     1      -7.540  53.281  53.775  0.00  0.00    +0.000 A 
ATOM     17  C   UNL     1      -9.185  54.671  51.829  0.00  0.00    +0.000 C 
ATOM     18  C   UNL     1      -8.812  52.854  53.434  0.00  0.00    +0.000 A 
ATOM     19  C   UNL     1      -6.728  52.556  54.652  0.00  0.00    +0.000 A 
ATOM     20  N   UNL     1      -9.618  53.594  52.573  0.00  0.00    +0.000 N 
ATOM     21  C   UNL     1      -9.309  51.699  54.049  0.00  0.00    +0.000 A 
ATOM     22  C   UNL     1      -7.223  51.390  55.231  0.00  0.00    +0.000 A 
ATOM     23  C   UNL     1      -8.517  50.966  54.937  0.00  0.00    +0.000 A 
ATOM     24  H   UNL     1      -7.849  56.075  51.418  0.00  0.00    +0.000 HD
ATOM     25  H   UNL     1     -10.563  53.328  52.489  0.00  0.00    +0.000 HD
ENDBRANCH   1  17
BRANCH   3  26
ATOM     26  O   UNL     1     -11.824  55.826  52.301  0.00  0.00    +0.000 OA
ATOM     27  H   UNL     1     -12.745  55.744  52.454  0.00  0.00    +0.000 HD
ENDBRANCH   3  26
BRANCH   5  28
ATOM     28  C   UNL     1     -10.000  55.427  46.900  0.00  0.00    +0.000 C 
BRANCH  28  29
ATOM     29  C   UNL     1      -9.997  54.056  46.196  0.00  0.00    +0.000 C 
BRANCH  29  30
ATOM     30  C   UNL     1     -11.157  53.858  45.263  0.00  0.00    +0.000 C 
ATOM     31  C   UNL     1     -11.968  52.591  45.208  0.00  0.00    +0.000 C 
ATOM     32  C   UNL     1     -10.987  52.899  44.113  0.00  0.00    +0.000 C 
ENDBRANCH  29  30
ENDBRANCH  28  29
ENDBRANCH   5  28
TORSDOF 5
ENDMDL
MODEL 5
REMARK VINA RESULT:      -7.9      2.212      3.124
REMARK  Name = 338298
REMARK  5 active torsions:
REMARK  status: ('A' for Active; 'I' for Inactive)
REMARK    1  A    between atoms: C_6  and  C_10
REMARK    2  A    between atoms: C_14  and  O_18
REMARK    3  A    between atoms: N_17  and  C_21
REMARK    4  A    between atoms: C_21  and  C_24
REMARK    5  A    between atoms: C_24  and  C_27
REMARK                            x       y       z     vdW  Elec       q    Type
REMARK                         _______ _______ _______ _____ _____    ______ ____
ROOT
ATOM      1  C   UNL     1     -11.700  54.046  51.086  0.00  0.00    +0.000 A 
ATOM      2  C   UNL     1     -10.796  54.056  52.271  0.00  0.00    +0.000 A 
ATOM      3  C   UNL     1     -11.763  52.964  50.297  0.00  0.00    +0.000 A 
ATOM      4  O   UNL     1     -10.773  55.095  52.935  0.00  0.00    +0.000 OA
ATOM      5  N   UNL     1     -10.059  52.921  52.588  0.00  0.00    +0.000 N 
ATOM      6  C   UNL     1     -10.974  51.765  50.620  0.00  0.00    +0.000 A 
ATOM      7  C   UNL     1     -10.119  51.757  51.742  0.00  0.00    +0.000 A 
ATOM      8  C   UNL     1     -11.083  50.617  49.812  0.00  0.00    +0.000 A 
ATOM      9  C   UNL     1      -9.376  50.590  51.997  0.00  0.00    +0.000 A 
ATOM     10  C   UNL     1     -10.367  49.461  50.108  0.00  0.00    +0.000 A 
ATOM     11  C   UNL     1      -9.512  49.449  51.198  0.00  0.00    +0.000 A 
ENDROOT
BRANCH   1  17
ATOM     12  S   UNL     1     -13.388  57.101  49.273  0.00  0.00    +0.000 S 
ATOM     13  O   UNL     1     -14.507  56.721  48.431  0.00  0.00    +0.000 OA
ATOM     14  O   UNL     1     -12.443  58.098  48.820  0.00  0.00    +0.000 OA
ATOM     15  N   UNL     1     -12.561  55.754  49.631  0.00  0.00    +0.000 N 
ATOM     16  C   UNL     1     -14.088  57.739  50.751  0.00  0.00    +0.000 A 
ATOM     17  C   UNL     1     -12.571  55.265  50.836  0.00  0.00    +0.000 C 
ATOM     18  C   UNL     1     -13.941  56.994  51.909  0.00  0.00    +0.000 A 
ATOM     19  C   UNL     1     -14.751  58.970  50.744  0.00  0.00    +0.000 A 
ATOM     20  N   UNL     1     -13.293  55.761  51.901  0.00  0.00    +0.000 N 
ATOM     21  C   UNL     1     -14.541  57.468  53.081  0.00  0.00    +0.000 A 
ATOM     22  C   UNL     1     -15.315  59.446  51.925  0.00  0.00    +0.000 A 
ATOM     23  C   UNL     1     -15.219  58.691  53.093  0.00  0.00    +0.000 A 
ATOM     24  H   UNL     1     -12.044  55.299  48.927  0.00  0.00    +0.000 HD
ATOM     25  H   UNL     1     -13.355  55.206  52.712  0.00  0.00    +0.000 HD
ENDBRANCH   1  17
BRANCH   3  26
ATOM     26  O   UNL     1     -12.563  52.866  49.172  0.00  0.00    +0.000 OA
ATOM     27  H   UNL     1     -12.781  53.636  48.685  0.00  0.00    +0.000 HD
ENDBRANCH   3  26
BRANCH   5  28
ATOM     28  C   UNL     1      -9.098  52.991  53.714  0.00  0.00    +0.000 C 
BRANCH  28  29
ATOM     29  C   UNL     1      -7.703  53.558  53.387  0.00  0.00    +0.000 C 
BRANCH  29  30
ATOM     30  C   UNL     1      -7.406  54.859  54.077  0.00  0.00    +0.000 C 
ATOM     31  C   UNL     1      -7.097  56.134  53.340  0.00  0.00    +0.000 C 
ATOM     32  C   UNL     1      -5.993  55.382  54.028  0.00  0.00    +0.000 C 
ENDBRANCH  29  30
ENDBRANCH  28  29
ENDBRANCH   5  28
TORSDOF 5
ENDMDL
MODEL 6
REMARK VINA RESULT:      -7.8      2.657      7.905
REMARK  Name = 338298
REMARK  5 active torsions:
REMARK  status: ('A' for Active; 'I' for Inactive)
REMARK    1  A    between atoms: C_6  and  C_10
REMARK    2  A    between atoms: C_14  and  O_18
REMARK    3  A    between atoms: N_17  and  C_21
REMARK    4  A    between atoms: C_21  and  C_24
REMARK    5  A    between atoms: C_24  and  C_27
REMARK                            x       y       z     vdW  Elec       q    Type
REMARK                         _______ _______ _______ _____ _____    ______ ____
ROOT
ATOM      1  C   UNL     1     -10.301  55.018  50.380  0.00  0.00    +0.000 A 
ATOM      2  C   UNL     1     -11.403  55.242  51.358  0.00  0.00    +0.000 A 
ATOM      3  C   UNL     1     -10.482  55.310  49.084  0.00  0.00    +0.000 A 
ATOM      4  O   UNL     1     -11.171  54.927  52.527  0.00  0.00    +0.000 OA
ATOM      5  N   UNL     1     -12.600  55.806  50.933  0.00  0.00    +0.000 N 
ATOM      6  C   UNL     1     -11.752  55.894  48.626  0.00  0.00    +0.000 A 
ATOM      7  C   UNL     1     -12.802  56.118  49.542  0.00  0.00    +0.000 A 
ATOM      8  C   UNL     1     -11.916  56.241  47.272  0.00  0.00    +0.000 A 
ATOM      9  C   UNL     1     -14.001  56.664  49.049  0.00  0.00    +0.000 A 
ATOM     10  C   UNL     1     -13.098  56.817  46.816  0.00  0.00    +0.000 A 
ATOM     11  C   UNL     1     -14.141  57.025  47.704  0.00  0.00    +0.000 A 
ENDROOT
BRANCH   1  17
ATOM     12  S   UNL     1      -7.122  52.752  50.865  0.00  0.00    +0.000 S 
ATOM     13  O   UNL     1      -6.100  52.978  49.861  0.00  0.00    +0.000 OA
ATOM     14  O   UNL     1      -7.433  51.408  51.298  0.00  0.00    +0.000 OA
ATOM     15  N   UNL     1      -8.493  53.435  50.333  0.00  0.00    +0.000 N 
ATOM     16  C   UNL     1      -6.590  53.609  52.301  0.00  0.00    +0.000 A 
ATOM     17  C   UNL     1      -8.970  54.503  50.901  0.00  0.00    +0.000 C 
ATOM     18  C   UNL     1      -7.299  54.735  52.683  0.00  0.00    +0.000 A 
ATOM     19  C   UNL     1      -5.493  53.144  53.034  0.00  0.00    +0.000 A 
ATOM     20  N   UNL     1      -8.379  55.199  51.935  0.00  0.00    +0.000 N 
ATOM     21  C   UNL     1      -6.850  55.455  53.795  0.00  0.00    +0.000 A 
ATOM     22  C   UNL     1      -5.077  53.851  54.160  0.00  0.00    +0.000 A 
ATOM     23  C   UNL     1      -5.750  55.013  54.535  0.00  0.00    +0.000 A 
ATOM     24  H   UNL     1      -8.971  53.036  49.570  0.00  0.00    +0.000 HD
ATOM     25  H   UNL     1      -8.746  56.084  52.161  0.00  0.00    +0.000 HD
ENDBRANCH   1  17
BRANCH   3  26
ATOM     26  O   UNL     1      -9.523  55.127  48.103  0.00  0.00    +0.000 OA
ATOM     27  H   UNL     1      -9.783  54.938  47.223  0.00  0.00    +0.000 HD
ENDBRANCH   3  26
BRANCH   5  28
ATOM     28  C   UNL     1     -13.711  55.929  51.907  0.00  0.00    +0.000 C 
BRANCH  28  29
ATOM     29  C   UNL     1     -13.835  57.282  52.635  0.00  0.00    +0.000 C 
BRANCH  29  30
ATOM     30  C   UNL     1     -15.075  58.048  52.273  0.00  0.00    +0.000 C 
ATOM     31  C   UNL     1     -15.055  59.326  51.478  0.00  0.00    +0.000 C 
ATOM     32  C   UNL     1     -15.318  59.369  52.956  0.00  0.00    +0.000 C 
ENDBRANCH  29  30
ENDBRANCH  28  29
ENDBRANCH   5  28
TORSDOF 5
ENDMDL
MODEL 7
REMARK VINA RESULT:      -7.7      2.948      4.837
REMARK  Name = 338298
REMARK  5 active torsions:
REMARK  status: ('A' for Active; 'I' for Inactive)
REMARK    1  A    between atoms: C_6  and  C_10
REMARK    2  A    between atoms: C_14  and  O_18
REMARK    3  A    between atoms: N_17  and  C_21
REMARK    4  A    between atoms: C_21  and  C_24
REMARK    5  A    between atoms: C_24  and  C_27
REMARK                            x       y       z     vdW  Elec       q    Type
REMARK                         _______ _______ _______ _____ _____    ______ ____
ROOT
ATOM      1  C   UNL     1     -11.583  55.798  48.806  0.00  0.00    +0.000 A 
ATOM      2  C   UNL     1     -10.620  55.103  49.705  0.00  0.00    +0.000 A 
ATOM      3  C   UNL     1     -11.629  55.488  47.502  0.00  0.00    +0.000 A 
ATOM      4  O   UNL     1     -10.618  55.458  50.886  0.00  0.00    +0.000 OA
ATOM      5  N   UNL     1      -9.809  54.092  49.202  0.00  0.00    +0.000 N 
ATOM      6  C   UNL     1     -10.762  54.430  46.960  0.00  0.00    +0.000 A 
ATOM      7  C   UNL     1      -9.851  53.758  47.802  0.00  0.00    +0.000 A 
ATOM      8  C   UNL     1     -10.852  54.079  45.600  0.00  0.00    +0.000 A 
ATOM      9  C   UNL     1      -9.035  52.765  47.230  0.00  0.00    +0.000 A 
ATOM     10  C   UNL     1     -10.062  53.066  45.066  0.00  0.00    +0.000 A 
ATOM     11  C   UNL     1      -9.151  52.412  45.881  0.00  0.00    +0.000 A 
ENDROOT
BRANCH   1  17
ATOM     12  S   UNL     1     -13.524  59.162  49.431  0.00  0.00    +0.000 S 
ATOM     13  O   UNL     1     -14.664  59.337  48.552  0.00  0.00    +0.000 OA
ATOM     14  O   UNL     1     -12.658  60.280  49.732  0.00  0.00    +0.000 OA
ATOM     15  N   UNL     1     -12.609  57.972  48.820  0.00  0.00    +0.000 N 
ATOM     16  C   UNL     1     -14.177  58.631  50.972  0.00  0.00    +0.000 A 
ATOM     17  C   UNL     1     -12.529  56.818  49.415  0.00  0.00    +0.000 C 
ATOM     18  C   UNL     1     -13.931  57.327  51.364  0.00  0.00    +0.000 A 
ATOM     19  C   UNL     1     -14.904  59.518  51.772  0.00  0.00    +0.000 A 
ATOM     20  N   UNL     1     -13.219  56.448  50.550  0.00  0.00    +0.000 N 
ATOM     21  C   UNL     1     -14.492  56.879  52.565  0.00  0.00    +0.000 A 
ATOM     22  C   UNL     1     -15.429  59.068  52.982  0.00  0.00    +0.000 A 
ATOM     23  C   UNL     1     -15.232  57.746  53.374  0.00  0.00    +0.000 A 
ATOM     24  H   UNL     1     -12.106  58.124  47.987  0.00  0.00    +0.000 HD
ATOM     25  H   UNL     1     -13.209  55.496  50.804  0.00  0.00    +0.000 HD
ENDBRANCH   1  17
BRANCH   3  26
ATOM     26  O   UNL     1     -12.481  56.086  46.589  0.00  0.00    +0.000 OA
ATOM     27  H   UNL     1     -12.410  55.881  45.678  0.00  0.00    +0.000 HD
ENDBRANCH   3  26
BRANCH   5  28
ATOM     28  C   UNL     1      -8.795  53.484  50.096  0.00  0.00    +0.000 C 
BRANCH  28  29
ATOM     29  C   UNL     1      -7.610  54.385  50.497  0.00  0.00    +0.000 C 
BRANCH  29  30
ATOM     30  C   UNL     1      -6.910  55.012  49.327  0.00  0.00    +0.000 C 
ATOM     31  C   UNL     1      -5.950  54.266  48.439  0.00  0.00    +0.000 C 
ATOM     32  C   UNL     1      -5.427  55.261  49.435  0.00  0.00    +0.000 C 
ENDBRANCH  29  30
ENDBRANCH  28  29
ENDBRANCH   5  28
TORSDOF 5
ENDMDL
MODEL 8
REMARK VINA RESULT:      -7.6      2.965      5.241
REMARK  Name = 338298
REMARK  5 active torsions:
REMARK  status: ('A' for Active; 'I' for Inactive)
REMARK    1  A    between atoms: C_6  and  C_10
REMARK    2  A    between atoms: C_14  and  O_18
REMARK    3  A    between atoms: N_17  and  C_21
REMARK    4  A    between atoms: C_21  and  C_24
REMARK    5  A    between atoms: C_24  and  C_27
REMARK                            x       y       z     vdW  Elec       q    Type
REMARK                         _______ _______ _______ _____ _____    ______ ____
ROOT
ATOM      1  C   UNL     1     -10.727  55.679  48.346  0.00  0.00    +0.000 A 
ATOM      2  C   UNL     1      -9.295  55.632  48.751  0.00  0.00    +0.000 A 
ATOM      3  C   UNL     1     -11.118  55.120  47.191  0.00  0.00    +0.000 A 
ATOM      4  O   UNL     1      -9.007  56.190  49.814  0.00  0.00    +0.000 OA
ATOM      5  N   UNL     1      -8.372  54.960  47.958  0.00  0.00    +0.000 N 
ATOM      6  C   UNL     1     -10.144  54.420  46.340  0.00  0.00    +0.000 A 
ATOM      7  C   UNL     1      -8.785  54.362  46.715  0.00  0.00    +0.000 A 
ATOM      8  C   UNL     1     -10.573  53.795  45.153  0.00  0.00    +0.000 A 
ATOM      9  C   UNL     1      -7.893  53.693  45.857  0.00  0.00    +0.000 A 
ATOM     10  C   UNL     1      -9.678  53.106  44.342  0.00  0.00    +0.000 A 
ATOM     11  C   UNL     1      -8.338  53.058  44.692  0.00  0.00    +0.000 A 
ENDROOT
BRANCH   1  17
ATOM     12  S   UNL     1     -13.252  56.168  51.322  0.00  0.00    +0.000 S 
ATOM     13  O   UNL     1     -12.599  56.435  52.590  0.00  0.00    +0.000 OA
ATOM     14  O   UNL     1     -14.392  55.280  51.264  0.00  0.00    +0.000 OA
ATOM     15  N   UNL     1     -12.129  55.607  50.298  0.00  0.00    +0.000 N 
ATOM     16  C   UNL     1     -13.822  57.721  50.734  0.00  0.00    +0.000 A 
ATOM     17  C   UNL     1     -11.723  56.326  49.293  0.00  0.00    +0.000 C 
ATOM     18  C   UNL     1     -13.197  58.260  49.623  0.00  0.00    +0.000 A 
ATOM     19  C   UNL     1     -14.888  58.368  51.368  0.00  0.00    +0.000 A 
ATOM     20  N   UNL     1     -12.125  57.615  49.010  0.00  0.00    +0.000 N 
ATOM     21  C   UNL     1     -13.608  59.522  49.179  0.00  0.00    +0.000 A 
ATOM     22  C   UNL     1     -15.310  59.608  50.895  0.00  0.00    +0.000 A 
ATOM     23  C   UNL     1     -14.664  60.190  49.806  0.00  0.00    +0.000 A 
ATOM     24  H   UNL     1     -11.747  54.710  50.438  0.00  0.00    +0.000 HD
ATOM     25  H   UNL     1     -11.621  58.114  48.327  0.00  0.00    +0.000 HD
ENDBRANCH   1  17
BRANCH   3  26
ATOM     26  O   UNL     1     -12.423  55.122  46.728  0.00  0.00    +0.000 OA
ATOM     27  H   UNL     1     -13.128  54.933  47.315  0.00  0.00    +0.000 HD
ENDBRANCH   3  26
BRANCH   5  28
ATOM     28  C   UNL     1      -6.940  55.012  48.336  0.00  0.00    +0.000 C 
BRANCH  28  29
ATOM     29  C   UNL     1      -6.483  54.015  49.418  0.00  0.00    +0.000 C 
BRANCH  29  30
ATOM     30  C   UNL     1      -5.629  54.637  50.486  0.00  0.00    +0.000 C 
ATOM     31  C   UNL     1      -4.816  53.835  51.467  0.00  0.00    +0.000 C 
ATOM     32  C   UNL     1      -6.079  54.511  51.919  0.00  0.00    +0.000 C 
ENDBRANCH  29  30
ENDBRANCH  28  29
ENDBRANCH   5  28
TORSDOF 5
ENDMDL
MODEL 9
REMARK VINA RESULT:      -7.5      4.111      7.354
REMARK  Name = 338298
REMARK  5 active torsions:
REMARK  status: ('A' for Active; 'I' for Inactive)
REMARK    1  A    between atoms: C_6  and  C_10
REMARK    2  A    between atoms: C_14  and  O_18
REMARK    3  A    between atoms: N_17  and  C_21
REMARK    4  A    between atoms: C_21  and  C_24
REMARK    5  A    between atoms: C_24  and  C_27
REMARK                            x       y       z     vdW  Elec       q    Type
REMARK                         _______ _______ _______ _____ _____    ______ ____
ROOT
ATOM      1  C   UNL     1     -11.043  54.603  48.286  0.00  0.00    +0.000 A 
ATOM      2  C   UNL     1     -10.771  54.133  49.673  0.00  0.00    +0.000 A 
ATOM      3  C   UNL     1     -11.975  55.542  48.065  0.00  0.00    +0.000 A 
ATOM      4  O   UNL     1      -9.919  53.249  49.796  0.00  0.00    +0.000 OA
ATOM      5  N   UNL     1     -11.445  54.709  50.744  0.00  0.00    +0.000 N 
ATOM      6  C   UNL     1     -12.701  56.145  49.192  0.00  0.00    +0.000 A 
ATOM      7  C   UNL     1     -12.449  55.714  50.512  0.00  0.00    +0.000 A 
ATOM      8  C   UNL     1     -13.643  57.164  48.954  0.00  0.00    +0.000 A 
ATOM      9  C   UNL     1     -13.183  56.313  51.552  0.00  0.00    +0.000 A 
ATOM     10  C   UNL     1     -14.328  57.769  50.003  0.00  0.00    +0.000 A 
ATOM     11  C   UNL     1     -14.099  57.341  51.302  0.00  0.00    +0.000 A 
ENDROOT
BRANCH   1  17
ATOM     12  S   UNL     1      -8.026  53.960  45.845  0.00  0.00    +0.000 S 
ATOM     13  O   UNL     1      -7.021  53.074  46.398  0.00  0.00    +0.000 OA
ATOM     14  O   UNL     1      -7.631  55.132  45.096  0.00  0.00    +0.000 OA
ATOM     15  N   UNL     1      -8.980  54.444  47.063  0.00  0.00    +0.000 N 
ATOM     16  C   UNL     1      -8.980  52.983  44.741  0.00  0.00    +0.000 A 
ATOM     17  C   UNL     1     -10.209  54.028  47.154  0.00  0.00    +0.000 C 
ATOM     18  C   UNL     1     -10.284  52.690  45.099  0.00  0.00    +0.000 A 
ATOM     19  C   UNL     1      -8.428  52.540  43.535  0.00  0.00    +0.000 A 
ATOM     20  N   UNL     1     -10.818  53.123  46.311  0.00  0.00    +0.000 N 
ATOM     21  C   UNL     1     -11.035  51.868  44.251  0.00  0.00    +0.000 A 
ATOM     22  C   UNL     1      -9.197  51.750  42.683  0.00  0.00    +0.000 A 
ATOM     23  C   UNL     1     -10.498  51.405  43.046  0.00  0.00    +0.000 A 
ATOM     24  H   UNL     1      -8.625  55.061  47.743  0.00  0.00    +0.000 HD
ATOM     25  H   UNL     1     -11.691  52.757  46.583  0.00  0.00    +0.000 HD
ENDBRANCH   1  17
BRANCH   3  26
ATOM     26  O   UNL     1     -12.303  56.032  46.813  0.00  0.00    +0.000 OA
ATOM     27  H   UNL     1     -11.628  56.207  46.187  0.00  0.00    +0.000 HD
ENDBRANCH   3  26
BRANCH   5  28
ATOM     28  C   UNL     1     -11.224  54.156  52.102  0.00  0.00    +0.000 C 
BRANCH  28  29
ATOM     29  C   UNL     1     -10.300  54.970  53.028  0.00  0.00    +0.000 C 
BRANCH  29  30
ATOM     30  C   UNL     1      -8.853  54.580  52.926  0.00  0.00    +0.000 C 
ATOM     31  C   UNL     1      -7.761  55.237  53.726  0.00  0.00    +0.000 C 
ATOM     32  C   UNL     1      -7.903  55.544  52.263  0.00  0.00    +0.000 C 
ENDBRANCH  29  30
ENDBRANCH  28  29
ENDBRANCH   5  28
TORSDOF 5
ENDMDL
