MODEL 1
REMARK VINA RESULT:      -8.2      0.000      0.000
REMARK  Name = 338298
REMARK  5 active torsions:
REMARK  status: ('A' for Active; 'I' for Inactive)
REMARK    1  A    between atoms: C_6  and  C_10
REMARK    2  A    between atoms: C_14  and  O_18
REMARK    3  A    between atoms: N_17  and  C_21
REMARK    4  A    between atoms: C_21  and  C_24
REMARK    5  A    between atoms: C_24  and  C_27
REMARK                            x       y       z     vdW  Elec       q    Type
REMARK                         _______ _______ _______ _____ _____    ______ ____
ROOT
ATOM      1  C   UNL     1     -10.113  54.394  52.270  0.00  0.00    +0.000 A 
ATOM      2  C   UNL     1      -8.735  54.943  52.119  0.00  0.00    +0.000 A 
ATOM      3  C   UNL     1     -10.323  53.301  53.019  0.00  0.00    +0.000 A 
ATOM      4  O   UNL     1      -8.620  55.940  51.402  0.00  0.00    +0.000 OA
ATOM      5  N   UNL     1      -7.676  54.349  52.794  0.00  0.00    +0.000 N 
ATOM      6  C   UNL     1      -9.203  52.660  53.724  0.00  0.00    +0.000 A 
ATOM      7  C   UNL     1      -7.894  53.170  53.592  0.00  0.00    +0.000 A 
ATOM      8  C   UNL     1      -9.440  51.540  54.544  0.00  0.00    +0.000 A 
ATOM      9  C   UNL     1      -6.856  52.509  54.272  0.00  0.00    +0.000 A 
ATOM     10  C   UNL     1      -8.403  50.928  55.240  0.00  0.00    +0.000 A 
ATOM     11  C   UNL     1      -7.111  51.410  55.100  0.00  0.00    +0.000 A 
ENDROOT
BRANCH   1  17
ATOM     12  S   UNL     1     -12.430  55.931  49.491  0.00  0.00    +0.000 S 
ATOM     13  O   UNL     1     -13.337  54.960  48.905  0.00  0.00    +0.000 OA
ATOM     14  O   UNL     1     -11.760  56.905  48.653  0.00  0.00    +0.000 OA
ATOM     15  N   UNL     1     -11.294  55.110  50.306  0.00  0.00    +0.000 N 
ATOM     16  C   UNL     1     -13.386  56.855  50.639  0.00  0.00    +0.000 A 
ATOM     17  C   UNL     1     -11.260  55.132  51.606  0.00  0.00    +0.000 C 
ATOM     18  C   UNL     1     -13.123  56.680  51.987  0.00  0.00    +0.000 A 
ATOM     19  C   UNL     1     -14.362  57.746  50.185  0.00  0.00    +0.000 A 
ATOM     20  N   UNL     1     -12.165  55.771  52.426  0.00  0.00    +0.000 N 
ATOM     21  C   UNL     1     -13.913  57.371  52.912  0.00  0.00    +0.000 A 
ATOM     22  C   UNL     1     -15.118  58.455  51.116  0.00  0.00    +0.000 A 
ATOM     23  C   UNL     1     -14.899  58.262  52.480  0.00  0.00    +0.000 A 
ATOM     24  H   UNL     1     -10.622  54.588  49.811  0.00  0.00    +0.000 HD
ATOM     25  H   UNL     1     -12.130  55.573  53.390  0.00  0.00    +0.000 HD
ENDBRANCH   1  17
BRANCH   3  26
ATOM     26  O   UNL     1     -11.562  52.718  53.214  0.00  0.00    +0.000 OA
ATOM     27  H   UNL     1     -11.634  51.787  53.304  0.00  0.00    +0.000 HD
ENDBRANCH   3  26
BRANCH   5  28
ATOM     28  C   UNL     1      -6.304  54.855  52.549  0.00  0.00    +0.000 C 
BRANCH  28  29
ATOM     29  C   UNL     1      -5.507  54.163  51.428  0.00  0.00    +0.000 C 
BRANCH  29  30
ATOM     30  C   UNL     1      -5.489  54.932  50.139  0.00  0.00    +0.000 C 
ATOM     31  C   UNL     1      -6.324  54.561  48.941  0.00  0.00    +0.000 C 
ATOM     32  C   UNL     1      -4.847  54.287  48.936  0.00  0.00    +0.000 C 
ENDBRANCH  29  30
ENDBRANCH  28  29
ENDBRANCH   5  28
TORSDOF 5
ENDMDL
MODEL 2
REMARK VINA RESULT:      -8.0      2.592      7.822
REMARK  Name = 338298
REMARK  5 active torsions:
REMARK  status: ('A' for Active; 'I' for Inactive)
REMARK    1  A    between atoms: C_6  and  C_10
REMARK    2  A    between atoms: C_14  and  O_18
REMARK    3  A    between atoms: N_17  and  C_21
REMARK    4  A    between atoms: C_21  and  C_24
REMARK    5  A    between atoms: C_24  and  C_27
REMARK                            x       y       z     vdW  Elec       q    Type
REMARK                         _______ _______ _______ _____ _____    ______ ____
ROOT
ATOM      1  C   UNL     1     -10.025  54.796  50.871  0.00  0.00    +0.000 A 
ATOM      2  C   UNL     1     -11.356  55.312  51.301  0.00  0.00    +0.000 A 
ATOM      3  C   UNL     1      -9.718  54.726  49.567  0.00  0.00    +0.000 A 
ATOM      4  O   UNL     1     -11.569  55.330  52.516  0.00  0.00    +0.000 OA
ATOM      5  N   UNL     1     -12.260  55.767  50.350  0.00  0.00    +0.000 N 
ATOM      6  C   UNL     1     -10.678  55.193  48.556  0.00  0.00    +0.000 A 
ATOM      7  C   UNL     1     -11.941  55.686  48.948  0.00  0.00    +0.000 A 
ATOM      8  C   UNL     1     -10.331  55.159  47.192  0.00  0.00    +0.000 A 
ATOM      9  C   UNL     1     -12.828  56.103  47.940  0.00  0.00    +0.000 A 
ATOM     10  C   UNL     1     -11.210  55.615  46.216  0.00  0.00    +0.000 A 
ATOM     11  C   UNL     1     -12.460  56.082  46.590  0.00  0.00    +0.000 A 
ENDROOT
BRANCH   1  17
ATOM     12  S   UNL     1      -6.749  54.722  53.045  0.00  0.00    +0.000 S 
ATOM     13  O   UNL     1      -6.710  55.768  54.051  0.00  0.00    +0.000 OA
ATOM     14  O   UNL     1      -5.560  54.391  52.286  0.00  0.00    +0.000 OA
ATOM     15  N   UNL     1      -7.922  55.100  51.991  0.00  0.00    +0.000 N 
ATOM     16  C   UNL     1      -7.208  53.252  53.891  0.00  0.00    +0.000 A 
ATOM     17  C   UNL     1      -9.022  54.409  51.943  0.00  0.00    +0.000 C 
ATOM     18  C   UNL     1      -8.462  52.725  53.636  0.00  0.00    +0.000 A 
ATOM     19  C   UNL     1      -6.314  52.642  54.776  0.00  0.00    +0.000 A 
ATOM     20  N   UNL     1      -9.351  53.356  52.771  0.00  0.00    +0.000 N 
ATOM     21  C   UNL     1      -8.859  51.585  54.343  0.00  0.00    +0.000 A 
ATOM     22  C   UNL     1      -6.709  51.487  55.447  0.00  0.00    +0.000 A 
ATOM     23  C   UNL     1      -7.984  50.962  55.237  0.00  0.00    +0.000 A 
ATOM     24  H   UNL     1      -7.800  55.862  51.380  0.00  0.00    +0.000 HD
ATOM     25  H   UNL     1     -10.279  53.027  52.748  0.00  0.00    +0.000 HD
ENDBRANCH   1  17
BRANCH   3  26
ATOM     26  O   UNL     1      -8.513  54.259  49.075  0.00  0.00    +0.000 OA
ATOM     27  H   UNL     1      -7.928  53.789  49.638  0.00  0.00    +0.000 HD
ENDBRANCH   3  26
BRANCH   5  28
ATOM     28  C   UNL     1     -13.612  56.183  50.796  0.00  0.00    +0.000 C 
BRANCH  28  29
ATOM     29  C   UNL     1     -13.830  57.693  51.007  0.00  0.00    +0.000 C 
BRANCH  29  30
ATOM     30  C   UNL     1     -14.071  58.071  52.440  0.00  0.00    +0.000 C 
ATOM     31  C   UNL     1     -15.330  57.722  53.189  0.00  0.00    +0.000 C 
ATOM     32  C   UNL     1     -15.102  59.133  52.730  0.00  0.00    +0.000 C 
ENDBRANCH  29  30
ENDBRANCH  28  29
ENDBRANCH   5  28
TORSDOF 5
ENDMDL
MODEL 3
REMARK VINA RESULT:      -7.9      3.252      7.159
REMARK  Name = 338298
REMARK  5 active torsions:
REMARK  status: ('A' for Active; 'I' for Inactive)
REMARK    1  A    between atoms: C_6  and  C_10
REMARK    2  A    between atoms: C_14  and  O_18
REMARK    3  A    between atoms: N_17  and  C_21
REMARK    4  A    between atoms: C_21  and  C_24
REMARK    5  A    between atoms: C_24  and  C_27
REMARK                            x       y       z     vdW  Elec       q    Type
REMARK                         _______ _______ _______ _____ _____    ______ ____
ROOT
ATOM      1  C   UNL     1     -10.098  55.172  50.727  0.00  0.00    +0.000 A 
ATOM      2  C   UNL     1      -9.642  55.072  49.311  0.00  0.00    +0.000 A 
ATOM      3  C   UNL     1     -11.314  55.664  51.009  0.00  0.00    +0.000 A 
ATOM      4  O   UNL     1      -8.506  54.624  49.133  0.00  0.00    +0.000 OA
ATOM      5  N   UNL     1     -10.497  55.444  48.282  0.00  0.00    +0.000 N 
ATOM      6  C   UNL     1     -12.217  56.072  49.924  0.00  0.00    +0.000 A 
ATOM      7  C   UNL     1     -11.800  55.982  48.579  0.00  0.00    +0.000 A 
ATOM      8  C   UNL     1     -13.508  56.545  50.227  0.00  0.00    +0.000 A 
ATOM      9  C   UNL     1     -12.695  56.403  47.580  0.00  0.00    +0.000 A 
ATOM     10  C   UNL     1     -14.391  56.918  49.219  0.00  0.00    +0.000 A 
ATOM     11  C   UNL     1     -13.983  56.850  47.897  0.00  0.00    +0.000 A 
ENDROOT
BRANCH   1  17
ATOM     12  S   UNL     1      -6.950  54.752  53.045  0.00  0.00    +0.000 S 
ATOM     13  O   UNL     1      -6.899  55.729  54.117  0.00  0.00    +0.000 OA
ATOM     14  O   UNL     1      -5.746  54.392  52.324  0.00  0.00    +0.000 OA
ATOM     15  N   UNL     1      -8.042  55.269  51.963  0.00  0.00    +0.000 N 
ATOM     16  C   UNL     1      -7.542  53.266  53.771  0.00  0.00    +0.000 A 
ATOM     17  C   UNL     1      -9.178  54.656  51.818  0.00  0.00    +0.000 C 
ATOM     18  C   UNL     1      -8.812  52.838  53.423  0.00  0.00    +0.000 A 
ATOM     19  C   UNL     1      -6.735  52.546  54.656  0.00  0.00    +0.000 A 
ATOM     20  N   UNL     1      -9.614  53.578  52.559  0.00  0.00    +0.000 N 
ATOM     21  C   UNL     1      -9.314  51.684  54.035  0.00  0.00    +0.000 A 
ATOM     22  C   UNL     1      -7.234  51.379  55.232  0.00  0.00    +0.000 A 
ATOM     23  C   UNL     1      -8.527  50.952  54.928  0.00  0.00    +0.000 A 
ATOM     24  H   UNL     1      -7.841  56.058  51.409  0.00  0.00    +0.000 HD
ATOM     25  H   UNL     1     -10.558  53.311  52.471  0.00  0.00    +0.000 HD
ENDBRANCH   1  17
BRANCH   3  26
ATOM     26  O   UNL     1     -11.820  55.798  52.289  0.00  0.00    +0.000 OA
ATOM     27  H   UNL     1     -12.121  55.042  52.756  0.00  0.00    +0.000 HD
ENDBRANCH   3  26
BRANCH   5  28
ATOM     28  C   UNL     1      -9.984  55.427  46.890  0.00  0.00    +0.000 C 
BRANCH  28  29
ATOM     29  C   UNL     1      -9.977  54.061  46.179  0.00  0.00    +0.000 C 
BRANCH  29  30
ATOM     30  C   UNL     1     -11.135  53.864  45.244  0.00  0.00    +0.000 C 
ATOM     31  C   UNL     1     -11.971  52.611  45.213  0.00  0.00    +0.000 C 
ATOM     32  C   UNL     1     -10.977  52.873  44.118  0.00  0.00    +0.000 C 
ENDBRANCH  29  30
ENDBRANCH  28  29
ENDBRANCH   5  28
TORSDOF 5
ENDMDL
MODEL 4
REMARK VINA RESULT:      -7.9      3.250      4.245
REMARK  Name = 338298
REMARK  5 active torsions:
REMARK  status: ('A' for Active; 'I' for Inactive)
REMARK    1  A    between atoms: C_6  and  C_10
REMARK    2  A    between atoms: C_14  and  O_18
REMARK    3  A    between atoms: N_17  and  C_21
REMARK    4  A    between atoms: C_21  and  C_24
REMARK    5  A    between atoms: C_24  and  C_27
REMARK                            x       y       z     vdW  Elec       q    Type
REMARK                         _______ _______ _______ _____ _____    ______ ____
ROOT
ATOM      1  C   UNL     1     -12.255  54.207  50.142  0.00  0.00    +0.000 A 
ATOM      2  C   UNL     1     -11.966  53.880  48.716  0.00  0.00    +0.000 A 
ATOM      3  C   UNL     1     -11.736  53.454  51.124  0.00  0.00    +0.000 A 
ATOM      4  O   UNL     1     -12.492  54.608  47.871  0.00  0.00    +0.000 OA
ATOM      5  N   UNL     1     -11.118  52.824  48.408  0.00  0.00    +0.000 N 
ATOM      6  C   UNL     1     -10.850  52.327  50.802  0.00  0.00    +0.000 A 
ATOM      7  C   UNL     1     -10.565  52.007  49.457  0.00  0.00    +0.000 A 
ATOM      8  C   UNL     1     -10.273  51.570  51.840  0.00  0.00    +0.000 A 
ATOM      9  C   UNL     1      -9.726  50.907  49.204  0.00  0.00    +0.000 A 
ATOM     10  C   UNL     1      -9.413  50.512  51.565  0.00  0.00    +0.000 A 
ATOM     11  C   UNL     1      -9.144  50.179  50.247  0.00  0.00    +0.000 A 
ENDROOT
BRANCH   1  17
ATOM     12  S   UNL     1     -15.252  56.456  51.333  0.00  0.00    +0.000 S 
ATOM     13  O   UNL     1     -15.261  56.679  52.768  0.00  0.00    +0.000 OA
ATOM     14  O   UNL     1     -16.489  56.193  50.626  0.00  0.00    +0.000 OA
ATOM     15  N   UNL     1     -14.237  55.227  51.035  0.00  0.00    +0.000 N 
ATOM     16  C   UNL     1     -14.587  57.917  50.620  0.00  0.00    +0.000 A 
ATOM     17  C   UNL     1     -13.098  55.432  50.443  0.00  0.00    +0.000 C 
ATOM     18  C   UNL     1     -13.332  57.840  50.042  0.00  0.00    +0.000 A 
ATOM     19  C   UNL     1     -15.326  59.104  50.630  0.00  0.00    +0.000 A 
ATOM     20  N   UNL     1     -12.597  56.658  50.060  0.00  0.00    +0.000 N 
ATOM     21  C   UNL     1     -12.770  59.009  49.517  0.00  0.00    +0.000 A 
ATOM     22  C   UNL     1     -14.769  60.253  50.073  0.00  0.00    +0.000 A 
ATOM     23  C   UNL     1     -13.488  60.208  49.523  0.00  0.00    +0.000 A 
ATOM     24  H   UNL     1     -14.487  54.314  51.306  0.00  0.00    +0.000 HD
ATOM     25  H   UNL     1     -11.655  56.701  49.778  0.00  0.00    +0.000 HD
ENDBRANCH   1  17
BRANCH   3  26
ATOM     26  O   UNL     1     -11.953  53.678  52.471  0.00  0.00    +0.000 OA
ATOM     27  H   UNL     1     -11.233  53.894  53.032  0.00  0.00    +0.000 HD
ENDBRANCH   3  26
BRANCH   5  28
ATOM     28  C   UNL     1     -10.924  52.460  46.983  0.00  0.00    +0.000 C 
BRANCH  28  29
ATOM     29  C   UNL     1      -9.568  52.835  46.357  0.00  0.00    +0.000 C 
BRANCH  29  30
ATOM     30  C   UNL     1      -9.447  54.291  46.012  0.00  0.00    +0.000 C 
ATOM     31  C   UNL     1      -8.143  54.951  45.648  0.00  0.00    +0.000 C 
ATOM     32  C   UNL     1      -8.755  55.199  46.997  0.00  0.00    +0.000 C 
ENDBRANCH  29  30
ENDBRANCH  28  29
ENDBRANCH   5  28
TORSDOF 5
ENDMDL
MODEL 5
REMARK VINA RESULT:      -7.6      3.081      7.059
REMARK  Name = 338298
REMARK  5 active torsions:
REMARK  status: ('A' for Active; 'I' for Inactive)
REMARK    1  A    between atoms: C_6  and  C_10
REMARK    2  A    between atoms: C_14  and  O_18
REMARK    3  A    between atoms: N_17  and  C_21
REMARK    4  A    between atoms: C_21  and  C_24
REMARK    5  A    between atoms: C_24  and  C_27
REMARK                            x       y       z     vdW  Elec       q    Type
REMARK                         _______ _______ _______ _____ _____    ______ ____
ROOT
ATOM      1  C   UNL     1     -10.450  54.823  50.498  0.00  0.00    +0.000 A 
ATOM      2  C   UNL     1     -10.100  54.806  49.049  0.00  0.00    +0.000 A 
ATOM      3  C   UNL     1     -11.592  55.395  50.908  0.00  0.00    +0.000 A 
ATOM      4  O   UNL     1      -9.026  54.277  48.751  0.00  0.00    +0.000 OA
ATOM      5  N   UNL     1     -10.983  55.341  48.118  0.00  0.00    +0.000 N 
ATOM      6  C   UNL     1     -12.522  55.975  49.928  0.00  0.00    +0.000 A 
ATOM      7  C   UNL     1     -12.206  55.964  48.553  0.00  0.00    +0.000 A 
ATOM      8  C   UNL     1     -13.740  56.532  50.363  0.00  0.00    +0.000 A 
ATOM      9  C   UNL     1     -13.121  56.548  47.660  0.00  0.00    +0.000 A 
ATOM     10  C   UNL     1     -14.649  57.068  49.456  0.00  0.00    +0.000 A 
ATOM     11  C   UNL     1     -14.337  57.079  48.106  0.00  0.00    +0.000 A 
ENDROOT
BRANCH   1  17
ATOM     12  S   UNL     1      -8.937  52.123  52.922  0.00  0.00    +0.000 S 
ATOM     13  O   UNL     1      -8.228  51.065  52.225  0.00  0.00    +0.000 OA
ATOM     14  O   UNL     1      -9.796  51.810  54.046  0.00  0.00    +0.000 OA
ATOM     15  N   UNL     1      -9.824  52.923  51.826  0.00  0.00    +0.000 N 
ATOM     16  C   UNL     1      -7.702  53.207  53.543  0.00  0.00    +0.000 A 
ATOM     17  C   UNL     1      -9.513  54.135  51.473  0.00  0.00    +0.000 C 
ATOM     18  C   UNL     1      -7.600  54.464  52.971  0.00  0.00    +0.000 A 
ATOM     19  C   UNL     1      -6.873  52.801  54.591  0.00  0.00    +0.000 A 
ATOM     20  N   UNL     1      -8.416  54.846  51.911  0.00  0.00    +0.000 N 
ATOM     21  C   UNL     1      -6.586  55.317  53.421  0.00  0.00    +0.000 A 
ATOM     22  C   UNL     1      -5.890  53.674  55.054  0.00  0.00    +0.000 A 
ATOM     23  C   UNL     1      -5.741  54.929  54.464  0.00  0.00    +0.000 A 
ATOM     24  H   UNL     1     -10.609  52.485  51.423  0.00  0.00    +0.000 HD
ATOM     25  H   UNL     1      -8.196  55.684  51.443  0.00  0.00    +0.000 HD
ENDBRANCH   1  17
BRANCH   3  26
ATOM     26  O   UNL     1     -11.997  55.462  52.228  0.00  0.00    +0.000 OA
ATOM     27  H   UNL     1     -11.948  54.700  52.773  0.00  0.00    +0.000 HD
ENDBRANCH   3  26
BRANCH   5  28
ATOM     28  C   UNL     1     -10.567  55.399  46.696  0.00  0.00    +0.000 C 
BRANCH  28  29
ATOM     29  C   UNL     1     -11.028  54.236  45.798  0.00  0.00    +0.000 C 
BRANCH  29  30
ATOM     30  C   UNL     1      -9.947  53.236  45.506  0.00  0.00    +0.000 C 
ATOM     31  C   UNL     1      -8.548  53.622  45.105  0.00  0.00    +0.000 C 
ATOM     32  C   UNL     1      -9.496  53.076  44.075  0.00  0.00    +0.000 C 
ENDBRANCH  29  30
ENDBRANCH  28  29
ENDBRANCH   5  28
TORSDOF 5
ENDMDL
MODEL 6
REMARK VINA RESULT:      -7.5      4.059      7.195
REMARK  Name = 338298
REMARK  5 active torsions:
REMARK  status: ('A' for Active; 'I' for Inactive)
REMARK    1  A    between atoms: C_6  and  C_10
REMARK    2  A    between atoms: C_14  and  O_18
REMARK    3  A    between atoms: N_17  and  C_21
REMARK    4  A    between atoms: C_21  and  C_24
REMARK    5  A    between atoms: C_24  and  C_27
REMARK                            x       y       z     vdW  Elec       q    Type
REMARK                         _______ _______ _______ _____ _____    ______ ____
ROOT
ATOM      1  C   UNL     1     -10.951  54.553  48.462  0.00  0.00    +0.000 A 
ATOM      2  C   UNL     1     -10.590  54.102  49.836  0.00  0.00    +0.000 A 
ATOM      3  C   UNL     1     -11.922  55.462  48.285  0.00  0.00    +0.000 A 
ATOM      4  O   UNL     1      -9.698  53.254  49.917  0.00  0.00    +0.000 OA
ATOM      5  N   UNL     1     -11.228  54.661  50.937  0.00  0.00    +0.000 N 
ATOM      6  C   UNL     1     -12.610  56.045  49.446  0.00  0.00    +0.000 A 
ATOM      7  C   UNL     1     -12.278  55.629  50.753  0.00  0.00    +0.000 A 
ATOM      8  C   UNL     1     -13.596  57.031  49.254  0.00  0.00    +0.000 A 
ATOM      9  C   UNL     1     -12.979  56.205  51.827  0.00  0.00    +0.000 A 
ATOM     10  C   UNL     1     -14.248  57.616  50.335  0.00  0.00    +0.000 A 
ATOM     11  C   UNL     1     -13.942  57.199  51.621  0.00  0.00    +0.000 A 
ENDROOT
BRANCH   1  17
ATOM     12  S   UNL     1      -8.022  53.952  45.909  0.00  0.00    +0.000 S 
ATOM     13  O   UNL     1      -7.001  53.052  46.416  0.00  0.00    +0.000 OA
ATOM     14  O   UNL     1      -7.648  55.140  45.169  0.00  0.00    +0.000 OA
ATOM     15  N   UNL     1      -8.933  54.416  47.168  0.00  0.00    +0.000 N 
ATOM     16  C   UNL     1      -9.015  52.995  44.821  0.00  0.00    +0.000 A 
ATOM     17  C   UNL     1     -10.159  54.001  47.292  0.00  0.00    +0.000 C 
ATOM     18  C   UNL     1     -10.309  52.703  45.217  0.00  0.00    +0.000 A 
ATOM     19  C   UNL     1      -8.502  52.568  43.593  0.00  0.00    +0.000 A 
ATOM     20  N   UNL     1     -10.800  53.114  46.452  0.00  0.00    +0.000 N 
ATOM     21  C   UNL     1     -11.092  51.898  44.382  0.00  0.00    +0.000 A 
ATOM     22  C   UNL     1      -9.304  51.796  42.756  0.00  0.00    +0.000 A 
ATOM     23  C   UNL     1     -10.597  51.454  43.153  0.00  0.00    +0.000 A 
ATOM     24  H   UNL     1      -8.553  55.020  47.846  0.00  0.00    +0.000 HD
ATOM     25  H   UNL     1     -11.664  52.748  46.746  0.00  0.00    +0.000 HD
ENDBRANCH   1  17
BRANCH   3  26
ATOM     26  O   UNL     1     -12.327  55.936  47.051  0.00  0.00    +0.000 OA
ATOM     27  H   UNL     1     -13.203  55.778  46.752  0.00  0.00    +0.000 HD
ENDBRANCH   3  26
BRANCH   5  28
ATOM     28  C   UNL     1     -10.919  54.125  52.285  0.00  0.00    +0.000 C 
BRANCH  28  29
ATOM     29  C   UNL     1     -10.048  55.012  53.193  0.00  0.00    +0.000 C 
BRANCH  29  30
ATOM     30  C   UNL     1      -8.597  54.624  53.200  0.00  0.00    +0.000 C 
ATOM     31  C   UNL     1      -7.561  55.306  54.053  0.00  0.00    +0.000 C 
ATOM     32  C   UNL     1      -7.606  55.575  52.576  0.00  0.00    +0.000 C 
ENDBRANCH  29  30
ENDBRANCH  28  29
ENDBRANCH   5  28
TORSDOF 5
ENDMDL
MODEL 7
REMARK VINA RESULT:      -7.3      2.573      3.778
REMARK  Name = 338298
REMARK  5 active torsions:
REMARK  status: ('A' for Active; 'I' for Inactive)
REMARK    1  A    between atoms: C_6  and  C_10
REMARK    2  A    between atoms: C_14  and  O_18
REMARK    3  A    between atoms: N_17  and  C_21
REMARK    4  A    between atoms: C_21  and  C_24
REMARK    5  A    between atoms: C_24  and  C_27
REMARK                            x       y       z     vdW  Elec       q    Type
REMARK                         _______ _______ _______ _____ _____    ______ ____
ROOT
ATOM      1  C   UNL     1     -11.237  55.046  49.944  0.00  0.00    +0.000 A 
ATOM      2  C   UNL     1     -11.242  54.303  48.651  0.00  0.00    +0.000 A 
ATOM      3  C   UNL     1     -10.331  54.750  50.887  0.00  0.00    +0.000 A 
ATOM      4  O   UNL     1     -12.116  54.622  47.841  0.00  0.00    +0.000 OA
ATOM      5  N   UNL     1     -10.275  53.337  48.407  0.00  0.00    +0.000 N 
ATOM      6  C   UNL     1      -9.314  53.718  50.638  0.00  0.00    +0.000 A 
ATOM      7  C   UNL     1      -9.304  53.008  49.418  0.00  0.00    +0.000 A 
ATOM      8  C   UNL     1      -8.338  53.445  51.615  0.00  0.00    +0.000 A 
ATOM      9  C   UNL     1      -8.322  52.018  49.238  0.00  0.00    +0.000 A 
ATOM     10  C   UNL     1      -7.351  52.490  51.397  0.00  0.00    +0.000 A 
ATOM     11  C   UNL     1      -7.346  51.774  50.211  0.00  0.00    +0.000 A 
ENDROOT
BRANCH   1  17
ATOM     12  S   UNL     1     -13.241  58.378  49.362  0.00  0.00    +0.000 S 
ATOM     13  O   UNL     1     -14.286  58.247  48.364  0.00  0.00    +0.000 OA
ATOM     14  O   UNL     1     -12.412  59.566  49.402  0.00  0.00    +0.000 OA
ATOM     15  N   UNL     1     -12.263  57.093  49.220  0.00  0.00    +0.000 N 
ATOM     16  C   UNL     1     -14.048  58.299  50.921  0.00  0.00    +0.000 A 
ATOM     17  C   UNL     1     -12.241  56.168  50.133  0.00  0.00    +0.000 C 
ATOM     18  C   UNL     1     -13.833  57.177  51.703  0.00  0.00    +0.000 A 
ATOM     19  C   UNL     1     -14.861  59.353  51.347  0.00  0.00    +0.000 A 
ATOM     20  N   UNL     1     -13.040  56.124  51.256  0.00  0.00    +0.000 N 
ATOM     21  C   UNL     1     -14.511  57.079  52.923  0.00  0.00    +0.000 A 
ATOM     22  C   UNL     1     -15.502  59.258  52.580  0.00  0.00    +0.000 A 
ATOM     23  C   UNL     1     -15.334  58.118  53.365  0.00  0.00    +0.000 A 
ATOM     24  H   UNL     1     -11.679  57.011  48.432  0.00  0.00    +0.000 HD
ATOM     25  H   UNL     1     -13.050  55.290  51.780  0.00  0.00    +0.000 HD
ENDBRANCH   1  17
BRANCH   3  26
ATOM     26  O   UNL     1     -10.252  55.381  52.116  0.00  0.00    +0.000 OA
ATOM     27  H   UNL     1     -10.926  55.248  52.755  0.00  0.00    +0.000 HD
ENDBRANCH   3  26
BRANCH   5  28
ATOM     28  C   UNL     1     -10.361  52.546  47.154  0.00  0.00    +0.000 C 
BRANCH  28  29
ATOM     29  C   UNL     1      -9.343  52.892  46.052  0.00  0.00    +0.000 C 
BRANCH  29  30
ATOM     30  C   UNL     1      -8.840  54.305  46.121  0.00  0.00    +0.000 C 
ATOM     31  C   UNL     1      -7.837  54.876  45.153  0.00  0.00    +0.000 C 
ATOM     32  C   UNL     1      -7.412  54.530  46.551  0.00  0.00    +0.000 C 
ENDBRANCH  29  30
ENDBRANCH  28  29
ENDBRANCH   5  28
TORSDOF 5
ENDMDL
MODEL 8
REMARK VINA RESULT:      -7.1      3.346      4.128
REMARK  Name = 338298
REMARK  5 active torsions:
REMARK  status: ('A' for Active; 'I' for Inactive)
REMARK    1  A    between atoms: C_6  and  C_10
REMARK    2  A    between atoms: C_14  and  O_18
REMARK    3  A    between atoms: N_17  and  C_21
REMARK    4  A    between atoms: C_21  and  C_24
REMARK    5  A    between atoms: C_24  and  C_27
REMARK                            x       y       z     vdW  Elec       q    Type
REMARK                         _______ _______ _______ _____ _____    ______ ____
ROOT
ATOM      1  C   UNL     1     -11.883  53.342  50.737  0.00  0.00    +0.000 A 
ATOM      2  C   UNL     1     -11.903  52.330  49.642  0.00  0.00    +0.000 A 
ATOM      3  C   UNL     1     -11.232  53.084  51.881  0.00  0.00    +0.000 A 
ATOM      4  O   UNL     1     -12.535  52.634  48.627  0.00  0.00    +0.000 OA
ATOM      5  N   UNL     1     -11.205  51.138  49.791  0.00  0.00    +0.000 N 
ATOM      6  C   UNL     1     -10.505  51.817  52.048  0.00  0.00    +0.000 A 
ATOM      7  C   UNL     1     -10.513  50.850  51.020  0.00  0.00    +0.000 A 
ATOM      8  C   UNL     1      -9.786  51.573  53.234  0.00  0.00    +0.000 A 
ATOM      9  C   UNL     1      -9.816  49.649  51.239  0.00  0.00    +0.000 A 
ATOM     10  C   UNL     1      -9.071  50.394  53.411  0.00  0.00    +0.000 A 
ATOM     11  C   UNL     1      -9.090  49.430  52.415  0.00  0.00    +0.000 A 
ENDROOT
BRANCH   1  17
ATOM     12  S   UNL     1     -12.850  56.780  49.092  0.00  0.00    +0.000 S 
ATOM     13  O   UNL     1     -13.778  56.640  47.985  0.00  0.00    +0.000 OA
ATOM     14  O   UNL     1     -11.743  57.711  49.006  0.00  0.00    +0.000 OA
ATOM     15  N   UNL     1     -12.241  55.311  49.409  0.00  0.00    +0.000 N 
ATOM     16  C   UNL     1     -13.812  57.297  50.468  0.00  0.00    +0.000 A 
ATOM     17  C   UNL     1     -12.565  54.676  50.496  0.00  0.00    +0.000 C 
ATOM     18  C   UNL     1     -13.990  56.398  51.505  0.00  0.00    +0.000 A 
ATOM     19  C   UNL     1     -14.356  58.584  50.502  0.00  0.00    +0.000 A 
ATOM     20  N   UNL     1     -13.464  55.111  51.448  0.00  0.00    +0.000 N 
ATOM     21  C   UNL     1     -14.798  56.780  52.583  0.00  0.00    +0.000 A 
ATOM     22  C   UNL     1     -15.129  58.964  51.597  0.00  0.00    +0.000 A 
ATOM     23  C   UNL     1     -15.357  58.060  52.634  0.00  0.00    +0.000 A 
ATOM     24  H   UNL     1     -11.618  54.895  48.771  0.00  0.00    +0.000 HD
ATOM     25  H   UNL     1     -13.752  54.468  52.135  0.00  0.00    +0.000 HD
ENDBRANCH   1  17
BRANCH   3  26
ATOM     26  O   UNL     1     -11.163  53.958  52.950  0.00  0.00    +0.000 OA
ATOM     27  H   UNL     1     -11.927  54.429  53.221  0.00  0.00    +0.000 HD
ENDBRANCH   3  26
BRANCH   5  28
ATOM     28  C   UNL     1     -11.322  50.109  48.729  0.00  0.00    +0.000 C 
BRANCH  28  29
ATOM     29  C   UNL     1     -10.239  50.127  47.634  0.00  0.00    +0.000 C 
BRANCH  29  30
ATOM     30  C   UNL     1     -10.712  50.700  46.329  0.00  0.00    +0.000 C 
ATOM     31  C   UNL     1     -12.036  50.351  45.702  0.00  0.00    +0.000 C 
ATOM     32  C   UNL     1     -10.767  49.786  45.131  0.00  0.00    +0.000 C 
ENDBRANCH  29  30
ENDBRANCH  28  29
ENDBRANCH   5  28
TORSDOF 5
ENDMDL
MODEL 9
REMARK VINA RESULT:      -7.1      2.701      8.033
REMARK  Name = 338298
REMARK  5 active torsions:
REMARK  status: ('A' for Active; 'I' for Inactive)
REMARK    1  A    between atoms: C_6  and  C_10
REMARK    2  A    between atoms: C_14  and  O_18
REMARK    3  A    between atoms: N_17  and  C_21
REMARK    4  A    between atoms: C_21  and  C_24
REMARK    5  A    between atoms: C_24  and  C_27
REMARK                            x       y       z     vdW  Elec       q    Type
REMARK                         _______ _______ _______ _____ _____    ______ ____
ROOT
ATOM      1  C   UNL     1      -9.980  54.274  50.672  0.00  0.00    +0.000 A 
ATOM      2  C   UNL     1     -10.888  55.145  51.471  0.00  0.00    +0.000 A 
ATOM      3  C   UNL     1     -10.109  54.211  49.338  0.00  0.00    +0.000 A 
ATOM      4  O   UNL     1     -10.718  55.138  52.693  0.00  0.00    +0.000 OA
ATOM      5  N   UNL     1     -11.837  55.929  50.827  0.00  0.00    +0.000 N 
ATOM      6  C   UNL     1     -11.121  55.028  48.653  0.00  0.00    +0.000 A 
ATOM      7  C   UNL     1     -11.986  55.859  49.396  0.00  0.00    +0.000 A 
ATOM      8  C   UNL     1     -11.219  54.990  47.249  0.00  0.00    +0.000 A 
ATOM      9  C   UNL     1     -12.949  56.605  48.694  0.00  0.00    +0.000 A 
ATOM     10  C   UNL     1     -12.153  55.769  46.574  0.00  0.00    +0.000 A 
ATOM     11  C   UNL     1     -13.020  56.573  47.297  0.00  0.00    +0.000 A 
ENDROOT
BRANCH   1  17
ATOM     12  S   UNL     1      -8.183  51.672  53.009  0.00  0.00    +0.000 S 
ATOM     13  O   UNL     1      -8.028  50.366  52.393  0.00  0.00    +0.000 OA
ATOM     14  O   UNL     1      -8.568  51.783  54.401  0.00  0.00    +0.000 OA
ATOM     15  N   UNL     1      -9.259  52.504  52.126  0.00  0.00    +0.000 N 
ATOM     16  C   UNL     1      -6.619  52.460  52.874  0.00  0.00    +0.000 A 
ATOM     17  C   UNL     1      -8.885  53.515  51.399  0.00  0.00    +0.000 C 
ATOM     18  C   UNL     1      -6.511  53.537  52.011  0.00  0.00    +0.000 A 
ATOM     19  C   UNL     1      -5.537  52.010  53.636  0.00  0.00    +0.000 A 
ATOM     20  N   UNL     1      -7.590  53.959  51.240  0.00  0.00    +0.000 N 
ATOM     21  C   UNL     1      -5.257  54.140  51.856  0.00  0.00    +0.000 A 
ATOM     22  C   UNL     1      -4.303  52.642  53.498  0.00  0.00    +0.000 A 
ATOM     23  C   UNL     1      -4.160  53.701  52.603  0.00  0.00    +0.000 A 
ATOM     24  H   UNL     1     -10.208  52.241  52.141  0.00  0.00    +0.000 HD
ATOM     25  H   UNL     1      -7.416  54.622  50.534  0.00  0.00    +0.000 HD
ENDBRANCH   1  17
BRANCH   3  26
ATOM     26  O   UNL     1      -9.316  53.430  48.517  0.00  0.00    +0.000 OA
ATOM     27  H   UNL     1      -8.610  53.819  48.038  0.00  0.00    +0.000 HD
ENDBRANCH   3  26
BRANCH   5  28
ATOM     28  C   UNL     1     -12.790  56.711  51.651  0.00  0.00    +0.000 C 
BRANCH  28  29
ATOM     29  C   UNL     1     -14.226  56.162  51.746  0.00  0.00    +0.000 C 
BRANCH  29  30
ATOM     30  C   UNL     1     -15.264  57.227  51.953  0.00  0.00    +0.000 C 
ATOM     31  C   UNL     1     -14.939  58.694  52.053  0.00  0.00    +0.000 C 
ATOM     32  C   UNL     1     -15.308  57.925  53.290  0.00  0.00    +0.000 C 
ENDBRANCH  29  30
ENDBRANCH  28  29
ENDBRANCH   5  28
TORSDOF 5
ENDMDL
