MODEL 1
REMARK VINA RESULT:      -8.4      0.000      0.000
REMARK  Name = 338264
REMARK  4 active torsions:
REMARK  status: ('A' for Active; 'I' for Inactive)
REMARK    1  A    between atoms: C_6  and  C_10
REMARK    2  A    between atoms: C_14  and  O_18
REMARK    3  A    between atoms: N_17  and  C_21
REMARK    4  A    between atoms: C_21  and  C_24
REMARK                            x       y       z     vdW  Elec       q    Type
REMARK                         _______ _______ _______ _____ _____    ______ ____
ROOT
ATOM      1  C   UNL     1     -10.262  54.330  52.235  0.00  0.00    +0.000 A 
ATOM      2  C   UNL     1      -8.867  54.847  52.107  0.00  0.00    +0.000 A 
ATOM      3  C   UNL     1     -10.503  53.241  52.980  0.00  0.00    +0.000 A 
ATOM      4  O   UNL     1      -8.702  56.001  51.701  0.00  0.00    +0.000 OA
ATOM      5  N   UNL     1      -7.818  54.005  52.450  0.00  0.00    +0.000 N 
ATOM      6  C   UNL     1      -9.386  52.562  53.660  0.00  0.00    +0.000 A 
ATOM      7  C   UNL     1      -8.056  52.910  53.341  0.00  0.00    +0.000 A 
ATOM      8  C   UNL     1      -9.630  51.580  54.636  0.00  0.00    +0.000 A 
ATOM      9  C   UNL     1      -7.007  52.234  53.983  0.00  0.00    +0.000 A 
ATOM     10  C   UNL     1      -8.574  50.954  55.299  0.00  0.00    +0.000 A 
ATOM     11  C   UNL     1      -7.265  51.275  54.966  0.00  0.00    +0.000 A 
ENDROOT
BRANCH   1  17
ATOM     12  S   UNL     1     -12.465  56.082  49.488  0.00  0.00    +0.000 S 
ATOM     13  O   UNL     1     -13.406  55.210  48.814  0.00  0.00    +0.000 OA
ATOM     14  O   UNL     1     -11.715  57.076  48.736  0.00  0.00    +0.000 OA
ATOM     15  N   UNL     1     -11.401  55.141  50.282  0.00  0.00    +0.000 N 
ATOM     16  C   UNL     1     -13.405  56.984  50.670  0.00  0.00    +0.000 A 
ATOM     17  C   UNL     1     -11.378  55.118  51.579  0.00  0.00    +0.000 C 
ATOM     18  C   UNL     1     -13.170  56.730  52.009  0.00  0.00    +0.000 A 
ATOM     19  C   UNL     1     -14.341  57.935  50.253  0.00  0.00    +0.000 A 
ATOM     20  N   UNL     1     -12.254  55.765  52.417  0.00  0.00    +0.000 N 
ATOM     21  C   UNL     1     -13.942  57.406  52.961  0.00  0.00    +0.000 A 
ATOM     22  C   UNL     1     -15.084  58.622  51.211  0.00  0.00    +0.000 A 
ATOM     23  C   UNL     1     -14.888  58.352  52.565  0.00  0.00    +0.000 A 
ATOM     24  H   UNL     1     -10.769  54.584  49.774  0.00  0.00    +0.000 HD
ATOM     25  H   UNL     1     -12.232  55.530  53.372  0.00  0.00    +0.000 HD
ENDBRANCH   1  17
BRANCH   3  26
ATOM     26  O   UNL     1     -11.758  52.706  53.205  0.00  0.00    +0.000 OA
ATOM     27  H   UNL     1     -12.316  53.078  53.858  0.00  0.00    +0.000 HD
ENDBRANCH   3  26
BRANCH   5  28
ATOM     28  C   UNL     1      -6.457  54.455  52.134  0.00  0.00    +0.000 C 
BRANCH  28  29
ATOM     29  C   UNL     1      -6.037  53.944  50.754  0.00  0.00    +0.000 C 
ATOM     30  C   UNL     1      -4.496  53.881  50.595  0.00  0.00    +0.000 C 
ATOM     31  C   UNL     1      -6.074  54.923  49.552  0.00  0.00    +0.000 C 
ATOM     32  C   UNL     1      -4.611  54.577  49.234  0.00  0.00    +0.000 C 
ENDBRANCH  28  29
ENDBRANCH   5  28
TORSDOF 4
ENDMDL
MODEL 2
REMARK VINA RESULT:      -8.3      2.655      7.775
REMARK  Name = 338264
REMARK  4 active torsions:
REMARK  status: ('A' for Active; 'I' for Inactive)
REMARK    1  A    between atoms: C_6  and  C_10
REMARK    2  A    between atoms: C_14  and  O_18
REMARK    3  A    between atoms: N_17  and  C_21
REMARK    4  A    between atoms: C_21  and  C_24
REMARK                            x       y       z     vdW  Elec       q    Type
REMARK                         _______ _______ _______ _____ _____    ______ ____
ROOT
ATOM      1  C   UNL     1     -10.147  54.635  51.124  0.00  0.00    +0.000 A 
ATOM      2  C   UNL     1     -11.411  55.268  51.605  0.00  0.00    +0.000 A 
ATOM      3  C   UNL     1      -9.893  54.573  49.808  0.00  0.00    +0.000 A 
ATOM      4  O   UNL     1     -11.485  55.605  52.791  0.00  0.00    +0.000 OA
ATOM      5  N   UNL     1     -12.446  55.447  50.698  0.00  0.00    +0.000 N 
ATOM      6  C   UNL     1     -10.868  55.125  48.851  0.00  0.00    +0.000 A 
ATOM      7  C   UNL     1     -12.153  55.498  49.297  0.00  0.00    +0.000 A 
ATOM      8  C   UNL     1     -10.527  55.300  47.498  0.00  0.00    +0.000 A 
ATOM      9  C   UNL     1     -13.075  56.000  48.365  0.00  0.00    +0.000 A 
ATOM     10  C   UNL     1     -11.440  55.846  46.596  0.00  0.00    +0.000 A 
ATOM     11  C   UNL     1     -12.715  56.186  47.028  0.00  0.00    +0.000 A 
ENDROOT
BRANCH   1  17
ATOM     12  S   UNL     1      -6.780  54.150  53.096  0.00  0.00    +0.000 S 
ATOM     13  O   UNL     1      -6.489  55.183  54.069  0.00  0.00    +0.000 OA
ATOM     14  O   UNL     1      -5.723  53.616  52.252  0.00  0.00    +0.000 OA
ATOM     15  N   UNL     1      -7.968  54.700  52.130  0.00  0.00    +0.000 N 
ATOM     16  C   UNL     1      -7.396  52.782  54.016  0.00  0.00    +0.000 A 
ATOM     17  C   UNL     1      -9.147  54.159  52.158  0.00  0.00    +0.000 C 
ATOM     18  C   UNL     1      -8.726  52.441  53.849  0.00  0.00    +0.000 A 
ATOM     19  C   UNL     1      -6.551  52.065  54.868  0.00  0.00    +0.000 A 
ATOM     20  N   UNL     1      -9.566  53.174  53.018  0.00  0.00    +0.000 N 
ATOM     21  C   UNL     1      -9.242  51.384  54.607  0.00  0.00    +0.000 A 
ATOM     22  C   UNL     1      -7.071  50.997  55.597  0.00  0.00    +0.000 A 
ATOM     23  C   UNL     1      -8.418  50.661  55.471  0.00  0.00    +0.000 A 
ATOM     24  H   UNL     1      -7.790  55.452  51.519  0.00  0.00    +0.000 HD
ATOM     25  H   UNL     1     -10.529  52.972  53.047  0.00  0.00    +0.000 HD
ENDBRANCH   1  17
BRANCH   3  26
ATOM     26  O   UNL     1      -8.737  54.053  49.255  0.00  0.00    +0.000 OA
ATOM     27  H   UNL     1      -8.786  53.495  48.505  0.00  0.00    +0.000 HD
ENDBRANCH   3  26
BRANCH   5  28
ATOM     28  C   UNL     1     -13.743  55.887  51.227  0.00  0.00    +0.000 C 
BRANCH  28  29
ATOM     29  C   UNL     1     -13.714  57.391  51.514  0.00  0.00    +0.000 C 
ATOM     30  C   UNL     1     -14.183  57.723  52.954  0.00  0.00    +0.000 C 
ATOM     31  C   UNL     1     -14.872  58.274  50.983  0.00  0.00    +0.000 C 
ATOM     32  C   UNL     1     -15.092  58.825  52.401  0.00  0.00    +0.000 C 
ENDBRANCH  28  29
ENDBRANCH   5  28
TORSDOF 4
ENDMDL
MODEL 3
REMARK VINA RESULT:      -8.3      2.631      7.837
REMARK  Name = 338264
REMARK  4 active torsions:
REMARK  status: ('A' for Active; 'I' for Inactive)
REMARK    1  A    between atoms: C_6  and  C_10
REMARK    2  A    between atoms: C_14  and  O_18
REMARK    3  A    between atoms: N_17  and  C_21
REMARK    4  A    between atoms: C_21  and  C_24
REMARK                            x       y       z     vdW  Elec       q    Type
REMARK                         _______ _______ _______ _____ _____    ______ ____
ROOT
ATOM      1  C   UNL     1     -10.920  54.776  50.629  0.00  0.00    +0.000 A 
ATOM      2  C   UNL     1     -12.002  55.411  51.439  0.00  0.00    +0.000 A 
ATOM      3  C   UNL     1     -10.927  54.901  49.293  0.00  0.00    +0.000 A 
ATOM      4  O   UNL     1     -11.816  55.564  52.651  0.00  0.00    +0.000 OA
ATOM      5  N   UNL     1     -13.167  55.799  50.793  0.00  0.00    +0.000 N 
ATOM      6  C   UNL     1     -12.007  55.661  48.639  0.00  0.00    +0.000 A 
ATOM      7  C   UNL     1     -13.142  56.047  49.383  0.00  0.00    +0.000 A 
ATOM      8  C   UNL     1     -11.913  56.020  47.283  0.00  0.00    +0.000 A 
ATOM      9  C   UNL     1     -14.170  56.749  48.735  0.00  0.00    +0.000 A 
ATOM     10  C   UNL     1     -12.923  56.761  46.669  0.00  0.00    +0.000 A 
ATOM     11  C   UNL     1     -14.053  57.116  47.392  0.00  0.00    +0.000 A 
ENDROOT
BRANCH   1  17
ATOM     12  S   UNL     1      -8.637  51.933  52.102  0.00  0.00    +0.000 S 
ATOM     13  O   UNL     1      -7.647  51.407  51.183  0.00  0.00    +0.000 OA
ATOM     14  O   UNL     1      -9.374  51.037  52.979  0.00  0.00    +0.000 OA
ATOM     15  N   UNL     1      -9.713  52.789  51.234  0.00  0.00    +0.000 N 
ATOM     16  C   UNL     1      -7.770  53.037  53.163  0.00  0.00    +0.000 A 
ATOM     17  C   UNL     1      -9.793  54.078  51.364  0.00  0.00    +0.000 C 
ATOM     18  C   UNL     1      -8.059  54.386  53.063  0.00  0.00    +0.000 A 
ATOM     19  C   UNL     1      -6.837  52.548  54.083  0.00  0.00    +0.000 A 
ATOM     20  N   UNL     1      -8.970  54.867  52.129  0.00  0.00    +0.000 N 
ATOM     21  C   UNL     1      -7.345  55.281  53.868  0.00  0.00    +0.000 A 
ATOM     22  C   UNL     1      -6.153  53.448  54.899  0.00  0.00    +0.000 A 
ATOM     23  C   UNL     1      -6.403  54.815  54.786  0.00  0.00    +0.000 A 
ATOM     24  H   UNL     1     -10.310  52.325  50.603  0.00  0.00    +0.000 HD
ATOM     25  H   UNL     1      -9.029  55.843  52.008  0.00  0.00    +0.000 HD
ENDBRANCH   1  17
BRANCH   3  26
ATOM     26  O   UNL     1      -9.952  54.397  48.452  0.00  0.00    +0.000 OA
ATOM     27  H   UNL     1      -9.062  54.358  48.737  0.00  0.00    +0.000 HD
ENDBRANCH   3  26
BRANCH   5  28
ATOM     28  C   UNL     1     -14.291  56.239  51.630  0.00  0.00    +0.000 C 
BRANCH  28  29
ATOM     29  C   UNL     1     -14.032  57.650  52.164  0.00  0.00    +0.000 C 
ATOM     30  C   UNL     1     -14.887  57.969  53.417  0.00  0.00    +0.000 C 
ATOM     31  C   UNL     1     -14.706  58.852  51.455  0.00  0.00    +0.000 C 
ATOM     32  C   UNL     1     -15.277  59.318  52.803  0.00  0.00    +0.000 C 
ENDBRANCH  28  29
ENDBRANCH   5  28
TORSDOF 4
ENDMDL
MODEL 4
REMARK VINA RESULT:      -8.2      3.657      4.743
REMARK  Name = 338264
REMARK  4 active torsions:
REMARK  status: ('A' for Active; 'I' for Inactive)
REMARK    1  A    between atoms: C_6  and  C_10
REMARK    2  A    between atoms: C_14  and  O_18
REMARK    3  A    between atoms: N_17  and  C_21
REMARK    4  A    between atoms: C_21  and  C_24
REMARK                            x       y       z     vdW  Elec       q    Type
REMARK                         _______ _______ _______ _____ _____    ______ ____
ROOT
ATOM      1  C   UNL     1     -12.514  54.216  50.020  0.00  0.00    +0.000 A 
ATOM      2  C   UNL     1     -12.284  53.947  48.569  0.00  0.00    +0.000 A 
ATOM      3  C   UNL     1     -11.967  53.409  50.942  0.00  0.00    +0.000 A 
ATOM      4  O   UNL     1     -12.511  54.852  47.760  0.00  0.00    +0.000 OA
ATOM      5  N   UNL     1     -11.827  52.691  48.196  0.00  0.00    +0.000 N 
ATOM      6  C   UNL     1     -11.150  52.261  50.512  0.00  0.00    +0.000 A 
ATOM      7  C   UNL     1     -11.139  51.879  49.154  0.00  0.00    +0.000 A 
ATOM      8  C   UNL     1     -10.367  51.550  51.437  0.00  0.00    +0.000 A 
ATOM      9  C   UNL     1     -10.372  50.767  48.769  0.00  0.00    +0.000 A 
ATOM     10  C   UNL     1      -9.573  50.478  51.028  0.00  0.00    +0.000 A 
ATOM     11  C   UNL     1      -9.583  50.083  49.697  0.00  0.00    +0.000 A 
ENDROOT
BRANCH   1  17
ATOM     12  S   UNL     1     -15.375  56.535  51.398  0.00  0.00    +0.000 S 
ATOM     13  O   UNL     1     -15.335  56.771  52.827  0.00  0.00    +0.000 OA
ATOM     14  O   UNL     1     -16.644  56.297  50.728  0.00  0.00    +0.000 OA
ATOM     15  N   UNL     1     -14.390  55.282  51.074  0.00  0.00    +0.000 N 
ATOM     16  C   UNL     1     -14.704  57.981  50.652  0.00  0.00    +0.000 A 
ATOM     17  C   UNL     1     -13.295  55.458  50.402  0.00  0.00    +0.000 C 
ATOM     18  C   UNL     1     -13.487  57.865  50.005  0.00  0.00    +0.000 A 
ATOM     19  C   UNL     1     -15.399  59.193  50.706  0.00  0.00    +0.000 A 
ATOM     20  N   UNL     1     -12.789  56.662  49.976  0.00  0.00    +0.000 N 
ATOM     21  C   UNL     1     -12.918  59.015  49.447  0.00  0.00    +0.000 A 
ATOM     22  C   UNL     1     -14.835  60.325  50.122  0.00  0.00    +0.000 A 
ATOM     23  C   UNL     1     -13.591  60.237  49.497  0.00  0.00    +0.000 A 
ATOM     24  H   UNL     1     -14.627  54.381  51.393  0.00  0.00    +0.000 HD
ATOM     25  H   UNL     1     -11.870  56.674  49.626  0.00  0.00    +0.000 HD
ENDBRANCH   1  17
BRANCH   3  26
ATOM     26  O   UNL     1     -12.075  53.591  52.309  0.00  0.00    +0.000 OA
ATOM     27  H   UNL     1     -12.920  53.638  52.710  0.00  0.00    +0.000 HD
ENDBRANCH   3  26
BRANCH   5  28
ATOM     28  C   UNL     1     -11.794  52.381  46.762  0.00  0.00    +0.000 C 
BRANCH  28  29
ATOM     29  C   UNL     1     -10.726  53.225  46.062  0.00  0.00    +0.000 C 
ATOM     30  C   UNL     1     -10.919  53.260  44.525  0.00  0.00    +0.000 C 
ATOM     31  C   UNL     1      -9.323  52.609  45.826  0.00  0.00    +0.000 C 
ATOM     32  C   UNL     1      -9.428  52.962  44.334  0.00  0.00    +0.000 C 
ENDBRANCH  28  29
ENDBRANCH   5  28
TORSDOF 4
ENDMDL
MODEL 5
REMARK VINA RESULT:      -8.1      3.199      7.068
REMARK  Name = 338264
REMARK  4 active torsions:
REMARK  status: ('A' for Active; 'I' for Inactive)
REMARK    1  A    between atoms: C_6  and  C_10
REMARK    2  A    between atoms: C_14  and  O_18
REMARK    3  A    between atoms: N_17  and  C_21
REMARK    4  A    between atoms: C_21  and  C_24
REMARK                            x       y       z     vdW  Elec       q    Type
REMARK                         _______ _______ _______ _____ _____    ______ ____
ROOT
ATOM      1  C   UNL     1     -10.344  55.085  50.908  0.00  0.00    +0.000 A 
ATOM      2  C   UNL     1      -9.998  54.869  49.472  0.00  0.00    +0.000 A 
ATOM      3  C   UNL     1     -11.517  55.649  51.233  0.00  0.00    +0.000 A 
ATOM      4  O   UNL     1      -9.089  54.079  49.198  0.00  0.00    +0.000 OA
ATOM      5  N   UNL     1     -10.712  55.569  48.509  0.00  0.00    +0.000 N 
ATOM      6  C   UNL     1     -12.450  56.054  50.167  0.00  0.00    +0.000 A 
ATOM      7  C   UNL     1     -12.017  56.068  48.825  0.00  0.00    +0.000 A 
ATOM      8  C   UNL     1     -13.775  56.413  50.471  0.00  0.00    +0.000 A 
ATOM      9  C   UNL     1     -12.914  56.480  47.827  0.00  0.00    +0.000 A 
ATOM     10  C   UNL     1     -14.667  56.772  49.460  0.00  0.00    +0.000 A 
ATOM     11  C   UNL     1     -14.234  56.814  48.142  0.00  0.00    +0.000 A 
ENDROOT
BRANCH   1  17
ATOM     12  S   UNL     1      -7.066  54.581  53.021  0.00  0.00    +0.000 S 
ATOM     13  O   UNL     1      -6.865  55.554  54.076  0.00  0.00    +0.000 OA
ATOM     14  O   UNL     1      -5.947  54.145  52.201  0.00  0.00    +0.000 OA
ATOM     15  N   UNL     1      -8.223  55.156  52.033  0.00  0.00    +0.000 N 
ATOM     16  C   UNL     1      -7.675  53.132  53.811  0.00  0.00    +0.000 A 
ATOM     17  C   UNL     1      -9.380  54.574  51.960  0.00  0.00    +0.000 C 
ATOM     18  C   UNL     1      -8.980  52.757  53.550  0.00  0.00    +0.000 A 
ATOM     19  C   UNL     1      -6.847  52.387  54.657  0.00  0.00    +0.000 A 
ATOM     20  N   UNL     1      -9.805  53.516  52.727  0.00  0.00    +0.000 N 
ATOM     21  C   UNL     1      -9.494  51.632  54.207  0.00  0.00    +0.000 A 
ATOM     22  C   UNL     1      -7.362  51.253  55.283  0.00  0.00    +0.000 A 
ATOM     23  C   UNL     1      -8.688  50.880  55.062  0.00  0.00    +0.000 A 
ATOM     24  H   UNL     1      -8.043  55.954  51.484  0.00  0.00    +0.000 HD
ATOM     25  H   UNL     1     -10.760  53.279  52.691  0.00  0.00    +0.000 HD
ENDBRANCH   1  17
BRANCH   3  26
ATOM     26  O   UNL     1     -11.959  55.852  52.528  0.00  0.00    +0.000 OA
ATOM     27  H   UNL     1     -11.833  55.187  53.175  0.00  0.00    +0.000 HD
ENDBRANCH   3  26
BRANCH   5  28
ATOM     28  C   UNL     1     -10.233  55.496  47.123  0.00  0.00    +0.000 C 
BRANCH  28  29
ATOM     29  C   UNL     1     -10.570  54.130  46.519  0.00  0.00    +0.000 C 
ATOM     30  C   UNL     1      -9.513  53.670  45.483  0.00  0.00    +0.000 C 
ATOM     31  C   UNL     1     -11.636  54.053  45.396  0.00  0.00    +0.000 C 
ATOM     32  C   UNL     1     -10.635  53.300  44.507  0.00  0.00    +0.000 C 
ENDBRANCH  28  29
ENDBRANCH   5  28
TORSDOF 4
ENDMDL
MODEL 6
REMARK VINA RESULT:      -8.0      3.509      5.280
REMARK  Name = 338264
REMARK  4 active torsions:
REMARK  status: ('A' for Active; 'I' for Inactive)
REMARK    1  A    between atoms: C_6  and  C_10
REMARK    2  A    between atoms: C_14  and  O_18
REMARK    3  A    between atoms: N_17  and  C_21
REMARK    4  A    between atoms: C_21  and  C_24
REMARK                            x       y       z     vdW  Elec       q    Type
REMARK                         _______ _______ _______ _____ _____    ______ ____
ROOT
ATOM      1  C   UNL     1     -11.254  55.233  48.371  0.00  0.00    +0.000 A 
ATOM      2  C   UNL     1     -10.056  54.532  48.920  0.00  0.00    +0.000 A 
ATOM      3  C   UNL     1     -11.598  55.058  47.086  0.00  0.00    +0.000 A 
ATOM      4  O   UNL     1      -9.937  54.442  50.146  0.00  0.00    +0.000 OA
ATOM      5  N   UNL     1      -9.129  54.014  48.026  0.00  0.00    +0.000 N 
ATOM      6  C   UNL     1     -10.785  54.178  46.228  0.00  0.00    +0.000 A 
ATOM      7  C   UNL     1      -9.533  53.717  46.685  0.00  0.00    +0.000 A 
ATOM      8  C   UNL     1     -11.251  53.779  44.963  0.00  0.00    +0.000 A 
ATOM      9  C   UNL     1      -8.763  52.899  45.842  0.00  0.00    +0.000 A 
ATOM     10  C   UNL     1     -10.494  52.926  44.160  0.00  0.00    +0.000 A 
ATOM     11  C   UNL     1      -9.248  52.495  44.596  0.00  0.00    +0.000 A 
ENDROOT
BRANCH   1  17
ATOM     12  S   UNL     1     -13.537  56.226  51.415  0.00  0.00    +0.000 S 
ATOM     13  O   UNL     1     -12.825  56.514  52.643  0.00  0.00    +0.000 OA
ATOM     14  O   UNL     1     -14.774  55.462  51.444  0.00  0.00    +0.000 OA
ATOM     15  N   UNL     1     -12.504  55.476  50.407  0.00  0.00    +0.000 N 
ATOM     16  C   UNL     1     -13.956  57.789  50.724  0.00  0.00    +0.000 A 
ATOM     17  C   UNL     1     -12.097  56.059  49.322  0.00  0.00    +0.000 C 
ATOM     18  C   UNL     1     -13.337  58.158  49.543  0.00  0.00    +0.000 A 
ATOM     19  C   UNL     1     -14.899  58.610  51.350  0.00  0.00    +0.000 A 
ATOM     20  N   UNL     1     -12.382  57.347  48.938  0.00  0.00    +0.000 N 
ATOM     21  C   UNL     1     -13.625  59.417  49.005  0.00  0.00    +0.000 A 
ATOM     22  C   UNL     1     -15.198  59.850  50.789  0.00  0.00    +0.000 A 
ATOM     23  C   UNL     1     -14.556  60.256  49.619  0.00  0.00    +0.000 A 
ATOM     24  H   UNL     1     -12.183  54.570  50.623  0.00  0.00    +0.000 HD
ATOM     25  H   UNL     1     -11.875  57.722  48.182  0.00  0.00    +0.000 HD
ENDBRANCH   1  17
BRANCH   3  26
ATOM     26  O   UNL     1     -12.712  55.619  46.488  0.00  0.00    +0.000 OA
ATOM     27  H   UNL     1     -12.682  55.871  45.586  0.00  0.00    +0.000 HD
ENDBRANCH   3  26
BRANCH   5  28
ATOM     28  C   UNL     1      -7.867  53.504  48.578  0.00  0.00    +0.000 C 
BRANCH  28  29
ATOM     29  C   UNL     1      -6.762  54.552  48.428  0.00  0.00    +0.000 C 
ATOM     30  C   UNL     1      -5.351  53.914  48.376  0.00  0.00    +0.000 C 
ATOM     31  C   UNL     1      -6.307  55.343  49.682  0.00  0.00    +0.000 C 
ATOM     32  C   UNL     1      -4.852  54.940  49.399  0.00  0.00    +0.000 C 
ENDBRANCH  28  29
ENDBRANCH   5  28
TORSDOF 4
ENDMDL
MODEL 7
REMARK VINA RESULT:      -7.9      2.038      2.467
REMARK  Name = 338264
REMARK  4 active torsions:
REMARK  status: ('A' for Active; 'I' for Inactive)
REMARK    1  A    between atoms: C_6  and  C_10
REMARK    2  A    between atoms: C_14  and  O_18
REMARK    3  A    between atoms: N_17  and  C_21
REMARK    4  A    between atoms: C_21  and  C_24
REMARK                            x       y       z     vdW  Elec       q    Type
REMARK                         _______ _______ _______ _____ _____    ______ ____
ROOT
ATOM      1  C   UNL     1     -10.982  54.828  50.789  0.00  0.00    +0.000 A 
ATOM      2  C   UNL     1      -9.754  55.184  50.017  0.00  0.00    +0.000 A 
ATOM      3  C   UNL     1     -10.980  53.746  51.582  0.00  0.00    +0.000 A 
ATOM      4  O   UNL     1      -9.657  56.326  49.558  0.00  0.00    +0.000 OA
ATOM      5  N   UNL     1      -8.776  54.213  49.850  0.00  0.00    +0.000 N 
ATOM      6  C   UNL     1      -9.766  52.916  51.678  0.00  0.00    +0.000 A 
ATOM      7  C   UNL     1      -8.705  53.119  50.772  0.00  0.00    +0.000 A 
ATOM      8  C   UNL     1      -9.647  51.932  52.676  0.00  0.00    +0.000 A 
ATOM      9  C   UNL     1      -7.568  52.301  50.866  0.00  0.00    +0.000 A 
ATOM     10  C   UNL     1      -8.488  51.163  52.784  0.00  0.00    +0.000 A 
ATOM     11  C   UNL     1      -7.455  51.342  51.875  0.00  0.00    +0.000 A 
ENDROOT
BRANCH   1  17
ATOM     12  S   UNL     1     -13.693  57.290  49.355  0.00  0.00    +0.000 S 
ATOM     13  O   UNL     1     -14.839  56.647  48.745  0.00  0.00    +0.000 OA
ATOM     14  O   UNL     1     -13.096  58.465  48.740  0.00  0.00    +0.000 OA
ATOM     15  N   UNL     1     -12.530  56.166  49.531  0.00  0.00    +0.000 N 
ATOM     16  C   UNL     1     -14.222  57.802  50.953  0.00  0.00    +0.000 A 
ATOM     17  C   UNL     1     -12.170  55.766  50.712  0.00  0.00    +0.000 C 
ATOM     18  C   UNL     1     -13.663  57.170  52.050  0.00  0.00    +0.000 A 
ATOM     19  C   UNL     1     -15.163  58.827  51.092  0.00  0.00    +0.000 A 
ATOM     20  N   UNL     1     -12.746  56.134  51.903  0.00  0.00    +0.000 N 
ATOM     21  C   UNL     1     -14.108  57.534  53.326  0.00  0.00    +0.000 A 
ATOM     22  C   UNL     1     -15.577  59.200  52.370  0.00  0.00    +0.000 A 
ATOM     23  C   UNL     1     -15.053  58.548  53.486  0.00  0.00    +0.000 A 
ATOM     24  H   UNL     1     -12.095  55.785  48.734  0.00  0.00    +0.000 HD
ATOM     25  H   UNL     1     -12.492  55.631  52.710  0.00  0.00    +0.000 HD
ENDBRANCH   1  17
BRANCH   3  26
ATOM     26  O   UNL     1     -12.042  53.352  52.375  0.00  0.00    +0.000 OA
ATOM     27  H   UNL     1     -11.966  52.592  52.917  0.00  0.00    +0.000 HD
ENDBRANCH   3  26
BRANCH   5  28
ATOM     28  C   UNL     1      -7.673  54.514  48.930  0.00  0.00    +0.000 C 
BRANCH  28  29
ATOM     29  C   UNL     1      -7.994  53.987  47.529  0.00  0.00    +0.000 C 
ATOM     30  C   UNL     1      -6.772  54.062  46.579  0.00  0.00    +0.000 C 
ATOM     31  C   UNL     1      -8.758  54.907  46.542  0.00  0.00    +0.000 C 
ATOM     32  C   UNL     1      -7.656  54.687  45.495  0.00  0.00    +0.000 C 
ENDBRANCH  28  29
ENDBRANCH   5  28
TORSDOF 4
ENDMDL
MODEL 8
REMARK VINA RESULT:      -7.9      3.214      4.955
REMARK  Name = 338264
REMARK  4 active torsions:
REMARK  status: ('A' for Active; 'I' for Inactive)
REMARK    1  A    between atoms: C_6  and  C_10
REMARK    2  A    between atoms: C_14  and  O_18
REMARK    3  A    between atoms: N_17  and  C_21
REMARK    4  A    between atoms: C_21  and  C_24
REMARK                            x       y       z     vdW  Elec       q    Type
REMARK                         _______ _______ _______ _____ _____    ______ ____
ROOT
ATOM      1  C   UNL     1     -11.737  55.808  48.721  0.00  0.00    +0.000 A 
ATOM      2  C   UNL     1     -10.889  54.984  49.634  0.00  0.00    +0.000 A 
ATOM      3  C   UNL     1     -11.717  55.572  47.401  0.00  0.00    +0.000 A 
ATOM      4  O   UNL     1     -11.149  54.987  50.841  0.00  0.00    +0.000 OA
ATOM      5  N   UNL     1      -9.846  54.253  49.083  0.00  0.00    +0.000 N 
ATOM      6  C   UNL     1     -10.853  54.506  46.864  0.00  0.00    +0.000 A 
ATOM      7  C   UNL     1      -9.886  53.903  47.695  0.00  0.00    +0.000 A 
ATOM      8  C   UNL     1     -10.992  54.071  45.534  0.00  0.00    +0.000 A 
ATOM      9  C   UNL     1      -9.058  52.906  47.157  0.00  0.00    +0.000 A 
ATOM     10  C   UNL     1     -10.192  53.044  45.032  0.00  0.00    +0.000 A 
ATOM     11  C   UNL     1      -9.221  52.470  45.840  0.00  0.00    +0.000 A 
ENDROOT
BRANCH   1  17
ATOM     12  S   UNL     1     -13.580  59.208  49.433  0.00  0.00    +0.000 S 
ATOM     13  O   UNL     1     -14.724  59.471  48.584  0.00  0.00    +0.000 OA
ATOM     14  O   UNL     1     -12.650  60.276  49.765  0.00  0.00    +0.000 OA
ATOM     15  N   UNL     1     -12.733  57.993  48.760  0.00  0.00    +0.000 N 
ATOM     16  C   UNL     1     -14.236  58.650  50.967  0.00  0.00    +0.000 A 
ATOM     17  C   UNL     1     -12.665  56.834  49.340  0.00  0.00    +0.000 C 
ATOM     18  C   UNL     1     -14.013  57.331  51.321  0.00  0.00    +0.000 A 
ATOM     19  C   UNL     1     -14.942  59.527  51.796  0.00  0.00    +0.000 A 
ATOM     20  N   UNL     1     -13.332  56.457  50.480  0.00  0.00    +0.000 N 
ATOM     21  C   UNL     1     -14.568  56.860  52.517  0.00  0.00    +0.000 A 
ATOM     22  C   UNL     1     -15.465  59.053  52.998  0.00  0.00    +0.000 A 
ATOM     23  C   UNL     1     -15.283  57.717  53.354  0.00  0.00    +0.000 A 
ATOM     24  H   UNL     1     -12.269  58.137  47.904  0.00  0.00    +0.000 HD
ATOM     25  H   UNL     1     -13.327  55.503  50.720  0.00  0.00    +0.000 HD
ENDBRANCH   1  17
BRANCH   3  26
ATOM     26  O   UNL     1     -12.495  56.240  46.472  0.00  0.00    +0.000 OA
ATOM     27  H   UNL     1     -12.520  55.945  45.584  0.00  0.00    +0.000 HD
ENDBRANCH   3  26
BRANCH   5  28
ATOM     28  C   UNL     1      -8.907  53.609  50.010  0.00  0.00    +0.000 C 
BRANCH  28  29
ATOM     29  C   UNL     1      -7.719  54.533  50.287  0.00  0.00    +0.000 C 
ATOM     30  C   UNL     1      -7.836  55.245  51.659  0.00  0.00    +0.000 C 
ATOM     31  C   UNL     1      -7.688  55.931  49.617  0.00  0.00    +0.000 C 
ATOM     32  C   UNL     1      -7.479  56.579  50.994  0.00  0.00    +0.000 C 
ENDBRANCH  28  29
ENDBRANCH   5  28
TORSDOF 4
ENDMDL
MODEL 9
REMARK VINA RESULT:      -7.9      3.983      5.940
REMARK  Name = 338264
REMARK  4 active torsions:
REMARK  status: ('A' for Active; 'I' for Inactive)
REMARK    1  A    between atoms: C_6  and  C_10
REMARK    2  A    between atoms: C_14  and  O_18
REMARK    3  A    between atoms: N_17  and  C_21
REMARK    4  A    between atoms: C_21  and  C_24
REMARK                            x       y       z     vdW  Elec       q    Type
REMARK                         _______ _______ _______ _____ _____    ______ ____
ROOT
ATOM      1  C   UNL     1     -11.047  55.623  48.473  0.00  0.00    +0.000 A 
ATOM      2  C   UNL     1     -11.516  55.300  47.093  0.00  0.00    +0.000 A 
ATOM      3  C   UNL     1      -9.790  55.328  48.836  0.00  0.00    +0.000 A 
ATOM      4  O   UNL     1     -12.538  55.852  46.674  0.00  0.00    +0.000 OA
ATOM      5  N   UNL     1     -10.781  54.391  46.344  0.00  0.00    +0.000 N 
ATOM      6  C   UNL     1      -8.885  54.682  47.869  0.00  0.00    +0.000 A 
ATOM      7  C   UNL     1      -9.403  54.167  46.662  0.00  0.00    +0.000 A 
ATOM      8  C   UNL     1      -7.507  54.586  48.127  0.00  0.00    +0.000 A 
ATOM      9  C   UNL     1      -8.529  53.533  45.765  0.00  0.00    +0.000 A 
ATOM     10  C   UNL     1      -6.645  53.997  47.201  0.00  0.00    +0.000 A 
ATOM     11  C   UNL     1      -7.158  53.464  46.027  0.00  0.00    +0.000 A 
ENDROOT
BRANCH   1  17
ATOM     12  S   UNL     1     -13.566  56.366  51.401  0.00  0.00    +0.000 S 
ATOM     13  O   UNL     1     -12.947  56.658  52.678  0.00  0.00    +0.000 OA
ATOM     14  O   UNL     1     -14.749  55.524  51.332  0.00  0.00    +0.000 OA
ATOM     15  N   UNL     1     -12.427  55.717  50.436  0.00  0.00    +0.000 N 
ATOM     16  C   UNL     1     -14.045  57.921  50.732  0.00  0.00    +0.000 A 
ATOM     17  C   UNL     1     -11.997  56.361  49.396  0.00  0.00    +0.000 C 
ATOM     18  C   UNL     1     -13.383  58.368  49.602  0.00  0.00    +0.000 A 
ATOM     19  C   UNL     1     -15.075  58.659  51.324  0.00  0.00    +0.000 A 
ATOM     20  N   UNL     1     -12.343  57.640  49.033  0.00  0.00    +0.000 N 
ATOM     21  C   UNL     1     -13.721  59.623  49.085  0.00  0.00    +0.000 A 
ATOM     22  C   UNL     1     -15.422  59.895  50.782  0.00  0.00    +0.000 A 
ATOM     23  C   UNL     1     -14.740  60.380  49.666  0.00  0.00    +0.000 A 
ATOM     24  H   UNL     1     -12.061  54.827  50.645  0.00  0.00    +0.000 HD
ATOM     25  H   UNL     1     -11.818  58.072  48.321  0.00  0.00    +0.000 HD
ENDBRANCH   1  17
BRANCH   3  26
ATOM     26  O   UNL     1      -9.238  55.626  50.069  0.00  0.00    +0.000 OA
ATOM     27  H   UNL     1      -9.736  55.490  50.850  0.00  0.00    +0.000 HD
ENDBRANCH   3  26
BRANCH   5  28
ATOM     28  C   UNL     1     -11.359  53.938  45.072  0.00  0.00    +0.000 C 
BRANCH  28  29
ATOM     29  C   UNL     1     -12.100  52.613  45.271  0.00  0.00    +0.000 C 
ATOM     30  C   UNL     1     -12.093  52.152  46.751  0.00  0.00    +0.000 C 
ATOM     31  C   UNL     1     -11.378  51.291  44.905  0.00  0.00    +0.000 C 
ATOM     32  C   UNL     1     -11.683  50.744  46.307  0.00  0.00    +0.000 C 
ENDBRANCH  28  29
ENDBRANCH   5  28
TORSDOF 4
ENDMDL
