MODEL 1
REMARK VINA RESULT:      -8.6      0.000      0.000
REMARK  Name = 338168
REMARK  5 active torsions:
REMARK  status: ('A' for Active; 'I' for Inactive)
REMARK    1  A    between atoms: C_6  and  C_10
REMARK    2  A    between atoms: C_14  and  O_18
REMARK    3  A    between atoms: N_17  and  C_21
REMARK    4  A    between atoms: C_21  and  C_24
REMARK    5  A    between atoms: C_24  and  C_27
REMARK                            x       y       z     vdW  Elec       q    Type
REMARK                         _______ _______ _______ _____ _____    ______ ____
ROOT
ATOM      1  C   UNL     1      -9.984  54.541  52.363  0.00  0.00    +0.000 A 
ATOM      2  C   UNL     1      -8.591  55.045  52.249  0.00  0.00    +0.000 A 
ATOM      3  C   UNL     1     -10.242  53.412  53.043  0.00  0.00    +0.000 A 
ATOM      4  O   UNL     1      -8.393  55.991  51.484  0.00  0.00    +0.000 OA
ATOM      5  N   UNL     1      -7.595  54.459  53.031  0.00  0.00    +0.000 N 
ATOM      6  C   UNL     1      -9.163  52.699  53.735  0.00  0.00    +0.000 A 
ATOM      7  C   UNL     1      -7.859  53.235  53.746  0.00  0.00    +0.000 A 
ATOM      8  C   UNL     1      -9.446  51.509  54.429  0.00  0.00    +0.000 A 
ATOM      9  C   UNL     1      -6.867  52.543  54.466  0.00  0.00    +0.000 A 
ATOM     10  C   UNL     1      -8.455  50.871  55.154  0.00  0.00    +0.000 A 
ATOM     11  C   UNL     1      -7.168  51.377  55.181  0.00  0.00    +0.000 A 
ATOM     12  F   UNL     1      -8.746  49.760  55.843  0.00  0.00    +0.000 F 
ENDROOT
BRANCH   1  18
ATOM     13  S   UNL     1     -12.367  55.781  49.429  0.00  0.00    +0.000 S 
ATOM     14  O   UNL     1     -13.040  54.536  49.143  0.00  0.00    +0.000 OA
ATOM     15  O   UNL     1     -11.933  56.685  48.380  0.00  0.00    +0.000 OA
ATOM     16  N   UNL     1     -11.044  55.461  50.357  0.00  0.00    +0.000 N 
ATOM     17  C   UNL     1     -13.361  56.688  50.538  0.00  0.00    +0.000 A 
ATOM     18  C   UNL     1     -11.121  55.275  51.734  0.00  0.00    +0.000 C 
ATOM     19  C   UNL     1     -13.098  56.544  51.897  0.00  0.00    +0.000 A 
ATOM     20  C   UNL     1     -14.357  57.540  50.055  0.00  0.00    +0.000 A 
ATOM     21  N   UNL     1     -12.111  55.715  52.447  0.00  0.00    +0.000 N 
ATOM     22  C   UNL     1     -13.857  57.309  52.788  0.00  0.00    +0.000 A 
ATOM     23  C   UNL     1     -15.114  58.281  50.958  0.00  0.00    +0.000 A 
ATOM     24  C   UNL     1     -14.857  58.172  52.325  0.00  0.00    +0.000 A 
ATOM     25  H   UNL     1     -10.163  55.400  49.921  0.00  0.00    +0.000 HD
ATOM     26  H   UNL     1     -12.169  55.461  53.397  0.00  0.00    +0.000 HD
ENDBRANCH   1  18
BRANCH   3  27
ATOM     27  O   UNL     1     -11.499  52.846  53.184  0.00  0.00    +0.000 OA
ATOM     28  H   UNL     1     -12.263  53.341  52.965  0.00  0.00    +0.000 HD
ENDBRANCH   3  27
BRANCH   5  29
ATOM     29  C   UNL     1      -6.215  54.996  52.961  0.00  0.00    +0.000 C 
BRANCH  29  30
ATOM     30  C   UNL     1      -5.217  54.215  52.089  0.00  0.00    +0.000 C 
BRANCH  30  31
ATOM     31  C   UNL     1      -5.334  54.526  50.623  0.00  0.00    +0.000 C 
ATOM     32  C   UNL     1      -6.137  53.695  49.659  0.00  0.00    +0.000 C 
ATOM     33  C   UNL     1      -4.637  53.616  49.644  0.00  0.00    +0.000 C 
ENDBRANCH  30  31
ENDBRANCH  29  30
ENDBRANCH   5  29
TORSDOF 5
ENDMDL
MODEL 2
REMARK VINA RESULT:      -8.3      3.852      7.412
REMARK  Name = 338168
REMARK  5 active torsions:
REMARK  status: ('A' for Active; 'I' for Inactive)
REMARK    1  A    between atoms: C_6  and  C_10
REMARK    2  A    between atoms: C_14  and  O_18
REMARK    3  A    between atoms: N_17  and  C_21
REMARK    4  A    between atoms: C_21  and  C_24
REMARK    5  A    between atoms: C_24  and  C_27
REMARK                            x       y       z     vdW  Elec       q    Type
REMARK                         _______ _______ _______ _____ _____    ______ ____
ROOT
ATOM      1  C   UNL     1     -10.166  55.114  50.845  0.00  0.00    +0.000 A 
ATOM      2  C   UNL     1      -9.817  55.172  49.402  0.00  0.00    +0.000 A 
ATOM      3  C   UNL     1     -11.354  55.574  51.272  0.00  0.00    +0.000 A 
ATOM      4  O   UNL     1      -8.659  54.887  49.089  0.00  0.00    +0.000 OA
ATOM      5  N   UNL     1     -10.810  55.504  48.479  0.00  0.00    +0.000 N 
ATOM      6  C   UNL     1     -12.344  56.077  50.314  0.00  0.00    +0.000 A 
ATOM      7  C   UNL     1     -12.078  56.018  48.931  0.00  0.00    +0.000 A 
ATOM      8  C   UNL     1     -13.577  56.571  50.780  0.00  0.00    +0.000 A 
ATOM      9  C   UNL     1     -13.078  56.466  48.047  0.00  0.00    +0.000 A 
ATOM     10  C   UNL     1     -14.551  56.972  49.883  0.00  0.00    +0.000 A 
ATOM     11  C   UNL     1     -14.314  56.923  48.521  0.00  0.00    +0.000 A 
ATOM     12  F   UNL     1     -15.735  57.403  50.336  0.00  0.00    +0.000 F 
ENDROOT
BRANCH   1  18
ATOM     13  S   UNL     1      -6.870  54.907  53.060  0.00  0.00    +0.000 S 
ATOM     14  O   UNL     1      -7.140  55.994  53.971  0.00  0.00    +0.000 OA
ATOM     15  O   UNL     1      -5.550  54.674  52.504  0.00  0.00    +0.000 OA
ATOM     16  N   UNL     1      -7.909  55.017  51.787  0.00  0.00    +0.000 N 
ATOM     17  C   UNL     1      -7.398  53.427  53.816  0.00  0.00    +0.000 A 
ATOM     18  C   UNL     1      -9.217  54.544  51.844  0.00  0.00    +0.000 C 
ATOM     19  C   UNL     1      -8.688  52.989  53.533  0.00  0.00    +0.000 A 
ATOM     20  C   UNL     1      -6.532  52.714  54.650  0.00  0.00    +0.000 A 
ATOM     21  N   UNL     1      -9.603  53.650  52.702  0.00  0.00    +0.000 N 
ATOM     22  C   UNL     1      -9.098  51.776  54.094  0.00  0.00    +0.000 A 
ATOM     23  C   UNL     1      -6.965  51.517  55.213  0.00  0.00    +0.000 A 
ATOM     24  C   UNL     1      -8.245  51.043  54.927  0.00  0.00    +0.000 A 
ATOM     25  H   UNL     1      -7.594  55.434  50.953  0.00  0.00    +0.000 HD
ATOM     26  H   UNL     1     -10.561  53.432  52.770  0.00  0.00    +0.000 HD
ENDBRANCH   1  18
BRANCH   3  27
ATOM     27  O   UNL     1     -11.763  55.589  52.596  0.00  0.00    +0.000 OA
ATOM     28  H   UNL     1     -12.633  55.861  52.815  0.00  0.00    +0.000 HD
ENDBRANCH   3  27
BRANCH   5  29
ATOM     29  C   UNL     1     -10.478  55.508  47.035  0.00  0.00    +0.000 C 
BRANCH  29  30
ATOM     30  C   UNL     1     -10.307  54.132  46.366  0.00  0.00    +0.000 C 
BRANCH  30  31
ATOM     31  C   UNL     1     -11.284  53.886  45.250  0.00  0.00    +0.000 C 
ATOM     32  C   UNL     1     -12.025  52.588  45.066  0.00  0.00    +0.000 C 
ATOM     33  C   UNL     1     -10.884  52.934  44.151  0.00  0.00    +0.000 C 
ENDBRANCH  30  31
ENDBRANCH  29  30
ENDBRANCH   5  29
TORSDOF 5
ENDMDL
MODEL 3
REMARK VINA RESULT:      -8.3      3.830      5.414
REMARK  Name = 338168
REMARK  5 active torsions:
REMARK  status: ('A' for Active; 'I' for Inactive)
REMARK    1  A    between atoms: C_6  and  C_10
REMARK    2  A    between atoms: C_14  and  O_18
REMARK    3  A    between atoms: N_17  and  C_21
REMARK    4  A    between atoms: C_21  and  C_24
REMARK    5  A    between atoms: C_24  and  C_27
REMARK                            x       y       z     vdW  Elec       q    Type
REMARK                         _______ _______ _______ _____ _____    ______ ____
ROOT
ATOM      1  C   UNL     1     -11.490  55.798  48.972  0.00  0.00    +0.000 A 
ATOM      2  C   UNL     1     -10.403  55.121  49.726  0.00  0.00    +0.000 A 
ATOM      3  C   UNL     1     -11.672  55.538  47.667  0.00  0.00    +0.000 A 
ATOM      4  O   UNL     1     -10.182  55.515  50.873  0.00  0.00    +0.000 OA
ATOM      5  N   UNL     1      -9.722  54.063  49.125  0.00  0.00    +0.000 N 
ATOM      6  C   UNL     1     -10.844  54.536  46.987  0.00  0.00    +0.000 A 
ATOM      7  C   UNL     1      -9.896  53.792  47.720  0.00  0.00    +0.000 A 
ATOM      8  C   UNL     1     -11.035  54.287  45.616  0.00  0.00    +0.000 A 
ATOM      9  C   UNL     1      -9.160  52.806  47.035  0.00  0.00    +0.000 A 
ATOM     10  C   UNL     1     -10.318  53.288  44.981  0.00  0.00    +0.000 A 
ATOM     11  C   UNL     1      -9.383  52.544  45.678  0.00  0.00    +0.000 A 
ATOM     12  F   UNL     1     -10.537  53.033  43.685  0.00  0.00    +0.000 F 
ENDROOT
BRANCH   1  18
ATOM     13  S   UNL     1     -13.521  59.184  49.447  0.00  0.00    +0.000 S 
ATOM     14  O   UNL     1     -14.514  59.000  48.415  0.00  0.00    +0.000 OA
ATOM     15  O   UNL     1     -12.886  60.467  49.689  0.00  0.00    +0.000 OA
ATOM     16  N   UNL     1     -12.312  58.092  49.214  0.00  0.00    +0.000 N 
ATOM     17  C   UNL     1     -14.203  58.635  50.955  0.00  0.00    +0.000 A 
ATOM     18  C   UNL     1     -12.401  56.771  49.643  0.00  0.00    +0.000 C 
ATOM     19  C   UNL     1     -13.955  57.317  51.326  0.00  0.00    +0.000 A 
ATOM     20  C   UNL     1     -14.944  59.511  51.754  0.00  0.00    +0.000 A 
ATOM     21  N   UNL     1     -13.216  56.390  50.578  0.00  0.00    +0.000 N 
ATOM     22  C   UNL     1     -14.455  56.887  52.559  0.00  0.00    +0.000 A 
ATOM     23  C   UNL     1     -15.448  59.058  52.970  0.00  0.00    +0.000 A 
ATOM     24  C   UNL     1     -15.195  57.748  53.377  0.00  0.00    +0.000 A 
ATOM     25  H   UNL     1     -11.492  58.384  48.753  0.00  0.00    +0.000 HD
ATOM     26  H   UNL     1     -13.317  55.429  50.766  0.00  0.00    +0.000 HD
ENDBRANCH   1  18
BRANCH   3  27
ATOM     27  O   UNL     1     -12.637  56.134  46.870  0.00  0.00    +0.000 OA
ATOM     28  H   UNL     1     -12.798  55.809  46.006  0.00  0.00    +0.000 HD
ENDBRANCH   3  27
BRANCH   5  29
ATOM     29  C   UNL     1      -8.676  53.349  49.895  0.00  0.00    +0.000 C 
BRANCH  29  30
ATOM     30  C   UNL     1      -7.469  54.187  50.354  0.00  0.00    +0.000 C 
BRANCH  30  31
ATOM     31  C   UNL     1      -6.766  54.890  49.226  0.00  0.00    +0.000 C 
ATOM     32  C   UNL     1      -5.862  54.190  48.247  0.00  0.00    +0.000 C 
ATOM     33  C   UNL     1      -5.271  55.063  49.317  0.00  0.00    +0.000 C 
ENDBRANCH  30  31
ENDBRANCH  29  30
ENDBRANCH   5  29
TORSDOF 5
ENDMDL
MODEL 4
REMARK VINA RESULT:      -8.2      3.674      7.273
REMARK  Name = 338168
REMARK  5 active torsions:
REMARK  status: ('A' for Active; 'I' for Inactive)
REMARK    1  A    between atoms: C_6  and  C_10
REMARK    2  A    between atoms: C_14  and  O_18
REMARK    3  A    between atoms: N_17  and  C_21
REMARK    4  A    between atoms: C_21  and  C_24
REMARK    5  A    between atoms: C_24  and  C_27
REMARK                            x       y       z     vdW  Elec       q    Type
REMARK                         _______ _______ _______ _____ _____    ______ ____
ROOT
ATOM      1  C   UNL     1     -10.186  55.427  50.476  0.00  0.00    +0.000 A 
ATOM      2  C   UNL     1     -10.347  55.675  49.019  0.00  0.00    +0.000 A 
ATOM      3  C   UNL     1     -11.221  55.614  51.312  0.00  0.00    +0.000 A 
ATOM      4  O   UNL     1      -9.328  55.643  48.326  0.00  0.00    +0.000 OA
ATOM      5  N   UNL     1     -11.627  55.889  48.508  0.00  0.00    +0.000 N 
ATOM      6  C   UNL     1     -12.536  56.000  50.791  0.00  0.00    +0.000 A 
ATOM      7  C   UNL     1     -12.738  56.111  49.400  0.00  0.00    +0.000 A 
ATOM      8  C   UNL     1     -13.606  56.208  51.682  0.00  0.00    +0.000 A 
ATOM      9  C   UNL     1     -14.030  56.435  48.944  0.00  0.00    +0.000 A 
ATOM     10  C   UNL     1     -14.871  56.492  51.199  0.00  0.00    +0.000 A 
ATOM     11  C   UNL     1     -15.094  56.605  49.838  0.00  0.00    +0.000 A 
ATOM     12  F   UNL     1     -15.889  56.648  52.054  0.00  0.00    +0.000 F 
ENDROOT
BRANCH   1  18
ATOM     13  S   UNL     1      -6.612  53.683  50.479  0.00  0.00    +0.000 S 
ATOM     14  O   UNL     1      -5.896  54.632  49.659  0.00  0.00    +0.000 OA
ATOM     15  O   UNL     1      -6.425  52.250  50.346  0.00  0.00    +0.000 OA
ATOM     16  N   UNL     1      -8.227  53.968  50.324  0.00  0.00    +0.000 N 
ATOM     17  C   UNL     1      -6.341  54.103  52.150  0.00  0.00    +0.000 A 
ATOM     18  C   UNL     1      -8.884  54.965  51.038  0.00  0.00    +0.000 C 
ATOM     19  C   UNL     1      -7.278  54.930  52.761  0.00  0.00    +0.000 A 
ATOM     20  C   UNL     1      -5.234  53.593  52.833  0.00  0.00    +0.000 A 
ATOM     21  N   UNL     1      -8.412  55.468  52.137  0.00  0.00    +0.000 N 
ATOM     22  C   UNL     1      -7.094  55.227  54.115  0.00  0.00    +0.000 A 
ATOM     23  C   UNL     1      -5.059  53.914  54.177  0.00  0.00    +0.000 A 
ATOM     24  C   UNL     1      -5.995  54.724  54.820  0.00  0.00    +0.000 A 
ATOM     25  H   UNL     1      -8.748  53.411  49.702  0.00  0.00    +0.000 HD
ATOM     26  H   UNL     1      -8.862  56.245  52.542  0.00  0.00    +0.000 HD
ENDBRANCH   1  18
BRANCH   3  27
ATOM     27  O   UNL     1     -11.166  55.437  52.686  0.00  0.00    +0.000 OA
ATOM     28  H   UNL     1     -10.368  55.161  53.091  0.00  0.00    +0.000 HD
ENDBRANCH   3  27
BRANCH   5  29
ATOM     29  C   UNL     1     -11.797  56.080  47.048  0.00  0.00    +0.000 C 
BRANCH  29  30
ATOM     30  C   UNL     1     -12.090  54.816  46.220  0.00  0.00    +0.000 C 
BRANCH  30  31
ATOM     31  C   UNL     1     -10.865  54.225  45.580  0.00  0.00    +0.000 C 
ATOM     32  C   UNL     1     -10.912  53.112  44.567  0.00  0.00    +0.000 C 
ATOM     33  C   UNL     1     -10.463  52.826  45.972  0.00  0.00    +0.000 C 
ENDBRANCH  30  31
ENDBRANCH  29  30
ENDBRANCH   5  29
TORSDOF 5
ENDMDL
MODEL 5
REMARK VINA RESULT:      -8.0      3.490      7.967
REMARK  Name = 338168
REMARK  5 active torsions:
REMARK  status: ('A' for Active; 'I' for Inactive)
REMARK    1  A    between atoms: C_6  and  C_10
REMARK    2  A    between atoms: C_14  and  O_18
REMARK    3  A    between atoms: N_17  and  C_21
REMARK    4  A    between atoms: C_21  and  C_24
REMARK    5  A    between atoms: C_24  and  C_27
REMARK                            x       y       z     vdW  Elec       q    Type
REMARK                         _______ _______ _______ _____ _____    ______ ____
ROOT
ATOM      1  C   UNL     1      -9.982  54.443  50.768  0.00  0.00    +0.000 A 
ATOM      2  C   UNL     1     -11.134  55.332  51.071  0.00  0.00    +0.000 A 
ATOM      3  C   UNL     1      -9.766  54.020  49.511  0.00  0.00    +0.000 A 
ATOM      4  O   UNL     1     -11.376  55.557  52.259  0.00  0.00    +0.000 OA
ATOM      5  N   UNL     1     -11.851  55.892  50.013  0.00  0.00    +0.000 N 
ATOM      6  C   UNL     1     -10.624  54.482  48.415  0.00  0.00    +0.000 A 
ATOM      7  C   UNL     1     -11.640  55.427  48.665  0.00  0.00    +0.000 A 
ATOM      8  C   UNL     1     -10.395  54.017  47.107  0.00  0.00    +0.000 A 
ATOM      9  C   UNL     1     -12.404  55.879  47.573  0.00  0.00    +0.000 A 
ATOM     10  C   UNL     1     -11.143  54.506  46.051  0.00  0.00    +0.000 A 
ATOM     11  C   UNL     1     -12.145  55.434  46.271  0.00  0.00    +0.000 A 
ATOM     12  F   UNL     1     -10.890  54.086  44.805  0.00  0.00    +0.000 F 
ENDROOT
BRANCH   1  18
ATOM     13  S   UNL     1      -6.744  54.568  53.073  0.00  0.00    +0.000 S 
ATOM     14  O   UNL     1      -7.072  55.732  53.863  0.00  0.00    +0.000 OA
ATOM     15  O   UNL     1      -5.402  54.325  52.576  0.00  0.00    +0.000 OA
ATOM     16  N   UNL     1      -7.750  54.516  51.771  0.00  0.00    +0.000 N 
ATOM     17  C   UNL     1      -7.248  53.155  53.962  0.00  0.00    +0.000 A 
ATOM     18  C   UNL     1      -9.043  54.007  51.842  0.00  0.00    +0.000 C 
ATOM     19  C   UNL     1      -8.515  52.648  53.692  0.00  0.00    +0.000 A 
ATOM     20  C   UNL     1      -6.384  52.558  54.884  0.00  0.00    +0.000 A 
ATOM     21  N   UNL     1      -9.427  53.192  52.776  0.00  0.00    +0.000 N 
ATOM     22  C   UNL     1      -8.904  51.485  54.363  0.00  0.00    +0.000 A 
ATOM     23  C   UNL     1      -6.795  51.410  55.555  0.00  0.00    +0.000 A 
ATOM     24  C   UNL     1      -8.053  50.868  55.287  0.00  0.00    +0.000 A 
ATOM     25  H   UNL     1      -7.424  54.857  50.907  0.00  0.00    +0.000 HD
ATOM     26  H   UNL     1     -10.379  52.950  52.843  0.00  0.00    +0.000 HD
ENDBRANCH   1  18
BRANCH   3  27
ATOM     27  O   UNL     1      -8.740  53.170  49.131  0.00  0.00    +0.000 OA
ATOM     28  H   UNL     1      -8.922  52.430  48.586  0.00  0.00    +0.000 HD
ENDBRANCH   3  27
BRANCH   5  29
ATOM     29  C   UNL     1     -12.965  56.823  50.312  0.00  0.00    +0.000 C 
BRANCH  29  30
ATOM     30  C   UNL     1     -14.314  56.183  50.684  0.00  0.00    +0.000 C 
BRANCH  30  31
ATOM     31  C   UNL     1     -15.299  57.161  51.262  0.00  0.00    +0.000 C 
ATOM     32  C   UNL     1     -14.896  58.378  52.051  0.00  0.00    +0.000 C 
ATOM     33  C   UNL     1     -15.480  57.188  52.759  0.00  0.00    +0.000 C 
ENDBRANCH  30  31
ENDBRANCH  29  30
ENDBRANCH   5  29
TORSDOF 5
ENDMDL
MODEL 6
REMARK VINA RESULT:      -7.9      4.884      7.792
REMARK  Name = 338168
REMARK  5 active torsions:
REMARK  status: ('A' for Active; 'I' for Inactive)
REMARK    1  A    between atoms: C_6  and  C_10
REMARK    2  A    between atoms: C_14  and  O_18
REMARK    3  A    between atoms: N_17  and  C_21
REMARK    4  A    between atoms: C_21  and  C_24
REMARK    5  A    between atoms: C_24  and  C_27
REMARK                            x       y       z     vdW  Elec       q    Type
REMARK                         _______ _______ _______ _____ _____    ______ ____
ROOT
ATOM      1  C   UNL     1     -11.387  54.363  47.911  0.00  0.00    +0.000 A 
ATOM      2  C   UNL     1     -11.491  53.545  49.147  0.00  0.00    +0.000 A 
ATOM      3  C   UNL     1     -12.034  55.536  47.819  0.00  0.00    +0.000 A 
ATOM      4  O   UNL     1     -11.011  52.410  49.116  0.00  0.00    +0.000 OA
ATOM      5  N   UNL     1     -12.082  54.106  50.280  0.00  0.00    +0.000 N 
ATOM      6  C   UNL     1     -12.795  56.055  48.960  0.00  0.00    +0.000 A 
ATOM      7  C   UNL     1     -12.796  55.355  50.184  0.00  0.00    +0.000 A 
ATOM      8  C   UNL     1     -13.481  57.279  48.842  0.00  0.00    +0.000 A 
ATOM      9  C   UNL     1     -13.499  55.917  51.265  0.00  0.00    +0.000 A 
ATOM     10  C   UNL     1     -14.135  57.820  49.935  0.00  0.00    +0.000 A 
ATOM     11  C   UNL     1     -14.149  57.152  51.146  0.00  0.00    +0.000 A 
ATOM     12  F   UNL     1     -14.750  59.004  49.822  0.00  0.00    +0.000 F 
ENDROOT
BRANCH   1  18
ATOM     13  S   UNL     1      -8.168  54.072  45.594  0.00  0.00    +0.000 S 
ATOM     14  O   UNL     1      -7.326  53.293  46.471  0.00  0.00    +0.000 OA
ATOM     15  O   UNL     1      -7.651  55.176  44.806  0.00  0.00    +0.000 OA
ATOM     16  N   UNL     1      -9.433  54.662  46.466  0.00  0.00    +0.000 N 
ATOM     17  C   UNL     1      -8.974  52.973  44.507  0.00  0.00    +0.000 A 
ATOM     18  C   UNL     1     -10.565  53.905  46.753  0.00  0.00    +0.000 C 
ATOM     19  C   UNL     1     -10.237  52.521  44.875  0.00  0.00    +0.000 A 
ATOM     20  C   UNL     1      -8.367  52.598  43.305  0.00  0.00    +0.000 A 
ATOM     21  N   UNL     1     -10.906  52.863  46.059  0.00  0.00    +0.000 N 
ATOM     22  C   UNL     1     -10.911  51.681  43.983  0.00  0.00    +0.000 A 
ATOM     23  C   UNL     1      -9.046  51.747  42.437  0.00  0.00    +0.000 A 
ATOM     24  C   UNL     1     -10.323  51.297  42.773  0.00  0.00    +0.000 A 
ATOM     25  H   UNL     1      -9.388  55.588  46.798  0.00  0.00    +0.000 HD
ATOM     26  H   UNL     1     -11.652  52.301  46.371  0.00  0.00    +0.000 HD
ENDBRANCH   1  18
BRANCH   3  27
ATOM     27  O   UNL     1     -12.023  56.358  46.703  0.00  0.00    +0.000 OA
ATOM     28  H   UNL     1     -11.392  56.217  46.024  0.00  0.00    +0.000 HD
ENDBRANCH   3  27
BRANCH   5  29
ATOM     29  C   UNL     1     -12.137  53.314  51.531  0.00  0.00    +0.000 C 
BRANCH  29  30
ATOM     30  C   UNL     1     -10.874  53.330  52.410  0.00  0.00    +0.000 C 
BRANCH  30  31
ATOM     31  C   UNL     1     -10.333  54.712  52.653  0.00  0.00    +0.000 C 
ATOM     32  C   UNL     1      -9.091  55.247  51.992  0.00  0.00    +0.000 C 
ATOM     33  C   UNL     1      -9.055  54.849  53.440  0.00  0.00    +0.000 C 
ENDBRANCH  30  31
ENDBRANCH  29  30
ENDBRANCH   5  29
TORSDOF 5
ENDMDL
MODEL 7
REMARK VINA RESULT:      -7.8      3.124      4.312
REMARK  Name = 338168
REMARK  5 active torsions:
REMARK  status: ('A' for Active; 'I' for Inactive)
REMARK    1  A    between atoms: C_6  and  C_10
REMARK    2  A    between atoms: C_14  and  O_18
REMARK    3  A    between atoms: N_17  and  C_21
REMARK    4  A    between atoms: C_21  and  C_24
REMARK    5  A    between atoms: C_24  and  C_27
REMARK                            x       y       z     vdW  Elec       q    Type
REMARK                         _______ _______ _______ _____ _____    ______ ____
ROOT
ATOM      1  C   UNL     1     -12.111  54.476  50.214  0.00  0.00    +0.000 A 
ATOM      2  C   UNL     1     -11.960  53.974  48.823  0.00  0.00    +0.000 A 
ATOM      3  C   UNL     1     -11.543  53.816  51.237  0.00  0.00    +0.000 A 
ATOM      4  O   UNL     1     -12.631  54.524  47.948  0.00  0.00    +0.000 OA
ATOM      5  N   UNL     1     -11.051  52.945  48.572  0.00  0.00    +0.000 N 
ATOM      6  C   UNL     1     -10.715  52.632  50.988  0.00  0.00    +0.000 A 
ATOM      7  C   UNL     1     -10.455  52.219  49.665  0.00  0.00    +0.000 A 
ATOM      8  C   UNL     1     -10.140  51.942  52.072  0.00  0.00    +0.000 A 
ATOM      9  C   UNL     1      -9.613  51.107  49.474  0.00  0.00    +0.000 A 
ATOM     10  C   UNL     1      -9.291  50.873  51.847  0.00  0.00    +0.000 A 
ATOM     11  C   UNL     1      -9.020  50.450  50.559  0.00  0.00    +0.000 A 
ATOM     12  F   UNL     1      -8.718  50.249  52.885  0.00  0.00    +0.000 F 
ENDROOT
BRANCH   1  18
ATOM     13  S   UNL     1     -14.445  56.934  52.294  0.00  0.00    +0.000 S 
ATOM     14  O   UNL     1     -13.518  57.295  53.341  0.00  0.00    +0.000 OA
ATOM     15  O   UNL     1     -15.846  56.667  52.561  0.00  0.00    +0.000 OA
ATOM     16  N   UNL     1     -13.853  55.619  51.499  0.00  0.00    +0.000 N 
ATOM     17  C   UNL     1     -14.362  58.159  51.056  0.00  0.00    +0.000 A 
ATOM     18  C   UNL     1     -12.886  55.717  50.503  0.00  0.00    +0.000 C 
ATOM     19  C   UNL     1     -13.492  57.936  49.993  0.00  0.00    +0.000 A 
ATOM     20  C   UNL     1     -15.168  59.298  51.136  0.00  0.00    +0.000 A 
ATOM     21  N   UNL     1     -12.664  56.814  49.846  0.00  0.00    +0.000 N 
ATOM     22  C   UNL     1     -13.461  58.889  48.970  0.00  0.00    +0.000 A 
ATOM     23  C   UNL     1     -15.110  60.244  50.117  0.00  0.00    +0.000 A 
ATOM     24  C   UNL     1     -14.262  60.034  49.029  0.00  0.00    +0.000 A 
ATOM     25  H   UNL     1     -14.197  54.728  51.737  0.00  0.00    +0.000 HD
ATOM     26  H   UNL     1     -11.896  56.859  49.231  0.00  0.00    +0.000 HD
ENDBRANCH   1  18
BRANCH   3  27
ATOM     27  O   UNL     1     -11.646  54.186  52.568  0.00  0.00    +0.000 OA
ATOM     28  H   UNL     1     -11.494  55.076  52.821  0.00  0.00    +0.000 HD
ENDBRANCH   3  27
BRANCH   5  29
ATOM     29  C   UNL     1     -10.857  52.481  47.178  0.00  0.00    +0.000 C 
BRANCH  29  30
ATOM     30  C   UNL     1      -9.574  52.950  46.469  0.00  0.00    +0.000 C 
BRANCH  30  31
ATOM     31  C   UNL     1      -9.299  54.418  46.644  0.00  0.00    +0.000 C 
ATOM     32  C   UNL     1      -8.229  55.158  45.887  0.00  0.00    +0.000 C 
ATOM     33  C   UNL     1      -8.023  54.825  47.337  0.00  0.00    +0.000 C 
ENDBRANCH  30  31
ENDBRANCH  29  30
ENDBRANCH   5  29
TORSDOF 5
ENDMDL
MODEL 8
REMARK VINA RESULT:      -7.8      3.192      4.172
REMARK  Name = 338168
REMARK  5 active torsions:
REMARK  status: ('A' for Active; 'I' for Inactive)
REMARK    1  A    between atoms: C_6  and  C_10
REMARK    2  A    between atoms: C_14  and  O_18
REMARK    3  A    between atoms: N_17  and  C_21
REMARK    4  A    between atoms: C_21  and  C_24
REMARK    5  A    between atoms: C_24  and  C_27
REMARK                            x       y       z     vdW  Elec       q    Type
REMARK                         _______ _______ _______ _____ _____    ______ ____
ROOT
ATOM      1  C   UNL     1     -11.979  54.061  50.379  0.00  0.00    +0.000 A 
ATOM      2  C   UNL     1     -11.890  53.386  49.058  0.00  0.00    +0.000 A 
ATOM      3  C   UNL     1     -11.406  53.509  51.461  0.00  0.00    +0.000 A 
ATOM      4  O   UNL     1     -12.566  53.852  48.139  0.00  0.00    +0.000 OA
ATOM      5  N   UNL     1     -11.031  52.296  48.913  0.00  0.00    +0.000 N 
ATOM      6  C   UNL     1     -10.633  52.269  51.341  0.00  0.00    +0.000 A 
ATOM      7  C   UNL     1     -10.430  51.686  50.073  0.00  0.00    +0.000 A 
ATOM      8  C   UNL     1     -10.053  51.694  52.487  0.00  0.00    +0.000 A 
ATOM      9  C   UNL     1      -9.639  50.524  50.000  0.00  0.00    +0.000 A 
ATOM     10  C   UNL     1      -9.254  50.570  52.376  0.00  0.00    +0.000 A 
ATOM     11  C   UNL     1      -9.039  49.980  51.143  0.00  0.00    +0.000 A 
ATOM     12  F   UNL     1      -8.675  50.055  53.468  0.00  0.00    +0.000 F 
ENDROOT
BRANCH   1  18
ATOM     13  S   UNL     1     -13.310  57.655  49.315  0.00  0.00    +0.000 S 
ATOM     14  O   UNL     1     -14.294  57.252  48.338  0.00  0.00    +0.000 OA
ATOM     15  O   UNL     1     -12.440  58.798  49.110  0.00  0.00    +0.000 OA
ATOM     16  N   UNL     1     -12.335  56.368  49.641  0.00  0.00    +0.000 N 
ATOM     17  C   UNL     1     -14.125  57.872  50.841  0.00  0.00    +0.000 A 
ATOM     18  C   UNL     1     -12.695  55.361  50.531  0.00  0.00    +0.000 C 
ATOM     19  C   UNL     1     -14.152  56.787  51.712  0.00  0.00    +0.000 A 
ATOM     20  C   UNL     1     -14.697  59.105  51.166  0.00  0.00    +0.000 A 
ATOM     21  N   UNL     1     -13.593  55.527  51.453  0.00  0.00    +0.000 N 
ATOM     22  C   UNL     1     -14.758  56.971  52.958  0.00  0.00    +0.000 A 
ATOM     23  C   UNL     1     -15.311  59.264  52.405  0.00  0.00    +0.000 A 
ATOM     24  C   UNL     1     -15.332  58.199  53.305  0.00  0.00    +0.000 A 
ATOM     25  H   UNL     1     -11.463  56.309  49.188  0.00  0.00    +0.000 HD
ATOM     26  H   UNL     1     -13.886  54.751  51.983  0.00  0.00    +0.000 HD
ENDBRANCH   1  18
BRANCH   3  27
ATOM     27  O   UNL     1     -11.455  54.045  52.739  0.00  0.00    +0.000 OA
ATOM     28  H   UNL     1     -11.298  54.959  52.869  0.00  0.00    +0.000 HD
ENDBRANCH   3  27
BRANCH   5  29
ATOM     29  C   UNL     1     -10.898  51.655  47.584  0.00  0.00    +0.000 C 
BRANCH  29  30
ATOM     30  C   UNL     1      -9.762  52.172  46.682  0.00  0.00    +0.000 C 
BRANCH  30  31
ATOM     31  C   UNL     1     -10.193  53.273  45.752  0.00  0.00    +0.000 C 
ATOM     32  C   UNL     1     -11.388  53.172  44.843  0.00  0.00    +0.000 C 
ATOM     33  C   UNL     1     -10.003  53.067  44.271  0.00  0.00    +0.000 C 
ENDBRANCH  30  31
ENDBRANCH  29  30
ENDBRANCH   5  29
TORSDOF 5
ENDMDL
MODEL 9
REMARK VINA RESULT:      -7.8      3.642      7.586
REMARK  Name = 338168
REMARK  5 active torsions:
REMARK  status: ('A' for Active; 'I' for Inactive)
REMARK    1  A    between atoms: C_6  and  C_10
REMARK    2  A    between atoms: C_14  and  O_18
REMARK    3  A    between atoms: N_17  and  C_21
REMARK    4  A    between atoms: C_21  and  C_24
REMARK    5  A    between atoms: C_24  and  C_27
REMARK                            x       y       z     vdW  Elec       q    Type
REMARK                         _______ _______ _______ _____ _____    ______ ____
ROOT
ATOM      1  C   UNL     1      -9.909  55.433  50.407  0.00  0.00    +0.000 A 
ATOM      2  C   UNL     1     -10.082  55.691  48.953  0.00  0.00    +0.000 A 
ATOM      3  C   UNL     1     -10.945  55.585  51.249  0.00  0.00    +0.000 A 
ATOM      4  O   UNL     1      -9.066  55.692  48.255  0.00  0.00    +0.000 OA
ATOM      5  N   UNL     1     -11.369  55.878  48.449  0.00  0.00    +0.000 N 
ATOM      6  C   UNL     1     -12.271  55.943  50.737  0.00  0.00    +0.000 A 
ATOM      7  C   UNL     1     -12.482  56.063  49.347  0.00  0.00    +0.000 A 
ATOM      8  C   UNL     1     -13.342  56.114  51.633  0.00  0.00    +0.000 A 
ATOM      9  C   UNL     1     -13.783  56.358  48.900  0.00  0.00    +0.000 A 
ATOM     10  C   UNL     1     -14.616  56.371  51.158  0.00  0.00    +0.000 A 
ATOM     11  C   UNL     1     -14.847  56.493  49.800  0.00  0.00    +0.000 A 
ATOM     12  F   UNL     1     -15.635  56.493  52.018  0.00  0.00    +0.000 F 
ENDROOT
BRANCH   1  18
ATOM     13  S   UNL     1      -7.073  54.939  53.151  0.00  0.00    +0.000 S 
ATOM     14  O   UNL     1      -7.722  53.943  53.971  0.00  0.00    +0.000 OA
ATOM     15  O   UNL     1      -6.319  56.039  53.723  0.00  0.00    +0.000 OA
ATOM     16  N   UNL     1      -8.196  55.605  52.147  0.00  0.00    +0.000 N 
ATOM     17  C   UNL     1      -6.036  54.113  52.019  0.00  0.00    +0.000 A 
ATOM     18  C   UNL     1      -8.593  54.998  50.959  0.00  0.00    +0.000 C 
ATOM     19  C   UNL     1      -6.565  53.816  50.767  0.00  0.00    +0.000 A 
ATOM     20  C   UNL     1      -4.721  53.797  52.369  0.00  0.00    +0.000 A 
ATOM     21  N   UNL     1      -7.870  54.111  50.348  0.00  0.00    +0.000 N 
ATOM     22  C   UNL     1      -5.722  53.201  49.836  0.00  0.00    +0.000 A 
ATOM     23  C   UNL     1      -3.902  53.169  51.435  0.00  0.00    +0.000 A 
ATOM     24  C   UNL     1      -4.400  52.879  50.165  0.00  0.00    +0.000 A 
ATOM     25  H   UNL     1      -8.601  56.467  52.395  0.00  0.00    +0.000 HD
ATOM     26  H   UNL     1      -8.247  53.635  49.573  0.00  0.00    +0.000 HD
ENDBRANCH   1  18
BRANCH   3  27
ATOM     27  O   UNL     1     -10.880  55.396  52.620  0.00  0.00    +0.000 OA
ATOM     28  H   UNL     1     -11.431  55.898  53.189  0.00  0.00    +0.000 HD
ENDBRANCH   3  27
BRANCH   5  29
ATOM     29  C   UNL     1     -11.550  56.079  46.992  0.00  0.00    +0.000 C 
BRANCH  29  30
ATOM     30  C   UNL     1     -12.089  54.878  46.194  0.00  0.00    +0.000 C 
BRANCH  30  31
ATOM     31  C   UNL     1     -11.089  53.766  46.040  0.00  0.00    +0.000 C 
ATOM     32  C   UNL     1     -10.501  53.356  44.716  0.00  0.00    +0.000 C 
ATOM     33  C   UNL     1     -11.540  52.491  45.373  0.00  0.00    +0.000 C 
ENDBRANCH  30  31
ENDBRANCH  29  30
ENDBRANCH   5  29
TORSDOF 5
ENDMDL
