MODEL 1
REMARK VINA RESULT:      -8.0      0.000      0.000
REMARK  Name = 338021
REMARK  8 active torsions:
REMARK  status: ('A' for Active; 'I' for Inactive)
REMARK    1  A    between atoms: C_6  and  C_10
REMARK    2  A    between atoms: C_14  and  O_18
REMARK    3  A    between atoms: N_17  and  C_21
REMARK    4  A    between atoms: C_21  and  C_24
REMARK    5  A    between atoms: C_22  and  O_25
REMARK    6  A    between atoms: C_24  and  C_28
REMARK    7  A    between atoms: C_28  and  C_29
REMARK    8  A    between atoms: C_28  and  C_30
REMARK                            x       y       z     vdW  Elec       q    Type
REMARK                         _______ _______ _______ _____ _____    ______ ____
ROOT
ATOM      1  C   UNL     1     -10.219  55.184  50.848  0.00  0.00    +0.000 A 
ATOM      2  C   UNL     1      -9.801  55.120  49.416  0.00  0.00    +0.000 A 
ATOM      3  C   UNL     1     -11.428  55.664  51.176  0.00  0.00    +0.000 A 
ATOM      4  O   UNL     1      -8.731  54.566  49.145  0.00  0.00    +0.000 OA
ATOM      5  N   UNL     1     -10.638  55.666  48.452  0.00  0.00    +0.000 N 
ATOM      6  C   UNL     1     -12.374  56.111  50.136  0.00  0.00    +0.000 A 
ATOM      7  C   UNL     1     -11.969  56.080  48.784  0.00  0.00    +0.000 A 
ATOM      8  C   UNL     1     -13.685  56.543  50.430  0.00  0.00    +0.000 A 
ATOM      9  C   UNL     1     -12.899  56.423  47.785  0.00  0.00    +0.000 A 
ATOM     10  C   UNL     1     -14.586  56.897  49.430  0.00  0.00    +0.000 A 
ATOM     11  C   UNL     1     -14.192  56.833  48.104  0.00  0.00    +0.000 A 
ENDROOT
BRANCH   1  17
ATOM     12  S   UNL     1      -7.013  54.654  53.057  0.00  0.00    +0.000 S 
ATOM     13  O   UNL     1      -6.897  55.634  54.121  0.00  0.00    +0.000 OA
ATOM     14  O   UNL     1      -5.845  54.258  52.295  0.00  0.00    +0.000 OA
ATOM     15  N   UNL     1      -8.125  55.200  52.011  0.00  0.00    +0.000 N 
ATOM     16  C   UNL     1      -7.624  53.189  53.803  0.00  0.00    +0.000 A 
ATOM     17  C   UNL     1      -9.288  54.626  51.909  0.00  0.00    +0.000 C 
ATOM     18  C   UNL     1      -8.925  52.807  53.505  0.00  0.00    +0.000 A 
ATOM     19  C   UNL     1      -6.806  52.439  54.650  0.00  0.00    +0.000 A 
ATOM     20  N   UNL     1      -9.732  53.567  52.667  0.00  0.00    +0.000 N 
ATOM     21  C   UNL     1      -9.439  51.671  54.138  0.00  0.00    +0.000 A 
ATOM     22  C   UNL     1      -7.321  51.289  55.244  0.00  0.00    +0.000 A 
ATOM     23  C   UNL     1      -8.641  50.909  54.995  0.00  0.00    +0.000 A 
ATOM     24  H   UNL     1      -7.917  55.978  51.445  0.00  0.00    +0.000 HD
ATOM     25  H   UNL     1     -10.686  53.332  52.611  0.00  0.00    +0.000 HD
ENDBRANCH   1  17
BRANCH   3  26
ATOM     26  O   UNL     1     -11.911  55.727  52.478  0.00  0.00    +0.000 OA
ATOM     27  H   UNL     1     -12.534  56.385  52.714  0.00  0.00    +0.000 HD
ENDBRANCH   3  26
BRANCH   8  28
ATOM     28  O   UNL     1     -14.173  56.638  51.708  0.00  0.00    +0.000 OA
ATOM     29  H   UNL     1     -13.609  56.474  52.438  0.00  0.00    +0.000 HD
ENDBRANCH   8  28
BRANCH   5  30
ATOM     30  C   UNL     1     -10.166  55.658  47.060  0.00  0.00    +0.000 C 
BRANCH  30  31
ATOM     31  C   UNL     1     -10.441  54.371  46.263  0.00  0.00    +0.000 C 
BRANCH  31  32
ATOM     32  C   UNL     1      -9.221  53.656  45.660  0.00  0.00    +0.000 C 
ATOM     33  C   UNL     1      -9.517  53.046  44.291  0.00  0.00    +0.000 C 
ATOM     34  C   UNL     1      -8.074  54.667  45.539  0.00  0.00    +0.000 C 
ENDBRANCH  31  32
ENDBRANCH  30  31
ENDBRANCH   5  30
TORSDOF 6
ENDMDL
MODEL 2
REMARK VINA RESULT:      -7.8      4.129      6.568
REMARK  Name = 338021
REMARK  8 active torsions:
REMARK  status: ('A' for Active; 'I' for Inactive)
REMARK    1  A    between atoms: C_6  and  C_10
REMARK    2  A    between atoms: C_14  and  O_18
REMARK    3  A    between atoms: N_17  and  C_21
REMARK    4  A    between atoms: C_21  and  C_24
REMARK    5  A    between atoms: C_22  and  O_25
REMARK    6  A    between atoms: C_24  and  C_28
REMARK    7  A    between atoms: C_28  and  C_29
REMARK    8  A    between atoms: C_28  and  C_30
REMARK                            x       y       z     vdW  Elec       q    Type
REMARK                         _______ _______ _______ _____ _____    ______ ____
ROOT
ATOM      1  C   UNL     1     -11.390  56.236  48.511  0.00  0.00    +0.000 A 
ATOM      2  C   UNL     1     -11.766  55.626  47.201  0.00  0.00    +0.000 A 
ATOM      3  C   UNL     1     -10.153  56.067  49.003  0.00  0.00    +0.000 A 
ATOM      4  O   UNL     1     -12.873  55.899  46.727  0.00  0.00    +0.000 OA
ATOM      5  N   UNL     1     -10.852  54.796  46.565  0.00  0.00    +0.000 N 
ATOM      6  C   UNL     1      -9.138  55.303  48.253  0.00  0.00    +0.000 A 
ATOM      7  C   UNL     1      -9.500  54.700  47.029  0.00  0.00    +0.000 A 
ATOM      8  C   UNL     1      -7.803  55.172  48.693  0.00  0.00    +0.000 A 
ATOM      9  C   UNL     1      -8.511  54.046  46.271  0.00  0.00    +0.000 A 
ATOM     10  C   UNL     1      -6.842  54.505  47.938  0.00  0.00    +0.000 A 
ATOM     11  C   UNL     1      -7.197  53.944  46.724  0.00  0.00    +0.000 A 
ENDROOT
BRANCH   1  17
ATOM     12  S   UNL     1     -13.597  59.348  49.449  0.00  0.00    +0.000 S 
ATOM     13  O   UNL     1     -14.766  59.484  48.600  0.00  0.00    +0.000 OA
ATOM     14  O   UNL     1     -12.822  60.516  49.820  0.00  0.00    +0.000 OA
ATOM     15  N   UNL     1     -12.595  58.294  48.734  0.00  0.00    +0.000 N 
ATOM     16  C   UNL     1     -14.162  58.644  50.953  0.00  0.00    +0.000 A 
ATOM     17  C   UNL     1     -12.403  57.108  49.230  0.00  0.00    +0.000 C 
ATOM     18  C   UNL     1     -13.795  57.334  51.230  0.00  0.00    +0.000 A 
ATOM     19  C   UNL     1     -14.938  59.399  51.834  0.00  0.00    +0.000 A 
ATOM     20  N   UNL     1     -13.029  56.590  50.341  0.00  0.00    +0.000 N 
ATOM     21  C   UNL     1     -14.286  56.746  52.400  0.00  0.00    +0.000 A 
ATOM     22  C   UNL     1     -15.390  58.811  53.014  0.00  0.00    +0.000 A 
ATOM     23  C   UNL     1     -15.071  57.481  53.292  0.00  0.00    +0.000 A 
ATOM     24  H   UNL     1     -12.123  58.558  47.910  0.00  0.00    +0.000 HD
ATOM     25  H   UNL     1     -12.926  55.627  50.517  0.00  0.00    +0.000 HD
ENDBRANCH   1  17
BRANCH   3  26
ATOM     26  O   UNL     1      -9.709  56.627  50.194  0.00  0.00    +0.000 OA
ATOM     27  H   UNL     1      -9.402  57.511  50.210  0.00  0.00    +0.000 HD
ENDBRANCH   3  26
BRANCH   8  28
ATOM     28  O   UNL     1      -7.350  55.694  49.877  0.00  0.00    +0.000 OA
ATOM     29  H   UNL     1      -7.773  55.467  50.681  0.00  0.00    +0.000 HD
ENDBRANCH   8  28
BRANCH   5  30
ATOM     30  C   UNL     1     -11.278  54.149  45.316  0.00  0.00    +0.000 C 
BRANCH  30  31
ATOM     31  C   UNL     1     -12.051  52.827  45.470  0.00  0.00    +0.000 C 
BRANCH  31  32
ATOM     32  C   UNL     1     -11.484  51.805  46.470  0.00  0.00    +0.000 C 
ATOM     33  C   UNL     1     -12.227  51.816  47.804  0.00  0.00    +0.000 C 
ATOM     34  C   UNL     1     -11.570  50.408  45.840  0.00  0.00    +0.000 C 
ENDBRANCH  31  32
ENDBRANCH  30  31
ENDBRANCH   5  30
TORSDOF 6
ENDMDL
MODEL 3
REMARK VINA RESULT:      -7.8      3.223      6.795
REMARK  Name = 338021
REMARK  8 active torsions:
REMARK  status: ('A' for Active; 'I' for Inactive)
REMARK    1  A    between atoms: C_6  and  C_10
REMARK    2  A    between atoms: C_14  and  O_18
REMARK    3  A    between atoms: N_17  and  C_21
REMARK    4  A    between atoms: C_21  and  C_24
REMARK    5  A    between atoms: C_22  and  O_25
REMARK    6  A    between atoms: C_24  and  C_28
REMARK    7  A    between atoms: C_28  and  C_29
REMARK    8  A    between atoms: C_28  and  C_30
REMARK                            x       y       z     vdW  Elec       q    Type
REMARK                         _______ _______ _______ _____ _____    ______ ____
ROOT
ATOM      1  C   UNL     1     -12.260  54.171  50.318  0.00  0.00    +0.000 A 
ATOM      2  C   UNL     1     -12.042  53.706  48.916  0.00  0.00    +0.000 A 
ATOM      3  C   UNL     1     -11.668  53.533  51.339  0.00  0.00    +0.000 A 
ATOM      4  O   UNL     1     -12.509  54.386  47.997  0.00  0.00    +0.000 OA
ATOM      5  N   UNL     1     -11.312  52.544  48.704  0.00  0.00    +0.000 N 
ATOM      6  C   UNL     1     -10.775  52.383  51.098  0.00  0.00    +0.000 A 
ATOM      7  C   UNL     1     -10.591  51.924  49.775  0.00  0.00    +0.000 A 
ATOM      8  C   UNL     1     -10.066  51.737  52.133  0.00  0.00    +0.000 A 
ATOM      9  C   UNL     1      -9.673  50.885  49.535  0.00  0.00    +0.000 A 
ATOM     10  C   UNL     1      -9.175  50.698  51.879  0.00  0.00    +0.000 A 
ATOM     11  C   UNL     1      -8.977  50.273  50.576  0.00  0.00    +0.000 A 
ENDROOT
BRANCH   1  17
ATOM     12  S   UNL     1     -15.264  56.474  51.370  0.00  0.00    +0.000 S 
ATOM     13  O   UNL     1     -15.300  56.732  52.797  0.00  0.00    +0.000 OA
ATOM     14  O   UNL     1     -16.489  56.194  50.646  0.00  0.00    +0.000 OA
ATOM     15  N   UNL     1     -14.249  55.234  51.125  0.00  0.00    +0.000 N 
ATOM     16  C   UNL     1     -14.579  57.908  50.629  0.00  0.00    +0.000 A 
ATOM     17  C   UNL     1     -13.094  55.416  50.555  0.00  0.00    +0.000 C 
ATOM     18  C   UNL     1     -13.304  57.809  50.089  0.00  0.00    +0.000 A 
ATOM     19  C   UNL     1     -15.316  59.093  50.579  0.00  0.00    +0.000 A 
ATOM     20  N   UNL     1     -12.577  56.626  50.152  0.00  0.00    +0.000 N 
ATOM     21  C   UNL     1     -12.728  58.962  49.545  0.00  0.00    +0.000 A 
ATOM     22  C   UNL     1     -14.743  60.223  50.001  0.00  0.00    +0.000 A 
ATOM     23  C   UNL     1     -13.445  60.160  49.491  0.00  0.00    +0.000 A 
ATOM     24  H   UNL     1     -14.512  54.329  51.410  0.00  0.00    +0.000 HD
ATOM     25  H   UNL     1     -11.629  56.655  49.890  0.00  0.00    +0.000 HD
ENDBRANCH   1  17
BRANCH   3  26
ATOM     26  O   UNL     1     -11.787  53.918  52.668  0.00  0.00    +0.000 OA
ATOM     27  H   UNL     1     -12.548  53.677  53.158  0.00  0.00    +0.000 HD
ENDBRANCH   3  26
BRANCH   8  28
ATOM     28  O   UNL     1     -10.189  52.083  53.454  0.00  0.00    +0.000 OA
ATOM     29  H   UNL     1     -11.036  52.123  53.851  0.00  0.00    +0.000 HD
ENDBRANCH   8  28
BRANCH   5  30
ATOM     30  C   UNL     1     -11.179  52.069  47.320  0.00  0.00    +0.000 C 
BRANCH  30  31
ATOM     31  C   UNL     1      -9.854  52.409  46.614  0.00  0.00    +0.000 C 
BRANCH  31  32
ATOM     32  C   UNL     1      -9.890  53.549  45.584  0.00  0.00    +0.000 C 
ATOM     33  C   UNL     1     -11.254  53.690  44.912  0.00  0.00    +0.000 C 
ATOM     34  C   UNL     1      -9.525  54.860  46.295  0.00  0.00    +0.000 C 
ENDBRANCH  31  32
ENDBRANCH  30  31
ENDBRANCH   5  30
TORSDOF 6
ENDMDL
MODEL 4
REMARK VINA RESULT:      -7.8      1.364      4.393
REMARK  Name = 338021
REMARK  8 active torsions:
REMARK  status: ('A' for Active; 'I' for Inactive)
REMARK    1  A    between atoms: C_6  and  C_10
REMARK    2  A    between atoms: C_14  and  O_18
REMARK    3  A    between atoms: N_17  and  C_21
REMARK    4  A    between atoms: C_21  and  C_24
REMARK    5  A    between atoms: C_22  and  O_25
REMARK    6  A    between atoms: C_24  and  C_28
REMARK    7  A    between atoms: C_28  and  C_29
REMARK    8  A    between atoms: C_28  and  C_30
REMARK                            x       y       z     vdW  Elec       q    Type
REMARK                         _______ _______ _______ _____ _____    ______ ____
ROOT
ATOM      1  C   UNL     1     -10.077  54.627  50.908  0.00  0.00    +0.000 A 
ATOM      2  C   UNL     1     -11.390  55.212  51.313  0.00  0.00    +0.000 A 
ATOM      3  C   UNL     1      -9.762  54.513  49.609  0.00  0.00    +0.000 A 
ATOM      4  O   UNL     1     -11.595  55.406  52.515  0.00  0.00    +0.000 OA
ATOM      5  N   UNL     1     -12.312  55.529  50.325  0.00  0.00    +0.000 N 
ATOM      6  C   UNL     1     -10.688  54.985  48.561  0.00  0.00    +0.000 A 
ATOM      7  C   UNL     1     -11.942  55.511  48.941  0.00  0.00    +0.000 A 
ATOM      8  C   UNL     1     -10.362  54.963  47.188  0.00  0.00    +0.000 A 
ATOM      9  C   UNL     1     -12.788  56.042  47.950  0.00  0.00    +0.000 A 
ATOM     10  C   UNL     1     -11.220  55.476  46.219  0.00  0.00    +0.000 A 
ATOM     11  C   UNL     1     -12.434  56.019  46.602  0.00  0.00    +0.000 A 
ENDROOT
BRANCH   1  17
ATOM     12  S   UNL     1      -6.808  54.564  53.087  0.00  0.00    +0.000 S 
ATOM     13  O   UNL     1      -6.772  55.626  54.075  0.00  0.00    +0.000 OA
ATOM     14  O   UNL     1      -5.617  54.225  52.332  0.00  0.00    +0.000 OA
ATOM     15  N   UNL     1      -7.980  54.925  52.026  0.00  0.00    +0.000 N 
ATOM     16  C   UNL     1      -7.267  53.107  53.947  0.00  0.00    +0.000 A 
ATOM     17  C   UNL     1      -9.084  54.239  51.988  0.00  0.00    +0.000 C 
ATOM     18  C   UNL     1      -8.529  52.584  53.703  0.00  0.00    +0.000 A 
ATOM     19  C   UNL     1      -6.370  52.501  54.830  0.00  0.00    +0.000 A 
ATOM     20  N   UNL     1      -9.416  53.201  52.828  0.00  0.00    +0.000 N 
ATOM     21  C   UNL     1      -8.925  51.453  54.426  0.00  0.00    +0.000 A 
ATOM     22  C   UNL     1      -6.766  51.354  55.515  0.00  0.00    +0.000 A 
ATOM     23  C   UNL     1      -8.047  50.835  55.319  0.00  0.00    +0.000 A 
ATOM     24  H   UNL     1      -7.853  55.676  51.402  0.00  0.00    +0.000 HD
ATOM     25  H   UNL     1     -10.344  52.874  52.808  0.00  0.00    +0.000 HD
ENDBRANCH   1  17
BRANCH   3  26
ATOM     26  O   UNL     1      -8.552  54.014  49.145  0.00  0.00    +0.000 OA
ATOM     27  H   UNL     1      -7.837  53.895  49.737  0.00  0.00    +0.000 HD
ENDBRANCH   3  26
BRANCH   8  28
ATOM     28  O   UNL     1      -9.185  54.451  46.706  0.00  0.00    +0.000 OA
ATOM     29  H   UNL     1      -9.189  53.903  45.946  0.00  0.00    +0.000 HD
ENDBRANCH   8  28
BRANCH   5  30
ATOM     30  C   UNL     1     -13.624  56.031  50.757  0.00  0.00    +0.000 C 
BRANCH  30  31
ATOM     31  C   UNL     1     -13.715  57.546  51.014  0.00  0.00    +0.000 C 
BRANCH  31  32
ATOM     32  C   UNL     1     -15.059  58.082  51.533  0.00  0.00    +0.000 C 
ATOM     33  C   UNL     1     -15.130  58.111  53.058  0.00  0.00    +0.000 C 
ATOM     34  C   UNL     1     -15.267  59.497  50.977  0.00  0.00    +0.000 C 
ENDBRANCH  31  32
ENDBRANCH  30  31
ENDBRANCH   5  30
TORSDOF 6
ENDMDL
MODEL 5
REMARK VINA RESULT:      -7.8      2.751      6.770
REMARK  Name = 338021
REMARK  8 active torsions:
REMARK  status: ('A' for Active; 'I' for Inactive)
REMARK    1  A    between atoms: C_6  and  C_10
REMARK    2  A    between atoms: C_14  and  O_18
REMARK    3  A    between atoms: N_17  and  C_21
REMARK    4  A    between atoms: C_21  and  C_24
REMARK    5  A    between atoms: C_22  and  O_25
REMARK    6  A    between atoms: C_24  and  C_28
REMARK    7  A    between atoms: C_28  and  C_29
REMARK    8  A    between atoms: C_28  and  C_30
REMARK                            x       y       z     vdW  Elec       q    Type
REMARK                         _______ _______ _______ _____ _____    ______ ____
ROOT
ATOM      1  C   UNL     1     -11.084  54.586  48.197  0.00  0.00    +0.000 A 
ATOM      2  C   UNL     1     -10.779  54.183  49.602  0.00  0.00    +0.000 A 
ATOM      3  C   UNL     1     -12.039  55.496  47.949  0.00  0.00    +0.000 A 
ATOM      4  O   UNL     1      -9.818  53.433  49.798  0.00  0.00    +0.000 OA
ATOM      5  N   UNL     1     -11.574  54.680  50.626  0.00  0.00    +0.000 N 
ATOM      6  C   UNL     1     -12.785  56.130  49.052  0.00  0.00    +0.000 A 
ATOM      7  C   UNL     1     -12.520  55.728  50.380  0.00  0.00    +0.000 A 
ATOM      8  C   UNL     1     -13.738  57.151  48.842  0.00  0.00    +0.000 A 
ATOM      9  C   UNL     1     -13.167  56.394  51.437  0.00  0.00    +0.000 A 
ATOM     10  C   UNL     1     -14.382  57.786  49.900  0.00  0.00    +0.000 A 
ATOM     11  C   UNL     1     -14.093  57.408  51.200  0.00  0.00    +0.000 A 
ENDROOT
BRANCH   1  17
ATOM     12  S   UNL     1      -8.051  53.974  45.775  0.00  0.00    +0.000 S 
ATOM     13  O   UNL     1      -7.032  53.122  46.358  0.00  0.00    +0.000 OA
ATOM     14  O   UNL     1      -7.676  55.147  45.010  0.00  0.00    +0.000 OA
ATOM     15  N   UNL     1      -9.027  54.457  46.977  0.00  0.00    +0.000 N 
ATOM     16  C   UNL     1      -8.975  52.959  44.683  0.00  0.00    +0.000 A 
ATOM     17  C   UNL     1     -10.245  54.011  47.071  0.00  0.00    +0.000 C 
ATOM     18  C   UNL     1     -10.276  52.638  45.046  0.00  0.00    +0.000 A 
ATOM     19  C   UNL     1      -8.406  52.515  43.487  0.00  0.00    +0.000 A 
ATOM     20  N   UNL     1     -10.827  53.079  46.243  0.00  0.00    +0.000 N 
ATOM     21  C   UNL     1     -11.001  51.784  44.208  0.00  0.00    +0.000 A 
ATOM     22  C   UNL     1      -9.155  51.695  42.646  0.00  0.00    +0.000 A 
ATOM     23  C   UNL     1     -10.449  51.322  43.011  0.00  0.00    +0.000 A 
ATOM     24  H   UNL     1      -8.692  55.098  47.645  0.00  0.00    +0.000 HD
ATOM     25  H   UNL     1     -11.693  52.700  46.517  0.00  0.00    +0.000 HD
ENDBRANCH   1  17
BRANCH   3  26
ATOM     26  O   UNL     1     -12.363  55.954  46.678  0.00  0.00    +0.000 OA
ATOM     27  H   UNL     1     -12.028  56.775  46.378  0.00  0.00    +0.000 HD
ENDBRANCH   3  26
BRANCH   8  28
ATOM     28  O   UNL     1     -14.092  57.600  47.596  0.00  0.00    +0.000 OA
ATOM     29  H   UNL     1     -13.563  58.239  47.161  0.00  0.00    +0.000 HD
ENDBRANCH   8  28
BRANCH   5  30
ATOM     30  C   UNL     1     -11.300  54.206  51.990  0.00  0.00    +0.000 C 
BRANCH  30  31
ATOM     31  C   UNL     1     -10.317  55.056  52.814  0.00  0.00    +0.000 C 
BRANCH  31  32
ATOM     32  C   UNL     1      -8.895  54.498  52.986  0.00  0.00    +0.000 C 
ATOM     33  C   UNL     1      -8.064  55.306  53.981  0.00  0.00    +0.000 C 
ATOM     34  C   UNL     1      -8.997  53.041  53.460  0.00  0.00    +0.000 C 
ENDBRANCH  31  32
ENDBRANCH  30  31
ENDBRANCH   5  30
TORSDOF 6
ENDMDL
MODEL 6
REMARK VINA RESULT:      -7.6      2.379      4.978
REMARK  Name = 338021
REMARK  8 active torsions:
REMARK  status: ('A' for Active; 'I' for Inactive)
REMARK    1  A    between atoms: C_6  and  C_10
REMARK    2  A    between atoms: C_14  and  O_18
REMARK    3  A    between atoms: N_17  and  C_21
REMARK    4  A    between atoms: C_21  and  C_24
REMARK    5  A    between atoms: C_22  and  O_25
REMARK    6  A    between atoms: C_24  and  C_28
REMARK    7  A    between atoms: C_28  and  C_29
REMARK    8  A    between atoms: C_28  and  C_30
REMARK                            x       y       z     vdW  Elec       q    Type
REMARK                         _______ _______ _______ _____ _____    ______ ____
ROOT
ATOM      1  C   UNL     1      -9.889  54.059  50.625  0.00  0.00    +0.000 A 
ATOM      2  C   UNL     1     -11.079  54.500  51.411  0.00  0.00    +0.000 A 
ATOM      3  C   UNL     1      -9.840  54.271  49.301  0.00  0.00    +0.000 A 
ATOM      4  O   UNL     1     -11.038  54.391  52.640  0.00  0.00    +0.000 OA
ATOM      5  N   UNL     1     -12.170  55.026  50.732  0.00  0.00    +0.000 N 
ATOM      6  C   UNL     1     -10.941  54.962  48.603  0.00  0.00    +0.000 A 
ATOM      7  C   UNL     1     -12.081  55.352  49.340  0.00  0.00    +0.000 A 
ATOM      8  C   UNL     1     -10.893  55.281  47.229  0.00  0.00    +0.000 A 
ATOM      9  C   UNL     1     -13.091  56.088  48.694  0.00  0.00    +0.000 A 
ATOM     10  C   UNL     1     -11.912  55.994  46.602  0.00  0.00    +0.000 A 
ATOM     11  C   UNL     1     -13.011  56.400  47.338  0.00  0.00    +0.000 A 
ENDROOT
BRANCH   1  17
ATOM     12  S   UNL     1      -7.831  51.761  53.058  0.00  0.00    +0.000 S 
ATOM     13  O   UNL     1      -7.600  50.436  52.517  0.00  0.00    +0.000 OA
ATOM     14  O   UNL     1      -8.188  51.930  54.454  0.00  0.00    +0.000 OA
ATOM     15  N   UNL     1      -8.988  52.459  52.163  0.00  0.00    +0.000 N 
ATOM     16  C   UNL     1      -6.338  52.653  52.829  0.00  0.00    +0.000 A 
ATOM     17  C   UNL     1      -8.712  53.443  51.359  0.00  0.00    +0.000 C 
ATOM     18  C   UNL     1      -6.334  53.673  51.888  0.00  0.00    +0.000 A 
ATOM     19  C   UNL     1      -5.210  52.341  53.591  0.00  0.00    +0.000 A 
ATOM     20  N   UNL     1      -7.461  53.968  51.130  0.00  0.00    +0.000 N 
ATOM     21  C   UNL     1      -5.133  54.353  51.659  0.00  0.00    +0.000 A 
ATOM     22  C   UNL     1      -4.031  53.052  53.377  0.00  0.00    +0.000 A 
ATOM     23  C   UNL     1      -3.991  54.053  52.404  0.00  0.00    +0.000 A 
ATOM     24  H   UNL     1      -9.915  52.131  52.229  0.00  0.00    +0.000 HD
ATOM     25  H   UNL     1      -7.358  54.595  50.378  0.00  0.00    +0.000 HD
ENDBRANCH   1  17
BRANCH   3  26
ATOM     26  O   UNL     1      -8.759  53.927  48.499  0.00  0.00    +0.000 OA
ATOM     27  H   UNL     1      -8.828  53.991  47.568  0.00  0.00    +0.000 HD
ENDBRANCH   3  26
BRANCH   8  28
ATOM     28  O   UNL     1      -9.849  54.928  46.414  0.00  0.00    +0.000 OA
ATOM     29  H   UNL     1      -9.752  54.038  46.136  0.00  0.00    +0.000 HD
ENDBRANCH   8  28
BRANCH   5  30
ATOM     30  C   UNL     1     -13.356  55.379  51.523  0.00  0.00    +0.000 C 
BRANCH  30  31
ATOM     31  C   UNL     1     -13.346  56.777  52.168  0.00  0.00    +0.000 C 
BRANCH  31  32
ATOM     32  C   UNL     1     -14.707  57.359  52.583  0.00  0.00    +0.000 C 
ATOM     33  C   UNL     1     -14.719  58.886  52.572  0.00  0.00    +0.000 C 
ATOM     34  C   UNL     1     -15.778  56.825  51.622  0.00  0.00    +0.000 C 
ENDBRANCH  31  32
ENDBRANCH  30  31
ENDBRANCH   5  30
TORSDOF 6
ENDMDL
MODEL 7
REMARK VINA RESULT:      -7.6      1.607      2.303
REMARK  Name = 338021
REMARK  8 active torsions:
REMARK  status: ('A' for Active; 'I' for Inactive)
REMARK    1  A    between atoms: C_6  and  C_10
REMARK    2  A    between atoms: C_14  and  O_18
REMARK    3  A    between atoms: N_17  and  C_21
REMARK    4  A    between atoms: C_21  and  C_24
REMARK    5  A    between atoms: C_22  and  O_25
REMARK    6  A    between atoms: C_24  and  C_28
REMARK    7  A    between atoms: C_28  and  C_29
REMARK    8  A    between atoms: C_28  and  C_30
REMARK                            x       y       z     vdW  Elec       q    Type
REMARK                         _______ _______ _______ _____ _____    ______ ____
ROOT
ATOM      1  C   UNL     1     -10.414  54.921  50.431  0.00  0.00    +0.000 A 
ATOM      2  C   UNL     1     -10.143  54.750  48.973  0.00  0.00    +0.000 A 
ATOM      3  C   UNL     1     -11.475  55.633  50.841  0.00  0.00    +0.000 A 
ATOM      4  O   UNL     1      -9.227  53.995  48.635  0.00  0.00    +0.000 OA
ATOM      5  N   UNL     1     -10.939  55.431  48.062  0.00  0.00    +0.000 N 
ATOM      6  C   UNL     1     -12.404  56.237  49.866  0.00  0.00    +0.000 A 
ATOM      7  C   UNL     1     -12.132  56.102  48.487  0.00  0.00    +0.000 A 
ATOM      8  C   UNL     1     -13.577  56.921  50.251  0.00  0.00    +0.000 A 
ATOM      9  C   UNL     1     -13.063  56.600  47.556  0.00  0.00    +0.000 A 
ATOM     10  C   UNL     1     -14.477  57.424  49.316  0.00  0.00    +0.000 A 
ATOM     11  C   UNL     1     -14.220  57.260  47.966  0.00  0.00    +0.000 A 
ENDROOT
BRANCH   1  17
ATOM     12  S   UNL     1      -9.101  52.230  52.975  0.00  0.00    +0.000 S 
ATOM     13  O   UNL     1      -8.506  51.081  52.318  0.00  0.00    +0.000 OA
ATOM     14  O   UNL     1      -9.967  52.049  54.124  0.00  0.00    +0.000 OA
ATOM     15  N   UNL     1      -9.931  53.055  51.854  0.00  0.00    +0.000 N 
ATOM     16  C   UNL     1      -7.768  53.227  53.525  0.00  0.00    +0.000 A 
ATOM     17  C   UNL     1      -9.518  54.213  51.431  0.00  0.00    +0.000 C 
ATOM     18  C   UNL     1      -7.559  54.438  52.879  0.00  0.00    +0.000 A 
ATOM     19  C   UNL     1      -6.969  52.806  54.590  0.00  0.00    +0.000 A 
ATOM     20  N   UNL     1      -8.356  54.842  51.815  0.00  0.00    +0.000 N 
ATOM     21  C   UNL     1      -6.464  55.214  53.275  0.00  0.00    +0.000 A 
ATOM     22  C   UNL     1      -5.904  53.608  54.996  0.00  0.00    +0.000 A 
ATOM     23  C   UNL     1      -5.647  54.809  54.333  0.00  0.00    +0.000 A 
ATOM     24  H   UNL     1     -10.762  52.673  51.487  0.00  0.00    +0.000 HD
ATOM     25  H   UNL     1      -8.071  55.632  51.302  0.00  0.00    +0.000 HD
ENDBRANCH   1  17
BRANCH   3  26
ATOM     26  O   UNL     1     -11.821  55.813  52.174  0.00  0.00    +0.000 OA
ATOM     27  H   UNL     1     -11.294  55.436  52.849  0.00  0.00    +0.000 HD
ENDBRANCH   3  26
BRANCH   8  28
ATOM     28  O   UNL     1     -13.924  57.133  51.560  0.00  0.00    +0.000 OA
ATOM     29  H   UNL     1     -14.690  56.724  51.914  0.00  0.00    +0.000 HD
ENDBRANCH   8  28
BRANCH   5  30
ATOM     30  C   UNL     1     -10.601  55.306  46.638  0.00  0.00    +0.000 C 
BRANCH  30  31
ATOM     31  C   UNL     1     -11.277  54.146  45.884  0.00  0.00    +0.000 C 
BRANCH  31  32
ATOM     32  C   UNL     1     -10.453  53.465  44.779  0.00  0.00    +0.000 C 
ATOM     33  C   UNL     1      -8.994  53.257  45.179  0.00  0.00    +0.000 C 
ATOM     34  C   UNL     1     -11.099  52.111  44.454  0.00  0.00    +0.000 C 
ENDBRANCH  31  32
ENDBRANCH  30  31
ENDBRANCH   5  30
TORSDOF 6
ENDMDL
MODEL 8
REMARK VINA RESULT:      -7.5      3.310      6.658
REMARK  Name = 338021
REMARK  8 active torsions:
REMARK  status: ('A' for Active; 'I' for Inactive)
REMARK    1  A    between atoms: C_6  and  C_10
REMARK    2  A    between atoms: C_14  and  O_18
REMARK    3  A    between atoms: N_17  and  C_21
REMARK    4  A    between atoms: C_21  and  C_24
REMARK    5  A    between atoms: C_22  and  O_25
REMARK    6  A    between atoms: C_24  and  C_28
REMARK    7  A    between atoms: C_28  and  C_29
REMARK    8  A    between atoms: C_28  and  C_30
REMARK                            x       y       z     vdW  Elec       q    Type
REMARK                         _______ _______ _______ _____ _____    ______ ____
ROOT
ATOM      1  C   UNL     1     -11.960  53.585  50.805  0.00  0.00    +0.000 A 
ATOM      2  C   UNL     1     -11.969  52.594  49.689  0.00  0.00    +0.000 A 
ATOM      3  C   UNL     1     -11.289  53.319  51.937  0.00  0.00    +0.000 A 
ATOM      4  O   UNL     1     -12.499  52.923  48.623  0.00  0.00    +0.000 OA
ATOM      5  N   UNL     1     -11.370  51.358  49.889  0.00  0.00    +0.000 N 
ATOM      6  C   UNL     1     -10.531  52.063  52.090  0.00  0.00    +0.000 A 
ATOM      7  C   UNL     1     -10.564  51.111  51.047  0.00  0.00    +0.000 A 
ATOM      8  C   UNL     1      -9.745  51.780  53.227  0.00  0.00    +0.000 A 
ATOM      9  C   UNL     1      -9.773  49.953  51.156  0.00  0.00    +0.000 A 
ATOM     10  C   UNL     1      -8.982  50.619  53.325  0.00  0.00    +0.000 A 
ATOM     11  C   UNL     1      -8.994  49.706  52.285  0.00  0.00    +0.000 A 
ENDROOT
BRANCH   1  17
ATOM     12  S   UNL     1     -13.037  56.994  49.175  0.00  0.00    +0.000 S 
ATOM     13  O   UNL     1     -14.055  56.830  48.155  0.00  0.00    +0.000 OA
ATOM     14  O   UNL     1     -11.933  57.910  48.967  0.00  0.00    +0.000 OA
ATOM     15  N   UNL     1     -12.415  55.529  49.481  0.00  0.00    +0.000 N 
ATOM     16  C   UNL     1     -13.868  57.556  50.613  0.00  0.00    +0.000 A 
ATOM     17  C   UNL     1     -12.652  54.921  50.605  0.00  0.00    +0.000 C 
ATOM     18  C   UNL     1     -13.972  56.677  51.683  0.00  0.00    +0.000 A 
ATOM     19  C   UNL     1     -14.384  58.853  50.664  0.00  0.00    +0.000 A 
ATOM     20  N   UNL     1     -13.462  55.386  51.616  0.00  0.00    +0.000 N 
ATOM     21  C   UNL     1     -14.681  57.097  52.813  0.00  0.00    +0.000 A 
ATOM     22  C   UNL     1     -15.056  59.269  51.812  0.00  0.00    +0.000 A 
ATOM     23  C   UNL     1     -15.212  58.388  52.883  0.00  0.00    +0.000 A 
ATOM     24  H   UNL     1     -11.847  55.092  48.804  0.00  0.00    +0.000 HD
ATOM     25  H   UNL     1     -13.694  54.762  52.341  0.00  0.00    +0.000 HD
ENDBRANCH   1  17
BRANCH   3  26
ATOM     26  O   UNL     1     -11.198  54.197  53.009  0.00  0.00    +0.000 OA
ATOM     27  H   UNL     1     -11.852  54.186  53.680  0.00  0.00    +0.000 HD
ENDBRANCH   3  26
BRANCH   8  28
ATOM     28  O   UNL     1      -9.661  52.619  54.308  0.00  0.00    +0.000 OA
ATOM     29  H   UNL     1      -9.238  53.450  54.224  0.00  0.00    +0.000 HD
ENDBRANCH   8  28
BRANCH   5  30
ATOM     30  C   UNL     1     -11.462  50.375  48.800  0.00  0.00    +0.000 C 
BRANCH  30  31
ATOM     31  C   UNL     1     -10.318  50.399  47.771  0.00  0.00    +0.000 C 
BRANCH  31  32
ATOM     32  C   UNL     1     -10.700  50.717  46.317  0.00  0.00    +0.000 C 
ATOM     33  C   UNL     1     -12.201  50.590  46.064  0.00  0.00    +0.000 C 
ATOM     34  C   UNL     1     -10.240  52.145  45.994  0.00  0.00    +0.000 C 
ENDBRANCH  31  32
ENDBRANCH  30  31
ENDBRANCH   5  30
TORSDOF 6
ENDMDL
MODEL 9
REMARK VINA RESULT:      -7.5      3.349      6.798
REMARK  Name = 338021
REMARK  8 active torsions:
REMARK  status: ('A' for Active; 'I' for Inactive)
REMARK    1  A    between atoms: C_6  and  C_10
REMARK    2  A    between atoms: C_14  and  O_18
REMARK    3  A    between atoms: N_17  and  C_21
REMARK    4  A    between atoms: C_21  and  C_24
REMARK    5  A    between atoms: C_22  and  O_25
REMARK    6  A    between atoms: C_24  and  C_28
REMARK    7  A    between atoms: C_28  and  C_29
REMARK    8  A    between atoms: C_28  and  C_30
REMARK                            x       y       z     vdW  Elec       q    Type
REMARK                         _______ _______ _______ _____ _____    ______ ____
ROOT
ATOM      1  C   UNL     1     -10.631  55.744  48.581  0.00  0.00    +0.000 A 
ATOM      2  C   UNL     1      -9.237  55.639  49.106  0.00  0.00    +0.000 A 
ATOM      3  C   UNL     1     -10.946  55.205  47.393  0.00  0.00    +0.000 A 
ATOM      4  O   UNL     1      -9.014  56.045  50.251  0.00  0.00    +0.000 OA
ATOM      5  N   UNL     1      -8.259  55.078  48.296  0.00  0.00    +0.000 N 
ATOM      6  C   UNL     1      -9.936  54.481  46.598  0.00  0.00    +0.000 A 
ATOM      7  C   UNL     1      -8.610  54.408  47.079  0.00  0.00    +0.000 A 
ATOM      8  C   UNL     1     -10.243  53.827  45.386  0.00  0.00    +0.000 A 
ATOM      9  C   UNL     1      -7.667  53.644  46.366  0.00  0.00    +0.000 A 
ATOM     10  C   UNL     1      -9.292  53.091  44.684  0.00  0.00    +0.000 A 
ATOM     11  C   UNL     1      -8.002  52.998  45.178  0.00  0.00    +0.000 A 
ENDROOT
BRANCH   1  17
ATOM     12  S   UNL     1     -13.337  56.237  51.387  0.00  0.00    +0.000 S 
ATOM     13  O   UNL     1     -12.755  56.523  52.684  0.00  0.00    +0.000 OA
ATOM     14  O   UNL     1     -14.461  55.328  51.273  0.00  0.00    +0.000 OA
ATOM     15  N   UNL     1     -12.151  55.682  50.432  0.00  0.00    +0.000 N 
ATOM     16  C   UNL     1     -13.891  57.774  50.748  0.00  0.00    +0.000 A 
ATOM     17  C   UNL     1     -11.693  56.396  49.447  0.00  0.00    +0.000 C 
ATOM     18  C   UNL     1     -13.201  58.311  49.671  0.00  0.00    +0.000 A 
ATOM     19  C   UNL     1     -15.002  58.408  51.309  0.00  0.00    +0.000 A 
ATOM     20  N   UNL     1     -12.091  57.674  49.127  0.00  0.00    +0.000 N 
ATOM     21  C   UNL     1     -13.601  59.562  49.190  0.00  0.00    +0.000 A 
ATOM     22  C   UNL     1     -15.411  59.637  50.795  0.00  0.00    +0.000 A 
ATOM     23  C   UNL     1     -14.705  60.218  49.741  0.00  0.00    +0.000 A 
ATOM     24  H   UNL     1     -11.772  54.788  50.600  0.00  0.00    +0.000 HD
ATOM     25  H   UNL     1     -11.554  58.170  48.468  0.00  0.00    +0.000 HD
ENDBRANCH   1  17
BRANCH   3  26
ATOM     26  O   UNL     1     -12.223  55.224  46.847  0.00  0.00    +0.000 OA
ATOM     27  H   UNL     1     -12.930  55.611  47.323  0.00  0.00    +0.000 HD
ENDBRANCH   3  26
BRANCH   8  28
ATOM     28  O   UNL     1     -11.489  53.855  44.815  0.00  0.00    +0.000 OA
ATOM     29  H   UNL     1     -12.129  53.216  45.056  0.00  0.00    +0.000 HD
ENDBRANCH   8  28
BRANCH   5  30
ATOM     30  C   UNL     1      -6.882  55.059  48.808  0.00  0.00    +0.000 C 
BRANCH  30  31
ATOM     31  C   UNL     1      -6.548  53.932  49.801  0.00  0.00    +0.000 C 
BRANCH  31  32
ATOM     32  C   UNL     1      -5.368  53.015  49.438  0.00  0.00    +0.000 C 
ATOM     33  C   UNL     1      -5.822  51.648  48.931  0.00  0.00    +0.000 C 
ATOM     34  C   UNL     1      -4.523  53.712  48.363  0.00  0.00    +0.000 C 
ENDBRANCH  31  32
ENDBRANCH  30  31
ENDBRANCH   5  30
TORSDOF 6
ENDMDL
