MODEL 1
REMARK VINA RESULT:      -8.6      0.000      0.000
REMARK  Name = 338168
REMARK  5 active torsions:
REMARK  status: ('A' for Active; 'I' for Inactive)
REMARK    1  A    between atoms: C_6  and  C_10
REMARK    2  A    between atoms: C_14  and  O_18
REMARK    3  A    between atoms: N_17  and  C_21
REMARK    4  A    between atoms: C_21  and  C_24
REMARK    5  A    between atoms: C_24  and  C_27
REMARK                            x       y       z     vdW  Elec       q    Type
REMARK                         _______ _______ _______ _____ _____    ______ ____
ROOT
ATOM      1  C   UNL     1      -9.989  54.547  52.366  0.00  0.00    +0.000 A 
ATOM      2  C   UNL     1      -8.597  55.056  52.257  0.00  0.00    +0.000 A 
ATOM      3  C   UNL     1     -10.242  53.414  53.042  0.00  0.00    +0.000 A 
ATOM      4  O   UNL     1      -8.398  56.002  51.493  0.00  0.00    +0.000 OA
ATOM      5  N   UNL     1      -7.601  54.473  53.042  0.00  0.00    +0.000 N 
ATOM      6  C   UNL     1      -9.163  52.703  53.733  0.00  0.00    +0.000 A 
ATOM      7  C   UNL     1      -7.860  53.244  53.751  0.00  0.00    +0.000 A 
ATOM      8  C   UNL     1      -9.443  51.507  54.422  0.00  0.00    +0.000 A 
ATOM      9  C   UNL     1      -6.867  52.551  54.468  0.00  0.00    +0.000 A 
ATOM     10  C   UNL     1      -8.450  50.867  55.142  0.00  0.00    +0.000 A 
ATOM     11  C   UNL     1      -7.165  51.379  55.174  0.00  0.00    +0.000 A 
ATOM     12  F   UNL     1      -8.737  49.750  55.822  0.00  0.00    +0.000 F 
ENDROOT
BRANCH   1  18
ATOM     13  S   UNL     1     -12.376  55.783  49.429  0.00  0.00    +0.000 S 
ATOM     14  O   UNL     1     -13.049  54.536  49.146  0.00  0.00    +0.000 OA
ATOM     15  O   UNL     1     -11.940  56.675  48.377  0.00  0.00    +0.000 OA
ATOM     16  N   UNL     1     -11.054  55.456  50.357  0.00  0.00    +0.000 N 
ATOM     17  C   UNL     1     -13.368  56.691  50.535  0.00  0.00    +0.000 A 
ATOM     18  C   UNL     1     -11.127  55.277  51.734  0.00  0.00    +0.000 C 
ATOM     19  C   UNL     1     -13.101  56.553  51.895  0.00  0.00    +0.000 A 
ATOM     20  C   UNL     1     -14.360  57.543  50.047  0.00  0.00    +0.000 A 
ATOM     21  N   UNL     1     -12.117  55.723  52.448  0.00  0.00    +0.000 N 
ATOM     22  C   UNL     1     -13.861  57.320  52.784  0.00  0.00    +0.000 A 
ATOM     23  C   UNL     1     -15.116  58.286  50.954  0.00  0.00    +0.000 A 
ATOM     24  C   UNL     1     -14.861  58.183  52.320  0.00  0.00    +0.000 A 
ATOM     25  H   UNL     1     -10.175  55.385  49.918  0.00  0.00    +0.000 HD
ATOM     26  H   UNL     1     -12.175  55.474  53.399  0.00  0.00    +0.000 HD
ENDBRANCH   1  18
BRANCH   3  27
ATOM     27  O   UNL     1     -11.498  52.840  53.176  0.00  0.00    +0.000 OA
ATOM     28  H   UNL     1     -11.606  51.916  53.057  0.00  0.00    +0.000 HD
ENDBRANCH   3  27
BRANCH   5  29
ATOM     29  C   UNL     1      -6.223  55.015  52.976  0.00  0.00    +0.000 C 
BRANCH  29  30
ATOM     30  C   UNL     1      -5.218  54.232  52.113  0.00  0.00    +0.000 C 
BRANCH  30  31
ATOM     31  C   UNL     1      -5.347  54.513  50.641  0.00  0.00    +0.000 C 
ATOM     32  C   UNL     1      -6.141  53.649  49.697  0.00  0.00    +0.000 C 
ATOM     33  C   UNL     1      -4.641  53.596  49.676  0.00  0.00    +0.000 C 
ENDBRANCH  30  31
ENDBRANCH  29  30
ENDBRANCH   5  29
TORSDOF 5
ENDMDL
MODEL 2
REMARK VINA RESULT:      -8.3      3.864      7.421
REMARK  Name = 338168
REMARK  5 active torsions:
REMARK  status: ('A' for Active; 'I' for Inactive)
REMARK    1  A    between atoms: C_6  and  C_10
REMARK    2  A    between atoms: C_14  and  O_18
REMARK    3  A    between atoms: N_17  and  C_21
REMARK    4  A    between atoms: C_21  and  C_24
REMARK    5  A    between atoms: C_24  and  C_27
REMARK                            x       y       z     vdW  Elec       q    Type
REMARK                         _______ _______ _______ _____ _____    ______ ____
ROOT
ATOM      1  C   UNL     1     -10.172  55.102  50.827  0.00  0.00    +0.000 A 
ATOM      2  C   UNL     1      -9.816  55.162  49.385  0.00  0.00    +0.000 A 
ATOM      3  C   UNL     1     -11.364  55.559  51.247  0.00  0.00    +0.000 A 
ATOM      4  O   UNL     1      -8.656  54.885  49.076  0.00  0.00    +0.000 OA
ATOM      5  N   UNL     1     -10.807  55.488  48.457  0.00  0.00    +0.000 N 
ATOM      6  C   UNL     1     -12.349  56.061  50.286  0.00  0.00    +0.000 A 
ATOM      7  C   UNL     1     -12.078  56.002  48.902  0.00  0.00    +0.000 A 
ATOM      8  C   UNL     1     -13.585  56.553  50.745  0.00  0.00    +0.000 A 
ATOM      9  C   UNL     1     -13.075  56.451  48.015  0.00  0.00    +0.000 A 
ATOM     10  C   UNL     1     -14.555  56.959  49.844  0.00  0.00    +0.000 A 
ATOM     11  C   UNL     1     -14.312  56.909  48.483  0.00  0.00    +0.000 A 
ATOM     12  F   UNL     1     -15.740  57.392  50.292  0.00  0.00    +0.000 F 
ENDROOT
BRANCH   1  18
ATOM     13  S   UNL     1      -6.876  54.895  53.051  0.00  0.00    +0.000 S 
ATOM     14  O   UNL     1      -7.148  55.987  53.958  0.00  0.00    +0.000 OA
ATOM     15  O   UNL     1      -5.560  54.669  52.496  0.00  0.00    +0.000 OA
ATOM     16  N   UNL     1      -7.918  55.011  51.779  0.00  0.00    +0.000 N 
ATOM     17  C   UNL     1      -7.408  53.421  53.810  0.00  0.00    +0.000 A 
ATOM     18  C   UNL     1      -9.224  54.535  51.830  0.00  0.00    +0.000 C 
ATOM     19  C   UNL     1      -8.697  52.981  53.520  0.00  0.00    +0.000 A 
ATOM     20  C   UNL     1      -6.541  52.710  54.642  0.00  0.00    +0.000 A 
ATOM     21  N   UNL     1      -9.612  53.641  52.689  0.00  0.00    +0.000 N 
ATOM     22  C   UNL     1      -9.110  51.771  54.086  0.00  0.00    +0.000 A 
ATOM     23  C   UNL     1      -6.979  51.514  55.208  0.00  0.00    +0.000 A 
ATOM     24  C   UNL     1      -8.259  51.038  54.923  0.00  0.00    +0.000 A 
ATOM     25  H   UNL     1      -7.602  55.433  50.947  0.00  0.00    +0.000 HD
ATOM     26  H   UNL     1     -10.570  53.422  52.757  0.00  0.00    +0.000 HD
ENDBRANCH   1  18
BRANCH   3  27
ATOM     27  O   UNL     1     -11.779  55.576  52.570  0.00  0.00    +0.000 OA
ATOM     28  H   UNL     1     -12.692  55.531  52.775  0.00  0.00    +0.000 HD
ENDBRANCH   3  27
BRANCH   5  29
ATOM     29  C   UNL     1     -10.467  55.495  47.015  0.00  0.00    +0.000 C 
BRANCH  29  30
ATOM     30  C   UNL     1     -10.299  54.119  46.343  0.00  0.00    +0.000 C 
BRANCH  30  31
ATOM     31  C   UNL     1     -11.276  53.878  45.226  0.00  0.00    +0.000 C 
ATOM     32  C   UNL     1     -12.045  52.593  45.058  0.00  0.00    +0.000 C 
ATOM     33  C   UNL     1     -10.894  52.901  44.144  0.00  0.00    +0.000 C 
ENDBRANCH  30  31
ENDBRANCH  29  30
ENDBRANCH   5  29
TORSDOF 5
ENDMDL
MODEL 3
REMARK VINA RESULT:      -8.3      3.815      5.396
REMARK  Name = 338168
REMARK  5 active torsions:
REMARK  status: ('A' for Active; 'I' for Inactive)
REMARK    1  A    between atoms: C_6  and  C_10
REMARK    2  A    between atoms: C_14  and  O_18
REMARK    3  A    between atoms: N_17  and  C_21
REMARK    4  A    between atoms: C_21  and  C_24
REMARK    5  A    between atoms: C_24  and  C_27
REMARK                            x       y       z     vdW  Elec       q    Type
REMARK                         _______ _______ _______ _____ _____    ______ ____
ROOT
ATOM      1  C   UNL     1     -11.468  55.807  48.986  0.00  0.00    +0.000 A 
ATOM      2  C   UNL     1     -10.384  55.135  49.750  0.00  0.00    +0.000 A 
ATOM      3  C   UNL     1     -11.633  55.547  47.678  0.00  0.00    +0.000 A 
ATOM      4  O   UNL     1     -10.172  55.528  50.897  0.00  0.00    +0.000 OA
ATOM      5  N   UNL     1      -9.692  54.079  49.153  0.00  0.00    +0.000 N 
ATOM      6  C   UNL     1     -10.791  54.554  47.004  0.00  0.00    +0.000 A 
ATOM      7  C   UNL     1      -9.847  53.812  47.745  0.00  0.00    +0.000 A 
ATOM      8  C   UNL     1     -10.965  54.308  45.630  0.00  0.00    +0.000 A 
ATOM      9  C   UNL     1      -9.096  52.834  47.064  0.00  0.00    +0.000 A 
ATOM     10  C   UNL     1     -10.231  53.319  44.998  0.00  0.00    +0.000 A 
ATOM     11  C   UNL     1      -9.301  52.578  45.703  0.00  0.00    +0.000 A 
ATOM     12  F   UNL     1     -10.431  53.070  43.697  0.00  0.00    +0.000 F 
ENDROOT
BRANCH   1  18
ATOM     13  S   UNL     1     -13.515  59.189  49.458  0.00  0.00    +0.000 S 
ATOM     14  O   UNL     1     -14.495  59.006  48.412  0.00  0.00    +0.000 OA
ATOM     15  O   UNL     1     -12.885  60.467  49.704  0.00  0.00    +0.000 OA
ATOM     16  N   UNL     1     -12.303  58.096  49.225  0.00  0.00    +0.000 N 
ATOM     17  C   UNL     1     -14.213  58.629  50.952  0.00  0.00    +0.000 A 
ATOM     18  C   UNL     1     -12.390  56.774  49.649  0.00  0.00    +0.000 C 
ATOM     19  C   UNL     1     -13.961  57.310  51.321  0.00  0.00    +0.000 A 
ATOM     20  C   UNL     1     -14.960  59.501  51.746  0.00  0.00    +0.000 A 
ATOM     21  N   UNL     1     -13.214  56.387  50.577  0.00  0.00    +0.000 N 
ATOM     22  C   UNL     1     -14.475  56.872  52.546  0.00  0.00    +0.000 A 
ATOM     23  C   UNL     1     -15.476  59.038  52.955  0.00  0.00    +0.000 A 
ATOM     24  C   UNL     1     -15.227  57.727  53.361  0.00  0.00    +0.000 A 
ATOM     25  H   UNL     1     -11.483  58.392  48.767  0.00  0.00    +0.000 HD
ATOM     26  H   UNL     1     -13.315  55.425  50.760  0.00  0.00    +0.000 HD
ENDBRANCH   1  18
BRANCH   3  27
ATOM     27  O   UNL     1     -12.591  56.143  46.871  0.00  0.00    +0.000 OA
ATOM     28  H   UNL     1     -12.629  55.935  45.958  0.00  0.00    +0.000 HD
ENDBRANCH   3  27
BRANCH   5  29
ATOM     29  C   UNL     1      -8.649  53.372  49.933  0.00  0.00    +0.000 C 
BRANCH  29  30
ATOM     30  C   UNL     1      -7.434  54.210  50.372  0.00  0.00    +0.000 C 
BRANCH  30  31
ATOM     31  C   UNL     1      -6.708  54.856  49.225  0.00  0.00    +0.000 C 
ATOM     32  C   UNL     1      -5.775  54.111  48.307  0.00  0.00    +0.000 C 
ATOM     33  C   UNL     1      -5.218  55.045  49.342  0.00  0.00    +0.000 C 
ENDBRANCH  30  31
ENDBRANCH  29  30
ENDBRANCH   5  29
TORSDOF 5
ENDMDL
MODEL 4
REMARK VINA RESULT:      -8.2      3.679      7.277
REMARK  Name = 338168
REMARK  5 active torsions:
REMARK  status: ('A' for Active; 'I' for Inactive)
REMARK    1  A    between atoms: C_6  and  C_10
REMARK    2  A    between atoms: C_14  and  O_18
REMARK    3  A    between atoms: N_17  and  C_21
REMARK    4  A    between atoms: C_21  and  C_24
REMARK    5  A    between atoms: C_24  and  C_27
REMARK                            x       y       z     vdW  Elec       q    Type
REMARK                         _______ _______ _______ _____ _____    ______ ____
ROOT
ATOM      1  C   UNL     1     -10.187  55.420  50.482  0.00  0.00    +0.000 A 
ATOM      2  C   UNL     1     -10.349  55.668  49.026  0.00  0.00    +0.000 A 
ATOM      3  C   UNL     1     -11.221  55.606  51.319  0.00  0.00    +0.000 A 
ATOM      4  O   UNL     1      -9.333  55.643  48.330  0.00  0.00    +0.000 OA
ATOM      5  N   UNL     1     -11.632  55.880  48.516  0.00  0.00    +0.000 N 
ATOM      6  C   UNL     1     -12.537  55.993  50.800  0.00  0.00    +0.000 A 
ATOM      7  C   UNL     1     -12.741  56.104  49.409  0.00  0.00    +0.000 A 
ATOM      8  C   UNL     1     -13.605  56.202  51.692  0.00  0.00    +0.000 A 
ATOM      9  C   UNL     1     -14.034  56.431  48.956  0.00  0.00    +0.000 A 
ATOM     10  C   UNL     1     -14.870  56.493  51.212  0.00  0.00    +0.000 A 
ATOM     11  C   UNL     1     -15.095  56.606  49.852  0.00  0.00    +0.000 A 
ATOM     12  F   UNL     1     -15.886  56.654  52.069  0.00  0.00    +0.000 F 
ENDROOT
BRANCH   1  18
ATOM     13  S   UNL     1      -6.612  53.665  50.490  0.00  0.00    +0.000 S 
ATOM     14  O   UNL     1      -5.897  54.608  49.662  0.00  0.00    +0.000 OA
ATOM     15  O   UNL     1      -6.432  52.236  50.356  0.00  0.00    +0.000 OA
ATOM     16  N   UNL     1      -8.226  53.960  50.331  0.00  0.00    +0.000 N 
ATOM     17  C   UNL     1      -6.338  54.094  52.155  0.00  0.00    +0.000 A 
ATOM     18  C   UNL     1      -8.883  54.958  51.043  0.00  0.00    +0.000 C 
ATOM     19  C   UNL     1      -7.276  54.924  52.765  0.00  0.00    +0.000 A 
ATOM     20  C   UNL     1      -5.233  53.581  52.837  0.00  0.00    +0.000 A 
ATOM     21  N   UNL     1      -8.408  55.464  52.141  0.00  0.00    +0.000 N 
ATOM     22  C   UNL     1      -7.087  55.229  54.117  0.00  0.00    +0.000 A 
ATOM     23  C   UNL     1      -5.057  53.912  54.180  0.00  0.00    +0.000 A 
ATOM     24  C   UNL     1      -5.987  54.726  54.823  0.00  0.00    +0.000 A 
ATOM     25  H   UNL     1      -8.748  53.405  49.705  0.00  0.00    +0.000 HD
ATOM     26  H   UNL     1      -8.855  56.243  52.545  0.00  0.00    +0.000 HD
ENDBRANCH   1  18
BRANCH   3  27
ATOM     27  O   UNL     1     -11.165  55.431  52.693  0.00  0.00    +0.000 OA
ATOM     28  H   UNL     1     -10.435  54.988  53.080  0.00  0.00    +0.000 HD
ENDBRANCH   3  27
BRANCH   5  29
ATOM     29  C   UNL     1     -11.802  56.074  47.056  0.00  0.00    +0.000 C 
BRANCH  29  30
ATOM     30  C   UNL     1     -12.092  54.810  46.226  0.00  0.00    +0.000 C 
BRANCH  30  31
ATOM     31  C   UNL     1     -10.865  54.225  45.582  0.00  0.00    +0.000 C 
ATOM     32  C   UNL     1     -10.911  53.120  44.559  0.00  0.00    +0.000 C 
ATOM     33  C   UNL     1     -10.461  52.824  45.961  0.00  0.00    +0.000 C 
ENDBRANCH  30  31
ENDBRANCH  29  30
ENDBRANCH   5  29
TORSDOF 5
ENDMDL
MODEL 5
REMARK VINA RESULT:      -8.2      3.893      5.771
REMARK  Name = 338168
REMARK  5 active torsions:
REMARK  status: ('A' for Active; 'I' for Inactive)
REMARK    1  A    between atoms: C_6  and  C_10
REMARK    2  A    between atoms: C_14  and  O_18
REMARK    3  A    between atoms: N_17  and  C_21
REMARK    4  A    between atoms: C_21  and  C_24
REMARK    5  A    between atoms: C_24  and  C_27
REMARK                            x       y       z     vdW  Elec       q    Type
REMARK                         _______ _______ _______ _____ _____    ______ ____
ROOT
ATOM      1  C   UNL     1     -11.573  55.739  48.937  0.00  0.00    +0.000 A 
ATOM      2  C   UNL     1     -10.507  55.024  49.685  0.00  0.00    +0.000 A 
ATOM      3  C   UNL     1     -11.756  55.500  47.628  0.00  0.00    +0.000 A 
ATOM      4  O   UNL     1     -10.274  55.397  50.836  0.00  0.00    +0.000 OA
ATOM      5  N   UNL     1      -9.853  53.952  49.072  0.00  0.00    +0.000 N 
ATOM      6  C   UNL     1     -10.952  54.488  46.937  0.00  0.00    +0.000 A 
ATOM      7  C   UNL     1     -10.027  53.707  47.662  0.00  0.00    +0.000 A 
ATOM      8  C   UNL     1     -11.144  54.263  45.561  0.00  0.00    +0.000 A 
ATOM      9  C   UNL     1      -9.313  52.713  46.965  0.00  0.00    +0.000 A 
ATOM     10  C   UNL     1     -10.447  53.258  44.913  0.00  0.00    +0.000 A 
ATOM     11  C   UNL     1      -9.536  52.479  45.603  0.00  0.00    +0.000 A 
ATOM     12  F   UNL     1     -10.664  53.031  43.611  0.00  0.00    +0.000 F 
ENDROOT
BRANCH   1  18
ATOM     13  S   UNL     1     -13.524  59.172  49.451  0.00  0.00    +0.000 S 
ATOM     14  O   UNL     1     -14.527  59.017  48.421  0.00  0.00    +0.000 OA
ATOM     15  O   UNL     1     -12.857  60.433  49.687  0.00  0.00    +0.000 OA
ATOM     16  N   UNL     1     -12.345  58.049  49.195  0.00  0.00    +0.000 N 
ATOM     17  C   UNL     1     -14.210  58.628  50.955  0.00  0.00    +0.000 A 
ATOM     18  C   UNL     1     -12.459  56.729  49.618  0.00  0.00    +0.000 C 
ATOM     19  C   UNL     1     -13.986  57.301  51.318  0.00  0.00    +0.000 A 
ATOM     20  C   UNL     1     -14.920  59.517  51.763  0.00  0.00    +0.000 A 
ATOM     21  N   UNL     1     -13.276  56.361  50.559  0.00  0.00    +0.000 N 
ATOM     22  C   UNL     1     -14.490  56.874  52.551  0.00  0.00    +0.000 A 
ATOM     23  C   UNL     1     -15.427  59.064  52.981  0.00  0.00    +0.000 A 
ATOM     24  C   UNL     1     -15.205  57.747  53.380  0.00  0.00    +0.000 A 
ATOM     25  H   UNL     1     -11.525  58.324  48.723  0.00  0.00    +0.000 HD
ATOM     26  H   UNL     1     -13.398  55.402  50.743  0.00  0.00    +0.000 HD
ENDBRANCH   1  18
BRANCH   3  27
ATOM     27  O   UNL     1     -12.699  56.136  46.835  0.00  0.00    +0.000 OA
ATOM     28  H   UNL     1     -13.341  55.631  46.375  0.00  0.00    +0.000 HD
ENDBRANCH   3  27
BRANCH   5  29
ATOM     29  C   UNL     1      -8.829  53.203  49.836  0.00  0.00    +0.000 C 
BRANCH  29  30
ATOM     30  C   UNL     1      -9.343  52.077  50.752  0.00  0.00    +0.000 C 
BRANCH  30  31
ATOM     31  C   UNL     1      -9.204  52.389  52.216  0.00  0.00    +0.000 C 
ATOM     32  C   UNL     1      -9.416  51.372  53.307  0.00  0.00    +0.000 C 
ATOM     33  C   UNL     1     -10.454  52.428  53.058  0.00  0.00    +0.000 C 
ENDBRANCH  30  31
ENDBRANCH  29  30
ENDBRANCH   5  29
TORSDOF 5
ENDMDL
MODEL 6
REMARK VINA RESULT:      -8.0      3.106      4.287
REMARK  Name = 338168
REMARK  5 active torsions:
REMARK  status: ('A' for Active; 'I' for Inactive)
REMARK    1  A    between atoms: C_6  and  C_10
REMARK    2  A    between atoms: C_14  and  O_18
REMARK    3  A    between atoms: N_17  and  C_21
REMARK    4  A    between atoms: C_21  and  C_24
REMARK    5  A    between atoms: C_24  and  C_27
REMARK                            x       y       z     vdW  Elec       q    Type
REMARK                         _______ _______ _______ _____ _____    ______ ____
ROOT
ATOM      1  C   UNL     1     -12.073  54.484  50.340  0.00  0.00    +0.000 A 
ATOM      2  C   UNL     1     -11.966  53.924  48.968  0.00  0.00    +0.000 A 
ATOM      3  C   UNL     1     -11.459  53.874  51.368  0.00  0.00    +0.000 A 
ATOM      4  O   UNL     1     -12.678  54.423  48.095  0.00  0.00    +0.000 OA
ATOM      5  N   UNL     1     -11.049  52.898  48.726  0.00  0.00    +0.000 N 
ATOM      6  C   UNL     1     -10.625  52.690  51.140  0.00  0.00    +0.000 A 
ATOM      7  C   UNL     1     -10.406  52.225  49.827  0.00  0.00    +0.000 A 
ATOM      8  C   UNL     1     -10.004  52.053  52.231  0.00  0.00    +0.000 A 
ATOM      9  C   UNL     1      -9.559  51.114  49.653  0.00  0.00    +0.000 A 
ATOM     10  C   UNL     1      -9.153  50.982  52.022  0.00  0.00    +0.000 A 
ATOM     11  C   UNL     1      -8.922  50.508  50.743  0.00  0.00    +0.000 A 
ATOM     12  F   UNL     1      -8.540  50.407  53.064  0.00  0.00    +0.000 F 
ENDROOT
BRANCH   1  18
ATOM     13  S   UNL     1     -14.435  56.970  52.364  0.00  0.00    +0.000 S 
ATOM     14  O   UNL     1     -13.514  57.355  53.408  0.00  0.00    +0.000 OA
ATOM     15  O   UNL     1     -15.828  56.693  52.635  0.00  0.00    +0.000 OA
ATOM     16  N   UNL     1     -13.824  55.643  51.602  0.00  0.00    +0.000 N 
ATOM     17  C   UNL     1     -14.353  58.170  51.105  0.00  0.00    +0.000 A 
ATOM     18  C   UNL     1     -12.856  55.726  50.605  0.00  0.00    +0.000 C 
ATOM     19  C   UNL     1     -13.480  57.929  50.047  0.00  0.00    +0.000 A 
ATOM     20  C   UNL     1     -15.170  59.300  51.161  0.00  0.00    +0.000 A 
ATOM     21  N   UNL     1     -12.641  56.813  49.925  0.00  0.00    +0.000 N 
ATOM     22  C   UNL     1     -13.449  58.864  49.008  0.00  0.00    +0.000 A 
ATOM     23  C   UNL     1     -15.111  60.227  50.122  0.00  0.00    +0.000 A 
ATOM     24  C   UNL     1     -14.259  60.006  49.040  0.00  0.00    +0.000 A 
ATOM     25  H   UNL     1     -14.157  54.753  51.862  0.00  0.00    +0.000 HD
ATOM     26  H   UNL     1     -11.873  56.852  49.311  0.00  0.00    +0.000 HD
ENDBRANCH   1  18
BRANCH   3  27
ATOM     27  O   UNL     1     -11.523  54.297  52.687  0.00  0.00    +0.000 OA
ATOM     28  H   UNL     1     -12.105  54.990  52.929  0.00  0.00    +0.000 HD
ENDBRANCH   3  27
BRANCH   5  29
ATOM     29  C   UNL     1     -10.902  52.377  47.347  0.00  0.00    +0.000 C 
BRANCH  29  30
ATOM     30  C   UNL     1     -10.192  53.297  46.337  0.00  0.00    +0.000 C 
BRANCH  30  31
ATOM     31  C   UNL     1      -8.933  53.917  46.878  0.00  0.00    +0.000 C 
ATOM     32  C   UNL     1      -8.844  55.348  47.340  0.00  0.00    +0.000 C 
ATOM     33  C   UNL     1      -8.225  54.945  46.032  0.00  0.00    +0.000 C 
ENDBRANCH  30  31
ENDBRANCH  29  30
ENDBRANCH   5  29
TORSDOF 5
ENDMDL
MODEL 7
REMARK VINA RESULT:      -8.0      3.502      7.957
REMARK  Name = 338168
REMARK  5 active torsions:
REMARK  status: ('A' for Active; 'I' for Inactive)
REMARK    1  A    between atoms: C_6  and  C_10
REMARK    2  A    between atoms: C_14  and  O_18
REMARK    3  A    between atoms: N_17  and  C_21
REMARK    4  A    between atoms: C_21  and  C_24
REMARK    5  A    between atoms: C_24  and  C_27
REMARK                            x       y       z     vdW  Elec       q    Type
REMARK                         _______ _______ _______ _____ _____    ______ ____
ROOT
ATOM      1  C   UNL     1      -9.994  54.380  50.776  0.00  0.00    +0.000 A 
ATOM      2  C   UNL     1     -11.130  55.293  51.069  0.00  0.00    +0.000 A 
ATOM      3  C   UNL     1      -9.778  53.952  49.521  0.00  0.00    +0.000 A 
ATOM      4  O   UNL     1     -11.383  55.522  52.252  0.00  0.00    +0.000 OA
ATOM      5  N   UNL     1     -11.825  55.869  50.003  0.00  0.00    +0.000 N 
ATOM      6  C   UNL     1     -10.616  54.429  48.417  0.00  0.00    +0.000 A 
ATOM      7  C   UNL     1     -11.614  55.397  48.657  0.00  0.00    +0.000 A 
ATOM      8  C   UNL     1     -10.387  53.956  47.112  0.00  0.00    +0.000 A 
ATOM      9  C   UNL     1     -12.362  55.861  47.558  0.00  0.00    +0.000 A 
ATOM     10  C   UNL     1     -11.120  54.455  46.049  0.00  0.00    +0.000 A 
ATOM     11  C   UNL     1     -12.103  55.405  46.260  0.00  0.00    +0.000 A 
ATOM     12  F   UNL     1     -10.869  54.024  44.807  0.00  0.00    +0.000 F 
ENDROOT
BRANCH   1  18
ATOM     13  S   UNL     1      -6.754  54.405  53.089  0.00  0.00    +0.000 S 
ATOM     14  O   UNL     1      -7.037  55.594  53.860  0.00  0.00    +0.000 OA
ATOM     15  O   UNL     1      -5.427  54.111  52.595  0.00  0.00    +0.000 OA
ATOM     16  N   UNL     1      -7.764  54.383  51.787  0.00  0.00    +0.000 N 
ATOM     17  C   UNL     1      -7.315  53.030  53.996  0.00  0.00    +0.000 A 
ATOM     18  C   UNL     1      -9.075  53.924  51.860  0.00  0.00    +0.000 C 
ATOM     19  C   UNL     1      -8.601  52.568  53.727  0.00  0.00    +0.000 A 
ATOM     20  C   UNL     1      -6.474  52.412  54.923  0.00  0.00    +0.000 A 
ATOM     21  N   UNL     1      -9.491  53.135  52.805  0.00  0.00    +0.000 N 
ATOM     22  C   UNL     1      -9.037  51.431  54.415  0.00  0.00    +0.000 A 
ATOM     23  C   UNL     1      -6.936  51.289  55.609  0.00  0.00    +0.000 A 
ATOM     24  C   UNL     1      -8.213  50.792  55.349  0.00  0.00    +0.000 A 
ATOM     25  H   UNL     1      -7.425  54.707  50.921  0.00  0.00    +0.000 HD
ATOM     26  H   UNL     1     -10.451  52.930  52.873  0.00  0.00    +0.000 HD
ENDBRANCH   1  18
BRANCH   3  27
ATOM     27  O   UNL     1      -8.768  53.078  49.150  0.00  0.00    +0.000 OA
ATOM     28  H   UNL     1      -8.500  52.396  49.734  0.00  0.00    +0.000 HD
ENDBRANCH   3  27
BRANCH   5  29
ATOM     29  C   UNL     1     -12.922  56.822  50.293  0.00  0.00    +0.000 C 
BRANCH  29  30
ATOM     30  C   UNL     1     -14.255  56.212  50.766  0.00  0.00    +0.000 C 
BRANCH  30  31
ATOM     31  C   UNL     1     -15.198  57.223  51.357  0.00  0.00    +0.000 C 
ATOM     32  C   UNL     1     -14.779  58.258  52.368  0.00  0.00    +0.000 C 
ATOM     33  C   UNL     1     -15.589  57.071  52.804  0.00  0.00    +0.000 C 
ENDBRANCH  30  31
ENDBRANCH  29  30
ENDBRANCH   5  29
TORSDOF 5
ENDMDL
MODEL 8
REMARK VINA RESULT:      -8.0      4.910      7.788
REMARK  Name = 338168
REMARK  5 active torsions:
REMARK  status: ('A' for Active; 'I' for Inactive)
REMARK    1  A    between atoms: C_6  and  C_10
REMARK    2  A    between atoms: C_14  and  O_18
REMARK    3  A    between atoms: N_17  and  C_21
REMARK    4  A    between atoms: C_21  and  C_24
REMARK    5  A    between atoms: C_24  and  C_27
REMARK                            x       y       z     vdW  Elec       q    Type
REMARK                         _______ _______ _______ _____ _____    ______ ____
ROOT
ATOM      1  C   UNL     1     -11.383  54.254  47.912  0.00  0.00    +0.000 A 
ATOM      2  C   UNL     1     -11.473  53.423  49.141  0.00  0.00    +0.000 A 
ATOM      3  C   UNL     1     -12.044  55.422  47.837  0.00  0.00    +0.000 A 
ATOM      4  O   UNL     1     -10.987  52.292  49.097  0.00  0.00    +0.000 OA
ATOM      5  N   UNL     1     -12.062  53.969  50.284  0.00  0.00    +0.000 N 
ATOM      6  C   UNL     1     -12.806  55.921  48.985  0.00  0.00    +0.000 A 
ATOM      7  C   UNL     1     -12.792  55.209  50.203  0.00  0.00    +0.000 A 
ATOM      8  C   UNL     1     -13.506  57.137  48.883  0.00  0.00    +0.000 A 
ATOM      9  C   UNL     1     -13.499  55.753  51.293  0.00  0.00    +0.000 A 
ATOM     10  C   UNL     1     -14.166  57.658  49.983  0.00  0.00    +0.000 A 
ATOM     11  C   UNL     1     -14.166  56.979  51.187  0.00  0.00    +0.000 A 
ATOM     12  F   UNL     1     -14.800  58.834  49.883  0.00  0.00    +0.000 F 
ENDROOT
BRANCH   1  18
ATOM     13  S   UNL     1      -8.181  54.028  45.557  0.00  0.00    +0.000 S 
ATOM     14  O   UNL     1      -7.318  53.259  46.424  0.00  0.00    +0.000 OA
ATOM     15  O   UNL     1      -7.689  55.146  44.782  0.00  0.00    +0.000 OA
ATOM     16  N   UNL     1      -9.444  54.590  46.454  0.00  0.00    +0.000 N 
ATOM     17  C   UNL     1      -8.979  52.924  44.474  0.00  0.00    +0.000 A 
ATOM     18  C   UNL     1     -10.563  53.816  46.745  0.00  0.00    +0.000 C 
ATOM     19  C   UNL     1     -10.234  52.452  44.852  0.00  0.00    +0.000 A 
ATOM     20  C   UNL     1      -8.378  52.571  43.265  0.00  0.00    +0.000 A 
ATOM     21  N   UNL     1     -10.897  52.773  46.045  0.00  0.00    +0.000 N 
ATOM     22  C   UNL     1     -10.902  51.606  43.961  0.00  0.00    +0.000 A 
ATOM     23  C   UNL     1      -9.055  51.713  42.400  0.00  0.00    +0.000 A 
ATOM     24  C   UNL     1     -10.321  51.238  42.742  0.00  0.00    +0.000 A 
ATOM     25  H   UNL     1      -9.406  55.512  46.799  0.00  0.00    +0.000 HD
ATOM     26  H   UNL     1     -11.631  52.197  46.358  0.00  0.00    +0.000 HD
ENDBRANCH   1  18
BRANCH   3  27
ATOM     27  O   UNL     1     -12.050  56.254  46.727  0.00  0.00    +0.000 OA
ATOM     28  H   UNL     1     -12.460  57.095  46.775  0.00  0.00    +0.000 HD
ENDBRANCH   3  27
BRANCH   5  29
ATOM     29  C   UNL     1     -12.103  53.162  51.526  0.00  0.00    +0.000 C 
BRANCH  29  30
ATOM     30  C   UNL     1     -10.848  53.210  52.417  0.00  0.00    +0.000 C 
BRANCH  30  31
ATOM     31  C   UNL     1     -10.389  54.607  52.727  0.00  0.00    +0.000 C 
ATOM     32  C   UNL     1      -9.186  55.248  52.087  0.00  0.00    +0.000 C 
ATOM     33  C   UNL     1      -9.115  54.781  53.512  0.00  0.00    +0.000 C 
ENDBRANCH  30  31
ENDBRANCH  29  30
ENDBRANCH   5  29
TORSDOF 5
ENDMDL
MODEL 9
REMARK VINA RESULT:      -7.9      3.611      7.545
REMARK  Name = 338168
REMARK  5 active torsions:
REMARK  status: ('A' for Active; 'I' for Inactive)
REMARK    1  A    between atoms: C_6  and  C_10
REMARK    2  A    between atoms: C_14  and  O_18
REMARK    3  A    between atoms: N_17  and  C_21
REMARK    4  A    between atoms: C_21  and  C_24
REMARK    5  A    between atoms: C_24  and  C_27
REMARK                            x       y       z     vdW  Elec       q    Type
REMARK                         _______ _______ _______ _____ _____    ______ ____
ROOT
ATOM      1  C   UNL     1      -9.888  55.401  50.486  0.00  0.00    +0.000 A 
ATOM      2  C   UNL     1     -10.084  55.653  49.035  0.00  0.00    +0.000 A 
ATOM      3  C   UNL     1     -10.909  55.562  51.344  0.00  0.00    +0.000 A 
ATOM      4  O   UNL     1      -9.082  55.651  48.318  0.00  0.00    +0.000 OA
ATOM      5  N   UNL     1     -11.381  55.840  48.551  0.00  0.00    +0.000 N 
ATOM      6  C   UNL     1     -12.242  55.925  50.854  0.00  0.00    +0.000 A 
ATOM      7  C   UNL     1     -12.477  56.038  49.467  0.00  0.00    +0.000 A 
ATOM      8  C   UNL     1     -13.297  56.108  51.768  0.00  0.00    +0.000 A 
ATOM      9  C   UNL     1     -13.784  56.340  49.041  0.00  0.00    +0.000 A 
ATOM     10  C   UNL     1     -14.577  56.375  51.314  0.00  0.00    +0.000 A 
ATOM     11  C   UNL     1     -14.831  56.489  49.959  0.00  0.00    +0.000 A 
ATOM     12  F   UNL     1     -15.579  56.511  52.192  0.00  0.00    +0.000 F 
ENDROOT
BRANCH   1  18
ATOM     13  S   UNL     1      -6.999  54.910  53.182  0.00  0.00    +0.000 S 
ATOM     14  O   UNL     1      -7.637  53.917  54.017  0.00  0.00    +0.000 OA
ATOM     15  O   UNL     1      -6.243  56.009  53.740  0.00  0.00    +0.000 OA
ATOM     16  N   UNL     1      -8.146  55.570  52.199  0.00  0.00    +0.000 N 
ATOM     17  C   UNL     1      -5.987  54.078  52.036  0.00  0.00    +0.000 A 
ATOM     18  C   UNL     1      -8.564  54.964  51.018  0.00  0.00    +0.000 C 
ATOM     19  C   UNL     1      -6.539  53.782  50.791  0.00  0.00    +0.000 A 
ATOM     20  C   UNL     1      -4.666  53.767  52.365  0.00  0.00    +0.000 A 
ATOM     21  N   UNL     1      -7.850  54.075  50.395  0.00  0.00    +0.000 N 
ATOM     22  C   UNL     1      -5.712  53.162  49.849  0.00  0.00    +0.000 A 
ATOM     23  C   UNL     1      -3.866  53.133  51.415  0.00  0.00    +0.000 A 
ATOM     24  C   UNL     1      -4.384  52.839  50.154  0.00  0.00    +0.000 A 
ATOM     25  H   UNL     1      -8.552  56.429  52.458  0.00  0.00    +0.000 HD
ATOM     26  H   UNL     1      -8.240  53.597  49.627  0.00  0.00    +0.000 HD
ENDBRANCH   1  18
BRANCH   3  27
ATOM     27  O   UNL     1     -10.822  55.383  52.716  0.00  0.00    +0.000 OA
ATOM     28  H   UNL     1     -11.035  56.088  53.295  0.00  0.00    +0.000 HD
ENDBRANCH   3  27
BRANCH   5  29
ATOM     29  C   UNL     1     -11.584  56.037  47.096  0.00  0.00    +0.000 C 
BRANCH  29  30
ATOM     30  C   UNL     1     -11.952  54.785  46.279  0.00  0.00    +0.000 C 
BRANCH  30  31
ATOM     31  C   UNL     1     -10.775  54.156  45.588  0.00  0.00    +0.000 C 
ATOM     32  C   UNL     1     -10.903  53.081  44.541  0.00  0.00    +0.000 C 
ATOM     33  C   UNL     1     -10.433  52.726  45.922  0.00  0.00    +0.000 C 
ENDBRANCH  30  31
ENDBRANCH  29  30
ENDBRANCH   5  29
TORSDOF 5
ENDMDL
