MODEL 1
REMARK VINA RESULT:      -8.6      0.000      0.000
REMARK  Name = 338168
REMARK  5 active torsions:
REMARK  status: ('A' for Active; 'I' for Inactive)
REMARK    1  A    between atoms: C_6  and  C_10
REMARK    2  A    between atoms: C_14  and  O_18
REMARK    3  A    between atoms: N_17  and  C_21
REMARK    4  A    between atoms: C_21  and  C_24
REMARK    5  A    between atoms: C_24  and  C_27
REMARK                            x       y       z     vdW  Elec       q    Type
REMARK                         _______ _______ _______ _____ _____    ______ ____
ROOT
ATOM      1  C   UNL     1      -9.995  54.554  52.369  0.00  0.00    +0.000 A 
ATOM      2  C   UNL     1      -8.601  55.058  52.259  0.00  0.00    +0.000 A 
ATOM      3  C   UNL     1     -10.249  53.423  53.050  0.00  0.00    +0.000 A 
ATOM      4  O   UNL     1      -8.397  55.995  51.483  0.00  0.00    +0.000 OA
ATOM      5  N   UNL     1      -7.609  54.483  53.053  0.00  0.00    +0.000 N 
ATOM      6  C   UNL     1      -9.169  52.710  53.742  0.00  0.00    +0.000 A 
ATOM      7  C   UNL     1      -7.867  53.253  53.760  0.00  0.00    +0.000 A 
ATOM      8  C   UNL     1      -9.447  51.511  54.422  0.00  0.00    +0.000 A 
ATOM      9  C   UNL     1      -6.874  52.556  54.474  0.00  0.00    +0.000 A 
ATOM     10  C   UNL     1      -8.453  50.865  55.136  0.00  0.00    +0.000 A 
ATOM     11  C   UNL     1      -7.169  51.379  55.171  0.00  0.00    +0.000 A 
ATOM     12  F   UNL     1      -8.737  49.741  55.805  0.00  0.00    +0.000 F 
ENDROOT
BRANCH   1  18
ATOM     13  S   UNL     1     -12.381  55.791  49.430  0.00  0.00    +0.000 S 
ATOM     14  O   UNL     1     -13.058  54.546  49.146  0.00  0.00    +0.000 OA
ATOM     15  O   UNL     1     -11.943  56.682  48.378  0.00  0.00    +0.000 OA
ATOM     16  N   UNL     1     -11.059  55.461  50.357  0.00  0.00    +0.000 N 
ATOM     17  C   UNL     1     -13.370  56.700  50.538  0.00  0.00    +0.000 A 
ATOM     18  C   UNL     1     -11.131  55.282  51.737  0.00  0.00    +0.000 C 
ATOM     19  C   UNL     1     -13.108  56.560  51.896  0.00  0.00    +0.000 A 
ATOM     20  C   UNL     1     -14.363  57.556  50.047  0.00  0.00    +0.000 A 
ATOM     21  N   UNL     1     -12.119  55.731  52.449  0.00  0.00    +0.000 N 
ATOM     22  C   UNL     1     -13.869  57.326  52.783  0.00  0.00    +0.000 A 
ATOM     23  C   UNL     1     -15.117  58.303  50.952  0.00  0.00    +0.000 A 
ATOM     24  C   UNL     1     -14.865  58.193  52.317  0.00  0.00    +0.000 A 
ATOM     25  H   UNL     1     -10.181  55.385  49.918  0.00  0.00    +0.000 HD
ATOM     26  H   UNL     1     -12.176  55.485  53.401  0.00  0.00    +0.000 HD
ENDBRANCH   1  18
BRANCH   3  27
ATOM     27  O   UNL     1     -11.505  52.851  53.188  0.00  0.00    +0.000 OA
ATOM     28  H   UNL     1     -11.676  52.004  52.825  0.00  0.00    +0.000 HD
ENDBRANCH   3  27
BRANCH   5  29
ATOM     29  C   UNL     1      -6.231  55.027  52.990  0.00  0.00    +0.000 C 
BRANCH  29  30
ATOM     30  C   UNL     1      -5.217  54.235  52.143  0.00  0.00    +0.000 C 
BRANCH  30  31
ATOM     31  C   UNL     1      -5.337  54.507  50.668  0.00  0.00    +0.000 C 
ATOM     32  C   UNL     1      -6.136  53.645  49.727  0.00  0.00    +0.000 C 
ATOM     33  C   UNL     1      -4.635  53.578  49.710  0.00  0.00    +0.000 C 
ENDBRANCH  30  31
ENDBRANCH  29  30
ENDBRANCH   5  29
TORSDOF 5
ENDMDL
MODEL 2
REMARK VINA RESULT:      -8.3      3.860      7.425
REMARK  Name = 338168
REMARK  5 active torsions:
REMARK  status: ('A' for Active; 'I' for Inactive)
REMARK    1  A    between atoms: C_6  and  C_10
REMARK    2  A    between atoms: C_14  and  O_18
REMARK    3  A    between atoms: N_17  and  C_21
REMARK    4  A    between atoms: C_21  and  C_24
REMARK    5  A    between atoms: C_24  and  C_27
REMARK                            x       y       z     vdW  Elec       q    Type
REMARK                         _______ _______ _______ _____ _____    ______ ____
ROOT
ATOM      1  C   UNL     1     -10.166  55.113  50.858  0.00  0.00    +0.000 A 
ATOM      2  C   UNL     1      -9.809  55.183  49.416  0.00  0.00    +0.000 A 
ATOM      3  C   UNL     1     -11.360  55.565  51.278  0.00  0.00    +0.000 A 
ATOM      4  O   UNL     1      -8.645  54.920  49.107  0.00  0.00    +0.000 OA
ATOM      5  N   UNL     1     -10.802  55.501  48.489  0.00  0.00    +0.000 N 
ATOM      6  C   UNL     1     -12.345  56.073  50.316  0.00  0.00    +0.000 A 
ATOM      7  C   UNL     1     -12.072  56.016  48.934  0.00  0.00    +0.000 A 
ATOM      8  C   UNL     1     -13.577  56.573  50.776  0.00  0.00    +0.000 A 
ATOM      9  C   UNL     1     -13.066  56.474  48.047  0.00  0.00    +0.000 A 
ATOM     10  C   UNL     1     -14.542  56.991  49.877  0.00  0.00    +0.000 A 
ATOM     11  C   UNL     1     -14.299  56.943  48.516  0.00  0.00    +0.000 A 
ATOM     12  F   UNL     1     -15.722  57.436  50.326  0.00  0.00    +0.000 F 
ENDROOT
BRANCH   1  18
ATOM     13  S   UNL     1      -6.875  54.899  53.090  0.00  0.00    +0.000 S 
ATOM     14  O   UNL     1      -7.148  55.984  54.005  0.00  0.00    +0.000 OA
ATOM     15  O   UNL     1      -5.557  54.678  52.537  0.00  0.00    +0.000 OA
ATOM     16  N   UNL     1      -7.913  55.023  51.816  0.00  0.00    +0.000 N 
ATOM     17  C   UNL     1      -7.408  53.418  53.836  0.00  0.00    +0.000 A 
ATOM     18  C   UNL     1      -9.221  54.544  51.860  0.00  0.00    +0.000 C 
ATOM     19  C   UNL     1      -8.694  52.980  53.545  0.00  0.00    +0.000 A 
ATOM     20  C   UNL     1      -6.538  52.702  54.666  0.00  0.00    +0.000 A 
ATOM     21  N   UNL     1      -9.607  53.643  52.710  0.00  0.00    +0.000 N 
ATOM     22  C   UNL     1      -9.105  51.767  54.105  0.00  0.00    +0.000 A 
ATOM     23  C   UNL     1      -6.973  51.499  55.222  0.00  0.00    +0.000 A 
ATOM     24  C   UNL     1      -8.252  51.030  54.935  0.00  0.00    +0.000 A 
ATOM     25  H   UNL     1      -7.597  55.455  50.990  0.00  0.00    +0.000 HD
ATOM     26  H   UNL     1     -10.564  53.419  52.771  0.00  0.00    +0.000 HD
ENDBRANCH   1  18
BRANCH   3  27
ATOM     27  O   UNL     1     -11.779  55.575  52.600  0.00  0.00    +0.000 OA
ATOM     28  H   UNL     1     -11.592  56.313  53.145  0.00  0.00    +0.000 HD
ENDBRANCH   3  27
BRANCH   5  29
ATOM     29  C   UNL     1     -10.462  55.509  47.046  0.00  0.00    +0.000 C 
BRANCH  29  30
ATOM     30  C   UNL     1     -10.306  54.135  46.368  0.00  0.00    +0.000 C 
BRANCH  30  31
ATOM     31  C   UNL     1     -11.320  53.890  45.285  0.00  0.00    +0.000 C 
ATOM     32  C   UNL     1     -12.038  52.578  45.102  0.00  0.00    +0.000 C 
ATOM     33  C   UNL     1     -10.945  52.972  44.149  0.00  0.00    +0.000 C 
ENDBRANCH  30  31
ENDBRANCH  29  30
ENDBRANCH   5  29
TORSDOF 5
ENDMDL
MODEL 3
REMARK VINA RESULT:      -8.3      3.858      5.436
REMARK  Name = 338168
REMARK  5 active torsions:
REMARK  status: ('A' for Active; 'I' for Inactive)
REMARK    1  A    between atoms: C_6  and  C_10
REMARK    2  A    between atoms: C_14  and  O_18
REMARK    3  A    between atoms: N_17  and  C_21
REMARK    4  A    between atoms: C_21  and  C_24
REMARK    5  A    between atoms: C_24  and  C_27
REMARK                            x       y       z     vdW  Elec       q    Type
REMARK                         _______ _______ _______ _____ _____    ______ ____
ROOT
ATOM      1  C   UNL     1     -11.530  55.754  48.952  0.00  0.00    +0.000 A 
ATOM      2  C   UNL     1     -10.449  55.062  49.704  0.00  0.00    +0.000 A 
ATOM      3  C   UNL     1     -11.709  55.498  47.644  0.00  0.00    +0.000 A 
ATOM      4  O   UNL     1     -10.214  55.457  50.848  0.00  0.00    +0.000 OA
ATOM      5  N   UNL     1      -9.787  53.991  49.104  0.00  0.00    +0.000 N 
ATOM      6  C   UNL     1     -10.886  54.493  46.961  0.00  0.00    +0.000 A 
ATOM      7  C   UNL     1      -9.952  53.733  47.696  0.00  0.00    +0.000 A 
ATOM      8  C   UNL     1     -11.064  54.261  45.586  0.00  0.00    +0.000 A 
ATOM      9  C   UNL     1      -9.217  52.749  47.006  0.00  0.00    +0.000 A 
ATOM     10  C   UNL     1     -10.344  53.269  44.944  0.00  0.00    +0.000 A 
ATOM     11  C   UNL     1      -9.424  52.509  45.643  0.00  0.00    +0.000 A 
ATOM     12  F   UNL     1     -10.545  53.037  43.641  0.00  0.00    +0.000 F 
ENDROOT
BRANCH   1  18
ATOM     13  S   UNL     1     -13.512  59.171  49.450  0.00  0.00    +0.000 S 
ATOM     14  O   UNL     1     -14.502  59.015  48.409  0.00  0.00    +0.000 OA
ATOM     15  O   UNL     1     -12.857  60.436  49.700  0.00  0.00    +0.000 OA
ATOM     16  N   UNL     1     -12.322  58.058  49.203  0.00  0.00    +0.000 N 
ATOM     17  C   UNL     1     -14.211  58.615  50.945  0.00  0.00    +0.000 A 
ATOM     18  C   UNL     1     -12.431  56.733  49.622  0.00  0.00    +0.000 C 
ATOM     19  C   UNL     1     -13.987  57.291  51.305  0.00  0.00    +0.000 A 
ATOM     20  C   UNL     1     -14.938  59.501  51.748  0.00  0.00    +0.000 A 
ATOM     21  N   UNL     1     -13.256  56.359  50.551  0.00  0.00    +0.000 N 
ATOM     22  C   UNL     1     -14.507  56.857  52.527  0.00  0.00    +0.000 A 
ATOM     23  C   UNL     1     -15.456  59.042  52.960  0.00  0.00    +0.000 A 
ATOM     24  C   UNL     1     -15.234  57.725  53.351  0.00  0.00    +0.000 A 
ATOM     25  H   UNL     1     -11.501  58.339  48.740  0.00  0.00    +0.000 HD
ATOM     26  H   UNL     1     -13.371  55.399  50.733  0.00  0.00    +0.000 HD
ENDBRANCH   1  18
BRANCH   3  27
ATOM     27  O   UNL     1     -12.664  56.108  46.845  0.00  0.00    +0.000 OA
ATOM     28  H   UNL     1     -13.484  55.683  46.687  0.00  0.00    +0.000 HD
ENDBRANCH   3  27
BRANCH   5  29
ATOM     29  C   UNL     1      -8.753  53.261  49.876  0.00  0.00    +0.000 C 
BRANCH  29  30
ATOM     30  C   UNL     1      -7.524  54.076  50.320  0.00  0.00    +0.000 C 
BRANCH  30  31
ATOM     31  C   UNL     1      -6.867  54.822  49.191  0.00  0.00    +0.000 C 
ATOM     32  C   UNL     1      -5.948  54.172  48.191  0.00  0.00    +0.000 C 
ATOM     33  C   UNL     1      -5.381  55.061  49.260  0.00  0.00    +0.000 C 
ENDBRANCH  30  31
ENDBRANCH  29  30
ENDBRANCH   5  29
TORSDOF 5
ENDMDL
MODEL 4
REMARK VINA RESULT:      -8.2      3.675      7.282
REMARK  Name = 338168
REMARK  5 active torsions:
REMARK  status: ('A' for Active; 'I' for Inactive)
REMARK    1  A    between atoms: C_6  and  C_10
REMARK    2  A    between atoms: C_14  and  O_18
REMARK    3  A    between atoms: N_17  and  C_21
REMARK    4  A    between atoms: C_21  and  C_24
REMARK    5  A    between atoms: C_24  and  C_27
REMARK                            x       y       z     vdW  Elec       q    Type
REMARK                         _______ _______ _______ _____ _____    ______ ____
ROOT
ATOM      1  C   UNL     1     -10.160  55.457  50.470  0.00  0.00    +0.000 A 
ATOM      2  C   UNL     1     -10.336  55.713  49.016  0.00  0.00    +0.000 A 
ATOM      3  C   UNL     1     -11.195  55.624  51.312  0.00  0.00    +0.000 A 
ATOM      4  O   UNL     1      -9.321  55.715  48.315  0.00  0.00    +0.000 OA
ATOM      5  N   UNL     1     -11.624  55.898  48.512  0.00  0.00    +0.000 N 
ATOM      6  C   UNL     1     -12.518  55.999  50.801  0.00  0.00    +0.000 A 
ATOM      7  C   UNL     1     -12.730  56.109  49.411  0.00  0.00    +0.000 A 
ATOM      8  C   UNL     1     -13.581  56.202  51.699  0.00  0.00    +0.000 A 
ATOM      9  C   UNL     1     -14.029  56.427  48.967  0.00  0.00    +0.000 A 
ATOM     10  C   UNL     1     -14.851  56.488  51.228  0.00  0.00    +0.000 A 
ATOM     11  C   UNL     1     -15.085  56.599  49.869  0.00  0.00    +0.000 A 
ATOM     12  F   UNL     1     -15.861  56.649  52.091  0.00  0.00    +0.000 F 
ENDROOT
BRANCH   1  18
ATOM     13  S   UNL     1      -6.550  53.775  50.452  0.00  0.00    +0.000 S 
ATOM     14  O   UNL     1      -5.848  54.749  49.648  0.00  0.00    +0.000 OA
ATOM     15  O   UNL     1      -6.341  52.354  50.289  0.00  0.00    +0.000 OA
ATOM     16  N   UNL     1      -8.169  54.042  50.291  0.00  0.00    +0.000 N 
ATOM     17  C   UNL     1      -6.293  54.175  52.128  0.00  0.00    +0.000 A 
ATOM     18  C   UNL     1      -8.849  55.012  51.023  0.00  0.00    +0.000 C 
ATOM     19  C   UNL     1      -7.244  54.975  52.750  0.00  0.00    +0.000 A 
ATOM     20  C   UNL     1      -5.177  53.668  52.803  0.00  0.00    +0.000 A 
ATOM     21  N   UNL     1      -8.389  55.502  52.133  0.00  0.00    +0.000 N 
ATOM     22  C   UNL     1      -7.063  55.256  54.107  0.00  0.00    +0.000 A 
ATOM     23  C   UNL     1      -5.012  53.970  54.155  0.00  0.00    +0.000 A 
ATOM     24  C   UNL     1      -5.958  54.757  54.807  0.00  0.00    +0.000 A 
ATOM     25  H   UNL     1      -8.675  53.493  49.650  0.00  0.00    +0.000 HD
ATOM     26  H   UNL     1      -8.855  56.261  52.553  0.00  0.00    +0.000 HD
ENDBRANCH   1  18
BRANCH   3  27
ATOM     27  O   UNL     1     -11.131  55.444  52.686  0.00  0.00    +0.000 OA
ATOM     28  H   UNL     1     -11.156  54.579  53.046  0.00  0.00    +0.000 HD
ENDBRANCH   3  27
BRANCH   5  29
ATOM     29  C   UNL     1     -11.805  56.090  47.054  0.00  0.00    +0.000 C 
BRANCH  29  30
ATOM     30  C   UNL     1     -12.090  54.825  46.224  0.00  0.00    +0.000 C 
BRANCH  30  31
ATOM     31  C   UNL     1     -10.861  54.252  45.574  0.00  0.00    +0.000 C 
ATOM     32  C   UNL     1     -10.899  53.135  44.565  0.00  0.00    +0.000 C 
ATOM     33  C   UNL     1     -10.426  52.863  45.965  0.00  0.00    +0.000 C 
ENDBRANCH  30  31
ENDBRANCH  29  30
ENDBRANCH   5  29
TORSDOF 5
ENDMDL
MODEL 5
REMARK VINA RESULT:      -8.2      4.005      5.824
REMARK  Name = 338168
REMARK  5 active torsions:
REMARK  status: ('A' for Active; 'I' for Inactive)
REMARK    1  A    between atoms: C_6  and  C_10
REMARK    2  A    between atoms: C_14  and  O_18
REMARK    3  A    between atoms: N_17  and  C_21
REMARK    4  A    between atoms: C_21  and  C_24
REMARK    5  A    between atoms: C_24  and  C_27
REMARK                            x       y       z     vdW  Elec       q    Type
REMARK                         _______ _______ _______ _____ _____    ______ ____
ROOT
ATOM      1  C   UNL     1     -11.519  55.853  48.900  0.00  0.00    +0.000 A 
ATOM      2  C   UNL     1     -10.369  55.228  49.605  0.00  0.00    +0.000 A 
ATOM      3  C   UNL     1     -11.759  55.555  47.611  0.00  0.00    +0.000 A 
ATOM      4  O   UNL     1     -10.088  55.663  50.725  0.00  0.00    +0.000 OA
ATOM      5  N   UNL     1      -9.694  54.170  48.995  0.00  0.00    +0.000 N 
ATOM      6  C   UNL     1     -10.932  54.568  46.907  0.00  0.00    +0.000 A 
ATOM      7  C   UNL     1      -9.926  53.867  47.605  0.00  0.00    +0.000 A 
ATOM      8  C   UNL     1     -11.176  54.292  45.550  0.00  0.00    +0.000 A 
ATOM      9  C   UNL     1      -9.188  52.897  46.899  0.00  0.00    +0.000 A 
ATOM     10  C   UNL     1     -10.450  53.314  44.893  0.00  0.00    +0.000 A 
ATOM     11  C   UNL     1      -9.460  52.612  45.556  0.00  0.00    +0.000 A 
ATOM     12  F   UNL     1     -10.712  53.040  43.609  0.00  0.00    +0.000 F 
ENDROOT
BRANCH   1  18
ATOM     13  S   UNL     1     -13.532  59.240  49.477  0.00  0.00    +0.000 S 
ATOM     14  O   UNL     1     -14.531  59.091  48.443  0.00  0.00    +0.000 OA
ATOM     15  O   UNL     1     -12.887  60.507  49.742  0.00  0.00    +0.000 OA
ATOM     16  N   UNL     1     -12.333  58.143  49.199  0.00  0.00    +0.000 N 
ATOM     17  C   UNL     1     -14.209  58.650  50.969  0.00  0.00    +0.000 A 
ATOM     18  C   UNL     1     -12.423  56.811  49.595  0.00  0.00    +0.000 C 
ATOM     19  C   UNL     1     -13.968  57.323  51.303  0.00  0.00    +0.000 A 
ATOM     20  C   UNL     1     -14.938  59.514  51.794  0.00  0.00    +0.000 A 
ATOM     21  N   UNL     1     -13.234  56.412  50.526  0.00  0.00    +0.000 N 
ATOM     22  C   UNL     1     -14.470  56.863  52.523  0.00  0.00    +0.000 A 
ATOM     23  C   UNL     1     -15.438  59.030  53.003  0.00  0.00    +0.000 A 
ATOM     24  C   UNL     1     -15.198  57.708  53.369  0.00  0.00    +0.000 A 
ATOM     25  H   UNL     1     -11.520  58.442  48.732  0.00  0.00    +0.000 HD
ATOM     26  H   UNL     1     -13.337  55.447  50.693  0.00  0.00    +0.000 HD
ENDBRANCH   1  18
BRANCH   3  27
ATOM     27  O   UNL     1     -12.782  56.102  46.852  0.00  0.00    +0.000 OA
ATOM     28  H   UNL     1     -13.540  55.590  46.648  0.00  0.00    +0.000 HD
ENDBRANCH   3  27
BRANCH   5  29
ATOM     29  C   UNL     1      -8.588  53.505  49.726  0.00  0.00    +0.000 C 
BRANCH  29  30
ATOM     30  C   UNL     1      -8.987  52.390  50.710  0.00  0.00    +0.000 C 
BRANCH  30  31
ATOM     31  C   UNL     1     -10.226  51.646  50.292  0.00  0.00    +0.000 C 
ATOM     32  C   UNL     1     -11.584  51.890  50.896  0.00  0.00    +0.000 C 
ATOM     33  C   UNL     1     -10.819  50.647  51.253  0.00  0.00    +0.000 C 
ENDBRANCH  30  31
ENDBRANCH  29  30
ENDBRANCH   5  29
TORSDOF 5
ENDMDL
MODEL 6
REMARK VINA RESULT:      -8.0      3.513      7.963
REMARK  Name = 338168
REMARK  5 active torsions:
REMARK  status: ('A' for Active; 'I' for Inactive)
REMARK    1  A    between atoms: C_6  and  C_10
REMARK    2  A    between atoms: C_14  and  O_18
REMARK    3  A    between atoms: N_17  and  C_21
REMARK    4  A    between atoms: C_21  and  C_24
REMARK    5  A    between atoms: C_24  and  C_27
REMARK                            x       y       z     vdW  Elec       q    Type
REMARK                         _______ _______ _______ _____ _____    ______ ____
ROOT
ATOM      1  C   UNL     1      -9.976  54.410  50.745  0.00  0.00    +0.000 A 
ATOM      2  C   UNL     1     -11.126  55.310  51.021  0.00  0.00    +0.000 A 
ATOM      3  C   UNL     1      -9.745  53.979  49.492  0.00  0.00    +0.000 A 
ATOM      4  O   UNL     1     -11.397  55.535  52.203  0.00  0.00    +0.000 OA
ATOM      5  N   UNL     1     -11.813  55.880  49.949  0.00  0.00    +0.000 N 
ATOM      6  C   UNL     1     -10.585  54.438  48.380  0.00  0.00    +0.000 A 
ATOM      7  C   UNL     1     -11.592  55.398  48.609  0.00  0.00    +0.000 A 
ATOM      8  C   UNL     1     -10.351  53.951  47.081  0.00  0.00    +0.000 A 
ATOM      9  C   UNL     1     -12.342  55.842  47.502  0.00  0.00    +0.000 A 
ATOM     10  C   UNL     1     -11.088  54.428  46.012  0.00  0.00    +0.000 A 
ATOM     11  C   UNL     1     -12.080  55.371  46.210  0.00  0.00    +0.000 A 
ATOM     12  F   UNL     1     -10.836  53.979  44.776  0.00  0.00    +0.000 F 
ENDROOT
BRANCH   1  18
ATOM     13  S   UNL     1      -6.767  54.503  53.102  0.00  0.00    +0.000 S 
ATOM     14  O   UNL     1      -7.094  55.672  53.887  0.00  0.00    +0.000 OA
ATOM     15  O   UNL     1      -5.426  54.253  52.623  0.00  0.00    +0.000 OA
ATOM     16  N   UNL     1      -7.759  54.470  51.786  0.00  0.00    +0.000 N 
ATOM     17  C   UNL     1      -7.302  53.099  53.982  0.00  0.00    +0.000 A 
ATOM     18  C   UNL     1      -9.059  53.971  51.835  0.00  0.00    +0.000 C 
ATOM     19  C   UNL     1      -8.569  52.605  53.694  0.00  0.00    +0.000 A 
ATOM     20  C   UNL     1      -6.452  52.493  54.915  0.00  0.00    +0.000 A 
ATOM     21  N   UNL     1      -9.462  53.157  52.762  0.00  0.00    +0.000 N 
ATOM     22  C   UNL     1      -8.980  51.450  54.365  0.00  0.00    +0.000 A 
ATOM     23  C   UNL     1      -6.887  51.346  55.579  0.00  0.00    +0.000 A 
ATOM     24  C   UNL     1      -8.147  50.823  55.299  0.00  0.00    +0.000 A 
ATOM     25  H   UNL     1      -7.420  54.818  50.931  0.00  0.00    +0.000 HD
ATOM     26  H   UNL     1     -10.416  52.920  52.813  0.00  0.00    +0.000 HD
ENDBRANCH   1  18
BRANCH   3  27
ATOM     27  O   UNL     1      -8.722  53.115  49.131  0.00  0.00    +0.000 OA
ATOM     28  H   UNL     1      -7.999  53.431  48.625  0.00  0.00    +0.000 HD
ENDBRANCH   3  27
BRANCH   5  29
ATOM     29  C   UNL     1     -12.920  56.826  50.225  0.00  0.00    +0.000 C 
BRANCH  29  30
ATOM     30  C   UNL     1     -14.272  56.206  50.623  0.00  0.00    +0.000 C 
BRANCH  30  31
ATOM     31  C   UNL     1     -15.224  57.199  51.231  0.00  0.00    +0.000 C 
ATOM     32  C   UNL     1     -14.816  58.213  52.267  0.00  0.00    +0.000 C 
ATOM     33  C   UNL     1     -15.627  57.015  52.672  0.00  0.00    +0.000 C 
ENDBRANCH  30  31
ENDBRANCH  29  30
ENDBRANCH   5  29
TORSDOF 5
ENDMDL
MODEL 7
REMARK VINA RESULT:      -8.0      3.138      4.315
REMARK  Name = 338168
REMARK  5 active torsions:
REMARK  status: ('A' for Active; 'I' for Inactive)
REMARK    1  A    between atoms: C_6  and  C_10
REMARK    2  A    between atoms: C_14  and  O_18
REMARK    3  A    between atoms: N_17  and  C_21
REMARK    4  A    between atoms: C_21  and  C_24
REMARK    5  A    between atoms: C_24  and  C_27
REMARK                            x       y       z     vdW  Elec       q    Type
REMARK                         _______ _______ _______ _____ _____    ______ ____
ROOT
ATOM      1  C   UNL     1     -12.093  54.460  50.310  0.00  0.00    +0.000 A 
ATOM      2  C   UNL     1     -11.987  53.904  48.936  0.00  0.00    +0.000 A 
ATOM      3  C   UNL     1     -11.482  53.841  51.336  0.00  0.00    +0.000 A 
ATOM      4  O   UNL     1     -12.703  54.405  48.066  0.00  0.00    +0.000 OA
ATOM      5  N   UNL     1     -11.070  52.882  48.688  0.00  0.00    +0.000 N 
ATOM      6  C   UNL     1     -10.657  52.649  51.102  0.00  0.00    +0.000 A 
ATOM      7  C   UNL     1     -10.437  52.194  49.785  0.00  0.00    +0.000 A 
ATOM      8  C   UNL     1     -10.052  51.994  52.190  0.00  0.00    +0.000 A 
ATOM      9  C   UNL     1      -9.602  51.074  49.607  0.00  0.00    +0.000 A 
ATOM     10  C   UNL     1      -9.216  50.912  51.978  0.00  0.00    +0.000 A 
ATOM     11  C   UNL     1      -8.983  50.448  50.696  0.00  0.00    +0.000 A 
ATOM     12  F   UNL     1      -8.622  50.316  53.018  0.00  0.00    +0.000 F 
ENDROOT
BRANCH   1  18
ATOM     13  S   UNL     1     -14.435  56.953  52.350  0.00  0.00    +0.000 S 
ATOM     14  O   UNL     1     -13.510  57.334  53.393  0.00  0.00    +0.000 OA
ATOM     15  O   UNL     1     -15.829  56.682  52.624  0.00  0.00    +0.000 OA
ATOM     16  N   UNL     1     -13.832  55.624  51.584  0.00  0.00    +0.000 N 
ATOM     17  C   UNL     1     -14.351  58.153  51.091  0.00  0.00    +0.000 A 
ATOM     18  C   UNL     1     -12.867  55.704  50.583  0.00  0.00    +0.000 C 
ATOM     19  C   UNL     1     -13.481  57.914  50.033  0.00  0.00    +0.000 A 
ATOM     20  C   UNL     1     -15.165  59.290  51.154  0.00  0.00    +0.000 A 
ATOM     21  N   UNL     1     -12.650  56.790  49.905  0.00  0.00    +0.000 N 
ATOM     22  C   UNL     1     -13.449  58.854  48.999  0.00  0.00    +0.000 A 
ATOM     23  C   UNL     1     -15.109  60.218  50.115  0.00  0.00    +0.000 A 
ATOM     24  C   UNL     1     -14.257  59.996  49.036  0.00  0.00    +0.000 A 
ATOM     25  H   UNL     1     -14.166  54.736  51.846  0.00  0.00    +0.000 HD
ATOM     26  H   UNL     1     -11.886  56.826  49.286  0.00  0.00    +0.000 HD
ENDBRANCH   1  18
BRANCH   3  27
ATOM     27  O   UNL     1     -11.542  54.256  52.657  0.00  0.00    +0.000 OA
ATOM     28  H   UNL     1     -12.335  54.154  53.145  0.00  0.00    +0.000 HD
ENDBRANCH   3  27
BRANCH   5  29
ATOM     29  C   UNL     1     -10.919  52.370  47.305  0.00  0.00    +0.000 C 
BRANCH  29  30
ATOM     30  C   UNL     1     -10.209  53.299  46.302  0.00  0.00    +0.000 C 
BRANCH  30  31
ATOM     31  C   UNL     1      -8.965  53.933  46.860  0.00  0.00    +0.000 C 
ATOM     32  C   UNL     1      -8.895  55.369  47.308  0.00  0.00    +0.000 C 
ATOM     33  C   UNL     1      -8.244  54.955  46.019  0.00  0.00    +0.000 C 
ENDBRANCH  30  31
ENDBRANCH  29  30
ENDBRANCH   5  29
TORSDOF 5
ENDMDL
MODEL 8
REMARK VINA RESULT:      -8.0      4.919      7.790
REMARK  Name = 338168
REMARK  5 active torsions:
REMARK  status: ('A' for Active; 'I' for Inactive)
REMARK    1  A    between atoms: C_6  and  C_10
REMARK    2  A    between atoms: C_14  and  O_18
REMARK    3  A    between atoms: N_17  and  C_21
REMARK    4  A    between atoms: C_21  and  C_24
REMARK    5  A    between atoms: C_24  and  C_27
REMARK                            x       y       z     vdW  Elec       q    Type
REMARK                         _______ _______ _______ _____ _____    ______ ____
ROOT
ATOM      1  C   UNL     1     -11.377  54.234  47.916  0.00  0.00    +0.000 A 
ATOM      2  C   UNL     1     -11.482  53.395  49.139  0.00  0.00    +0.000 A 
ATOM      3  C   UNL     1     -12.030  55.408  47.848  0.00  0.00    +0.000 A 
ATOM      4  O   UNL     1     -11.012  52.256  49.085  0.00  0.00    +0.000 OA
ATOM      5  N   UNL     1     -12.065  53.937  50.284  0.00  0.00    +0.000 N 
ATOM      6  C   UNL     1     -12.800  55.900  48.996  0.00  0.00    +0.000 A 
ATOM      7  C   UNL     1     -12.793  55.179  50.208  0.00  0.00    +0.000 A 
ATOM      8  C   UNL     1     -13.504  57.114  48.896  0.00  0.00    +0.000 A 
ATOM      9  C   UNL     1     -13.509  55.715  51.297  0.00  0.00    +0.000 A 
ATOM     10  C   UNL     1     -14.176  57.625  49.993  0.00  0.00    +0.000 A 
ATOM     11  C   UNL     1     -14.183  56.938  51.193  0.00  0.00    +0.000 A 
ATOM     12  F   UNL     1     -14.817  58.796  49.895  0.00  0.00    +0.000 F 
ENDROOT
BRANCH   1  18
ATOM     13  S   UNL     1      -8.168  54.020  45.568  0.00  0.00    +0.000 S 
ATOM     14  O   UNL     1      -7.306  53.242  46.429  0.00  0.00    +0.000 OA
ATOM     15  O   UNL     1      -7.673  55.142  44.801  0.00  0.00    +0.000 OA
ATOM     16  N   UNL     1      -9.432  54.577  46.468  0.00  0.00    +0.000 N 
ATOM     17  C   UNL     1      -8.969  52.924  44.476  0.00  0.00    +0.000 A 
ATOM     18  C   UNL     1     -10.554  53.802  46.751  0.00  0.00    +0.000 C 
ATOM     19  C   UNL     1     -10.221  52.449  44.848  0.00  0.00    +0.000 A 
ATOM     20  C   UNL     1      -8.363  52.580  43.263  0.00  0.00    +0.000 A 
ATOM     21  N   UNL     1     -10.888  52.768  46.042  0.00  0.00    +0.000 N 
ATOM     22  C   UNL     1     -10.885  51.608  43.950  0.00  0.00    +0.000 A 
ATOM     23  C   UNL     1      -9.040  51.732  42.387  0.00  0.00    +0.000 A 
ATOM     24  C   UNL     1     -10.302  51.253  42.728  0.00  0.00    +0.000 A 
ATOM     25  H   UNL     1      -9.391  55.494  46.821  0.00  0.00    +0.000 HD
ATOM     26  H   UNL     1     -11.626  52.193  46.347  0.00  0.00    +0.000 HD
ENDBRANCH   1  18
BRANCH   3  27
ATOM     27  O   UNL     1     -12.025  56.251  46.746  0.00  0.00    +0.000 OA
ATOM     28  H   UNL     1     -12.592  56.997  46.725  0.00  0.00    +0.000 HD
ENDBRANCH   3  27
BRANCH   5  29
ATOM     29  C   UNL     1     -12.113  53.123  51.522  0.00  0.00    +0.000 C 
BRANCH  29  30
ATOM     30  C   UNL     1     -10.873  53.182  52.432  0.00  0.00    +0.000 C 
BRANCH  30  31
ATOM     31  C   UNL     1     -10.422  54.586  52.730  0.00  0.00    +0.000 C 
ATOM     32  C   UNL     1      -9.229  55.231  52.077  0.00  0.00    +0.000 C 
ATOM     33  C   UNL     1      -9.145  54.778  53.507  0.00  0.00    +0.000 C 
ENDBRANCH  30  31
ENDBRANCH  29  30
ENDBRANCH   5  29
TORSDOF 5
ENDMDL
MODEL 9
REMARK VINA RESULT:      -7.9      3.818      7.407
REMARK  Name = 338168
REMARK  5 active torsions:
REMARK  status: ('A' for Active; 'I' for Inactive)
REMARK    1  A    between atoms: C_6  and  C_10
REMARK    2  A    between atoms: C_14  and  O_18
REMARK    3  A    between atoms: N_17  and  C_21
REMARK    4  A    between atoms: C_21  and  C_24
REMARK    5  A    between atoms: C_24  and  C_27
REMARK                            x       y       z     vdW  Elec       q    Type
REMARK                         _______ _______ _______ _____ _____    ______ ____
ROOT
ATOM      1  C   UNL     1     -10.447  55.104  50.734  0.00  0.00    +0.000 A 
ATOM      2  C   UNL     1     -10.149  55.170  49.278  0.00  0.00    +0.000 A 
ATOM      3  C   UNL     1     -11.571  55.661  51.216  0.00  0.00    +0.000 A 
ATOM      4  O   UNL     1      -9.031  54.802  48.912  0.00  0.00    +0.000 OA
ATOM      5  N   UNL     1     -11.146  55.602  48.403  0.00  0.00    +0.000 N 
ATOM      6  C   UNL     1     -12.544  56.282  50.309  0.00  0.00    +0.000 A 
ATOM      7  C   UNL     1     -12.339  56.228  48.915  0.00  0.00    +0.000 A 
ATOM      8  C   UNL     1     -13.699  56.889  50.834  0.00  0.00    +0.000 A 
ATOM      9  C   UNL     1     -13.322  56.798  48.083  0.00  0.00    +0.000 A 
ATOM     10  C   UNL     1     -14.658  57.417  49.987  0.00  0.00    +0.000 A 
ATOM     11  C   UNL     1     -14.481  57.374  48.616  0.00  0.00    +0.000 A 
ATOM     12  F   UNL     1     -15.768  57.965  50.497  0.00  0.00    +0.000 F 
ENDROOT
BRANCH   1  18
ATOM     13  S   UNL     1      -8.966  52.124  52.921  0.00  0.00    +0.000 S 
ATOM     14  O   UNL     1      -8.435  51.302  51.857  0.00  0.00    +0.000 OA
ATOM     15  O   UNL     1      -9.660  51.555  54.055  0.00  0.00    +0.000 OA
ATOM     16  N   UNL     1      -9.976  53.242  52.254  0.00  0.00    +0.000 N 
ATOM     17  C   UNL     1      -7.675  53.128  53.520  0.00  0.00    +0.000 A 
ATOM     18  C   UNL     1      -9.518  54.426  51.682  0.00  0.00    +0.000 C 
ATOM     19  C   UNL     1      -7.543  54.398  52.971  0.00  0.00    +0.000 A 
ATOM     20  C   UNL     1      -6.840  52.658  54.540  0.00  0.00    +0.000 A 
ATOM     21  N   UNL     1      -8.355  54.933  51.958  0.00  0.00    +0.000 N 
ATOM     22  C   UNL     1      -6.537  55.222  53.485  0.00  0.00    +0.000 A 
ATOM     23  C   UNL     1      -5.838  53.495  55.030  0.00  0.00    +0.000 A 
ATOM     24  C   UNL     1      -5.692  54.777  54.508  0.00  0.00    +0.000 A 
ATOM     25  H   UNL     1     -10.945  53.066  52.260  0.00  0.00    +0.000 HD
ATOM     26  H   UNL     1      -8.036  55.710  51.447  0.00  0.00    +0.000 HD
ENDBRANCH   1  18
BRANCH   3  27
ATOM     27  O   UNL     1     -11.929  55.684  52.556  0.00  0.00    +0.000 OA
ATOM     28  H   UNL     1     -12.770  56.007  52.811  0.00  0.00    +0.000 HD
ENDBRANCH   3  27
BRANCH   5  29
ATOM     29  C   UNL     1     -10.871  55.608  46.946  0.00  0.00    +0.000 C 
BRANCH  29  30
ATOM     30  C   UNL     1     -11.405  54.408  46.142  0.00  0.00    +0.000 C 
BRANCH  30  31
ATOM     31  C   UNL     1     -10.360  53.767  45.270  0.00  0.00    +0.000 C 
ATOM     32  C   UNL     1     -10.684  52.799  44.162  0.00  0.00    +0.000 C 
ATOM     33  C   UNL     1     -10.087  52.295  45.445  0.00  0.00    +0.000 C 
ENDBRANCH  30  31
ENDBRANCH  29  30
ENDBRANCH   5  29
TORSDOF 5
ENDMDL
