MODEL 1
REMARK VINA RESULT:      -8.2      0.000      0.000
REMARK  Name = 338622
REMARK  5 active torsions:
REMARK  status: ('A' for Active; 'I' for Inactive)
REMARK    1  A    between atoms: C_6  and  C_10
REMARK    2  A    between atoms: C_14  and  O_18
REMARK    3  A    between atoms: N_17  and  C_21
REMARK    4  A    between atoms: C_21  and  C_24
REMARK    5  A    between atoms: C_24  and  C_27
REMARK                            x       y       z     vdW  Elec       q    Type
REMARK                         _______ _______ _______ _____ _____    ______ ____
ROOT
ATOM      1  C   UNL     1     -10.221  54.373  52.309  0.00  0.00    +0.000 A 
ATOM      2  C   UNL     1      -8.817  54.885  52.230  0.00  0.00    +0.000 A 
ATOM      3  C   UNL     1     -10.493  53.266  53.022  0.00  0.00    +0.000 A 
ATOM      4  O   UNL     1      -8.616  55.953  51.643  0.00  0.00    +0.000 OA
ATOM      5  N   UNL     1      -7.802  54.150  52.832  0.00  0.00    +0.000 N 
ATOM      6  C   UNL     1      -9.424  52.562  53.745  0.00  0.00    +0.000 A 
ATOM      7  C   UNL     1      -8.098  53.015  53.651  0.00  0.00    +0.000 A 
ATOM      8  C   UNL     1      -9.720  51.445  54.547  0.00  0.00    +0.000 A 
ATOM      9  C   UNL     1      -7.105  52.352  54.392  0.00  0.00    +0.000 A 
ATOM     10  C   UNL     1      -8.720  50.789  55.263  0.00  0.00    +0.000 A 
ATOM     11  C   UNL     1      -7.413  51.247  55.188  0.00  0.00    +0.000 A 
ENDROOT
BRANCH   1  17
ATOM     12  S   UNL     1     -12.466  55.981  49.503  0.00  0.00    +0.000 S 
ATOM     13  O   UNL     1     -13.386  55.029  48.913  0.00  0.00    +0.000 OA
ATOM     14  O   UNL     1     -11.765  56.937  48.668  0.00  0.00    +0.000 OA
ATOM     15  N   UNL     1     -11.356  55.145  50.339  0.00  0.00    +0.000 N 
ATOM     16  C   UNL     1     -13.408  56.931  50.639  0.00  0.00    +0.000 A 
ATOM     17  C   UNL     1     -11.339  55.156  51.639  0.00  0.00    +0.000 C 
ATOM     18  C   UNL     1     -13.178  56.739  51.991  0.00  0.00    +0.000 A 
ATOM     19  C   UNL     1     -14.347  57.854  50.168  0.00  0.00    +0.000 A 
ATOM     20  N   UNL     1     -12.242  55.813  52.447  0.00  0.00    +0.000 N 
ATOM     21  C   UNL     1     -13.971  57.446  52.901  0.00  0.00    +0.000 A 
ATOM     22  C   UNL     1     -15.101  58.580  51.085  0.00  0.00    +0.000 A 
ATOM     23  C   UNL     1     -14.920  58.369  52.452  0.00  0.00    +0.000 A 
ATOM     24  H   UNL     1     -10.681  54.618  49.852  0.00  0.00    +0.000 HD
ATOM     25  H   UNL     1     -12.224  55.615  53.411  0.00  0.00    +0.000 HD
ENDBRANCH   1  17
BRANCH   3  26
ATOM     26  O   UNL     1     -11.758  52.724  53.176  0.00  0.00    +0.000 OA
ATOM     27  H   UNL     1     -12.508  53.285  53.192  0.00  0.00    +0.000 HD
ENDBRANCH   3  26
BRANCH   5  28
ATOM     28  C   UNL     1      -6.414  54.622  52.680  0.00  0.00    +0.000 C 
BRANCH  28  29
ATOM     29  C   UNL     1      -5.922  55.503  53.844  0.00  0.00    +0.000 C 
BRANCH  29  30
ATOM     30  C   UNL     1      -4.520  55.147  54.266  0.00  0.00    +0.000 C 
ATOM     31  C   UNL     1      -3.849  54.074  53.824  0.00  0.00    +0.000 C 
ENDBRANCH  29  30
ENDBRANCH  28  29
ENDBRANCH   5  28
TORSDOF 5
ENDMDL
MODEL 2
REMARK VINA RESULT:      -7.8      2.424      7.840
REMARK  Name = 338622
REMARK  5 active torsions:
REMARK  status: ('A' for Active; 'I' for Inactive)
REMARK    1  A    between atoms: C_6  and  C_10
REMARK    2  A    between atoms: C_14  and  O_18
REMARK    3  A    between atoms: N_17  and  C_21
REMARK    4  A    between atoms: C_21  and  C_24
REMARK    5  A    between atoms: C_24  and  C_27
REMARK                            x       y       z     vdW  Elec       q    Type
REMARK                         _______ _______ _______ _____ _____    ______ ____
ROOT
ATOM      1  C   UNL     1     -10.725  55.213  50.985  0.00  0.00    +0.000 A 
ATOM      2  C   UNL     1     -11.976  55.807  51.551  0.00  0.00    +0.000 A 
ATOM      3  C   UNL     1     -10.552  55.154  49.652  0.00  0.00    +0.000 A 
ATOM      4  O   UNL     1     -12.063  55.927  52.777  0.00  0.00    +0.000 OA
ATOM      5  N   UNL     1     -12.980  56.211  50.677  0.00  0.00    +0.000 N 
ATOM      6  C   UNL     1     -11.576  55.688  48.742  0.00  0.00    +0.000 A 
ATOM      7  C   UNL     1     -12.769  56.218  49.263  0.00  0.00    +0.000 A 
ATOM      8  C   UNL     1     -11.365  55.690  47.352  0.00  0.00    +0.000 A 
ATOM      9  C   UNL     1     -13.708  56.766  48.372  0.00  0.00    +0.000 A 
ATOM     10  C   UNL     1     -12.314  56.223  46.482  0.00  0.00    +0.000 A 
ATOM     11  C   UNL     1     -13.484  56.765  46.994  0.00  0.00    +0.000 A 
ENDROOT
BRANCH   1  17
ATOM     12  S   UNL     1      -7.255  55.008  52.833  0.00  0.00    +0.000 S 
ATOM     13  O   UNL     1      -7.129  55.989  53.892  0.00  0.00    +0.000 OA
ATOM     14  O   UNL     1      -6.136  54.734  51.951  0.00  0.00    +0.000 OA
ATOM     15  N   UNL     1      -8.521  55.431  51.912  0.00  0.00    +0.000 N 
ATOM     16  C   UNL     1      -7.633  53.486  53.620  0.00  0.00    +0.000 A 
ATOM     17  C   UNL     1      -9.627  54.748  51.928  0.00  0.00    +0.000 C 
ATOM     18  C   UNL     1      -8.911  52.976  53.464  0.00  0.00    +0.000 A 
ATOM     19  C   UNL     1      -6.654  52.823  54.367  0.00  0.00    +0.000 A 
ATOM     20  N   UNL     1      -9.878  53.648  52.720  0.00  0.00    +0.000 N 
ATOM     21  C   UNL     1      -9.237  51.796  54.142  0.00  0.00    +0.000 A 
ATOM     22  C   UNL     1      -6.981  51.629  55.004  0.00  0.00    +0.000 A 
ATOM     23  C   UNL     1      -8.276  51.121  54.899  0.00  0.00    +0.000 A 
ATOM     24  H   UNL     1      -8.450  56.222  51.330  0.00  0.00    +0.000 HD
ATOM     25  H   UNL     1     -10.804  53.316  52.763  0.00  0.00    +0.000 HD
ENDBRANCH   1  17
BRANCH   3  26
ATOM     26  O   UNL     1      -9.425  54.646  49.030  0.00  0.00    +0.000 OA
ATOM     27  H   UNL     1      -9.156  54.985  48.199  0.00  0.00    +0.000 HD
ENDBRANCH   3  26
BRANCH   5  28
ATOM     28  C   UNL     1     -14.239  56.720  51.249  0.00  0.00    +0.000 C 
BRANCH  28  29
ATOM     29  C   UNL     1     -14.162  58.182  51.730  0.00  0.00    +0.000 C 
BRANCH  29  30
ATOM     30  C   UNL     1     -14.981  59.103  50.863  0.00  0.00    +0.000 C 
ATOM     31  C   UNL     1     -14.466  59.924  49.938  0.00  0.00    +0.000 C 
ENDBRANCH  29  30
ENDBRANCH  28  29
ENDBRANCH   5  28
TORSDOF 5
ENDMDL
MODEL 3
REMARK VINA RESULT:      -7.7      4.205      5.493
REMARK  Name = 338622
REMARK  5 active torsions:
REMARK  status: ('A' for Active; 'I' for Inactive)
REMARK    1  A    between atoms: C_6  and  C_10
REMARK    2  A    between atoms: C_14  and  O_18
REMARK    3  A    between atoms: N_17  and  C_21
REMARK    4  A    between atoms: C_21  and  C_24
REMARK    5  A    between atoms: C_24  and  C_27
REMARK                            x       y       z     vdW  Elec       q    Type
REMARK                         _______ _______ _______ _____ _____    ______ ____
ROOT
ATOM      1  C   UNL     1     -12.431  54.261  49.736  0.00  0.00    +0.000 A 
ATOM      2  C   UNL     1     -11.793  54.222  48.383  0.00  0.00    +0.000 A 
ATOM      3  C   UNL     1     -12.221  53.257  50.606  0.00  0.00    +0.000 A 
ATOM      4  O   UNL     1     -11.932  55.201  47.643  0.00  0.00    +0.000 OA
ATOM      5  N   UNL     1     -11.059  53.098  48.021  0.00  0.00    +0.000 N 
ATOM      6  C   UNL     1     -11.351  52.127  50.248  0.00  0.00    +0.000 A 
ATOM      7  C   UNL     1     -10.774  52.066  48.969  0.00  0.00    +0.000 A 
ATOM      8  C   UNL     1     -11.077  51.113  51.183  0.00  0.00    +0.000 A 
ATOM      9  C   UNL     1      -9.908  50.999  48.672  0.00  0.00    +0.000 A 
ATOM     10  C   UNL     1     -10.228  50.055  50.866  0.00  0.00    +0.000 A 
ATOM     11  C   UNL     1      -9.641  50.001  49.610  0.00  0.00    +0.000 A 
ENDROOT
BRANCH   1  17
ATOM     12  S   UNL     1     -15.374  56.443  51.177  0.00  0.00    +0.000 S 
ATOM     13  O   UNL     1     -15.329  56.554  52.621  0.00  0.00    +0.000 OA
ATOM     14  O   UNL     1     -16.639  56.243  50.496  0.00  0.00    +0.000 OA
ATOM     15  N   UNL     1     -14.380  55.237  50.741  0.00  0.00    +0.000 N 
ATOM     16  C   UNL     1     -14.720  57.946  50.550  0.00  0.00    +0.000 A 
ATOM     17  C   UNL     1     -13.253  55.475  50.139  0.00  0.00    +0.000 C 
ATOM     18  C   UNL     1     -13.477  57.908  49.942  0.00  0.00    +0.000 A 
ATOM     19  C   UNL     1     -15.457  59.129  50.664  0.00  0.00    +0.000 A 
ATOM     20  N   UNL     1     -12.752  56.723  49.839  0.00  0.00    +0.000 N 
ATOM     21  C   UNL     1     -12.923  59.114  49.499  0.00  0.00    +0.000 A 
ATOM     22  C   UNL     1     -14.911  60.316  50.183  0.00  0.00    +0.000 A 
ATOM     23  C   UNL     1     -13.639  60.310  49.610  0.00  0.00    +0.000 A 
ATOM     24  H   UNL     1     -14.637  54.307  50.937  0.00  0.00    +0.000 HD
ATOM     25  H   UNL     1     -11.818  56.781  49.530  0.00  0.00    +0.000 HD
ENDBRANCH   1  17
BRANCH   3  26
ATOM     26  O   UNL     1     -12.746  53.208  51.886  0.00  0.00    +0.000 OA
ATOM     27  H   UNL     1     -12.480  53.839  52.526  0.00  0.00    +0.000 HD
ENDBRANCH   3  26
BRANCH   5  28
ATOM     28  C   UNL     1     -10.502  53.037  46.658  0.00  0.00    +0.000 C 
BRANCH  28  29
ATOM     29  C   UNL     1     -11.498  52.527  45.598  0.00  0.00    +0.000 C 
BRANCH  29  30
ATOM     30  C   UNL     1     -10.985  52.736  44.196  0.00  0.00    +0.000 C 
ATOM     31  C   UNL     1      -9.687  52.807  43.871  0.00  0.00    +0.000 C 
ENDBRANCH  29  30
ENDBRANCH  28  29
ENDBRANCH   5  28
TORSDOF 5
ENDMDL
MODEL 4
REMARK VINA RESULT:      -7.6      3.441      4.962
REMARK  Name = 338622
REMARK  5 active torsions:
REMARK  status: ('A' for Active; 'I' for Inactive)
REMARK    1  A    between atoms: C_6  and  C_10
REMARK    2  A    between atoms: C_14  and  O_18
REMARK    3  A    between atoms: N_17  and  C_21
REMARK    4  A    between atoms: C_21  and  C_24
REMARK    5  A    between atoms: C_24  and  C_27
REMARK                            x       y       z     vdW  Elec       q    Type
REMARK                         _______ _______ _______ _____ _____    ______ ____
ROOT
ATOM      1  C   UNL     1     -11.194  56.002  48.952  0.00  0.00    +0.000 A 
ATOM      2  C   UNL     1     -10.130  55.463  49.855  0.00  0.00    +0.000 A 
ATOM      3  C   UNL     1     -11.247  55.609  47.667  0.00  0.00    +0.000 A 
ATOM      4  O   UNL     1     -10.165  55.775  51.050  0.00  0.00    +0.000 OA
ATOM      5  N   UNL     1      -9.159  54.625  49.320  0.00  0.00    +0.000 N 
ATOM      6  C   UNL     1     -10.278  54.635  47.144  0.00  0.00    +0.000 A 
ATOM      7  C   UNL     1      -9.255  54.148  47.975  0.00  0.00    +0.000 A 
ATOM      8  C   UNL     1     -10.376  54.171  45.820  0.00  0.00    +0.000 A 
ATOM      9  C   UNL     1      -8.373  53.181  47.462  0.00  0.00    +0.000 A 
ATOM     10  C   UNL     1      -9.483  53.224  45.323  0.00  0.00    +0.000 A 
ATOM     11  C   UNL     1      -8.484  52.726  46.147  0.00  0.00    +0.000 A 
ENDROOT
BRANCH   1  17
ATOM     12  S   UNL     1     -13.483  59.170  49.429  0.00  0.00    +0.000 S 
ATOM     13  O   UNL     1     -14.600  59.193  48.505  0.00  0.00    +0.000 OA
ATOM     14  O   UNL     1     -12.748  60.385  49.722  0.00  0.00    +0.000 OA
ATOM     15  N   UNL     1     -12.423  58.064  48.897  0.00  0.00    +0.000 N 
ATOM     16  C   UNL     1     -14.130  58.615  50.963  0.00  0.00    +0.000 A 
ATOM     17  C   UNL     1     -12.252  56.936  49.519  0.00  0.00    +0.000 C 
ATOM     18  C   UNL     1     -13.775  57.348  51.396  0.00  0.00    +0.000 A 
ATOM     19  C   UNL     1     -14.967  59.449  51.711  0.00  0.00    +0.000 A 
ATOM     20  N   UNL     1     -12.943  56.526  50.638  0.00  0.00    +0.000 N 
ATOM     21  C   UNL     1     -14.339  56.876  52.586  0.00  0.00    +0.000 A 
ATOM     22  C   UNL     1     -15.489  58.981  52.914  0.00  0.00    +0.000 A 
ATOM     23  C   UNL     1     -15.183  57.691  53.346  0.00  0.00    +0.000 A 
ATOM     24  H   UNL     1     -11.898  58.252  48.084  0.00  0.00    +0.000 HD
ATOM     25  H   UNL     1     -12.843  55.588  50.922  0.00  0.00    +0.000 HD
ENDBRANCH   1  17
BRANCH   3  26
ATOM     26  O   UNL     1     -12.202  56.030  46.757  0.00  0.00    +0.000 OA
ATOM     27  H   UNL     1     -13.112  55.907  46.944  0.00  0.00    +0.000 HD
ENDBRANCH   3  26
BRANCH   5  28
ATOM     28  C   UNL     1      -8.071  54.165  50.201  0.00  0.00    +0.000 C 
BRANCH  28  29
ATOM     29  C   UNL     1      -7.000  55.236  50.484  0.00  0.00    +0.000 C 
BRANCH  29  30
ATOM     30  C   UNL     1      -5.999  55.342  49.363  0.00  0.00    +0.000 C 
ATOM     31  C   UNL     1      -4.914  54.564  49.246  0.00  0.00    +0.000 C 
ENDBRANCH  29  30
ENDBRANCH  28  29
ENDBRANCH   5  28
TORSDOF 5
ENDMDL
MODEL 5
REMARK VINA RESULT:      -7.6      2.493      7.804
REMARK  Name = 338622
REMARK  5 active torsions:
REMARK  status: ('A' for Active; 'I' for Inactive)
REMARK    1  A    between atoms: C_6  and  C_10
REMARK    2  A    between atoms: C_14  and  O_18
REMARK    3  A    between atoms: N_17  and  C_21
REMARK    4  A    between atoms: C_21  and  C_24
REMARK    5  A    between atoms: C_24  and  C_27
REMARK                            x       y       z     vdW  Elec       q    Type
REMARK                         _______ _______ _______ _____ _____    ______ ____
ROOT
ATOM      1  C   UNL     1     -10.525  55.037  50.527  0.00  0.00    +0.000 A 
ATOM      2  C   UNL     1     -11.625  55.409  51.470  0.00  0.00    +0.000 A 
ATOM      3  C   UNL     1     -10.667  55.259  49.207  0.00  0.00    +0.000 A 
ATOM      4  O   UNL     1     -11.427  55.274  52.681  0.00  0.00    +0.000 OA
ATOM      5  N   UNL     1     -12.816  55.902  50.948  0.00  0.00    +0.000 N 
ATOM      6  C   UNL     1     -11.889  55.886  48.683  0.00  0.00    +0.000 A 
ATOM      7  C   UNL     1     -12.941  56.208  49.556  0.00  0.00    +0.000 A 
ATOM      8  C   UNL     1     -12.009  56.182  47.314  0.00  0.00    +0.000 A 
ATOM      9  C   UNL     1     -14.077  56.851  49.034  0.00  0.00    +0.000 A 
ATOM     10  C   UNL     1     -13.149  56.804  46.810  0.00  0.00    +0.000 A 
ATOM     11  C   UNL     1     -14.181  57.142  47.673  0.00  0.00    +0.000 A 
ENDROOT
BRANCH   1  17
ATOM     12  S   UNL     1      -7.387  52.708  51.003  0.00  0.00    +0.000 S 
ATOM     13  O   UNL     1      -6.336  52.988  50.045  0.00  0.00    +0.000 OA
ATOM     14  O   UNL     1      -7.720  51.338  51.346  0.00  0.00    +0.000 OA
ATOM     15  N   UNL     1      -8.740  53.431  50.479  0.00  0.00    +0.000 N 
ATOM     16  C   UNL     1      -6.899  53.477  52.503  0.00  0.00    +0.000 A 
ATOM     17  C   UNL     1      -9.224  54.477  51.081  0.00  0.00    +0.000 C 
ATOM     18  C   UNL     1      -7.605  54.594  52.918  0.00  0.00    +0.000 A 
ATOM     19  C   UNL     1      -5.835  52.952  53.243  0.00  0.00    +0.000 A 
ATOM     20  N   UNL     1      -8.661  55.108  52.168  0.00  0.00    +0.000 N 
ATOM     21  C   UNL     1      -7.179  55.248  54.078  0.00  0.00    +0.000 A 
ATOM     22  C   UNL     1      -5.447  53.591  54.417  0.00  0.00    +0.000 A 
ATOM     23  C   UNL     1      -6.113  54.745  54.830  0.00  0.00    +0.000 A 
ATOM     24  H   UNL     1      -9.205  53.071  49.688  0.00  0.00    +0.000 HD
ATOM     25  H   UNL     1      -9.029  55.982  52.434  0.00  0.00    +0.000 HD
ENDBRANCH   1  17
BRANCH   3  26
ATOM     26  O   UNL     1      -9.702  54.973  48.257  0.00  0.00    +0.000 OA
ATOM     27  H   UNL     1      -9.085  55.630  48.004  0.00  0.00    +0.000 HD
ENDBRANCH   3  26
BRANCH   5  28
ATOM     28  C   UNL     1     -13.921  56.189  51.880  0.00  0.00    +0.000 C 
BRANCH  28  29
ATOM     29  C   UNL     1     -13.791  57.542  52.606  0.00  0.00    +0.000 C 
BRANCH  29  30
ATOM     30  C   UNL     1     -14.976  58.436  52.348  0.00  0.00    +0.000 C 
ATOM     31  C   UNL     1     -14.994  59.420  51.438  0.00  0.00    +0.000 C 
ENDBRANCH  29  30
ENDBRANCH  28  29
ENDBRANCH   5  28
TORSDOF 5
ENDMDL
MODEL 6
REMARK VINA RESULT:      -7.6      3.103      7.414
REMARK  Name = 338622
REMARK  5 active torsions:
REMARK  status: ('A' for Active; 'I' for Inactive)
REMARK    1  A    between atoms: C_6  and  C_10
REMARK    2  A    between atoms: C_14  and  O_18
REMARK    3  A    between atoms: N_17  and  C_21
REMARK    4  A    between atoms: C_21  and  C_24
REMARK    5  A    between atoms: C_24  and  C_27
REMARK                            x       y       z     vdW  Elec       q    Type
REMARK                         _______ _______ _______ _____ _____    ______ ____
ROOT
ATOM      1  C   UNL     1     -10.252  55.169  50.804  0.00  0.00    +0.000 A 
ATOM      2  C   UNL     1      -9.852  55.107  49.363  0.00  0.00    +0.000 A 
ATOM      3  C   UNL     1     -11.462  55.646  51.145  0.00  0.00    +0.000 A 
ATOM      4  O   UNL     1      -8.772  54.581  49.079  0.00  0.00    +0.000 OA
ATOM      5  N   UNL     1     -10.715  55.629  48.406  0.00  0.00    +0.000 N 
ATOM      6  C   UNL     1     -12.408  56.091  50.111  0.00  0.00    +0.000 A 
ATOM      7  C   UNL     1     -12.030  56.068  48.758  0.00  0.00    +0.000 A 
ATOM      8  C   UNL     1     -13.699  56.525  50.463  0.00  0.00    +0.000 A 
ATOM      9  C   UNL     1     -12.972  56.453  47.789  0.00  0.00    +0.000 A 
ATOM     10  C   UNL     1     -14.615  56.918  49.490  0.00  0.00    +0.000 A 
ATOM     11  C   UNL     1     -14.251  56.877  48.151  0.00  0.00    +0.000 A 
ENDROOT
BRANCH   1  17
ATOM     12  S   UNL     1      -7.042  54.690  53.032  0.00  0.00    +0.000 S 
ATOM     13  O   UNL     1      -6.955  55.665  54.100  0.00  0.00    +0.000 OA
ATOM     14  O   UNL     1      -5.858  54.317  52.281  0.00  0.00    +0.000 OA
ATOM     15  N   UNL     1      -8.156  55.209  51.974  0.00  0.00    +0.000 N 
ATOM     16  C   UNL     1      -7.632  53.210  53.768  0.00  0.00    +0.000 A 
ATOM     17  C   UNL     1      -9.310  54.621  51.864  0.00  0.00    +0.000 C 
ATOM     18  C   UNL     1      -8.923  52.807  53.467  0.00  0.00    +0.000 A 
ATOM     19  C   UNL     1      -6.803  52.474  54.620  0.00  0.00    +0.000 A 
ATOM     20  N   UNL     1      -9.740  53.552  52.620  0.00  0.00    +0.000 N 
ATOM     21  C   UNL     1      -9.421  51.664  54.102  0.00  0.00    +0.000 A 
ATOM     22  C   UNL     1      -7.298  51.317  55.213  0.00  0.00    +0.000 A 
ATOM     23  C   UNL     1      -8.610  50.917  54.962  0.00  0.00    +0.000 A 
ATOM     24  H   UNL     1      -7.954  55.988  51.405  0.00  0.00    +0.000 HD
ATOM     25  H   UNL     1     -10.690  53.298  52.558  0.00  0.00    +0.000 HD
ENDBRANCH   1  17
BRANCH   3  26
ATOM     26  O   UNL     1     -11.936  55.725  52.443  0.00  0.00    +0.000 OA
ATOM     27  H   UNL     1     -11.428  55.376  53.148  0.00  0.00    +0.000 HD
ENDBRANCH   3  26
BRANCH   5  28
ATOM     28  C   UNL     1     -10.276  55.635  46.999  0.00  0.00    +0.000 C 
BRANCH  28  29
ATOM     29  C   UNL     1     -10.464  54.286  46.279  0.00  0.00    +0.000 C 
BRANCH  29  30
ATOM     30  C   UNL     1      -9.252  53.906  45.468  0.00  0.00    +0.000 C 
ATOM     31  C   UNL     1      -8.082  54.558  45.511  0.00  0.00    +0.000 C 
ENDBRANCH  29  30
ENDBRANCH  28  29
ENDBRANCH   5  28
TORSDOF 5
ENDMDL
MODEL 7
REMARK VINA RESULT:      -7.6      2.086      2.753
REMARK  Name = 338622
REMARK  5 active torsions:
REMARK  status: ('A' for Active; 'I' for Inactive)
REMARK    1  A    between atoms: C_6  and  C_10
REMARK    2  A    between atoms: C_14  and  O_18
REMARK    3  A    between atoms: N_17  and  C_21
REMARK    4  A    between atoms: C_21  and  C_24
REMARK    5  A    between atoms: C_24  and  C_27
REMARK                            x       y       z     vdW  Elec       q    Type
REMARK                         _______ _______ _______ _____ _____    ______ ____
ROOT
ATOM      1  C   UNL     1     -11.602  54.095  51.127  0.00  0.00    +0.000 A 
ATOM      2  C   UNL     1     -10.636  54.109  52.269  0.00  0.00    +0.000 A 
ATOM      3  C   UNL     1     -11.724  52.993  50.364  0.00  0.00    +0.000 A 
ATOM      4  O   UNL     1     -10.614  55.102  53.003  0.00  0.00    +0.000 OA
ATOM      5  N   UNL     1      -9.817  53.003  52.468  0.00  0.00    +0.000 N 
ATOM      6  C   UNL     1     -10.929  51.791  50.656  0.00  0.00    +0.000 A 
ATOM      7  C   UNL     1      -9.996  51.806  51.707  0.00  0.00    +0.000 A 
ATOM      8  C   UNL     1     -11.108  50.617  49.903  0.00  0.00    +0.000 A 
ATOM      9  C   UNL     1      -9.287  50.627  51.994  0.00  0.00    +0.000 A 
ATOM     10  C   UNL     1     -10.384  49.462  50.191  0.00  0.00    +0.000 A 
ATOM     11  C   UNL     1      -9.476  49.467  51.241  0.00  0.00    +0.000 A 
ENDROOT
BRANCH   1  17
ATOM     12  S   UNL     1     -13.341  57.122  49.308  0.00  0.00    +0.000 S 
ATOM     13  O   UNL     1     -14.444  56.706  48.465  0.00  0.00    +0.000 OA
ATOM     14  O   UNL     1     -12.416  58.143  48.853  0.00  0.00    +0.000 OA
ATOM     15  N   UNL     1     -12.478  55.802  49.683  0.00  0.00    +0.000 N 
ATOM     16  C   UNL     1     -14.061  57.745  50.782  0.00  0.00    +0.000 A 
ATOM     17  C   UNL     1     -12.490  55.305  50.884  0.00  0.00    +0.000 C 
ATOM     18  C   UNL     1     -13.914  56.998  51.940  0.00  0.00    +0.000 A 
ATOM     19  C   UNL     1     -14.746  58.963  50.765  0.00  0.00    +0.000 A 
ATOM     20  N   UNL     1     -13.232  55.784  51.942  0.00  0.00    +0.000 N 
ATOM     21  C   UNL     1     -14.541  57.457  53.103  0.00  0.00    +0.000 A 
ATOM     22  C   UNL     1     -15.331  59.428  51.940  0.00  0.00    +0.000 A 
ATOM     23  C   UNL     1     -15.237  58.670  53.107  0.00  0.00    +0.000 A 
ATOM     24  H   UNL     1     -11.934  55.367  48.986  0.00  0.00    +0.000 HD
ATOM     25  H   UNL     1     -13.284  55.230  52.755  0.00  0.00    +0.000 HD
ENDBRANCH   1  17
BRANCH   3  26
ATOM     26  O   UNL     1     -12.601  52.870  49.300  0.00  0.00    +0.000 OA
ATOM     27  H   UNL     1     -12.896  52.022  49.033  0.00  0.00    +0.000 HD
ENDBRANCH   3  26
BRANCH   5  28
ATOM     28  C   UNL     1      -8.815  53.061  53.547  0.00  0.00    +0.000 C 
BRANCH  28  29
ATOM     29  C   UNL     1      -7.501  53.757  53.143  0.00  0.00    +0.000 C 
BRANCH  29  30
ATOM     30  C   UNL     1      -7.155  54.892  54.073  0.00  0.00    +0.000 C 
ATOM     31  C   UNL     1      -7.066  56.174  53.696  0.00  0.00    +0.000 C 
ENDBRANCH  29  30
ENDBRANCH  28  29
ENDBRANCH   5  28
TORSDOF 5
ENDMDL
MODEL 8
REMARK VINA RESULT:      -7.4      3.917      5.502
REMARK  Name = 338622
REMARK  5 active torsions:
REMARK  status: ('A' for Active; 'I' for Inactive)
REMARK    1  A    between atoms: C_6  and  C_10
REMARK    2  A    between atoms: C_14  and  O_18
REMARK    3  A    between atoms: N_17  and  C_21
REMARK    4  A    between atoms: C_21  and  C_24
REMARK    5  A    between atoms: C_24  and  C_27
REMARK                            x       y       z     vdW  Elec       q    Type
REMARK                         _______ _______ _______ _____ _____    ______ ____
ROOT
ATOM      1  C   UNL     1     -11.024  55.341  48.454  0.00  0.00    +0.000 A 
ATOM      2  C   UNL     1      -9.729  54.840  49.010  0.00  0.00    +0.000 A 
ATOM      3  C   UNL     1     -11.375  55.036  47.191  0.00  0.00    +0.000 A 
ATOM      4  O   UNL     1      -9.479  55.062  50.199  0.00  0.00    +0.000 OA
ATOM      5  N   UNL     1      -8.868  54.136  48.175  0.00  0.00    +0.000 N 
ATOM      6  C   UNL     1     -10.504  54.196  46.356  0.00  0.00    +0.000 A 
ATOM      7  C   UNL     1      -9.271  53.748  46.858  0.00  0.00    +0.000 A 
ATOM      8  C   UNL     1     -10.904  53.820  45.061  0.00  0.00    +0.000 A 
ATOM      9  C   UNL     1      -8.483  52.906  46.055  0.00  0.00    +0.000 A 
ATOM     10  C   UNL     1     -10.102  52.998  44.272  0.00  0.00    +0.000 A 
ATOM     11  C   UNL     1      -8.893  52.538  44.773  0.00  0.00    +0.000 A 
ENDROOT
BRANCH   1  17
ATOM     12  S   UNL     1     -13.479  56.223  51.402  0.00  0.00    +0.000 S 
ATOM     13  O   UNL     1     -12.782  56.513  52.639  0.00  0.00    +0.000 OA
ATOM     14  O   UNL     1     -14.692  55.427  51.413  0.00  0.00    +0.000 OA
ATOM     15  N   UNL     1     -12.427  55.510  50.395  0.00  0.00    +0.000 N 
ATOM     16  C   UNL     1     -13.927  57.776  50.718  0.00  0.00    +0.000 A 
ATOM     17  C   UNL     1     -11.966  56.130  49.349  0.00  0.00    +0.000 C 
ATOM     18  C   UNL     1     -13.264  58.197  49.577  0.00  0.00    +0.000 A 
ATOM     19  C   UNL     1     -14.933  58.540  51.318  0.00  0.00    +0.000 A 
ATOM     20  N   UNL     1     -12.261  57.427  48.991  0.00  0.00    +0.000 N 
ATOM     21  C   UNL     1     -13.572  59.462  49.065  0.00  0.00    +0.000 A 
ATOM     22  C   UNL     1     -15.256  59.780  50.775  0.00  0.00    +0.000 A 
ATOM     23  C   UNL     1     -14.569  60.245  49.654  0.00  0.00    +0.000 A 
ATOM     24  H   UNL     1     -12.131  54.589  50.580  0.00  0.00    +0.000 HD
ATOM     25  H   UNL     1     -11.727  57.839  48.273  0.00  0.00    +0.000 HD
ENDBRANCH   1  17
BRANCH   3  26
ATOM     26  O   UNL     1     -12.558  55.430  46.590  0.00  0.00    +0.000 OA
ATOM     27  H   UNL     1     -12.560  55.702  45.694  0.00  0.00    +0.000 HD
ENDBRANCH   3  26
BRANCH   5  28
ATOM     28  C   UNL     1      -7.561  53.717  48.711  0.00  0.00    +0.000 C 
BRANCH  28  29
ATOM     29  C   UNL     1      -6.420  54.713  48.426  0.00  0.00    +0.000 C 
BRANCH  29  30
ATOM     30  C   UNL     1      -5.823  55.263  49.696  0.00  0.00    +0.000 C 
ATOM     31  C   UNL     1      -5.944  54.685  50.898  0.00  0.00    +0.000 C 
ENDBRANCH  29  30
ENDBRANCH  28  29
ENDBRANCH   5  28
TORSDOF 5
ENDMDL
MODEL 9
REMARK VINA RESULT:      -7.3      3.399      7.655
REMARK  Name = 338622
REMARK  5 active torsions:
REMARK  status: ('A' for Active; 'I' for Inactive)
REMARK    1  A    between atoms: C_6  and  C_10
REMARK    2  A    between atoms: C_14  and  O_18
REMARK    3  A    between atoms: N_17  and  C_21
REMARK    4  A    between atoms: C_21  and  C_24
REMARK    5  A    between atoms: C_24  and  C_27
REMARK                            x       y       z     vdW  Elec       q    Type
REMARK                         _______ _______ _______ _____ _____    ______ ____
ROOT
ATOM      1  C   UNL     1     -10.335  54.824  50.243  0.00  0.00    +0.000 A 
ATOM      2  C   UNL     1     -10.202  54.645  48.763  0.00  0.00    +0.000 A 
ATOM      3  C   UNL     1     -11.336  55.572  50.742  0.00  0.00    +0.000 A 
ATOM      4  O   UNL     1      -9.328  53.880  48.344  0.00  0.00    +0.000 OA
ATOM      5  N   UNL     1     -11.073  55.332  47.924  0.00  0.00    +0.000 N 
ATOM      6  C   UNL     1     -12.316  56.202  49.844  0.00  0.00    +0.000 A 
ATOM      7  C   UNL     1     -12.180  56.066  48.453  0.00  0.00    +0.000 A 
ATOM      8  C   UNL     1     -13.402  56.925  50.369  0.00  0.00    +0.000 A 
ATOM      9  C   UNL     1     -13.160  56.638  47.622  0.00  0.00    +0.000 A 
ATOM     10  C   UNL     1     -14.354  57.499  49.530  0.00  0.00    +0.000 A 
ATOM     11  C   UNL     1     -14.234  57.350  48.156  0.00  0.00    +0.000 A 
ENDROOT
BRANCH   1  17
ATOM     12  S   UNL     1      -8.528  51.906  52.172  0.00  0.00    +0.000 S 
ATOM     13  O   UNL     1      -7.544  51.224  51.356  0.00  0.00    +0.000 OA
ATOM     14  O   UNL     1      -9.405  51.152  53.048  0.00  0.00    +0.000 OA
ATOM     15  N   UNL     1      -9.458  52.798  51.188  0.00  0.00    +0.000 N 
ATOM     16  C   UNL     1      -7.628  52.996  53.212  0.00  0.00    +0.000 A 
ATOM     17  C   UNL     1      -9.377  54.095  51.172  0.00  0.00    +0.000 C 
ATOM     18  C   UNL     1      -7.728  54.356  52.968  0.00  0.00    +0.000 A 
ATOM     19  C   UNL     1      -6.850  52.484  54.255  0.00  0.00    +0.000 A 
ATOM     20  N   UNL     1      -8.505  54.853  51.923  0.00  0.00    +0.000 N 
ATOM     21  C   UNL     1      -6.963  55.225  53.753  0.00  0.00    +0.000 A 
ATOM     22  C   UNL     1      -6.124  53.363  55.054  0.00  0.00    +0.000 A 
ATOM     23  C   UNL     1      -6.173  54.733  54.796  0.00  0.00    +0.000 A 
ATOM     24  H   UNL     1     -10.098  52.347  50.589  0.00  0.00    +0.000 HD
ATOM     25  H   UNL     1      -8.424  55.810  51.706  0.00  0.00    +0.000 HD
ENDBRANCH   1  17
BRANCH   3  26
ATOM     26  O   UNL     1     -11.559  55.782  52.091  0.00  0.00    +0.000 OA
ATOM     27  H   UNL     1     -11.691  56.651  52.414  0.00  0.00    +0.000 HD
ENDBRANCH   3  26
BRANCH   5  28
ATOM     28  C   UNL     1     -10.881  55.210  46.469  0.00  0.00    +0.000 C 
BRANCH  28  29
ATOM     29  C   UNL     1     -11.618  54.013  45.838  0.00  0.00    +0.000 C 
BRANCH  29  30
ATOM     30  C   UNL     1     -10.804  53.357  44.753  0.00  0.00    +0.000 C 
ATOM     31  C   UNL     1      -9.473  53.208  44.795  0.00  0.00    +0.000 C 
ENDBRANCH  29  30
ENDBRANCH  28  29
ENDBRANCH   5  28
TORSDOF 5
ENDMDL
