MODEL 1
REMARK VINA RESULT:      -8.0      0.000      0.000
REMARK  Name = 338297
REMARK  5 active torsions:
REMARK  status: ('A' for Active; 'I' for Inactive)
REMARK    1  A    between atoms: C_6  and  C_10
REMARK    2  A    between atoms: C_14  and  O_18
REMARK    3  A    between atoms: N_17  and  C_21
REMARK    4  A    between atoms: C_21  and  C_24
REMARK    5  A    between atoms: C_24  and  C_27
REMARK                            x       y       z     vdW  Elec       q    Type
REMARK                         _______ _______ _______ _____ _____    ______ ____
ROOT
ATOM      1  C   UNL     1     -10.094  54.303  52.344  0.00  0.00    +0.000 A 
ATOM      2  C   UNL     1      -8.705  54.845  52.273  0.00  0.00    +0.000 A 
ATOM      3  C   UNL     1     -10.351  53.204  53.074  0.00  0.00    +0.000 A 
ATOM      4  O   UNL     1      -8.516  55.902  51.664  0.00  0.00    +0.000 OA
ATOM      5  N   UNL     1      -7.680  54.156  52.905  0.00  0.00    +0.000 N 
ATOM      6  C   UNL     1      -9.268  52.533  53.813  0.00  0.00    +0.000 A 
ATOM      7  C   UNL     1      -7.943  53.000  53.701  0.00  0.00    +0.000 A 
ATOM      8  C   UNL     1      -9.548  51.439  54.651  0.00  0.00    +0.000 A 
ATOM      9  C   UNL     1      -6.931  52.339  54.415  0.00  0.00    +0.000 A 
ATOM     10  C   UNL     1      -8.538  50.823  55.387  0.00  0.00    +0.000 A 
ATOM     11  C   UNL     1      -7.231  51.273  55.268  0.00  0.00    +0.000 A 
ENDROOT
BRANCH   1  17
ATOM     12  S   UNL     1     -12.301  55.900  49.508  0.00  0.00    +0.000 S 
ATOM     13  O   UNL     1     -13.194  54.953  48.872  0.00  0.00    +0.000 OA
ATOM     14  O   UNL     1     -11.589  56.883  48.715  0.00  0.00    +0.000 OA
ATOM     15  N   UNL     1     -11.204  55.051  50.350  0.00  0.00    +0.000 N 
ATOM     16  C   UNL     1     -13.286  56.817  50.637  0.00  0.00    +0.000 A 
ATOM     17  C   UNL     1     -11.206  55.063  51.649  0.00  0.00    +0.000 C 
ATOM     18  C   UNL     1     -13.066  56.621  51.991  0.00  0.00    +0.000 A 
ATOM     19  C   UNL     1     -14.247  57.716  50.168  0.00  0.00    +0.000 A 
ATOM     20  N   UNL     1     -12.123  55.707  52.448  0.00  0.00    +0.000 N 
ATOM     21  C   UNL     1     -13.878  57.306  52.901  0.00  0.00    +0.000 A 
ATOM     22  C   UNL     1     -15.030  58.413  51.086  0.00  0.00    +0.000 A 
ATOM     23  C   UNL     1     -14.849  58.203  52.452  0.00  0.00    +0.000 A 
ATOM     24  H   UNL     1     -10.527  54.520  49.870  0.00  0.00    +0.000 HD
ATOM     25  H   UNL     1     -12.110  55.508  53.412  0.00  0.00    +0.000 HD
ENDBRANCH   1  17
BRANCH   3  26
ATOM     26  O   UNL     1     -11.608  52.646  53.231  0.00  0.00    +0.000 OA
ATOM     27  H   UNL     1     -12.256  52.759  52.565  0.00  0.00    +0.000 HD
ENDBRANCH   3  26
BRANCH   5  28
ATOM     28  C   UNL     1      -6.323  54.698  52.750  0.00  0.00    +0.000 C 
BRANCH  28  29
ATOM     29  C   UNL     1      -5.493  53.924  51.718  0.00  0.00    +0.000 C 
BRANCH  29  30
ATOM     30  C   UNL     1      -5.451  54.636  50.426  0.00  0.00    +0.000 C 
ATOM     31  C   UNL     1      -5.418  55.212  49.376  0.00  0.00    +0.000 C 
ENDBRANCH  29  30
ENDBRANCH  28  29
ENDBRANCH   5  28
TORSDOF 5
ENDMDL
MODEL 2
REMARK VINA RESULT:      -7.7      4.063      5.098
REMARK  Name = 338297
REMARK  5 active torsions:
REMARK  status: ('A' for Active; 'I' for Inactive)
REMARK    1  A    between atoms: C_6  and  C_10
REMARK    2  A    between atoms: C_14  and  O_18
REMARK    3  A    between atoms: N_17  and  C_21
REMARK    4  A    between atoms: C_21  and  C_24
REMARK    5  A    between atoms: C_24  and  C_27
REMARK                            x       y       z     vdW  Elec       q    Type
REMARK                         _______ _______ _______ _____ _____    ______ ____
ROOT
ATOM      1  C   UNL     1     -12.414  54.345  49.527  0.00  0.00    +0.000 A 
ATOM      2  C   UNL     1     -11.763  54.428  48.186  0.00  0.00    +0.000 A 
ATOM      3  C   UNL     1     -12.194  53.280  50.317  0.00  0.00    +0.000 A 
ATOM      4  O   UNL     1     -11.917  55.456  47.519  0.00  0.00    +0.000 OA
ATOM      5  N   UNL     1     -10.996  53.362  47.742  0.00  0.00    +0.000 N 
ATOM      6  C   UNL     1     -11.304  52.195  49.870  0.00  0.00    +0.000 A 
ATOM      7  C   UNL     1     -10.736  52.234  48.581  0.00  0.00    +0.000 A 
ATOM      8  C   UNL     1     -10.998  51.124  50.729  0.00  0.00    +0.000 A 
ATOM      9  C   UNL     1      -9.895  51.185  48.181  0.00  0.00    +0.000 A 
ATOM     10  C   UNL     1     -10.125  50.114  50.332  0.00  0.00    +0.000 A 
ATOM     11  C   UNL     1      -9.575  50.144  49.058  0.00  0.00    +0.000 A 
ENDROOT
BRANCH   1  17
ATOM     12  S   UNL     1     -15.359  56.413  51.113  0.00  0.00    +0.000 S 
ATOM     13  O   UNL     1     -15.301  56.481  52.559  0.00  0.00    +0.000 OA
ATOM     14  O   UNL     1     -16.627  56.212  50.438  0.00  0.00    +0.000 OA
ATOM     15  N   UNL     1     -14.349  55.236  50.635  0.00  0.00    +0.000 N 
ATOM     16  C   UNL     1     -14.742  57.951  50.527  0.00  0.00    +0.000 A 
ATOM     17  C   UNL     1     -13.251  55.516  50.001  0.00  0.00    +0.000 C 
ATOM     18  C   UNL     1     -13.520  57.949  49.875  0.00  0.00    +0.000 A 
ATOM     19  C   UNL     1     -15.478  59.124  50.713  0.00  0.00    +0.000 A 
ATOM     20  N   UNL     1     -12.784  56.780  49.715  0.00  0.00    +0.000 N 
ATOM     21  C   UNL     1     -12.993  59.173  49.450  0.00  0.00    +0.000 A 
ATOM     22  C   UNL     1     -14.954  60.333  50.258  0.00  0.00    +0.000 A 
ATOM     23  C   UNL     1     -13.709  60.357  49.633  0.00  0.00    +0.000 A 
ATOM     24  H   UNL     1     -14.572  54.296  50.829  0.00  0.00    +0.000 HD
ATOM     25  H   UNL     1     -11.865  56.861  49.373  0.00  0.00    +0.000 HD
ENDBRANCH   1  17
BRANCH   3  26
ATOM     26  O   UNL     1     -12.721  53.128  51.587  0.00  0.00    +0.000 OA
ATOM     27  H   UNL     1     -12.606  52.320  52.048  0.00  0.00    +0.000 HD
ENDBRANCH   3  26
BRANCH   5  28
ATOM     28  C   UNL     1     -10.431  53.467  46.390  0.00  0.00    +0.000 C 
BRANCH  28  29
ATOM     29  C   UNL     1     -11.338  52.846  45.321  0.00  0.00    +0.000 C 
BRANCH  29  30
ATOM     30  C   UNL     1     -10.612  52.657  44.050  0.00  0.00    +0.000 C 
ATOM     31  C   UNL     1     -10.025  52.505  43.017  0.00  0.00    +0.000 C 
ENDBRANCH  29  30
ENDBRANCH  28  29
ENDBRANCH   5  28
TORSDOF 5
ENDMDL
MODEL 3
REMARK VINA RESULT:      -7.7      3.408      5.037
REMARK  Name = 338297
REMARK  5 active torsions:
REMARK  status: ('A' for Active; 'I' for Inactive)
REMARK    1  A    between atoms: C_6  and  C_10
REMARK    2  A    between atoms: C_14  and  O_18
REMARK    3  A    between atoms: N_17  and  C_21
REMARK    4  A    between atoms: C_21  and  C_24
REMARK    5  A    between atoms: C_24  and  C_27
REMARK                            x       y       z     vdW  Elec       q    Type
REMARK                         _______ _______ _______ _____ _____    ______ ____
ROOT
ATOM      1  C   UNL     1     -11.338  56.151  48.757  0.00  0.00    +0.000 A 
ATOM      2  C   UNL     1     -10.184  55.693  49.586  0.00  0.00    +0.000 A 
ATOM      3  C   UNL     1     -11.490  55.691  47.503  0.00  0.00    +0.000 A 
ATOM      4  O   UNL     1     -10.119  56.068  50.761  0.00  0.00    +0.000 OA
ATOM      5  N   UNL     1      -9.238  54.853  49.019  0.00  0.00    +0.000 N 
ATOM      6  C   UNL     1     -10.525  54.729  46.943  0.00  0.00    +0.000 A 
ATOM      7  C   UNL     1      -9.399  54.340  47.696  0.00  0.00    +0.000 A 
ATOM      8  C   UNL     1     -10.730  54.175  45.667  0.00  0.00    +0.000 A 
ATOM      9  C   UNL     1      -8.496  53.424  47.135  0.00  0.00    +0.000 A 
ATOM     10  C   UNL     1      -9.847  53.232  45.145  0.00  0.00    +0.000 A 
ATOM     11  C   UNL     1      -8.730  52.858  45.879  0.00  0.00    +0.000 A 
ENDROOT
BRANCH   1  17
ATOM     12  S   UNL     1     -13.575  59.310  49.451  0.00  0.00    +0.000 S 
ATOM     13  O   UNL     1     -14.724  59.405  48.575  0.00  0.00    +0.000 OA
ATOM     14  O   UNL     1     -12.805  60.493  49.784  0.00  0.00    +0.000 OA
ATOM     15  N   UNL     1     -12.558  58.219  48.812  0.00  0.00    +0.000 N 
ATOM     16  C   UNL     1     -14.178  58.685  50.979  0.00  0.00    +0.000 A 
ATOM     17  C   UNL     1     -12.365  57.070  49.387  0.00  0.00    +0.000 C 
ATOM     18  C   UNL     1     -13.802  57.402  51.343  0.00  0.00    +0.000 A 
ATOM     19  C   UNL     1     -14.997  59.473  51.791  0.00  0.00    +0.000 A 
ATOM     20  N   UNL     1     -13.006  56.617  50.518  0.00  0.00    +0.000 N 
ATOM     21  C   UNL     1     -14.317  56.873  52.532  0.00  0.00    +0.000 A 
ATOM     22  C   UNL     1     -15.479  58.944  52.986  0.00  0.00    +0.000 A 
ATOM     23  C   UNL     1     -15.144  57.641  53.353  0.00  0.00    +0.000 A 
ATOM     24  H   UNL     1     -12.080  58.430  47.977  0.00  0.00    +0.000 HD
ATOM     25  H   UNL     1     -12.890  55.670  50.761  0.00  0.00    +0.000 HD
ENDBRANCH   1  17
BRANCH   3  26
ATOM     26  O   UNL     1     -12.542  56.026  46.669  0.00  0.00    +0.000 OA
ATOM     27  H   UNL     1     -12.821  56.918  46.604  0.00  0.00    +0.000 HD
ENDBRANCH   3  26
BRANCH   5  28
ATOM     28  C   UNL     1      -8.089  54.485  49.858  0.00  0.00    +0.000 C 
BRANCH  28  29
ATOM     29  C   UNL     1      -6.942  55.498  49.766  0.00  0.00    +0.000 C 
BRANCH  29  30
ATOM     30  C   UNL     1      -5.699  54.854  49.299  0.00  0.00    +0.000 C 
ATOM     31  C   UNL     1      -4.691  54.330  48.921  0.00  0.00    +0.000 C 
ENDBRANCH  29  30
ENDBRANCH  28  29
ENDBRANCH   5  28
TORSDOF 5
ENDMDL
MODEL 4
REMARK VINA RESULT:      -7.6      1.595      2.315
REMARK  Name = 338297
REMARK  5 active torsions:
REMARK  status: ('A' for Active; 'I' for Inactive)
REMARK    1  A    between atoms: C_6  and  C_10
REMARK    2  A    between atoms: C_14  and  O_18
REMARK    3  A    between atoms: N_17  and  C_21
REMARK    4  A    between atoms: C_21  and  C_24
REMARK    5  A    between atoms: C_24  and  C_27
REMARK                            x       y       z     vdW  Elec       q    Type
REMARK                         _______ _______ _______ _____ _____    ______ ____
ROOT
ATOM      1  C   UNL     1     -10.191  54.477  52.194  0.00  0.00    +0.000 A 
ATOM      2  C   UNL     1      -8.789  54.993  52.183  0.00  0.00    +0.000 A 
ATOM      3  C   UNL     1     -10.493  53.367  52.889  0.00  0.00    +0.000 A 
ATOM      4  O   UNL     1      -8.560  56.060  51.604  0.00  0.00    +0.000 OA
ATOM      5  N   UNL     1      -7.801  54.271  52.833  0.00  0.00    +0.000 N 
ATOM      6  C   UNL     1      -9.449  52.659  53.650  0.00  0.00    +0.000 A 
ATOM      7  C   UNL     1      -8.113  53.103  53.594  0.00  0.00    +0.000 A 
ATOM      8  C   UNL     1      -9.779  51.553  54.453  0.00  0.00    +0.000 A 
ATOM      9  C   UNL     1      -7.139  52.407  54.327  0.00  0.00    +0.000 A 
ATOM     10  C   UNL     1      -8.807  50.902  55.209  0.00  0.00    +0.000 A 
ATOM     11  C   UNL     1      -7.488  51.328  55.145  0.00  0.00    +0.000 A 
ENDROOT
BRANCH   1  17
ATOM     12  S   UNL     1     -13.495  56.500  51.517  0.00  0.00    +0.000 S 
ATOM     13  O   UNL     1     -13.421  57.882  51.945  0.00  0.00    +0.000 OA
ATOM     14  O   UNL     1     -14.698  55.724  51.747  0.00  0.00    +0.000 OA
ATOM     15  N   UNL     1     -12.253  55.707  52.198  0.00  0.00    +0.000 N 
ATOM     16  C   UNL     1     -13.259  56.516  49.775  0.00  0.00    +0.000 A 
ATOM     17  C   UNL     1     -11.263  55.274  51.478  0.00  0.00    +0.000 C 
ATOM     18  C   UNL     1     -12.084  55.975  49.279  0.00  0.00    +0.000 A 
ATOM     19  C   UNL     1     -14.239  57.049  48.935  0.00  0.00    +0.000 A 
ATOM     20  N   UNL     1     -11.104  55.468  50.124  0.00  0.00    +0.000 N 
ATOM     21  C   UNL     1     -11.861  56.029  47.899  0.00  0.00    +0.000 A 
ATOM     22  C   UNL     1     -14.017  57.069  47.560  0.00  0.00    +0.000 A 
ATOM     23  C   UNL     1     -12.825  56.564  47.043  0.00  0.00    +0.000 A 
ATOM     24  H   UNL     1     -12.250  55.553  53.171  0.00  0.00    +0.000 HD
ATOM     25  H   UNL     1     -10.236  55.229  49.727  0.00  0.00    +0.000 HD
ENDBRANCH   1  17
BRANCH   3  26
ATOM     26  O   UNL     1     -11.765  52.832  52.991  0.00  0.00    +0.000 OA
ATOM     27  H   UNL     1     -11.882  51.902  53.007  0.00  0.00    +0.000 HD
ENDBRANCH   3  26
BRANCH   5  28
ATOM     28  C   UNL     1      -6.429  54.788  52.737  0.00  0.00    +0.000 C 
BRANCH  28  29
ATOM     29  C   UNL     1      -5.572  54.006  51.735  0.00  0.00    +0.000 C 
BRANCH  29  30
ATOM     30  C   UNL     1      -5.539  54.678  50.422  0.00  0.00    +0.000 C 
ATOM     31  C   UNL     1      -5.515  55.224  49.356  0.00  0.00    +0.000 C 
ENDBRANCH  29  30
ENDBRANCH  28  29
ENDBRANCH   5  28
TORSDOF 5
ENDMDL
MODEL 5
REMARK VINA RESULT:      -7.5      2.399      7.645
REMARK  Name = 338297
REMARK  5 active torsions:
REMARK  status: ('A' for Active; 'I' for Inactive)
REMARK    1  A    between atoms: C_6  and  C_10
REMARK    2  A    between atoms: C_14  and  O_18
REMARK    3  A    between atoms: N_17  and  C_21
REMARK    4  A    between atoms: C_21  and  C_24
REMARK    5  A    between atoms: C_24  and  C_27
REMARK                            x       y       z     vdW  Elec       q    Type
REMARK                         _______ _______ _______ _____ _____    ______ ____
ROOT
ATOM      1  C   UNL     1     -10.420  55.114  51.048  0.00  0.00    +0.000 A 
ATOM      2  C   UNL     1     -11.694  55.611  51.647  0.00  0.00    +0.000 A 
ATOM      3  C   UNL     1     -10.260  55.113  49.713  0.00  0.00    +0.000 A 
ATOM      4  O   UNL     1     -11.778  55.678  52.877  0.00  0.00    +0.000 OA
ATOM      5  N   UNL     1     -12.728  55.995  50.808  0.00  0.00    +0.000 N 
ATOM      6  C   UNL     1     -11.334  55.608  48.836  0.00  0.00    +0.000 A 
ATOM      7  C   UNL     1     -12.563  56.020  49.389  0.00  0.00    +0.000 A 
ATOM      8  C   UNL     1     -11.137  55.695  47.446  0.00  0.00    +0.000 A 
ATOM      9  C   UNL     1     -13.569  56.484  48.528  0.00  0.00    +0.000 A 
ATOM     10  C   UNL     1     -12.130  56.201  46.611  0.00  0.00    +0.000 A 
ATOM     11  C   UNL     1     -13.346  56.594  47.153  0.00  0.00    +0.000 A 
ENDROOT
BRANCH   1  17
ATOM     12  S   UNL     1      -6.909  54.977  52.814  0.00  0.00    +0.000 S 
ATOM     13  O   UNL     1      -6.740  55.987  53.839  0.00  0.00    +0.000 OA
ATOM     14  O   UNL     1      -5.823  54.665  51.905  0.00  0.00    +0.000 OA
ATOM     15  N   UNL     1      -8.200  55.390  51.923  0.00  0.00    +0.000 N 
ATOM     16  C   UNL     1      -7.270  53.480  53.662  0.00  0.00    +0.000 A 
ATOM     17  C   UNL     1      -9.296  54.695  51.975  0.00  0.00    +0.000 C 
ATOM     18  C   UNL     1      -8.548  52.959  53.534  0.00  0.00    +0.000 A 
ATOM     19  C   UNL     1      -6.287  52.845  54.424  0.00  0.00    +0.000 A 
ATOM     20  N   UNL     1      -9.526  53.610  52.791  0.00  0.00    +0.000 N 
ATOM     21  C   UNL     1      -8.864  51.797  54.244  0.00  0.00    +0.000 A 
ATOM     22  C   UNL     1      -6.607  51.671  55.103  0.00  0.00    +0.000 A 
ATOM     23  C   UNL     1      -7.898  51.151  55.018  0.00  0.00    +0.000 A 
ATOM     24  H   UNL     1      -8.153  56.180  51.335  0.00  0.00    +0.000 HD
ATOM     25  H   UNL     1     -10.448  53.271  52.852  0.00  0.00    +0.000 HD
ENDBRANCH   1  17
BRANCH   3  26
ATOM     26  O   UNL     1      -9.107  54.707  49.065  0.00  0.00    +0.000 OA
ATOM     27  H   UNL     1      -8.683  55.282  48.459  0.00  0.00    +0.000 HD
ENDBRANCH   3  26
BRANCH   5  28
ATOM     28  C   UNL     1     -13.982  56.415  51.448  0.00  0.00    +0.000 C 
BRANCH  28  29
ATOM     29  C   UNL     1     -13.891  57.818  52.060  0.00  0.00    +0.000 C 
BRANCH  29  30
ATOM     30  C   UNL     1     -14.343  58.847  51.103  0.00  0.00    +0.000 C 
ATOM     31  C   UNL     1     -14.713  59.682  50.328  0.00  0.00    +0.000 C 
ENDBRANCH  29  30
ENDBRANCH  28  29
ENDBRANCH   5  28
TORSDOF 5
ENDMDL
MODEL 6
REMARK VINA RESULT:      -7.5      2.972      7.072
REMARK  Name = 338297
REMARK  5 active torsions:
REMARK  status: ('A' for Active; 'I' for Inactive)
REMARK    1  A    between atoms: C_6  and  C_10
REMARK    2  A    between atoms: C_14  and  O_18
REMARK    3  A    between atoms: N_17  and  C_21
REMARK    4  A    between atoms: C_21  and  C_24
REMARK    5  A    between atoms: C_24  and  C_27
REMARK                            x       y       z     vdW  Elec       q    Type
REMARK                         _______ _______ _______ _____ _____    ______ ____
ROOT
ATOM      1  C   UNL     1     -10.285  55.201  50.811  0.00  0.00    +0.000 A 
ATOM      2  C   UNL     1      -9.892  55.122  49.373  0.00  0.00    +0.000 A 
ATOM      3  C   UNL     1     -11.496  55.674  51.152  0.00  0.00    +0.000 A 
ATOM      4  O   UNL     1      -8.807  54.606  49.088  0.00  0.00    +0.000 OA
ATOM      5  N   UNL     1     -10.760  55.612  48.409  0.00  0.00    +0.000 N 
ATOM      6  C   UNL     1     -12.444  56.109  50.112  0.00  0.00    +0.000 A 
ATOM      7  C   UNL     1     -12.058  56.096  48.756  0.00  0.00    +0.000 A 
ATOM      8  C   UNL     1     -13.745  56.517  50.458  0.00  0.00    +0.000 A 
ATOM      9  C   UNL     1     -12.982  56.518  47.788  0.00  0.00    +0.000 A 
ATOM     10  C   UNL     1     -14.663  56.889  49.479  0.00  0.00    +0.000 A 
ATOM     11  C   UNL     1     -14.281  56.890  48.145  0.00  0.00    +0.000 A 
ENDROOT
BRANCH   1  17
ATOM     12  S   UNL     1      -7.046  54.708  52.986  0.00  0.00    +0.000 S 
ATOM     13  O   UNL     1      -6.914  55.682  54.051  0.00  0.00    +0.000 OA
ATOM     14  O   UNL     1      -5.889  54.311  52.207  0.00  0.00    +0.000 OA
ATOM     15  N   UNL     1      -8.175  55.255  51.957  0.00  0.00    +0.000 N 
ATOM     16  C   UNL     1      -7.643  53.238  53.742  0.00  0.00    +0.000 A 
ATOM     17  C   UNL     1      -9.328  54.665  51.856  0.00  0.00    +0.000 C 
ATOM     18  C   UNL     1      -8.938  52.842  53.446  0.00  0.00    +0.000 A 
ATOM     19  C   UNL     1      -6.824  52.502  54.601  0.00  0.00    +0.000 A 
ATOM     20  N   UNL     1      -9.754  53.593  52.609  0.00  0.00    +0.000 N 
ATOM     21  C   UNL     1      -9.443  51.703  54.082  0.00  0.00    +0.000 A 
ATOM     22  C   UNL     1      -7.331  51.353  55.204  0.00  0.00    +0.000 A 
ATOM     23  C   UNL     1      -8.643  50.957  54.949  0.00  0.00    +0.000 A 
ATOM     24  H   UNL     1      -7.984  56.045  51.400  0.00  0.00    +0.000 HD
ATOM     25  H   UNL     1     -10.703  53.340  52.548  0.00  0.00    +0.000 HD
ENDBRANCH   1  17
BRANCH   3  26
ATOM     26  O   UNL     1     -11.966  55.754  52.451  0.00  0.00    +0.000 OA
ATOM     27  H   UNL     1     -12.063  54.975  52.963  0.00  0.00    +0.000 HD
ENDBRANCH   3  26
BRANCH   5  28
ATOM     28  C   UNL     1     -10.297  55.568  47.015  0.00  0.00    +0.000 C 
BRANCH  28  29
ATOM     29  C   UNL     1     -10.724  54.285  46.292  0.00  0.00    +0.000 C 
BRANCH  29  30
ATOM     30  C   UNL     1      -9.668  53.815  45.374  0.00  0.00    +0.000 C 
ATOM     31  C   UNL     1      -8.809  53.433  44.632  0.00  0.00    +0.000 C 
ENDBRANCH  29  30
ENDBRANCH  28  29
ENDBRANCH   5  28
TORSDOF 5
ENDMDL
MODEL 7
REMARK VINA RESULT:      -7.4      3.463      5.406
REMARK  Name = 338297
REMARK  5 active torsions:
REMARK  status: ('A' for Active; 'I' for Inactive)
REMARK    1  A    between atoms: C_6  and  C_10
REMARK    2  A    between atoms: C_14  and  O_18
REMARK    3  A    between atoms: N_17  and  C_21
REMARK    4  A    between atoms: C_21  and  C_24
REMARK    5  A    between atoms: C_24  and  C_27
REMARK                            x       y       z     vdW  Elec       q    Type
REMARK                         _______ _______ _______ _____ _____    ______ ____
ROOT
ATOM      1  C   UNL     1     -10.741  55.672  48.346  0.00  0.00    +0.000 A 
ATOM      2  C   UNL     1      -9.314  55.566  48.775  0.00  0.00    +0.000 A 
ATOM      3  C   UNL     1     -11.132  55.141  47.175  0.00  0.00    +0.000 A 
ATOM      4  O   UNL     1      -9.004  55.988  49.893  0.00  0.00    +0.000 OA
ATOM      5  N   UNL     1      -8.394  54.983  47.917  0.00  0.00    +0.000 N 
ATOM      6  C   UNL     1     -10.161  54.446  46.313  0.00  0.00    +0.000 A 
ATOM      7  C   UNL     1      -8.801  54.396  46.680  0.00  0.00    +0.000 A 
ATOM      8  C   UNL     1     -10.583  53.810  45.132  0.00  0.00    +0.000 A 
ATOM      9  C   UNL     1      -7.898  53.729  45.838  0.00  0.00    +0.000 A 
ATOM     10  C   UNL     1      -9.680  53.113  44.331  0.00  0.00    +0.000 A 
ATOM     11  C   UNL     1      -8.339  53.075  44.684  0.00  0.00    +0.000 A 
ENDROOT
BRANCH   1  17
ATOM     12  S   UNL     1     -13.255  56.157  51.330  0.00  0.00    +0.000 S 
ATOM     13  O   UNL     1     -12.602  56.424  52.596  0.00  0.00    +0.000 OA
ATOM     14  O   UNL     1     -14.397  55.265  51.268  0.00  0.00    +0.000 OA
ATOM     15  N   UNL     1     -12.130  55.599  50.304  0.00  0.00    +0.000 N 
ATOM     16  C   UNL     1     -13.827  57.711  50.741  0.00  0.00    +0.000 A 
ATOM     17  C   UNL     1     -11.737  56.312  49.292  0.00  0.00    +0.000 C 
ATOM     18  C   UNL     1     -13.210  58.242  49.620  0.00  0.00    +0.000 A 
ATOM     19  C   UNL     1     -14.878  58.368  51.386  0.00  0.00    +0.000 A 
ATOM     20  N   UNL     1     -12.150  57.592  48.999  0.00  0.00    +0.000 N 
ATOM     21  C   UNL     1     -13.620  59.502  49.172  0.00  0.00    +0.000 A 
ATOM     22  C   UNL     1     -15.297  59.609  50.910  0.00  0.00    +0.000 A 
ATOM     23  C   UNL     1     -14.663  60.178  49.807  0.00  0.00    +0.000 A 
ATOM     24  H   UNL     1     -11.738  54.706  50.451  0.00  0.00    +0.000 HD
ATOM     25  H   UNL     1     -11.661  58.081  48.299  0.00  0.00    +0.000 HD
ENDBRANCH   1  17
BRANCH   3  26
ATOM     26  O   UNL     1     -12.434  55.156  46.707  0.00  0.00    +0.000 OA
ATOM     27  H   UNL     1     -12.984  54.408  46.829  0.00  0.00    +0.000 HD
ENDBRANCH   3  26
BRANCH   5  28
ATOM     28  C   UNL     1      -6.994  54.962  48.361  0.00  0.00    +0.000 C 
BRANCH  28  29
ATOM     29  C   UNL     1      -6.650  53.705  49.169  0.00  0.00    +0.000 C 
BRANCH  29  30
ATOM     30  C   UNL     1      -5.615  53.989  50.182  0.00  0.00    +0.000 C 
ATOM     31  C   UNL     1      -4.774  54.216  51.004  0.00  0.00    +0.000 C 
ENDBRANCH  29  30
ENDBRANCH  28  29
ENDBRANCH   5  28
TORSDOF 5
ENDMDL
MODEL 8
REMARK VINA RESULT:      -7.3      1.030      3.520
REMARK  Name = 338297
REMARK  5 active torsions:
REMARK  status: ('A' for Active; 'I' for Inactive)
REMARK    1  A    between atoms: C_6  and  C_10
REMARK    2  A    between atoms: C_14  and  O_18
REMARK    3  A    between atoms: N_17  and  C_21
REMARK    4  A    between atoms: C_21  and  C_24
REMARK    5  A    between atoms: C_24  and  C_27
REMARK                            x       y       z     vdW  Elec       q    Type
REMARK                         _______ _______ _______ _____ _____    ______ ____
ROOT
ATOM      1  C   UNL     1      -9.927  54.454  52.039  0.00  0.00    +0.000 A 
ATOM      2  C   UNL     1     -10.124  53.089  52.611  0.00  0.00    +0.000 A 
ATOM      3  C   UNL     1      -8.693  54.985  51.979  0.00  0.00    +0.000 A 
ATOM      4  O   UNL     1     -11.256  52.595  52.575  0.00  0.00    +0.000 OA
ATOM      5  N   UNL     1      -9.035  52.417  53.144  0.00  0.00    +0.000 N 
ATOM      6  C   UNL     1      -7.531  54.224  52.468  0.00  0.00    +0.000 A 
ATOM      7  C   UNL     1      -7.716  52.961  53.066  0.00  0.00    +0.000 A 
ATOM      8  C   UNL     1      -6.230  54.737  52.322  0.00  0.00    +0.000 A 
ATOM      9  C   UNL     1      -6.591  52.260  53.525  0.00  0.00    +0.000 A 
ATOM     10  C   UNL     1      -5.121  54.007  52.743  0.00  0.00    +0.000 A 
ATOM     11  C   UNL     1      -5.302  52.770  53.345  0.00  0.00    +0.000 A 
ENDROOT
BRANCH   1  17
ATOM     12  S   UNL     1     -12.419  56.040  49.443  0.00  0.00    +0.000 S 
ATOM     13  O   UNL     1     -13.308  55.071  48.834  0.00  0.00    +0.000 OA
ATOM     14  O   UNL     1     -11.820  57.091  48.644  0.00  0.00    +0.000 OA
ATOM     15  N   UNL     1     -11.220  55.219  50.165  0.00  0.00    +0.000 N 
ATOM     16  C   UNL     1     -13.363  56.856  50.681  0.00  0.00    +0.000 A 
ATOM     17  C   UNL     1     -11.125  55.179  51.460  0.00  0.00    +0.000 C 
ATOM     18  C   UNL     1     -13.031  56.619  52.005  0.00  0.00    +0.000 A 
ATOM     19  C   UNL     1     -14.401  57.719  50.323  0.00  0.00    +0.000 A 
ATOM     20  N   UNL     1     -12.011  55.740  52.352  0.00  0.00    +0.000 N 
ATOM     21  C   UNL     1     -13.807  57.222  53.001  0.00  0.00    +0.000 A 
ATOM     22  C   UNL     1     -15.147  58.336  51.325  0.00  0.00    +0.000 A 
ATOM     23  C   UNL     1     -14.854  58.081  52.664  0.00  0.00    +0.000 A 
ATOM     24  H   UNL     1     -10.554  54.745  49.615  0.00  0.00    +0.000 HD
ATOM     25  H   UNL     1     -11.915  55.504  53.302  0.00  0.00    +0.000 HD
ENDBRANCH   1  17
BRANCH   3  26
ATOM     26  O   UNL     1      -8.403  56.225  51.436  0.00  0.00    +0.000 OA
ATOM     27  H   UNL     1      -7.932  56.283  50.629  0.00  0.00    +0.000 HD
ENDBRANCH   3  26
BRANCH   5  28
ATOM     28  C   UNL     1      -9.296  51.105  53.751  0.00  0.00    +0.000 C 
BRANCH  28  29
ATOM     29  C   UNL     1      -9.640  51.203  55.242  0.00  0.00    +0.000 C 
BRANCH  29  30
ATOM     30  C   UNL     1      -8.672  50.451  56.064  0.00  0.00    +0.000 C 
ATOM     31  C   UNL     1      -7.888  49.837  56.730  0.00  0.00    +0.000 C 
ENDBRANCH  29  30
ENDBRANCH  28  29
ENDBRANCH   5  28
TORSDOF 5
ENDMDL
MODEL 9
REMARK VINA RESULT:      -7.3      3.168      7.167
REMARK  Name = 338297
REMARK  5 active torsions:
REMARK  status: ('A' for Active; 'I' for Inactive)
REMARK    1  A    between atoms: C_6  and  C_10
REMARK    2  A    between atoms: C_14  and  O_18
REMARK    3  A    between atoms: N_17  and  C_21
REMARK    4  A    between atoms: C_21  and  C_24
REMARK    5  A    between atoms: C_24  and  C_27
REMARK                            x       y       z     vdW  Elec       q    Type
REMARK                         _______ _______ _______ _____ _____    ______ ____
ROOT
ATOM      1  C   UNL     1     -10.478  54.862  50.513  0.00  0.00    +0.000 A 
ATOM      2  C   UNL     1     -10.143  54.835  49.058  0.00  0.00    +0.000 A 
ATOM      3  C   UNL     1     -11.625  55.428  50.929  0.00  0.00    +0.000 A 
ATOM      4  O   UNL     1      -9.125  54.234  48.701  0.00  0.00    +0.000 OA
ATOM      5  N   UNL     1     -10.990  55.465  48.160  0.00  0.00    +0.000 N 
ATOM      6  C   UNL     1     -12.559  56.015  49.954  0.00  0.00    +0.000 A 
ATOM      7  C   UNL     1     -12.222  56.050  48.586  0.00  0.00    +0.000 A 
ATOM      8  C   UNL     1     -13.801  56.525  50.374  0.00  0.00    +0.000 A 
ATOM      9  C   UNL     1     -13.131  56.618  47.681  0.00  0.00    +0.000 A 
ATOM     10  C   UNL     1     -14.710  57.044  49.455  0.00  0.00    +0.000 A 
ATOM     11  C   UNL     1     -14.374  57.092  48.110  0.00  0.00    +0.000 A 
ENDROOT
BRANCH   1  17
ATOM     12  S   UNL     1      -8.965  52.160  52.937  0.00  0.00    +0.000 S 
ATOM     13  O   UNL     1      -8.267  51.094  52.246  0.00  0.00    +0.000 OA
ATOM     14  O   UNL     1      -9.820  51.864  54.069  0.00  0.00    +0.000 OA
ATOM     15  N   UNL     1      -9.852  52.959  51.838  0.00  0.00    +0.000 N 
ATOM     16  C   UNL     1      -7.720  53.242  53.545  0.00  0.00    +0.000 A 
ATOM     17  C   UNL     1      -9.544  54.171  51.487  0.00  0.00    +0.000 C 
ATOM     18  C   UNL     1      -7.621  54.498  52.970  0.00  0.00    +0.000 A 
ATOM     19  C   UNL     1      -6.877  52.836  54.582  0.00  0.00    +0.000 A 
ATOM     20  N   UNL     1      -8.450  54.885  51.923  0.00  0.00    +0.000 N 
ATOM     21  C   UNL     1      -6.602  55.350  53.409  0.00  0.00    +0.000 A 
ATOM     22  C   UNL     1      -5.885  53.706  55.030  0.00  0.00    +0.000 A 
ATOM     23  C   UNL     1      -5.744  54.960  54.438  0.00  0.00    +0.000 A 
ATOM     24  H   UNL     1     -10.634  52.520  51.432  0.00  0.00    +0.000 HD
ATOM     25  H   UNL     1      -8.242  55.729  51.462  0.00  0.00    +0.000 HD
ENDBRANCH   1  17
BRANCH   3  26
ATOM     26  O   UNL     1     -12.041  55.472  52.248  0.00  0.00    +0.000 OA
ATOM     27  H   UNL     1     -12.846  55.064  52.499  0.00  0.00    +0.000 HD
ENDBRANCH   3  26
BRANCH   5  28
ATOM     28  C   UNL     1     -10.581  55.463  46.749  0.00  0.00    +0.000 C 
BRANCH  28  29
ATOM     29  C   UNL     1     -11.246  54.341  45.943  0.00  0.00    +0.000 C 
BRANCH  29  30
ATOM     30  C   UNL     1     -10.255  53.611  45.128  0.00  0.00    +0.000 C 
ATOM     31  C   UNL     1      -9.454  53.015  44.467  0.00  0.00    +0.000 C 
ENDBRANCH  29  30
ENDBRANCH  28  29
ENDBRANCH   5  28
TORSDOF 5
ENDMDL
