MODEL 1
REMARK VINA RESULT:      -8.1      0.000      0.000
REMARK  Name = 298159
REMARK  7 active torsions:
REMARK  status: ('A' for Active; 'I' for Inactive)
REMARK    1  A    between atoms: C_6  and  C_10
REMARK    2  A    between atoms: C_14  and  O_18
REMARK    3  A    between atoms: N_17  and  C_21
REMARK    4  A    between atoms: C_21  and  C_24
REMARK    5  A    between atoms: C_24  and  C_27
REMARK    6  A    between atoms: C_27  and  C_28
REMARK    7  A    between atoms: C_27  and  C_29
REMARK                            x       y       z     vdW  Elec       q    Type
REMARK                         _______ _______ _______ _____ _____    ______ ____
ROOT
ATOM      1  C   UNL     1     -10.186  54.399  52.379  0.00  0.00    +0.000 A 
ATOM      2  C   UNL     1      -8.792  54.939  52.346  0.00  0.00    +0.000 A 
ATOM      3  C   UNL     1     -10.454  53.275  53.063  0.00  0.00    +0.000 A 
ATOM      4  O   UNL     1      -8.607  56.036  51.809  0.00  0.00    +0.000 OA
ATOM      5  N   UNL     1      -7.770  54.200  52.930  0.00  0.00    +0.000 N 
ATOM      6  C   UNL     1      -9.387  52.578  53.798  0.00  0.00    +0.000 A 
ATOM      7  C   UNL     1      -8.065  53.054  53.737  0.00  0.00    +0.000 A 
ATOM      8  C   UNL     1      -9.681  51.449  54.585  0.00  0.00    +0.000 A 
ATOM      9  C   UNL     1      -7.082  52.407  54.503  0.00  0.00    +0.000 A 
ATOM     10  C   UNL     1      -8.685  50.803  55.315  0.00  0.00    +0.000 A 
ATOM     11  C   UNL     1      -7.386  51.285  55.277  0.00  0.00    +0.000 A 
ENDROOT
BRANCH   1  17
ATOM     12  S   UNL     1     -12.347  56.086  49.560  0.00  0.00    +0.000 S 
ATOM     13  O   UNL     1     -13.223  55.149  48.883  0.00  0.00    +0.000 OA
ATOM     14  O   UNL     1     -11.632  57.095  48.804  0.00  0.00    +0.000 OA
ATOM     15  N   UNL     1     -11.259  55.226  50.399  0.00  0.00    +0.000 N 
ATOM     16  C   UNL     1     -13.358  56.963  50.697  0.00  0.00    +0.000 A 
ATOM     17  C   UNL     1     -11.295  55.182  51.698  0.00  0.00    +0.000 C 
ATOM     18  C   UNL     1     -13.176  56.715  52.047  0.00  0.00    +0.000 A 
ATOM     19  C   UNL     1     -14.299  57.886  50.232  0.00  0.00    +0.000 A 
ATOM     20  N   UNL     1     -12.240  55.788  52.497  0.00  0.00    +0.000 N 
ATOM     21  C   UNL     1     -14.019  57.363  52.956  0.00  0.00    +0.000 A 
ATOM     22  C   UNL     1     -15.107  58.551  51.151  0.00  0.00    +0.000 A 
ATOM     23  C   UNL     1     -14.974  58.282  52.513  0.00  0.00    +0.000 A 
ATOM     24  H   UNL     1     -10.561  54.727  49.917  0.00  0.00    +0.000 HD
ATOM     25  H   UNL     1     -12.255  55.547  53.451  0.00  0.00    +0.000 HD
ENDBRANCH   1  17
BRANCH   3  26
ATOM     26  O   UNL     1     -11.714  52.713  53.184  0.00  0.00    +0.000 OA
ATOM     27  H   UNL     1     -12.448  53.252  53.402  0.00  0.00    +0.000 HD
ENDBRANCH   3  26
BRANCH   5  28
ATOM     28  C   UNL     1      -6.402  54.722  52.823  0.00  0.00    +0.000 C 
BRANCH  28  29
ATOM     29  C   UNL     1      -5.575  54.212  51.631  0.00  0.00    +0.000 C 
BRANCH  29  30
ATOM     30  C   UNL     1      -4.179  53.646  51.944  0.00  0.00    +0.000 C 
ATOM     31  C   UNL     1      -3.847  53.692  53.434  0.00  0.00    +0.000 C 
ATOM     32  C   UNL     1      -4.112  52.197  51.445  0.00  0.00    +0.000 C 
ENDBRANCH  29  30
ENDBRANCH  28  29
ENDBRANCH   5  28
TORSDOF 5
ENDMDL
MODEL 2
REMARK VINA RESULT:      -8.1      4.113      4.972
REMARK  Name = 298159
REMARK  7 active torsions:
REMARK  status: ('A' for Active; 'I' for Inactive)
REMARK    1  A    between atoms: C_6  and  C_10
REMARK    2  A    between atoms: C_14  and  O_18
REMARK    3  A    between atoms: N_17  and  C_21
REMARK    4  A    between atoms: C_21  and  C_24
REMARK    5  A    between atoms: C_24  and  C_27
REMARK    6  A    between atoms: C_27  and  C_28
REMARK    7  A    between atoms: C_27  and  C_29
REMARK                            x       y       z     vdW  Elec       q    Type
REMARK                         _______ _______ _______ _____ _____    ______ ____
ROOT
ATOM      1  C   UNL     1     -12.537  54.213  49.707  0.00  0.00    +0.000 A 
ATOM      2  C   UNL     1     -11.999  54.135  48.313  0.00  0.00    +0.000 A 
ATOM      3  C   UNL     1     -12.267  53.234  50.586  0.00  0.00    +0.000 A 
ATOM      4  O   UNL     1     -12.166  55.108  47.571  0.00  0.00    +0.000 OA
ATOM      5  N   UNL     1     -11.324  52.987  47.916  0.00  0.00    +0.000 N 
ATOM      6  C   UNL     1     -11.430  52.090  50.193  0.00  0.00    +0.000 A 
ATOM      7  C   UNL     1     -10.955  51.987  48.873  0.00  0.00    +0.000 A 
ATOM      8  C   UNL     1     -11.075  51.107  51.135  0.00  0.00    +0.000 A 
ATOM      9  C   UNL     1     -10.103  50.920  48.547  0.00  0.00    +0.000 A 
ATOM     10  C   UNL     1     -10.251  50.039  50.784  0.00  0.00    +0.000 A 
ATOM     11  C   UNL     1      -9.762  49.949  49.490  0.00  0.00    +0.000 A 
ENDROOT
BRANCH   1  17
ATOM     12  S   UNL     1     -15.391  56.470  51.198  0.00  0.00    +0.000 S 
ATOM     13  O   UNL     1     -15.318  56.591  52.642  0.00  0.00    +0.000 OA
ATOM     14  O   UNL     1     -16.672  56.297  50.542  0.00  0.00    +0.000 OA
ATOM     15  N   UNL     1     -14.434  55.237  50.759  0.00  0.00    +0.000 N 
ATOM     16  C   UNL     1     -14.715  57.955  50.550  0.00  0.00    +0.000 A 
ATOM     17  C   UNL     1     -13.318  55.447  50.126  0.00  0.00    +0.000 C 
ATOM     18  C   UNL     1     -13.488  57.883  49.912  0.00  0.00    +0.000 A 
ATOM     19  C   UNL     1     -15.417  59.158  50.675  0.00  0.00    +0.000 A 
ATOM     20  N   UNL     1     -12.796  56.680  49.802  0.00  0.00    +0.000 N 
ATOM     21  C   UNL     1     -12.915  59.071  49.448  0.00  0.00    +0.000 A 
ATOM     22  C   UNL     1     -14.850  60.328  50.175  0.00  0.00    +0.000 A 
ATOM     23  C   UNL     1     -13.594  60.286  49.571  0.00  0.00    +0.000 A 
ATOM     24  H   UNL     1     -14.702  54.315  50.976  0.00  0.00    +0.000 HD
ATOM     25  H   UNL     1     -11.870  56.713  49.470  0.00  0.00    +0.000 HD
ENDBRANCH   1  17
BRANCH   3  26
ATOM     26  O   UNL     1     -12.688  53.229  51.904  0.00  0.00    +0.000 OA
ATOM     27  H   UNL     1     -13.589  53.073  52.108  0.00  0.00    +0.000 HD
ENDBRANCH   3  26
BRANCH   5  28
ATOM     28  C   UNL     1     -10.866  52.911  46.523  0.00  0.00    +0.000 C 
BRANCH  28  29
ATOM     29  C   UNL     1      -9.378  53.218  46.283  0.00  0.00    +0.000 C 
BRANCH  29  30
ATOM     30  C   UNL     1      -8.982  54.700  46.178  0.00  0.00    +0.000 C 
ATOM     31  C   UNL     1      -8.570  55.295  47.523  0.00  0.00    +0.000 C 
ATOM     32  C   UNL     1      -7.823  54.830  45.181  0.00  0.00    +0.000 C 
ENDBRANCH  29  30
ENDBRANCH  28  29
ENDBRANCH   5  28
TORSDOF 5
ENDMDL
MODEL 3
REMARK VINA RESULT:      -7.9      2.065      2.825
REMARK  Name = 298159
REMARK  7 active torsions:
REMARK  status: ('A' for Active; 'I' for Inactive)
REMARK    1  A    between atoms: C_6  and  C_10
REMARK    2  A    between atoms: C_14  and  O_18
REMARK    3  A    between atoms: N_17  and  C_21
REMARK    4  A    between atoms: C_21  and  C_24
REMARK    5  A    between atoms: C_24  and  C_27
REMARK    6  A    between atoms: C_27  and  C_28
REMARK    7  A    between atoms: C_27  and  C_29
REMARK                            x       y       z     vdW  Elec       q    Type
REMARK                         _______ _______ _______ _____ _____    ______ ____
ROOT
ATOM      1  C   UNL     1     -11.543  54.025  51.208  0.00  0.00    +0.000 A 
ATOM      2  C   UNL     1     -10.618  54.059  52.382  0.00  0.00    +0.000 A 
ATOM      3  C   UNL     1     -11.646  52.911  50.465  0.00  0.00    +0.000 A 
ATOM      4  O   UNL     1     -10.640  55.056  53.110  0.00  0.00    +0.000 OA
ATOM      5  N   UNL     1      -9.789  52.968  52.617  0.00  0.00    +0.000 N 
ATOM      6  C   UNL     1     -10.866  51.712  50.811  0.00  0.00    +0.000 A 
ATOM      7  C   UNL     1      -9.962  51.748  51.888  0.00  0.00    +0.000 A 
ATOM      8  C   UNL     1     -11.034  50.517  50.088  0.00  0.00    +0.000 A 
ATOM      9  C   UNL     1      -9.283  50.569  52.234  0.00  0.00    +0.000 A 
ATOM     10  C   UNL     1     -10.330  49.364  50.429  0.00  0.00    +0.000 A 
ATOM     11  C   UNL     1      -9.456  49.390  51.506  0.00  0.00    +0.000 A 
ENDROOT
BRANCH   1  17
ATOM     12  S   UNL     1     -13.189  57.049  49.306  0.00  0.00    +0.000 S 
ATOM     13  O   UNL     1     -14.268  56.642  48.426  0.00  0.00    +0.000 OA
ATOM     14  O   UNL     1     -12.237  58.055  48.878  0.00  0.00    +0.000 OA
ATOM     15  N   UNL     1     -12.359  55.717  49.715  0.00  0.00    +0.000 N 
ATOM     16  C   UNL     1     -13.953  57.692  50.750  0.00  0.00    +0.000 A 
ATOM     17  C   UNL     1     -12.414  55.237  50.922  0.00  0.00    +0.000 C 
ATOM     18  C   UNL     1     -13.849  56.956  51.918  0.00  0.00    +0.000 A 
ATOM     19  C   UNL     1     -14.628  58.915  50.701  0.00  0.00    +0.000 A 
ATOM     20  N   UNL     1     -13.181  55.735  51.952  0.00  0.00    +0.000 N 
ATOM     21  C   UNL     1     -14.509  57.431  53.058  0.00  0.00    +0.000 A 
ATOM     22  C   UNL     1     -15.249  59.394  51.852  0.00  0.00    +0.000 A 
ATOM     23  C   UNL     1     -15.198  58.646  53.028  0.00  0.00    +0.000 A 
ATOM     24  H   UNL     1     -11.806  55.265  49.039  0.00  0.00    +0.000 HD
ATOM     25  H   UNL     1     -13.263  55.190  52.768  0.00  0.00    +0.000 HD
ENDBRANCH   1  17
BRANCH   3  26
ATOM     26  O   UNL     1     -12.495  52.767  49.382  0.00  0.00    +0.000 OA
ATOM     27  H   UNL     1     -12.822  51.920  49.152  0.00  0.00    +0.000 HD
ENDBRANCH   3  26
BRANCH   5  28
ATOM     28  C   UNL     1      -8.844  53.057  53.737  0.00  0.00    +0.000 C 
BRANCH  28  29
ATOM     29  C   UNL     1      -7.446  53.602  53.400  0.00  0.00    +0.000 C 
BRANCH  29  30
ATOM     30  C   UNL     1      -6.948  54.799  54.228  0.00  0.00    +0.000 C 
ATOM     31  C   UNL     1      -5.469  54.687  54.592  0.00  0.00    +0.000 C 
ATOM     32  C   UNL     1      -7.185  56.085  53.426  0.00  0.00    +0.000 C 
ENDBRANCH  29  30
ENDBRANCH  28  29
ENDBRANCH   5  28
TORSDOF 5
ENDMDL
MODEL 4
REMARK VINA RESULT:      -7.9      2.636      8.038
REMARK  Name = 298159
REMARK  7 active torsions:
REMARK  status: ('A' for Active; 'I' for Inactive)
REMARK    1  A    between atoms: C_6  and  C_10
REMARK    2  A    between atoms: C_14  and  O_18
REMARK    3  A    between atoms: N_17  and  C_21
REMARK    4  A    between atoms: C_21  and  C_24
REMARK    5  A    between atoms: C_24  and  C_27
REMARK    6  A    between atoms: C_27  and  C_28
REMARK    7  A    between atoms: C_27  and  C_29
REMARK                            x       y       z     vdW  Elec       q    Type
REMARK                         _______ _______ _______ _____ _____    ______ ____
ROOT
ATOM      1  C   UNL     1     -10.072  54.682  50.898  0.00  0.00    +0.000 A 
ATOM      2  C   UNL     1     -11.407  55.211  51.315  0.00  0.00    +0.000 A 
ATOM      3  C   UNL     1      -9.750  54.623  49.596  0.00  0.00    +0.000 A 
ATOM      4  O   UNL     1     -11.621  55.362  52.522  0.00  0.00    +0.000 OA
ATOM      5  N   UNL     1     -12.341  55.527  50.335  0.00  0.00    +0.000 N 
ATOM      6  C   UNL     1     -10.697  55.094  48.573  0.00  0.00    +0.000 A 
ATOM      7  C   UNL     1     -11.971  55.554  48.953  0.00  0.00    +0.000 A 
ATOM      8  C   UNL     1     -10.331  55.114  47.214  0.00  0.00    +0.000 A 
ATOM      9  C   UNL     1     -12.826  56.060  47.960  0.00  0.00    +0.000 A 
ATOM     10  C   UNL     1     -11.205  55.594  46.241  0.00  0.00    +0.000 A 
ATOM     11  C   UNL     1     -12.451  56.071  46.615  0.00  0.00    +0.000 A 
ENDROOT
BRANCH   1  17
ATOM     12  S   UNL     1      -6.784  54.605  53.053  0.00  0.00    +0.000 S 
ATOM     13  O   UNL     1      -6.734  55.663  54.046  0.00  0.00    +0.000 OA
ATOM     14  O   UNL     1      -5.599  54.259  52.294  0.00  0.00    +0.000 OA
ATOM     15  N   UNL     1      -7.962  54.972  52.002  0.00  0.00    +0.000 N 
ATOM     16  C   UNL     1      -7.245  53.148  53.918  0.00  0.00    +0.000 A 
ATOM     17  C   UNL     1      -9.069  54.290  51.969  0.00  0.00    +0.000 C 
ATOM     18  C   UNL     1      -8.508  52.630  53.684  0.00  0.00    +0.000 A 
ATOM     19  C   UNL     1      -6.345  52.540  54.798  0.00  0.00    +0.000 A 
ATOM     20  N   UNL     1      -9.398  53.250  52.811  0.00  0.00    +0.000 N 
ATOM     21  C   UNL     1      -8.906  51.506  54.415  0.00  0.00    +0.000 A 
ATOM     22  C   UNL     1      -6.742  51.399  55.491  0.00  0.00    +0.000 A 
ATOM     23  C   UNL     1      -8.026  50.888  55.308  0.00  0.00    +0.000 A 
ATOM     24  H   UNL     1      -7.837  55.723  51.378  0.00  0.00    +0.000 HD
ATOM     25  H   UNL     1     -10.327  52.924  52.795  0.00  0.00    +0.000 HD
ENDBRANCH   1  17
BRANCH   3  26
ATOM     26  O   UNL     1      -8.532  54.182  49.110  0.00  0.00    +0.000 OA
ATOM     27  H   UNL     1      -8.137  54.610  48.376  0.00  0.00    +0.000 HD
ENDBRANCH   3  26
BRANCH   5  28
ATOM     28  C   UNL     1     -13.667  55.981  50.777  0.00  0.00    +0.000 C 
BRANCH  28  29
ATOM     29  C   UNL     1     -13.783  57.471  51.143  0.00  0.00    +0.000 C 
BRANCH  29  30
ATOM     30  C   UNL     1     -14.497  57.809  52.462  0.00  0.00    +0.000 C 
ATOM     31  C   UNL     1     -14.963  59.262  52.523  0.00  0.00    +0.000 C 
ATOM     32  C   UNL     1     -15.704  56.875  52.622  0.00  0.00    +0.000 C 
ENDBRANCH  29  30
ENDBRANCH  28  29
ENDBRANCH   5  28
TORSDOF 5
ENDMDL
MODEL 5
REMARK VINA RESULT:      -7.8      3.467      5.163
REMARK  Name = 298159
REMARK  7 active torsions:
REMARK  status: ('A' for Active; 'I' for Inactive)
REMARK    1  A    between atoms: C_6  and  C_10
REMARK    2  A    between atoms: C_14  and  O_18
REMARK    3  A    between atoms: N_17  and  C_21
REMARK    4  A    between atoms: C_21  and  C_24
REMARK    5  A    between atoms: C_24  and  C_27
REMARK    6  A    between atoms: C_27  and  C_28
REMARK    7  A    between atoms: C_27  and  C_29
REMARK                            x       y       z     vdW  Elec       q    Type
REMARK                         _______ _______ _______ _____ _____    ______ ____
ROOT
ATOM      1  C   UNL     1     -11.602  55.912  48.750  0.00  0.00    +0.000 A 
ATOM      2  C   UNL     1     -10.574  55.236  49.599  0.00  0.00    +0.000 A 
ATOM      3  C   UNL     1     -11.719  55.588  47.452  0.00  0.00    +0.000 A 
ATOM      4  O   UNL     1     -10.575  55.472  50.812  0.00  0.00    +0.000 OA
ATOM      5  N   UNL     1      -9.676  54.361  49.000  0.00  0.00    +0.000 N 
ATOM      6  C   UNL     1     -10.854  54.555  46.862  0.00  0.00    +0.000 A 
ATOM      7  C   UNL     1      -9.857  53.943  47.643  0.00  0.00    +0.000 A 
ATOM      8  C   UNL     1     -11.032  54.151  45.526  0.00  0.00    +0.000 A 
ATOM      9  C   UNL     1      -9.093  52.914  47.069  0.00  0.00    +0.000 A 
ATOM     10  C   UNL     1     -10.244  53.147  44.967  0.00  0.00    +0.000 A 
ATOM     11  C   UNL     1      -9.277  52.526  45.741  0.00  0.00    +0.000 A 
ENDROOT
BRANCH   1  17
ATOM     12  S   UNL     1     -13.572  59.241  49.463  0.00  0.00    +0.000 S 
ATOM     13  O   UNL     1     -14.716  59.417  48.588  0.00  0.00    +0.000 OA
ATOM     14  O   UNL     1     -12.716  60.366  49.784  0.00  0.00    +0.000 OA
ATOM     15  N   UNL     1     -12.644  58.072  48.829  0.00  0.00    +0.000 N 
ATOM     16  C   UNL     1     -14.213  58.670  50.994  0.00  0.00    +0.000 A 
ATOM     17  C   UNL     1     -12.552  56.906  49.396  0.00  0.00    +0.000 C 
ATOM     18  C   UNL     1     -13.956  57.358  51.355  0.00  0.00    +0.000 A 
ATOM     19  C   UNL     1     -14.945  59.534  51.814  0.00  0.00    +0.000 A 
ATOM     20  N   UNL     1     -13.232  56.505  50.526  0.00  0.00    +0.000 N 
ATOM     21  C   UNL     1     -14.516  56.878  52.544  0.00  0.00    +0.000 A 
ATOM     22  C   UNL     1     -15.466  59.053  53.013  0.00  0.00    +0.000 A 
ATOM     23  C   UNL     1     -15.259  57.722  53.373  0.00  0.00    +0.000 A 
ATOM     24  H   UNL     1     -12.143  58.248  48.000  0.00  0.00    +0.000 HD
ATOM     25  H   UNL     1     -13.204  55.550  50.763  0.00  0.00    +0.000 HD
ENDBRANCH   1  17
BRANCH   3  26
ATOM     26  O   UNL     1     -12.658  56.130  46.592  0.00  0.00    +0.000 OA
ATOM     27  H   UNL     1     -13.226  55.568  46.102  0.00  0.00    +0.000 HD
ENDBRANCH   3  26
BRANCH   5  28
ATOM     28  C   UNL     1      -8.635  53.763  49.847  0.00  0.00    +0.000 C 
BRANCH  28  29
ATOM     29  C   UNL     1      -7.261  54.451  49.817  0.00  0.00    +0.000 C 
BRANCH  29  30
ATOM     30  C   UNL     1      -6.911  55.360  51.007  0.00  0.00    +0.000 C 
ATOM     31  C   UNL     1      -7.455  56.778  50.844  0.00  0.00    +0.000 C 
ATOM     32  C   UNL     1      -7.479  54.734  52.287  0.00  0.00    +0.000 C 
ENDBRANCH  29  30
ENDBRANCH  28  29
ENDBRANCH   5  28
TORSDOF 5
ENDMDL
MODEL 6
REMARK VINA RESULT:      -7.8      3.380      7.348
REMARK  Name = 298159
REMARK  7 active torsions:
REMARK  status: ('A' for Active; 'I' for Inactive)
REMARK    1  A    between atoms: C_6  and  C_10
REMARK    2  A    between atoms: C_14  and  O_18
REMARK    3  A    between atoms: N_17  and  C_21
REMARK    4  A    between atoms: C_21  and  C_24
REMARK    5  A    between atoms: C_24  and  C_27
REMARK    6  A    between atoms: C_27  and  C_28
REMARK    7  A    between atoms: C_27  and  C_29
REMARK                            x       y       z     vdW  Elec       q    Type
REMARK                         _______ _______ _______ _____ _____    ______ ____
ROOT
ATOM      1  C   UNL     1     -10.272  55.190  50.818  0.00  0.00    +0.000 A 
ATOM      2  C   UNL     1      -9.870  55.115  49.380  0.00  0.00    +0.000 A 
ATOM      3  C   UNL     1     -11.479  55.673  51.153  0.00  0.00    +0.000 A 
ATOM      4  O   UNL     1      -8.803  54.555  49.103  0.00  0.00    +0.000 OA
ATOM      5  N   UNL     1     -10.712  55.657  48.417  0.00  0.00    +0.000 N 
ATOM      6  C   UNL     1     -12.420  56.113  50.111  0.00  0.00    +0.000 A 
ATOM      7  C   UNL     1     -12.035  56.085  48.759  0.00  0.00    +0.000 A 
ATOM      8  C   UNL     1     -13.717  56.538  50.453  0.00  0.00    +0.000 A 
ATOM      9  C   UNL     1     -12.979  56.447  47.784  0.00  0.00    +0.000 A 
ATOM     10  C   UNL     1     -14.630  56.921  49.473  0.00  0.00    +0.000 A 
ATOM     11  C   UNL     1     -14.261  56.871  48.137  0.00  0.00    +0.000 A 
ENDROOT
BRANCH   1  17
ATOM     12  S   UNL     1      -7.053  54.691  53.022  0.00  0.00    +0.000 S 
ATOM     13  O   UNL     1      -6.944  55.666  54.092  0.00  0.00    +0.000 OA
ATOM     14  O   UNL     1      -5.881  54.306  52.262  0.00  0.00    +0.000 OA
ATOM     15  N   UNL     1      -8.172  55.227  51.979  0.00  0.00    +0.000 N 
ATOM     16  C   UNL     1      -7.650  53.217  53.767  0.00  0.00    +0.000 A 
ATOM     17  C   UNL     1      -9.328  54.642  51.876  0.00  0.00    +0.000 C 
ATOM     18  C   UNL     1      -8.944  52.822  53.472  0.00  0.00    +0.000 A 
ATOM     19  C   UNL     1      -6.823  52.475  54.615  0.00  0.00    +0.000 A 
ATOM     20  N   UNL     1      -9.760  53.574  52.631  0.00  0.00    +0.000 N 
ATOM     21  C   UNL     1      -9.447  51.682  54.109  0.00  0.00    +0.000 A 
ATOM     22  C   UNL     1      -7.325  51.322  55.214  0.00  0.00    +0.000 A 
ATOM     23  C   UNL     1      -8.641  50.932  54.969  0.00  0.00    +0.000 A 
ATOM     24  H   UNL     1      -7.973  56.009  51.416  0.00  0.00    +0.000 HD
ATOM     25  H   UNL     1     -10.711  53.325  52.573  0.00  0.00    +0.000 HD
ENDBRANCH   1  17
BRANCH   3  26
ATOM     26  O   UNL     1     -11.958  55.753  52.450  0.00  0.00    +0.000 OA
ATOM     27  H   UNL     1     -12.138  54.971  52.932  0.00  0.00    +0.000 HD
ENDBRANCH   3  26
BRANCH   5  28
ATOM     28  C   UNL     1     -10.260  55.628  47.019  0.00  0.00    +0.000 C 
BRANCH  28  29
ATOM     29  C   UNL     1     -10.573  54.343  46.234  0.00  0.00    +0.000 C 
BRANCH  29  30
ATOM     30  C   UNL     1      -9.377  53.583  45.638  0.00  0.00    +0.000 C 
ATOM     31  C   UNL     1      -9.692  52.965  44.278  0.00  0.00    +0.000 C 
ATOM     32  C   UNL     1      -8.196  54.553  45.502  0.00  0.00    +0.000 C 
ENDBRANCH  29  30
ENDBRANCH  28  29
ENDBRANCH   5  28
TORSDOF 5
ENDMDL
MODEL 7
REMARK VINA RESULT:      -7.7      1.627      2.336
REMARK  Name = 298159
REMARK  7 active torsions:
REMARK  status: ('A' for Active; 'I' for Inactive)
REMARK    1  A    between atoms: C_6  and  C_10
REMARK    2  A    between atoms: C_14  and  O_18
REMARK    3  A    between atoms: N_17  and  C_21
REMARK    4  A    between atoms: C_21  and  C_24
REMARK    5  A    between atoms: C_24  and  C_27
REMARK    6  A    between atoms: C_27  and  C_28
REMARK    7  A    between atoms: C_27  and  C_29
REMARK                            x       y       z     vdW  Elec       q    Type
REMARK                         _______ _______ _______ _____ _____    ______ ____
ROOT
ATOM      1  C   UNL     1     -10.198  54.604  51.967  0.00  0.00    +0.000 A 
ATOM      2  C   UNL     1      -8.807  55.153  51.943  0.00  0.00    +0.000 A 
ATOM      3  C   UNL     1     -10.467  53.488  52.664  0.00  0.00    +0.000 A 
ATOM      4  O   UNL     1      -8.623  56.244  51.392  0.00  0.00    +0.000 OA
ATOM      5  N   UNL     1      -7.788  54.431  52.551  0.00  0.00    +0.000 N 
ATOM      6  C   UNL     1      -9.404  52.810  53.422  0.00  0.00    +0.000 A 
ATOM      7  C   UNL     1      -8.084  53.295  53.371  0.00  0.00    +0.000 A 
ATOM      8  C   UNL     1      -9.699  51.691  54.223  0.00  0.00    +0.000 A 
ATOM      9  C   UNL     1      -7.107  52.666  54.159  0.00  0.00    +0.000 A 
ATOM     10  C   UNL     1      -8.708  51.063  54.975  0.00  0.00    +0.000 A 
ATOM     11  C   UNL     1      -7.413  51.554  54.946  0.00  0.00    +0.000 A 
ENDROOT
BRANCH   1  17
ATOM     12  S   UNL     1     -13.592  56.488  51.339  0.00  0.00    +0.000 S 
ATOM     13  O   UNL     1     -13.569  57.863  51.802  0.00  0.00    +0.000 OA
ATOM     14  O   UNL     1     -14.764  55.663  51.555  0.00  0.00    +0.000 OA
ATOM     15  N   UNL     1     -12.318  55.727  51.991  0.00  0.00    +0.000 N 
ATOM     16  C   UNL     1     -13.366  56.557  49.599  0.00  0.00    +0.000 A 
ATOM     17  C   UNL     1     -11.304  55.369  51.260  0.00  0.00    +0.000 C 
ATOM     18  C   UNL     1     -12.165  56.098  49.084  0.00  0.00    +0.000 A 
ATOM     19  C   UNL     1     -14.385  57.050  48.778  0.00  0.00    +0.000 A 
ATOM     20  N   UNL     1     -11.155  55.617  49.913  0.00  0.00    +0.000 N 
ATOM     21  C   UNL     1     -11.953  56.208  47.705  0.00  0.00    +0.000 A 
ATOM     22  C   UNL     1     -14.174  57.119  47.403  0.00  0.00    +0.000 A 
ATOM     23  C   UNL     1     -12.954  56.707  46.868  0.00  0.00    +0.000 A 
ATOM     24  H   UNL     1     -12.312  55.534  52.955  0.00  0.00    +0.000 HD
ATOM     25  H   UNL     1     -10.275  55.442  49.509  0.00  0.00    +0.000 HD
ENDBRANCH   1  17
BRANCH   3  26
ATOM     26  O   UNL     1     -11.724  52.920  52.777  0.00  0.00    +0.000 OA
ATOM     27  H   UNL     1     -11.864  52.206  53.367  0.00  0.00    +0.000 HD
ENDBRANCH   3  26
BRANCH   5  28
ATOM     28  C   UNL     1      -6.422  54.962  52.453  0.00  0.00    +0.000 C 
BRANCH  28  29
ATOM     29  C   UNL     1      -5.554  54.391  51.319  0.00  0.00    +0.000 C 
BRANCH  29  30
ATOM     30  C   UNL     1      -4.224  53.734  51.723  0.00  0.00    +0.000 C 
ATOM     31  C   UNL     1      -3.847  54.015  53.176  0.00  0.00    +0.000 C 
ATOM     32  C   UNL     1      -4.336  52.219  51.504  0.00  0.00    +0.000 C 
ENDBRANCH  29  30
ENDBRANCH  28  29
ENDBRANCH   5  28
TORSDOF 5
ENDMDL
MODEL 8
REMARK VINA RESULT:      -7.6      2.524      8.127
REMARK  Name = 298159
REMARK  7 active torsions:
REMARK  status: ('A' for Active; 'I' for Inactive)
REMARK    1  A    between atoms: C_6  and  C_10
REMARK    2  A    between atoms: C_14  and  O_18
REMARK    3  A    between atoms: N_17  and  C_21
REMARK    4  A    between atoms: C_21  and  C_24
REMARK    5  A    between atoms: C_24  and  C_27
REMARK    6  A    between atoms: C_27  and  C_28
REMARK    7  A    between atoms: C_27  and  C_29
REMARK                            x       y       z     vdW  Elec       q    Type
REMARK                         _______ _______ _______ _____ _____    ______ ____
ROOT
ATOM      1  C   UNL     1     -10.495  54.924  50.525  0.00  0.00    +0.000 A 
ATOM      2  C   UNL     1     -11.602  55.334  51.443  0.00  0.00    +0.000 A 
ATOM      3  C   UNL     1     -10.614  55.122  49.202  0.00  0.00    +0.000 A 
ATOM      4  O   UNL     1     -11.408  55.248  52.661  0.00  0.00    +0.000 OA
ATOM      5  N   UNL     1     -12.789  55.808  50.897  0.00  0.00    +0.000 N 
ATOM      6  C   UNL     1     -11.820  55.757  48.649  0.00  0.00    +0.000 A 
ATOM      7  C   UNL     1     -12.884  56.107  49.501  0.00  0.00    +0.000 A 
ATOM      8  C   UNL     1     -11.911  56.043  47.274  0.00  0.00    +0.000 A 
ATOM      9  C   UNL     1     -13.992  56.772  48.952  0.00  0.00    +0.000 A 
ATOM     10  C   UNL     1     -13.032  56.678  46.745  0.00  0.00    +0.000 A 
ATOM     11  C   UNL     1     -14.071  57.046  47.585  0.00  0.00    +0.000 A 
ENDROOT
BRANCH   1  17
ATOM     12  S   UNL     1      -7.622  52.396  51.428  0.00  0.00    +0.000 S 
ATOM     13  O   UNL     1      -6.647  52.245  50.363  0.00  0.00    +0.000 OA
ATOM     14  O   UNL     1      -8.078  51.238  52.172  0.00  0.00    +0.000 OA
ATOM     15  N   UNL     1      -8.923  53.133  50.803  0.00  0.00    +0.000 N 
ATOM     16  C   UNL     1      -6.889  53.469  52.609  0.00  0.00    +0.000 A 
ATOM     17  C   UNL     1      -9.216  54.360  51.119  0.00  0.00    +0.000 C 
ATOM     18  C   UNL     1      -7.415  54.744  52.737  0.00  0.00    +0.000 A 
ATOM     19  C   UNL     1      -5.820  53.026  53.393  0.00  0.00    +0.000 A 
ATOM     20  N   UNL     1      -8.475  55.177  51.945  0.00  0.00    +0.000 N 
ATOM     21  C   UNL     1      -6.798  55.626  53.632  0.00  0.00    +0.000 A 
ATOM     22  C   UNL     1      -5.239  53.902  54.306  0.00  0.00    +0.000 A 
ATOM     23  C   UNL     1      -5.721  55.206  54.417  0.00  0.00    +0.000 A 
ATOM     24  H   UNL     1      -9.500  52.645  50.174  0.00  0.00    +0.000 HD
ATOM     25  H   UNL     1      -8.711  56.132  51.977  0.00  0.00    +0.000 HD
ENDBRANCH   1  17
BRANCH   3  26
ATOM     26  O   UNL     1      -9.636  54.809  48.273  0.00  0.00    +0.000 OA
ATOM     27  H   UNL     1      -8.786  54.540  48.560  0.00  0.00    +0.000 HD
ENDBRANCH   3  26
BRANCH   5  28
ATOM     28  C   UNL     1     -13.881  56.139  51.822  0.00  0.00    +0.000 C 
BRANCH  28  29
ATOM     29  C   UNL     1     -13.832  57.542  52.451  0.00  0.00    +0.000 C 
BRANCH  29  30
ATOM     30  C   UNL     1     -15.048  58.454  52.214  0.00  0.00    +0.000 C 
ATOM     31  C   UNL     1     -15.450  59.234  53.463  0.00  0.00    +0.000 C 
ATOM     32  C   UNL     1     -14.715  59.433  51.080  0.00  0.00    +0.000 C 
ENDBRANCH  29  30
ENDBRANCH  28  29
ENDBRANCH   5  28
TORSDOF 5
ENDMDL
MODEL 9
REMARK VINA RESULT:      -7.5      3.614      7.602
REMARK  Name = 298159
REMARK  7 active torsions:
REMARK  status: ('A' for Active; 'I' for Inactive)
REMARK    1  A    between atoms: C_6  and  C_10
REMARK    2  A    between atoms: C_14  and  O_18
REMARK    3  A    between atoms: N_17  and  C_21
REMARK    4  A    between atoms: C_21  and  C_24
REMARK    5  A    between atoms: C_24  and  C_27
REMARK    6  A    between atoms: C_27  and  C_28
REMARK    7  A    between atoms: C_27  and  C_29
REMARK                            x       y       z     vdW  Elec       q    Type
REMARK                         _______ _______ _______ _____ _____    ______ ____
ROOT
ATOM      1  C   UNL     1     -10.370  54.871  50.292  0.00  0.00    +0.000 A 
ATOM      2  C   UNL     1     -10.212  54.726  48.812  0.00  0.00    +0.000 A 
ATOM      3  C   UNL     1     -11.388  55.592  50.790  0.00  0.00    +0.000 A 
ATOM      4  O   UNL     1      -9.338  53.958  48.394  0.00  0.00    +0.000 OA
ATOM      5  N   UNL     1     -11.057  55.439  47.971  0.00  0.00    +0.000 N 
ATOM      6  C   UNL     1     -12.362  56.227  49.888  0.00  0.00    +0.000 A 
ATOM      7  C   UNL     1     -12.196  56.131  48.495  0.00  0.00    +0.000 A 
ATOM      8  C   UNL     1     -13.477  56.911  50.407  0.00  0.00    +0.000 A 
ATOM      9  C   UNL     1     -13.179  56.690  47.662  0.00  0.00    +0.000 A 
ATOM     10  C   UNL     1     -14.426  57.484  49.563  0.00  0.00    +0.000 A 
ATOM     11  C   UNL     1     -14.278  57.370  48.190  0.00  0.00    +0.000 A 
ENDROOT
BRANCH   1  17
ATOM     12  S   UNL     1      -8.614  51.936  52.233  0.00  0.00    +0.000 S 
ATOM     13  O   UNL     1      -7.660  51.210  51.416  0.00  0.00    +0.000 OA
ATOM     14  O   UNL     1      -9.498  51.223  53.133  0.00  0.00    +0.000 OA
ATOM     15  N   UNL     1      -9.529  52.835  51.241  0.00  0.00    +0.000 N 
ATOM     16  C   UNL     1      -7.667  53.016  53.243  0.00  0.00    +0.000 A 
ATOM     17  C   UNL     1      -9.415  54.129  51.211  0.00  0.00    +0.000 C 
ATOM     18  C   UNL     1      -7.738  54.374  52.982  0.00  0.00    +0.000 A 
ATOM     19  C   UNL     1      -6.884  52.500  54.280  0.00  0.00    +0.000 A 
ATOM     20  N   UNL     1      -8.516  54.875  51.941  0.00  0.00    +0.000 N 
ATOM     21  C   UNL     1      -6.939  55.235  53.742  0.00  0.00    +0.000 A 
ATOM     22  C   UNL     1      -6.121  53.373  55.052  0.00  0.00    +0.000 A 
ATOM     23  C   UNL     1      -6.141  54.740  54.776  0.00  0.00    +0.000 A 
ATOM     24  H   UNL     1     -10.181  52.392  50.651  0.00  0.00    +0.000 HD
ATOM     25  H   UNL     1      -8.415  55.827  51.711  0.00  0.00    +0.000 HD
ENDBRANCH   1  17
BRANCH   3  26
ATOM     26  O   UNL     1     -11.641  55.760  52.140  0.00  0.00    +0.000 OA
ATOM     27  H   UNL     1     -12.493  56.022  52.428  0.00  0.00    +0.000 HD
ENDBRANCH   3  26
BRANCH   5  28
ATOM     28  C   UNL     1     -10.834  55.328  46.524  0.00  0.00    +0.000 C 
BRANCH  28  29
ATOM     29  C   UNL     1     -11.737  54.333  45.775  0.00  0.00    +0.000 C 
BRANCH  29  30
ATOM     30  C   UNL     1     -11.063  53.439  44.721  0.00  0.00    +0.000 C 
ATOM     31  C   UNL     1      -9.546  53.372  44.891  0.00  0.00    +0.000 C 
ATOM     32  C   UNL     1     -11.655  52.027  44.822  0.00  0.00    +0.000 C 
ENDBRANCH  29  30
ENDBRANCH  28  29
ENDBRANCH   5  28
TORSDOF 5
ENDMDL
