MODEL 1
REMARK VINA RESULT:      -7.9      0.000      0.000
REMARK  Name = 338043
REMARK  7 active torsions:
REMARK  status: ('A' for Active; 'I' for Inactive)
REMARK    1  A    between atoms: C_6  and  C_10
REMARK    2  A    between atoms: C_14  and  O_18
REMARK    3  A    between atoms: N_17  and  C_21
REMARK    4  A    between atoms: C_21  and  C_24
REMARK    5  A    between atoms: C_24  and  C_27
REMARK    6  A    between atoms: C_27  and  C_28
REMARK    7  A    between atoms: C_28  and  C_29
REMARK                            x       y       z     vdW  Elec       q    Type
REMARK                         _______ _______ _______ _____ _____    ______ ____
ROOT
ATOM      1  C   UNL     1     -10.831  55.234  50.991  0.00  0.00    +0.000 A 
ATOM      2  C   UNL     1     -12.049  55.904  51.543  0.00  0.00    +0.000 A 
ATOM      3  C   UNL     1     -10.664  55.137  49.660  0.00  0.00    +0.000 A 
ATOM      4  O   UNL     1     -12.118  56.067  52.766  0.00  0.00    +0.000 OA
ATOM      5  N   UNL     1     -13.038  56.332  50.664  0.00  0.00    +0.000 N 
ATOM      6  C   UNL     1     -11.658  55.707  48.740  0.00  0.00    +0.000 A 
ATOM      7  C   UNL     1     -12.820  56.315  49.250  0.00  0.00    +0.000 A 
ATOM      8  C   UNL     1     -11.445  55.680  47.350  0.00  0.00    +0.000 A 
ATOM      9  C   UNL     1     -13.715  56.915  48.349  0.00  0.00    +0.000 A 
ATOM     10  C   UNL     1     -12.362  56.252  46.469  0.00  0.00    +0.000 A 
ATOM     11  C   UNL     1     -13.495  56.873  46.971  0.00  0.00    +0.000 A 
ENDROOT
BRANCH   1  17
ATOM     12  S   UNL     1      -7.403  54.922  52.891  0.00  0.00    +0.000 S 
ATOM     13  O   UNL     1      -7.267  55.890  53.962  0.00  0.00    +0.000 OA
ATOM     14  O   UNL     1      -6.278  54.626  52.024  0.00  0.00    +0.000 OA
ATOM     15  N   UNL     1      -8.641  55.393  51.957  0.00  0.00    +0.000 N 
ATOM     16  C   UNL     1      -7.833  53.402  53.657  0.00  0.00    +0.000 A 
ATOM     17  C   UNL     1      -9.764  54.738  51.948  0.00  0.00    +0.000 C 
ATOM     18  C   UNL     1      -9.122  52.930  53.474  0.00  0.00    +0.000 A 
ATOM     19  C   UNL     1      -6.885  52.703  54.411  0.00  0.00    +0.000 A 
ATOM     20  N   UNL     1     -10.058  53.637  52.726  0.00  0.00    +0.000 N 
ATOM     21  C   UNL     1      -9.492  51.751  54.133  0.00  0.00    +0.000 A 
ATOM     22  C   UNL     1      -7.257  51.512  55.030  0.00  0.00    +0.000 A 
ATOM     23  C   UNL     1      -8.564  51.042  54.899  0.00  0.00    +0.000 A 
ATOM     24  H   UNL     1      -8.540  56.189  51.385  0.00  0.00    +0.000 HD
ATOM     25  H   UNL     1     -10.993  53.332  52.753  0.00  0.00    +0.000 HD
ENDBRANCH   1  17
BRANCH   3  26
ATOM     26  O   UNL     1      -9.561  54.565  49.050  0.00  0.00    +0.000 OA
ATOM     27  H   UNL     1      -9.023  53.961  49.525  0.00  0.00    +0.000 HD
ENDBRANCH   3  26
BRANCH   5  28
ATOM     28  C   UNL     1     -14.250  56.928  51.240  0.00  0.00    +0.000 C 
BRANCH  28  29
ATOM     29  C   UNL     1     -14.180  58.427  51.563  0.00  0.00    +0.000 C 
BRANCH  29  30
ATOM     30  C   UNL     1     -15.275  59.286  50.928  0.00  0.00    +0.000 C 
BRANCH  30  31
ATOM     31  C   UNL     1     -14.669  60.109  49.784  0.00  0.00    +0.000 C 
ATOM     32  C   UNL     1     -13.158  60.221  49.879  0.00  0.00    +0.000 C 
ENDBRANCH  30  31
ENDBRANCH  29  30
ENDBRANCH  28  29
ENDBRANCH   5  28
TORSDOF 6
ENDMDL
MODEL 2
REMARK VINA RESULT:      -7.8      2.466      7.641
REMARK  Name = 338043
REMARK  7 active torsions:
REMARK  status: ('A' for Active; 'I' for Inactive)
REMARK    1  A    between atoms: C_6  and  C_10
REMARK    2  A    between atoms: C_14  and  O_18
REMARK    3  A    between atoms: N_17  and  C_21
REMARK    4  A    between atoms: C_21  and  C_24
REMARK    5  A    between atoms: C_24  and  C_27
REMARK    6  A    between atoms: C_27  and  C_28
REMARK    7  A    between atoms: C_28  and  C_29
REMARK                            x       y       z     vdW  Elec       q    Type
REMARK                         _______ _______ _______ _____ _____    ______ ____
ROOT
ATOM      1  C   UNL     1     -10.095  54.438  52.236  0.00  0.00    +0.000 A 
ATOM      2  C   UNL     1      -8.713  54.991  52.097  0.00  0.00    +0.000 A 
ATOM      3  C   UNL     1     -10.304  53.332  52.972  0.00  0.00    +0.000 A 
ATOM      4  O   UNL     1      -8.573  56.065  51.501  0.00  0.00    +0.000 OA
ATOM      5  N   UNL     1      -7.648  54.291  52.655  0.00  0.00    +0.000 N 
ATOM      6  C   UNL     1      -9.187  52.673  53.662  0.00  0.00    +0.000 A 
ATOM      7  C   UNL     1      -7.879  53.170  53.514  0.00  0.00    +0.000 A 
ATOM      8  C   UNL     1      -9.416  51.565  54.497  0.00  0.00    +0.000 A 
ATOM      9  C   UNL     1      -6.843  52.563  54.245  0.00  0.00    +0.000 A 
ATOM     10  C   UNL     1      -8.370  50.955  55.188  0.00  0.00    +0.000 A 
ATOM     11  C   UNL     1      -7.084  51.458  55.065  0.00  0.00    +0.000 A 
ENDROOT
BRANCH   1  17
ATOM     12  S   UNL     1     -12.459  55.994  49.506  0.00  0.00    +0.000 S 
ATOM     13  O   UNL     1     -13.364  55.019  48.928  0.00  0.00    +0.000 OA
ATOM     14  O   UNL     1     -11.809  56.980  48.663  0.00  0.00    +0.000 OA
ATOM     15  N   UNL     1     -11.303  55.182  50.302  0.00  0.00    +0.000 N 
ATOM     16  C   UNL     1     -13.401  56.904  50.673  0.00  0.00    +0.000 A 
ATOM     17  C   UNL     1     -11.254  55.183  51.601  0.00  0.00    +0.000 C 
ATOM     18  C   UNL     1     -13.129  56.706  52.017  0.00  0.00    +0.000 A 
ATOM     19  C   UNL     1     -14.379  57.804  50.238  0.00  0.00    +0.000 A 
ATOM     20  N   UNL     1     -12.157  55.804  52.438  0.00  0.00    +0.000 N 
ATOM     21  C   UNL     1     -13.918  57.381  52.955  0.00  0.00    +0.000 A 
ATOM     22  C   UNL     1     -15.131  58.497  51.184  0.00  0.00    +0.000 A 
ATOM     23  C   UNL     1     -14.908  58.277  52.543  0.00  0.00    +0.000 A 
ATOM     24  H   UNL     1     -10.627  54.679  49.792  0.00  0.00    +0.000 HD
ATOM     25  H   UNL     1     -12.110  55.595  53.399  0.00  0.00    +0.000 HD
ENDBRANCH   1  17
BRANCH   3  26
ATOM     26  O   UNL     1     -11.546  52.759  53.187  0.00  0.00    +0.000 OA
ATOM     27  H   UNL     1     -12.010  52.930  53.983  0.00  0.00    +0.000 HD
ENDBRANCH   3  26
BRANCH   5  28
ATOM     28  C   UNL     1      -6.297  54.825  52.448  0.00  0.00    +0.000 C 
BRANCH  28  29
ATOM     29  C   UNL     1      -5.501  54.223  51.281  0.00  0.00    +0.000 C 
BRANCH  29  30
ATOM     30  C   UNL     1      -5.661  54.940  49.940  0.00  0.00    +0.000 C 
BRANCH  30  31
ATOM     31  C   UNL     1      -6.626  54.142  49.053  0.00  0.00    +0.000 C 
ATOM     32  C   UNL     1      -7.573  55.031  48.270  0.00  0.00    +0.000 C 
ENDBRANCH  30  31
ENDBRANCH  29  30
ENDBRANCH  28  29
ENDBRANCH   5  28
TORSDOF 6
ENDMDL
MODEL 3
REMARK VINA RESULT:      -7.5      1.463      1.755
REMARK  Name = 338043
REMARK  7 active torsions:
REMARK  status: ('A' for Active; 'I' for Inactive)
REMARK    1  A    between atoms: C_6  and  C_10
REMARK    2  A    between atoms: C_14  and  O_18
REMARK    3  A    between atoms: N_17  and  C_21
REMARK    4  A    between atoms: C_21  and  C_24
REMARK    5  A    between atoms: C_24  and  C_27
REMARK    6  A    between atoms: C_27  and  C_28
REMARK    7  A    between atoms: C_28  and  C_29
REMARK                            x       y       z     vdW  Elec       q    Type
REMARK                         _______ _______ _______ _____ _____    ______ ____
ROOT
ATOM      1  C   UNL     1     -10.005  54.341  51.058  0.00  0.00    +0.000 A 
ATOM      2  C   UNL     1     -11.122  55.270  51.413  0.00  0.00    +0.000 A 
ATOM      3  C   UNL     1      -9.767  54.041  49.769  0.00  0.00    +0.000 A 
ATOM      4  O   UNL     1     -11.245  55.605  52.597  0.00  0.00    +0.000 OA
ATOM      5  N   UNL     1     -11.959  55.734  50.404  0.00  0.00    +0.000 N 
ATOM      6  C   UNL     1     -10.581  54.638  48.702  0.00  0.00    +0.000 A 
ATOM      7  C   UNL     1     -11.650  55.492  49.028  0.00  0.00    +0.000 A 
ATOM      8  C   UNL     1     -10.281  54.391  47.350  0.00  0.00    +0.000 A 
ATOM      9  C   UNL     1     -12.363  56.106  47.983  0.00  0.00    +0.000 A 
ATOM     10  C   UNL     1     -11.022  54.983  46.327  0.00  0.00    +0.000 A 
ATOM     11  C   UNL     1     -12.060  55.844  46.646  0.00  0.00    +0.000 A 
ENDROOT
BRANCH   1  17
ATOM     12  S   UNL     1      -6.813  53.696  53.262  0.00  0.00    +0.000 S 
ATOM     13  O   UNL     1      -6.551  54.774  54.196  0.00  0.00    +0.000 OA
ATOM     14  O   UNL     1      -5.721  53.070  52.541  0.00  0.00    +0.000 OA
ATOM     15  N   UNL     1      -7.883  54.239  52.171  0.00  0.00    +0.000 N 
ATOM     16  C   UNL     1      -7.572  52.416  54.193  0.00  0.00    +0.000 A 
ATOM     17  C   UNL     1      -9.110  53.808  52.161  0.00  0.00    +0.000 C 
ATOM     18  C   UNL     1      -8.916  52.166  53.971  0.00  0.00    +0.000 A 
ATOM     19  C   UNL     1      -6.821  51.677  55.113  0.00  0.00    +0.000 A 
ATOM     20  N   UNL     1      -9.654  52.912  53.056  0.00  0.00    +0.000 N 
ATOM     21  C   UNL     1      -9.543  51.190  54.753  0.00  0.00    +0.000 A 
ATOM     22  C   UNL     1      -7.451  50.683  55.858  0.00  0.00    +0.000 A 
ATOM     23  C   UNL     1      -8.815  50.447  55.685  0.00  0.00    +0.000 A 
ATOM     24  H   UNL     1      -7.598  54.907  51.506  0.00  0.00    +0.000 HD
ATOM     25  H   UNL     1     -10.631  52.792  53.048  0.00  0.00    +0.000 HD
ENDBRANCH   1  17
BRANCH   3  26
ATOM     26  O   UNL     1      -8.743  53.218  49.334  0.00  0.00    +0.000 OA
ATOM     27  H   UNL     1      -8.872  52.290  49.292  0.00  0.00    +0.000 HD
ENDBRANCH   3  26
BRANCH   5  28
ATOM     28  C   UNL     1     -13.083  56.594  50.793  0.00  0.00    +0.000 C 
BRANCH  28  29
ATOM     29  C   UNL     1     -14.414  55.883  51.078  0.00  0.00    +0.000 C 
BRANCH  29  30
ATOM     30  C   UNL     1     -15.551  56.788  51.553  0.00  0.00    +0.000 C 
BRANCH  30  31
ATOM     31  C   UNL     1     -15.126  57.495  52.847  0.00  0.00    +0.000 C 
ATOM     32  C   UNL     1     -15.123  59.007  52.714  0.00  0.00    +0.000 C 
ENDBRANCH  30  31
ENDBRANCH  29  30
ENDBRANCH  28  29
ENDBRANCH   5  28
TORSDOF 6
ENDMDL
MODEL 4
REMARK VINA RESULT:      -7.5      3.099      6.767
REMARK  Name = 338043
REMARK  7 active torsions:
REMARK  status: ('A' for Active; 'I' for Inactive)
REMARK    1  A    between atoms: C_6  and  C_10
REMARK    2  A    between atoms: C_14  and  O_18
REMARK    3  A    between atoms: N_17  and  C_21
REMARK    4  A    between atoms: C_21  and  C_24
REMARK    5  A    between atoms: C_24  and  C_27
REMARK    6  A    between atoms: C_27  and  C_28
REMARK    7  A    between atoms: C_28  and  C_29
REMARK                            x       y       z     vdW  Elec       q    Type
REMARK                         _______ _______ _______ _____ _____    ______ ____
ROOT
ATOM      1  C   UNL     1     -11.567  55.800  48.829  0.00  0.00    +0.000 A 
ATOM      2  C   UNL     1     -10.620  55.065  49.722  0.00  0.00    +0.000 A 
ATOM      3  C   UNL     1     -11.611  55.513  47.516  0.00  0.00    +0.000 A 
ATOM      4  O   UNL     1     -10.681  55.282  50.938  0.00  0.00    +0.000 OA
ATOM      5  N   UNL     1      -9.728  54.159  49.158  0.00  0.00    +0.000 N 
ATOM      6  C   UNL     1     -10.751  54.463  46.954  0.00  0.00    +0.000 A 
ATOM      7  C   UNL     1      -9.837  53.785  47.782  0.00  0.00    +0.000 A 
ATOM      8  C   UNL     1     -10.853  54.104  45.598  0.00  0.00    +0.000 A 
ATOM      9  C   UNL     1      -9.081  52.736  47.230  0.00  0.00    +0.000 A 
ATOM     10  C   UNL     1     -10.070  53.083  45.061  0.00  0.00    +0.000 A 
ATOM     11  C   UNL     1      -9.188  52.396  45.880  0.00  0.00    +0.000 A 
ENDROOT
BRANCH   1  17
ATOM     12  S   UNL     1     -13.533  59.152  49.434  0.00  0.00    +0.000 S 
ATOM     13  O   UNL     1     -14.665  59.306  48.541  0.00  0.00    +0.000 OA
ATOM     14  O   UNL     1     -12.679  60.285  49.736  0.00  0.00    +0.000 OA
ATOM     15  N   UNL     1     -12.597  57.967  48.844  0.00  0.00    +0.000 N 
ATOM     16  C   UNL     1     -14.192  58.623  50.973  0.00  0.00    +0.000 A 
ATOM     17  C   UNL     1     -12.520  56.813  49.437  0.00  0.00    +0.000 C 
ATOM     18  C   UNL     1     -13.948  57.318  51.365  0.00  0.00    +0.000 A 
ATOM     19  C   UNL     1     -14.926  59.512  51.764  0.00  0.00    +0.000 A 
ATOM     20  N   UNL     1     -13.220  56.441  50.566  0.00  0.00    +0.000 N 
ATOM     21  C   UNL     1     -14.522  56.870  52.560  0.00  0.00    +0.000 A 
ATOM     22  C   UNL     1     -15.461  59.062  52.970  0.00  0.00    +0.000 A 
ATOM     23  C   UNL     1     -15.268  57.738  53.362  0.00  0.00    +0.000 A 
ATOM     24  H   UNL     1     -12.079  58.124  48.021  0.00  0.00    +0.000 HD
ATOM     25  H   UNL     1     -13.204  55.491  50.823  0.00  0.00    +0.000 HD
ENDBRANCH   1  17
BRANCH   3  26
ATOM     26  O   UNL     1     -12.470  56.114  46.613  0.00  0.00    +0.000 OA
ATOM     27  H   UNL     1     -13.050  56.793  46.897  0.00  0.00    +0.000 HD
ENDBRANCH   3  26
BRANCH   5  28
ATOM     28  C   UNL     1      -8.769  53.501  50.053  0.00  0.00    +0.000 C 
BRANCH  28  29
ATOM     29  C   UNL     1      -7.456  54.253  50.311  0.00  0.00    +0.000 C 
BRANCH  29  30
ATOM     30  C   UNL     1      -7.136  54.527  51.782  0.00  0.00    +0.000 C 
BRANCH  30  31
ATOM     31  C   UNL     1      -7.449  55.996  52.100  0.00  0.00    +0.000 C 
ATOM     32  C   UNL     1      -7.548  56.856  50.854  0.00  0.00    +0.000 C 
ENDBRANCH  30  31
ENDBRANCH  29  30
ENDBRANCH  28  29
ENDBRANCH   5  28
TORSDOF 6
ENDMDL
MODEL 5
REMARK VINA RESULT:      -7.5      1.624      4.049
REMARK  Name = 338043
REMARK  7 active torsions:
REMARK  status: ('A' for Active; 'I' for Inactive)
REMARK    1  A    between atoms: C_6  and  C_10
REMARK    2  A    between atoms: C_14  and  O_18
REMARK    3  A    between atoms: N_17  and  C_21
REMARK    4  A    between atoms: C_21  and  C_24
REMARK    5  A    between atoms: C_24  and  C_27
REMARK    6  A    between atoms: C_27  and  C_28
REMARK    7  A    between atoms: C_28  and  C_29
REMARK                            x       y       z     vdW  Elec       q    Type
REMARK                         _______ _______ _______ _____ _____    ______ ____
ROOT
ATOM      1  C   UNL     1     -10.271  55.184  50.849  0.00  0.00    +0.000 A 
ATOM      2  C   UNL     1      -9.871  55.111  49.410  0.00  0.00    +0.000 A 
ATOM      3  C   UNL     1     -11.477  55.676  51.187  0.00  0.00    +0.000 A 
ATOM      4  O   UNL     1      -8.801  54.557  49.132  0.00  0.00    +0.000 OA
ATOM      5  N   UNL     1     -10.721  55.645  48.448  0.00  0.00    +0.000 N 
ATOM      6  C   UNL     1     -12.417  56.120  50.149  0.00  0.00    +0.000 A 
ATOM      7  C   UNL     1     -12.039  56.081  48.794  0.00  0.00    +0.000 A 
ATOM      8  C   UNL     1     -13.708  56.558  50.494  0.00  0.00    +0.000 A 
ATOM      9  C   UNL     1     -12.986  56.444  47.822  0.00  0.00    +0.000 A 
ATOM     10  C   UNL     1     -14.623  56.946  49.516  0.00  0.00    +0.000 A 
ATOM     11  C   UNL     1     -14.262  56.884  48.180  0.00  0.00    +0.000 A 
ENDROOT
BRANCH   1  17
ATOM     12  S   UNL     1      -7.057  54.662  53.054  0.00  0.00    +0.000 S 
ATOM     13  O   UNL     1      -6.946  55.637  54.121  0.00  0.00    +0.000 OA
ATOM     14  O   UNL     1      -5.884  54.271  52.295  0.00  0.00    +0.000 OA
ATOM     15  N   UNL     1      -8.169  55.203  52.006  0.00  0.00    +0.000 N 
ATOM     16  C   UNL     1      -7.663  53.191  53.796  0.00  0.00    +0.000 A 
ATOM     17  C   UNL     1      -9.332  54.630  51.905  0.00  0.00    +0.000 C 
ATOM     18  C   UNL     1      -8.961  52.809  53.503  0.00  0.00    +0.000 A 
ATOM     19  C   UNL     1      -6.839  52.440  54.640  0.00  0.00    +0.000 A 
ATOM     20  N   UNL     1      -9.773  53.568  52.666  0.00  0.00    +0.000 N 
ATOM     21  C   UNL     1      -9.472  51.672  54.140  0.00  0.00    +0.000 A 
ATOM     22  C   UNL     1      -7.350  51.290  55.237  0.00  0.00    +0.000 A 
ATOM     23  C   UNL     1      -8.671  50.912  54.995  0.00  0.00    +0.000 A 
ATOM     24  H   UNL     1      -7.961  55.979  51.437  0.00  0.00    +0.000 HD
ATOM     25  H   UNL     1     -10.727  53.330  52.612  0.00  0.00    +0.000 HD
ENDBRANCH   1  17
BRANCH   3  26
ATOM     26  O   UNL     1     -11.952  55.758  52.484  0.00  0.00    +0.000 OA
ATOM     27  H   UNL     1     -12.083  54.978  52.986  0.00  0.00    +0.000 HD
ENDBRANCH   3  26
BRANCH   5  28
ATOM     28  C   UNL     1     -10.272  55.615  47.050  0.00  0.00    +0.000 C 
BRANCH  28  29
ATOM     29  C   UNL     1     -10.532  54.311  46.282  0.00  0.00    +0.000 C 
BRANCH  29  30
ATOM     30  C   UNL     1      -9.313  53.707  45.585  0.00  0.00    +0.000 C 
BRANCH  30  31
ATOM     31  C   UNL     1      -8.150  54.706  45.648  0.00  0.00    +0.000 C 
ATOM     32  C   UNL     1      -6.903  54.114  46.279  0.00  0.00    +0.000 C 
ENDBRANCH  30  31
ENDBRANCH  29  30
ENDBRANCH  28  29
ENDBRANCH   5  28
TORSDOF 6
ENDMDL
MODEL 6
REMARK VINA RESULT:      -7.5      1.791      2.249
REMARK  Name = 338043
REMARK  7 active torsions:
REMARK  status: ('A' for Active; 'I' for Inactive)
REMARK    1  A    between atoms: C_6  and  C_10
REMARK    2  A    between atoms: C_14  and  O_18
REMARK    3  A    between atoms: N_17  and  C_21
REMARK    4  A    between atoms: C_21  and  C_24
REMARK    5  A    between atoms: C_24  and  C_27
REMARK    6  A    between atoms: C_27  and  C_28
REMARK    7  A    between atoms: C_28  and  C_29
REMARK                            x       y       z     vdW  Elec       q    Type
REMARK                         _______ _______ _______ _____ _____    ______ ____
ROOT
ATOM      1  C   UNL     1     -10.516  54.946  50.549  0.00  0.00    +0.000 A 
ATOM      2  C   UNL     1     -11.611  55.407  51.457  0.00  0.00    +0.000 A 
ATOM      3  C   UNL     1     -10.633  55.109  49.219  0.00  0.00    +0.000 A 
ATOM      4  O   UNL     1     -11.423  55.336  52.676  0.00  0.00    +0.000 OA
ATOM      5  N   UNL     1     -12.779  55.915  50.898  0.00  0.00    +0.000 N 
ATOM      6  C   UNL     1     -11.819  55.763  48.651  0.00  0.00    +0.000 A 
ATOM      7  C   UNL     1     -12.867  56.176  49.495  0.00  0.00    +0.000 A 
ATOM      8  C   UNL     1     -11.907  56.009  47.269  0.00  0.00    +0.000 A 
ATOM      9  C   UNL     1     -13.954  56.864  48.929  0.00  0.00    +0.000 A 
ATOM     10  C   UNL     1     -13.010  56.663  46.722  0.00  0.00    +0.000 A 
ATOM     11  C   UNL     1     -14.031  57.094  47.554  0.00  0.00    +0.000 A 
ENDROOT
BRANCH   1  17
ATOM     12  S   UNL     1      -7.703  52.368  51.503  0.00  0.00    +0.000 S 
ATOM     13  O   UNL     1      -6.735  52.178  50.440  0.00  0.00    +0.000 OA
ATOM     14  O   UNL     1      -8.184  51.234  52.267  0.00  0.00    +0.000 OA
ATOM     15  N   UNL     1      -8.990  53.122  50.867  0.00  0.00    +0.000 N 
ATOM     16  C   UNL     1      -6.948  53.446  52.664  0.00  0.00    +0.000 A 
ATOM     17  C   UNL     1      -9.253  54.362  51.154  0.00  0.00    +0.000 C 
ATOM     18  C   UNL     1      -7.441  54.736  52.763  0.00  0.00    +0.000 A 
ATOM     19  C   UNL     1      -5.893  52.991  53.462  0.00  0.00    +0.000 A 
ATOM     20  N   UNL     1      -8.488  55.180  51.960  0.00  0.00    +0.000 N 
ATOM     21  C   UNL     1      -6.804  55.620  53.642  0.00  0.00    +0.000 A 
ATOM     22  C   UNL     1      -5.293  53.872  54.359  0.00  0.00    +0.000 A 
ATOM     23  C   UNL     1      -5.742  55.190  54.441  0.00  0.00    +0.000 A 
ATOM     24  H   UNL     1      -9.584  52.631  50.253  0.00  0.00    +0.000 HD
ATOM     25  H   UNL     1      -8.697  56.141  51.968  0.00  0.00    +0.000 HD
ENDBRANCH   1  17
BRANCH   3  26
ATOM     26  O   UNL     1      -9.666  54.744  48.299  0.00  0.00    +0.000 OA
ATOM     27  H   UNL     1      -9.222  53.924  48.386  0.00  0.00    +0.000 HD
ENDBRANCH   3  26
BRANCH   5  28
ATOM     28  C   UNL     1     -13.860  56.301  51.814  0.00  0.00    +0.000 C 
BRANCH  28  29
ATOM     29  C   UNL     1     -13.731  57.683  52.470  0.00  0.00    +0.000 C 
BRANCH  29  30
ATOM     30  C   UNL     1     -15.027  58.490  52.557  0.00  0.00    +0.000 C 
BRANCH  30  31
ATOM     31  C   UNL     1     -15.240  59.243  51.237  0.00  0.00    +0.000 C 
ATOM     32  C   UNL     1     -13.955  59.828  50.682  0.00  0.00    +0.000 C 
ENDBRANCH  30  31
ENDBRANCH  29  30
ENDBRANCH  28  29
ENDBRANCH   5  28
TORSDOF 6
ENDMDL
MODEL 7
REMARK VINA RESULT:      -7.3      2.290      8.040
REMARK  Name = 338043
REMARK  7 active torsions:
REMARK  status: ('A' for Active; 'I' for Inactive)
REMARK    1  A    between atoms: C_6  and  C_10
REMARK    2  A    between atoms: C_14  and  O_18
REMARK    3  A    between atoms: N_17  and  C_21
REMARK    4  A    between atoms: C_21  and  C_24
REMARK    5  A    between atoms: C_24  and  C_27
REMARK    6  A    between atoms: C_27  and  C_28
REMARK    7  A    between atoms: C_28  and  C_29
REMARK                            x       y       z     vdW  Elec       q    Type
REMARK                         _______ _______ _______ _____ _____    ______ ____
ROOT
ATOM      1  C   UNL     1     -10.135  54.514  52.142  0.00  0.00    +0.000 A 
ATOM      2  C   UNL     1      -8.729  55.020  52.091  0.00  0.00    +0.000 A 
ATOM      3  C   UNL     1     -10.425  53.409  52.851  0.00  0.00    +0.000 A 
ATOM      4  O   UNL     1      -8.518  56.095  51.517  0.00  0.00    +0.000 OA
ATOM      5  N   UNL     1      -7.724  54.279  52.704  0.00  0.00    +0.000 N 
ATOM      6  C   UNL     1      -9.374  52.706  53.599  0.00  0.00    +0.000 A 
ATOM      7  C   UNL     1      -8.043  53.159  53.535  0.00  0.00    +0.000 A 
ATOM      8  C   UNL     1      -9.689  51.599  54.407  0.00  0.00    +0.000 A 
ATOM      9  C   UNL     1      -7.074  52.510  54.319  0.00  0.00    +0.000 A 
ATOM     10  C   UNL     1      -8.707  50.947  55.151  0.00  0.00    +0.000 A 
ATOM     11  C   UNL     1      -7.400  51.407  55.110  0.00  0.00    +0.000 A 
ENDROOT
BRANCH   1  17
ATOM     12  S   UNL     1     -13.479  56.497  51.552  0.00  0.00    +0.000 S 
ATOM     13  O   UNL     1     -13.399  57.874  51.997  0.00  0.00    +0.000 OA
ATOM     14  O   UNL     1     -14.674  55.715  51.802  0.00  0.00    +0.000 OA
ATOM     15  N   UNL     1     -12.220  55.699  52.190  0.00  0.00    +0.000 N 
ATOM     16  C   UNL     1     -13.285  56.535  49.808  0.00  0.00    +0.000 A 
ATOM     17  C   UNL     1     -11.229  55.304  51.447  0.00  0.00    +0.000 C 
ATOM     18  C   UNL     1     -12.106  56.036  49.279  0.00  0.00    +0.000 A 
ATOM     19  C   UNL     1     -14.305  57.045  48.999  0.00  0.00    +0.000 A 
ATOM     20  N   UNL     1     -11.095  55.536  50.095  0.00  0.00    +0.000 N 
ATOM     21  C   UNL     1     -11.917  56.121  47.895  0.00  0.00    +0.000 A 
ATOM     22  C   UNL     1     -14.118  57.088  47.619  0.00  0.00    +0.000 A 
ATOM     23  C   UNL     1     -12.919  56.636  47.068  0.00  0.00    +0.000 A 
ATOM     24  H   UNL     1     -12.207  55.510  53.156  0.00  0.00    +0.000 HD
ATOM     25  H   UNL     1     -10.227  55.335  49.678  0.00  0.00    +0.000 HD
ENDBRANCH   1  17
BRANCH   3  26
ATOM     26  O   UNL     1     -11.696  52.877  52.985  0.00  0.00    +0.000 OA
ATOM     27  H   UNL     1     -12.416  53.261  52.523  0.00  0.00    +0.000 HD
ENDBRANCH   3  26
BRANCH   5  28
ATOM     28  C   UNL     1      -6.346  54.769  52.583  0.00  0.00    +0.000 C 
BRANCH  28  29
ATOM     29  C   UNL     1      -5.595  54.373  51.304  0.00  0.00    +0.000 C 
BRANCH  29  30
ATOM     30  C   UNL     1      -5.058  52.941  51.277  0.00  0.00    +0.000 C 
BRANCH  30  31
ATOM     31  C   UNL     1      -5.942  52.089  50.357  0.00  0.00    +0.000 C 
ATOM     32  C   UNL     1      -6.529  50.881  51.064  0.00  0.00    +0.000 C 
ENDBRANCH  30  31
ENDBRANCH  29  30
ENDBRANCH  28  29
ENDBRANCH   5  28
TORSDOF 6
ENDMDL
MODEL 8
REMARK VINA RESULT:      -7.2      3.574      6.783
REMARK  Name = 338043
REMARK  7 active torsions:
REMARK  status: ('A' for Active; 'I' for Inactive)
REMARK    1  A    between atoms: C_6  and  C_10
REMARK    2  A    between atoms: C_14  and  O_18
REMARK    3  A    between atoms: N_17  and  C_21
REMARK    4  A    between atoms: C_21  and  C_24
REMARK    5  A    between atoms: C_24  and  C_27
REMARK    6  A    between atoms: C_27  and  C_28
REMARK    7  A    between atoms: C_28  and  C_29
REMARK                            x       y       z     vdW  Elec       q    Type
REMARK                         _______ _______ _______ _____ _____    ______ ____
ROOT
ATOM      1  C   UNL     1     -11.083  54.572  48.308  0.00  0.00    +0.000 A 
ATOM      2  C   UNL     1     -10.732  54.160  49.702  0.00  0.00    +0.000 A 
ATOM      3  C   UNL     1     -12.073  55.458  48.099  0.00  0.00    +0.000 A 
ATOM      4  O   UNL     1      -9.750  53.426  49.861  0.00  0.00    +0.000 OA
ATOM      5  N   UNL     1     -11.504  54.632  50.758  0.00  0.00    +0.000 N 
ATOM      6  C   UNL     1     -12.798  56.046  49.233  0.00  0.00    +0.000 A 
ATOM      7  C   UNL     1     -12.493  55.644  50.547  0.00  0.00    +0.000 A 
ATOM      8  C   UNL     1     -13.778  57.033  49.022  0.00  0.00    +0.000 A 
ATOM      9  C   UNL     1     -13.153  56.278  51.614  0.00  0.00    +0.000 A 
ATOM     10  C   UNL     1     -14.446  57.626  50.092  0.00  0.00    +0.000 A 
ATOM     11  C   UNL     1     -14.129  57.251  51.388  0.00  0.00    +0.000 A 
ENDROOT
BRANCH   1  17
ATOM     12  S   UNL     1      -8.101  54.050  45.799  0.00  0.00    +0.000 S 
ATOM     13  O   UNL     1      -7.059  53.198  46.337  0.00  0.00    +0.000 OA
ATOM     14  O   UNL     1      -7.757  55.239  45.043  0.00  0.00    +0.000 OA
ATOM     15  N   UNL     1      -9.054  54.501  47.030  0.00  0.00    +0.000 N 
ATOM     16  C   UNL     1      -9.041  53.043  44.710  0.00  0.00    +0.000 A 
ATOM     17  C   UNL     1     -10.262  54.034  47.151  0.00  0.00    +0.000 C 
ATOM     18  C   UNL     1     -10.323  52.694  45.099  0.00  0.00    +0.000 A 
ATOM     19  C   UNL     1      -8.497  52.632  43.489  0.00  0.00    +0.000 A 
ATOM     20  N   UNL     1     -10.851  53.105  46.319  0.00  0.00    +0.000 N 
ATOM     21  C   UNL     1     -11.055  51.840  44.266  0.00  0.00    +0.000 A 
ATOM     22  C   UNL     1      -9.252  51.813  42.653  0.00  0.00    +0.000 A 
ATOM     23  C   UNL     1     -10.528  51.409  43.047  0.00  0.00    +0.000 A 
ATOM     24  H   UNL     1      -8.712  55.139  47.697  0.00  0.00    +0.000 HD
ATOM     25  H   UNL     1     -11.704  52.707  46.608  0.00  0.00    +0.000 HD
ENDBRANCH   1  17
BRANCH   3  26
ATOM     26  O   UNL     1     -12.454  55.925  46.854  0.00  0.00    +0.000 OA
ATOM     27  H   UNL     1     -13.349  55.860  46.582  0.00  0.00    +0.000 HD
ENDBRANCH   3  26
BRANCH   5  28
ATOM     28  C   UNL     1     -11.174  54.160  52.108  0.00  0.00    +0.000 C 
BRANCH  28  29
ATOM     29  C   UNL     1     -10.224  55.048  52.923  0.00  0.00    +0.000 C 
BRANCH  29  30
ATOM     30  C   UNL     1      -8.893  54.401  53.311  0.00  0.00    +0.000 C 
BRANCH  30  31
ATOM     31  C   UNL     1      -8.103  55.369  54.202  0.00  0.00    +0.000 C 
ATOM     32  C   UNL     1      -6.924  55.998  53.482  0.00  0.00    +0.000 C 
ENDBRANCH  30  31
ENDBRANCH  29  30
ENDBRANCH  28  29
ENDBRANCH   5  28
TORSDOF 6
ENDMDL
MODEL 9
REMARK VINA RESULT:      -7.2      3.072      7.474
REMARK  Name = 338043
REMARK  7 active torsions:
REMARK  status: ('A' for Active; 'I' for Inactive)
REMARK    1  A    between atoms: C_6  and  C_10
REMARK    2  A    between atoms: C_14  and  O_18
REMARK    3  A    between atoms: N_17  and  C_21
REMARK    4  A    between atoms: C_21  and  C_24
REMARK    5  A    between atoms: C_24  and  C_27
REMARK    6  A    between atoms: C_27  and  C_28
REMARK    7  A    between atoms: C_28  and  C_29
REMARK                            x       y       z     vdW  Elec       q    Type
REMARK                         _______ _______ _______ _____ _____    ______ ____
ROOT
ATOM      1  C   UNL     1     -10.693  55.697  48.473  0.00  0.00    +0.000 A 
ATOM      2  C   UNL     1      -9.294  55.545  48.978  0.00  0.00    +0.000 A 
ATOM      3  C   UNL     1     -11.032  55.193  47.273  0.00  0.00    +0.000 A 
ATOM      4  O   UNL     1      -9.046  55.927  50.127  0.00  0.00    +0.000 OA
ATOM      5  N   UNL     1      -8.338  54.967  48.150  0.00  0.00    +0.000 N 
ATOM      6  C   UNL     1     -10.042  54.472  46.461  0.00  0.00    +0.000 A 
ATOM      7  C   UNL     1      -8.716  54.349  46.916  0.00  0.00    +0.000 A 
ATOM      8  C   UNL     1     -10.413  53.874  45.244  0.00  0.00    +0.000 A 
ATOM      9  C   UNL     1      -7.811  53.591  46.152  0.00  0.00    +0.000 A 
ATOM     10  C   UNL     1      -9.493  53.154  44.484  0.00  0.00    +0.000 A 
ATOM     11  C   UNL     1      -8.193  53.009  44.942  0.00  0.00    +0.000 A 
ENDROOT
BRANCH   1  17
ATOM     12  S   UNL     1     -13.345  56.213  51.330  0.00  0.00    +0.000 S 
ATOM     13  O   UNL     1     -12.735  56.485  52.617  0.00  0.00    +0.000 OA
ATOM     14  O   UNL     1     -14.488  55.325  51.235  0.00  0.00    +0.000 OA
ATOM     15  N   UNL     1     -12.189  55.642  50.348  0.00  0.00    +0.000 N 
ATOM     16  C   UNL     1     -13.886  57.762  50.708  0.00  0.00    +0.000 A 
ATOM     17  C   UNL     1     -11.731  56.356  49.362  0.00  0.00    +0.000 C 
ATOM     18  C   UNL     1     -13.204  58.297  49.628  0.00  0.00    +0.000 A 
ATOM     19  C   UNL     1     -14.979  58.410  51.291  0.00  0.00    +0.000 A 
ATOM     20  N   UNL     1     -12.113  57.645  49.059  0.00  0.00    +0.000 N 
ATOM     21  C   UNL     1     -13.588  59.561  49.166  0.00  0.00    +0.000 A 
ATOM     22  C   UNL     1     -15.374  59.651  50.796  0.00  0.00    +0.000 A 
ATOM     23  C   UNL     1     -14.672  60.231  49.740  0.00  0.00    +0.000 A 
ATOM     24  H   UNL     1     -11.826  54.739  50.501  0.00  0.00    +0.000 HD
ATOM     25  H   UNL     1     -11.579  58.138  48.396  0.00  0.00    +0.000 HD
ENDBRANCH   1  17
BRANCH   3  26
ATOM     26  O   UNL     1     -12.303  55.254  46.730  0.00  0.00    +0.000 OA
ATOM     27  H   UNL     1     -12.931  55.859  47.073  0.00  0.00    +0.000 HD
ENDBRANCH   3  26
BRANCH   5  28
ATOM     28  C   UNL     1      -6.960  54.890  48.649  0.00  0.00    +0.000 C 
BRANCH  28  29
ATOM     29  C   UNL     1      -6.617  53.664  49.507  0.00  0.00    +0.000 C 
BRANCH  29  30
ATOM     30  C   UNL     1      -6.041  53.973  50.890  0.00  0.00    +0.000 C 
BRANCH  30  31
ATOM     31  C   UNL     1      -4.508  53.964  50.811  0.00  0.00    +0.000 C 
ATOM     32  C   UNL     1      -3.851  54.044  52.176  0.00  0.00    +0.000 C 
ENDBRANCH  30  31
ENDBRANCH  29  30
ENDBRANCH  28  29
ENDBRANCH   5  28
TORSDOF 6
ENDMDL
